AV-unprocessed.smi:1487|AV-procd|sdf|6018|dock3
  -GOLD-   22720 6123D 1   1.00000     0.00000
 Structure written by MMmdl.
 49 51  0  0  0  0  0  0  0  0  3 V2000
  146.0228  129.6414  151.2026 C   0  0  0  0  0  0  0  0  0  0  0  0
  145.8701  131.1518  151.2624 C   0  0  0  0  0  0  0  0  0  0  0  0
  145.1210  131.7939  150.2508 C   0  0  0  0  0  0  0  0  0  0  0  0
  144.9965  133.1754  150.3343 C   0  0  0  0  0  0  0  0  0  0  0  0
  144.3323  134.0856  149.5093 N   0  3  0  0  0  0  0  0  0  0  0  0
  144.4922  135.3451  150.0014 C   0  0  0  0  0  0  0  0  0  0  0  0
  145.2509  135.2524  151.1275 N   0  0  0  0  0  0  0  0  0  0  0  0
  145.7204  136.3066  152.0368 C   0  0  0  0  0  0  0  0  0  0  0  0
  144.5675  137.0493  152.7417 C   0  0  1  0  0  0  0  0  0  0  0  0
  143.5402  136.1220  153.0402 O   0  0  0  0  0  0  0  0  0  0  0  0
  145.0415  137.7132  154.0505 C   0  0  0  0  0  0  0  0  0  0  0  0
  145.6656  139.0431  153.8286 N   0  3  2  0  0  0  0  0  0  0  0  0
  146.8420  138.9997  152.9206 C   0  0  0  0  0  0  0  0  0  0  0  0
  147.3319  140.4185  152.5907 C   0  0  0  0  0  0  0  0  0  0  0  0
  147.6680  141.1969  153.8709 C   0  0  0  0  0  0  0  0  0  0  0  0
  146.4877  141.1751  154.8564 C   0  0  1  0  0  0  0  0  0  0  0  0
  145.4268  141.9773  154.3761 O   0  0  0  0  0  0  0  0  0  0  0  0
  145.9791  139.7414  155.1033 C   0  0  0  0  0  0  0  0  0  0  0  0
  145.5881  133.9176  151.3749 C   0  0  0  0  0  0  0  0  0  0  0  0
  146.3320  133.3016  152.3784 C   0  0  0  0  0  0  0  0  0  0  0  0
  146.4678  131.8961  152.3128 C   0  0  0  0  0  0  0  0  0  0  0  0
  147.2680  131.1938  153.3967 C   0  0  0  0  0  0  0  0  0  0  0  0
  145.4882  129.2200  150.3507 H   0  0  0  0  0  0  0  0  0  0  0  0
  145.6252  129.1795  152.1065 H   0  0  0  0  0  0  0  0  0  0  0  0
  147.0733  129.3663  151.1057 H   0  0  0  0  0  0  0  0  0  0  0  0
  144.6634  131.2337  149.4483 H   0  0  0  0  0  0  0  0  0  0  0  0
  144.0939  136.2539  149.5731 H   0  0  0  0  0  0  0  0  0  0  0  0
  146.3711  135.8326  152.7732 H   0  0  0  0  0  0  0  0  0  0  0  0
  146.3469  136.9987  151.4728 H   0  0  0  0  0  0  0  0  0  0  0  0
  144.1641  137.7949  152.0572 H   0  0  0  0  0  0  0  0  0  0  0  0
  142.9299  136.5203  153.6416 H   0  0  0  0  0  0  0  0  0  0  0  0
  144.1812  137.8130  154.7143 H   0  0  0  0  0  0  0  0  0  0  0  0
  145.7506  137.0687  154.5722 H   0  0  0  0  0  0  0  0  0  0  0  0
  147.6434  138.4242  153.3868 H   0  0  0  0  0  0  0  0  0  0  0  0
  146.5888  138.4892  151.9922 H   0  0  0  0  0  0  0  0  0  0  0  0
  148.2096  140.3692  151.9456 H   0  0  0  0  0  0  0  0  0  0  0  0
  146.5641  140.9487  152.0255 H   0  0  0  0  0  0  0  0  0  0  0  0
  148.5380  140.7418  154.3461 H   0  0  0  0  0  0  0  0  0  0  0  0
  147.9515  142.2225  153.6312 H   0  0  0  0  0  0  0  0  0  0  0  0
  146.8063  141.6080  155.8054 H   0  0  0  0  0  0  0  0  0  0  0  0
  144.7768  141.4142  153.9830 H   0  0  0  0  0  0  0  0  0  0  0  0
  145.0948  139.7746  155.7415 H   0  0  0  0  0  0  0  0  0  0  0  0
  146.7344  139.1689  155.6446 H   0  0  0  0  0  0  0  0  0  0  0  0
  146.7858  133.8678  153.1780 H   0  0  0  0  0  0  0  0  0  0  0  0
  147.6859  131.9049  154.1097 H   0  0  0  0  0  0  0  0  0  0  0  0
  148.0965  130.6342  152.9616 H   0  0  0  0  0  0  0  0  0  0  0  0
  146.6343  130.5005  153.9504 H   0  0  0  0  0  0  0  0  0  0  0  0
  144.9655  139.6130  153.3758 H   0  0  0  0  0  0  0  0  0  0  0  0
  143.8078  133.8665  148.6719 H   0  0  0  0  0  0  0  0  0  0  0  0
  1  2  1  0  0  0  0
  1 23  1  0  0  0  0
  1 24  1  0  0  0  0
  1 25  1  0  0  0  0
  2 21  1  0  0  0  0
  2  3  2  0  0  0  0
  3  4  1  0  0  0  0
  3 26  1  0  0  0  0
  4 19  2  0  0  0  0
  4  5  1  0  0  0  0
  5  6  2  0  0  0  0
  5 49  1  0  0  0  0
  6  7  1  0  0  0  0
  6 27  1  0  0  0  0
  7  8  1  0  0  0  0
  7 19  1  0  0  0  0
  8  9  1  0  0  0  0
  8 28  1  0  0  0  0
  8 29  1  0  0  0  0
  9 10  1  0  0  0  0
  9 11  1  0  0  0  0
  9 30  1  0  0  0  0
 10 31  1  0  0  0  0
 11 12  1  0  0  0  0
 11 32  1  0  0  0  0
 11 33  1  0  0  0  0
 12 18  1  0  0  0  0
 12 13  1  0  0  0  0
 12 48  1  0  0  0  0
 13 14  1  0  0  0  0
 13 34  1  0  0  0  0
 13 35  1  0  0  0  0
 14 15  1  0  0  0  0
 14 36  1  0  0  0  0
 14 37  1  0  0  0  0
 15 16  1  0  0  0  0
 15 38  1  0  0  0  0
 15 39  1  0  0  0  0
 16 17  1  0  0  0  0
 16 18  1  0  0  0  0
 16 40  1  0  0  0  0
 17 41  1  0  0  0  0
 18 42  1  0  0  0  0
 18 43  1  0  0  0  0
 19 20  1  0  0  0  0
 20 21  2  0  0  0  0
 20 44  1  0  0  0  0
 21 22  1  0  0  0  0
 22 45  1  0  0  0  0
 22 46  1  0  0  0  0
 22 47  1  0  0  0  0
M  CHG  1   5   1
M  CHG  1  12   1
M  END
> <s_m_source_file>
AV-unprocessed.smi

> <i_m_source_file_index>
1487

> <i_lp_mmshare_version>
43012

> <i_f3d_flags>
0

> <s_epik_input>
W0NIM11jKFtjSF0xKWMoW0NIM10pW2NIXWMoYzEyKW4oW2NIXW4yKVtDSDJdW0NASF0oW09IXSlbQ0gyXU4zW0NIMl1bQ0gyXVtDSDJdW0NAQEhdKFtPSF0pW0NIMl0z

> <s_epik_cmdline>
J2VwaWtfcHl0aG9uJywgJy1waCcsICc3LjAnLCAnLXRuJywgJzgnLCAnLW1hJywgJzIwMCcsICctbWV0YWxfYmluZGluZycsICctaW1hZScsICc8aW5maWxlLm1hZT4nLCAnLW9tYWUnLCAnPG91dGZpbGUubWFlPic=

> <r_epik_Ionization_Penalty>
1.1857

> <r_epik_Ionization_Penalty_Charging>
1.1857

> <r_epik_Ionization_Penalty_Neutral>
1.75578e-06

> <r_epik_State_Penalty>
1.26953

> <r_epik_Charging_Adjusted_Penalty>
2.45524

> <i_epik_Tot_Q>
2

> <i_epik_Tot_abs_Q>
2

> <r_epik_Metal_State_Penalty>
5.28243

> <b_epik_Metal_Only>
0

> <s_lp_Force_Field>
OPLS_2005

> <r_lp_Energy>
32.3445

> <b_lp_Chiralities_Consistent>
1

> <s_lp_Variant>
AV-unprocessed.smi:1487-12

> <Gold.Version>
5.8.1

> <Gold.Id.Protein>
6NUR|6NUR_protein|mol2

> <Gold.PLP.Fitness>
49.1818

> <Gold.PLP.PLP>
-38.1825

> <Gold.PLP.part.hbond>
-3.3829

> <Gold.PLP.part.metal>
0.0000

> <Gold.PLP.part.buried>
-3.9019

> <Gold.PLP.part.nonpolar>
-31.4792

> <Gold.PLP.part.repulsive>
0.0719

> <Gold.PLP.ligand.clash>
0.0000

> <Gold.PLP.ligand.torsion>
0.5146

> <Gold.PLP.Chemscore.Hbond>
2.9913

> <Gold.PLP.Chemscore.CHOScore>
1.0000

> <Gold.PLP.Chemscore.Metal>
0.0000

> <Gold.Chemscore.Hbonds>
donor molecule, donor type, donor heavy atom, donor atom, acceptor molecule, acceptor atom, score
      L1  H    12    48       P1 10175  2.00
      L1  H    17    41       P1 10175  0.93
      L1  C     6    27       P1 10171  1.00

> <Gold.PLP.Chemscore.Internal.Correction>
0.0549

> <Gold.Rescore>
     Score         DG    S(hbond)    S(metal)    S(lipo)     H(rot)  DE(clash)    DE(int)     intcor
     13.73     -15.05       1.43        0.00     100.79       2.74       0.74       0.58       ----

> <Gold.Chemscore.Fitness>
13.7303

> <Gold.Chemscore.DG>
-15.0535

> <Gold.Chemscore.ZeroCoef>
-5.4800

> <Gold.Chemscore.Hbond>
1.4345

> <Gold.Chemscore.Metal>
0.0000

> <Gold.Chemscore.Lipo>
100.7911

> <Gold.Chemscore.Internal_Hbond>
0.0000

> <Gold.Chemscore.DEClash>
0.7428

> <Gold.Chemscore.DEInternal>
0.5805

> <Gold.Chemscore.Rot>
2.7384

> <Gold.Chemscore.Internal.Correction>
   9.000000E+99

> <Gold.Chemscore.Hbonds>
donor molecule, donor type, donor heavy atom, donor atom, acceptor molecule, acceptor atom, score
      L1  H    12    48       P1 10175  1.00
      L1  H    17    41       P1 10175  0.30

> <Gold.Chemscore.Hbond.Weighted>
-4.7913

> <Gold.Chemscore.Metal.Weighted>
-0.0000

> <Gold.Chemscore.Lipo.Weighted>
-11.7926

> <Gold.Chemscore.Internal_Hbond.Weighted>
0.0000

> <Gold.Chemscore.DEClash.Weighted>
0.7428

> <Gold.Chemscore.DEInternal.Weighted>
0.5805

> <Gold.Chemscore.Rot.Weighted>
7.0103

> <Gold.Chemscore.Internal.Correction.Weighted>
   9.000000E+99

> <Gold.Protein.RotatedTorsions>
[ 6907 6896 6895 6894 ] final  133.96 input  -60.11 | X-H torsion
[ 7974 7965 7964 7962 ] final -120.68 input  175.53 | X-H torsion
[ 8008 7997 7996 7995 ] final  160.26 input   59.86 | X-H torsion
[ 10167 10162 10161 10158 ] final -143.65 input  -65.29 | X-H torsion
[ 10718 10713 10712 10709 ] final  158.47 input   66.30 | X-H torsion
[ 10763 10752 10751 10750 ] final   44.36 input  -60.55 | X-H torsion
[ 11005 11000 10999 10996 ] final  104.15 input  -57.11 | X-H torsion

> <Gold.Protein.ActiveResidues>
 VAL166  LYS551  ARG553  GLY616  TRP617  ASP618  TYR619  PRO620  LYS621  CYS622 
 ASP623  PHE694  ASN695  SER759  ASP760  ASP761  ALA762  ILE779  LEU786  VAL792 
 PHE793  MET794  SER795  GLU796  ALA797  LYS798  CYS799  TRP800  GLU811  SER814 

> <Gold.Protein.RotatedAtoms>
  152.3164  133.5807  159.5715 H   0  0  0  0  0  0  0  0  0  0  0  0  # atno 6907 bound_to 6896
  150.7349  134.0076  159.3667 H   0  0  0  0  0  0  0  0  0  0  0  0  # atno 6908 bound_to 6896
  151.7964  135.0722  160.0445 H   0  0  0  0  0  0  0  0  0  0  0  0  # atno 6909 bound_to 6896
  145.0487  140.8201  143.4222 H   0  0  0  0  0  0  0  0  0  0  0  0  # atno 7974 bound_to 7965
  156.2184  140.1809  156.7535 H   0  0  0  0  0  0  0  0  0  0  0  0  # atno 8008 bound_to 7997
  154.5827  140.0663  156.9156 H   0  0  0  0  0  0  0  0  0  0  0  0  # atno 8009 bound_to 7997
  155.2474  140.3326  155.4288 H   0  0  0  0  0  0  0  0  0  0  0  0  # atno 8010 bound_to 7997
  139.7973  143.7882  152.2655 H   0  0  0  0  0  0  0  0  0  0  0  0  # atno 10167 bound_to 10162
  157.1775  131.0624  151.2150 H   0  0  0  0  0  0  0  0  0  0  0  0  # atno 10718 bound_to 10713
  152.9842  135.6073  154.3261 H   0  0  0  0  0  0  0  0  0  0  0  0  # atno 10763 bound_to 10752
  154.2968  135.2773  155.2631 H   0  0  0  0  0  0  0  0  0  0  0  0  # atno 10764 bound_to 10752
  154.4902  135.5894  153.6510 H   0  0  0  0  0  0  0  0  0  0  0  0  # atno 10765 bound_to 10752
  139.8789  134.9290  156.5317 H   0  0  0  0  0  0  0  0  0  0  0  0  # atno 11005 bound_to 11000
  145.1555  139.2489  143.5419 LP  0  0  0  0  0  0  0  0  0  0  0  0  # atno 17320 bound_to 7965
  146.3516  140.1268  142.8598 LP  0  0  0  0  0  0  0  0  0  0  0  0  # atno 17321 bound_to 7965
  139.7992  144.7381  150.9848 LP  0  0  0  0  0  0  0  0  0  0  0  0  # atno 17342 bound_to 10162
  140.7820  143.4363  151.0619 LP  0  0  0  0  0  0  0  0  0  0  0  0  # atno 17343 bound_to 10162
  157.3985  130.7320  149.6749 LP  0  0  0  0  0  0  0  0  0  0  0  0  # atno 17370 bound_to 10713
  155.9729  130.4127  150.4046 LP  0  0  0  0  0  0  0  0  0  0  0  0  # atno 17371 bound_to 10713
  140.8375  133.8231  155.9043 LP  0  0  0  0  0  0  0  0  0  0  0  0  # atno 17394 bound_to 11000
  140.9269  134.2071  157.4890 LP  0  0  0  0  0  0  0  0  0  0  0  0  # atno 17395 bound_to 11000

$$$$
