AV-unprocessed.smi:3149|AV-procd|sdf|12001|dock8
  -GOLD-   2272017403D 1   1.00000     0.00000
 Structure written by MMmdl.
 38 39  0  0  0  0  0  0  0  0  2 V2000
  145.5937  136.1580  150.9689 C   0  0  0  0  0  0  0  0  0  0  0  0
  145.4928  135.5490  152.3838 C   0  0  2  0  0  0  0  0  0  0  0  0
  146.8342  135.1476  152.8665 N   0  3  0  0  0  0  0  0  0  0  0  0
  146.9544  134.9594  154.3281 C   0  0  0  0  0  0  0  0  0  0  0  0
  148.3479  134.4563  154.7169 C   0  0  0  0  0  0  0  0  0  0  0  0
  149.0088  135.0422  155.5753 O   0  0  0  0  0  0  0  0  0  0  0  0
  148.8691  133.3819  153.9928 N   0  0  0  0  0  0  0  0  0  0  0  0
  149.7163  132.3784  154.6201 C   0  0  0  0  0  0  0  0  0  0  0  0
  149.1368  131.4027  153.5907 C   0  0  0  0  0  0  0  0  0  0  0  0
  147.9941  132.3994  153.3710 C   0  0  0  0  0  0  0  0  0  0  0  0
  144.5284  134.3342  152.4524 C   0  0  1  0  0  0  0  0  0  0  0  0
  143.0527  134.7591  152.5856 C   0  0  0  0  0  0  0  0  0  0  0  0
  144.6884  133.4365  151.3152 N   0  0  0  0  0  0  0  0  0  0  0  0
  143.7287  133.0158  150.4173 C   0  0  0  0  0  0  0  0  0  0  0  0
  144.3395  132.1783  149.5289 C   0  0  0  0  0  0  0  0  0  0  0  0
  145.6929  132.1496  149.9658 C   0  0  0  0  0  0  0  0  0  0  0  0
  145.8993  132.9034  151.0336 N   0  0  0  0  0  0  0  0  0  0  0  0
  144.6304  136.5272  150.6171 H   0  0  0  0  0  0  0  0  0  0  0  0
  145.9494  135.4224  150.2469 H   0  0  0  0  0  0  0  0  0  0  0  0
  146.2757  137.0073  150.9404 H   0  0  0  0  0  0  0  0  0  0  0  0
  145.1080  136.3174  153.0565 H   0  0  0  0  0  0  0  0  0  0  0  0
  147.0577  134.2591  152.4407 H   0  0  0  0  0  0  0  0  0  0  0  0
  146.7511  135.9016  154.8369 H   0  0  0  0  0  0  0  0  0  0  0  0
  146.2154  134.2324  154.6669 H   0  0  0  0  0  0  0  0  0  0  0  0
  150.7850  132.5676  154.5137 H   0  0  0  0  0  0  0  0  0  0  0  0
  149.4286  132.1394  155.6458 H   0  0  0  0  0  0  0  0  0  0  0  0
  149.7719  131.2723  152.7125 H   0  0  0  0  0  0  0  0  0  0  0  0
  148.8222  130.4459  154.0087 H   0  0  0  0  0  0  0  0  0  0  0  0
  147.1039  132.1683  153.9598 H   0  0  0  0  0  0  0  0  0  0  0  0
  147.7661  132.6069  152.3249 H   0  0  0  0  0  0  0  0  0  0  0  0
  144.7836  133.7542  153.3412 H   0  0  0  0  0  0  0  0  0  0  0  0
  142.8773  135.3224  153.5023 H   0  0  0  0  0  0  0  0  0  0  0  0
  142.3967  133.8884  152.6125 H   0  0  0  0  0  0  0  0  0  0  0  0
  142.7384  135.3839  151.7487 H   0  0  0  0  0  0  0  0  0  0  0  0
  142.7010  133.3412  150.4853 H   0  0  0  0  0  0  0  0  0  0  0  0
  143.8884  131.6647  148.6928 H   0  0  0  0  0  0  0  0  0  0  0  0
  146.5254  131.6071  149.5424 H   0  0  0  0  0  0  0  0  0  0  0  0
  147.5165  135.8257  152.5589 H   0  0  0  0  0  0  0  0  0  0  0  0
  1  2  1  0  0  0  0
  1 18  1  0  0  0  0
  1 19  1  0  0  0  0
  1 20  1  0  0  0  0
  2  3  1  0  0  0  0
  2 11  1  0  0  0  0
  2 21  1  0  0  0  0
  3  4  1  0  0  0  0
  3 22  1  0  0  0  0
  3 38  1  0  0  0  0
  4  5  1  0  0  0  0
  4 23  1  0  0  0  0
  4 24  1  0  0  0  0
  5  6  2  0  0  0  0
  5  7  1  0  0  0  0
  7 10  1  0  0  0  0
  7  8  1  0  0  0  0
  8  9  1  0  0  0  0
  8 25  1  0  0  0  0
  8 26  1  0  0  0  0
  9 10  1  0  0  0  0
  9 27  1  0  0  0  0
  9 28  1  0  0  0  0
 10 29  1  0  0  0  0
 10 30  1  0  0  0  0
 11 12  1  0  0  0  0
 11 13  1  0  0  0  0
 11 31  1  0  0  0  0
 12 32  1  0  0  0  0
 12 33  1  0  0  0  0
 12 34  1  0  0  0  0
 13 17  1  0  0  0  0
 13 14  1  0  0  0  0
 14 15  2  0  0  0  0
 14 35  1  0  0  0  0
 15 16  1  0  0  0  0
 15 36  1  0  0  0  0
 16 17  2  0  0  0  0
 16 37  1  0  0  0  0
M  CHG  1   3   1
M  END
> <s_m_source_file>
AV-unprocessed.smi

> <i_m_source_file_index>
3149

> <i_lp_mmshare_version>
43012

> <i_f3d_flags>
0

> <s_epik_input>
bjFbY0hdW2NIXVtjSF1uMVtDQEBIXShbQ0gzXSlbQ0BIXShbQ0gzXSlbTkhdW0NIMl1DKD1PKU4yW0NIMl1bQ0gyXVtDSDJdMg==

> <s_epik_cmdline>
J2VwaWtfcHl0aG9uJywgJy1waCcsICc3LjAnLCAnLXRuJywgJzgnLCAnLW1hJywgJzIwMCcsICctbWV0YWxfYmluZGluZycsICctaW1hZScsICc8aW5maWxlLm1hZT4nLCAnLW9tYWUnLCAnPG91dGZpbGUubWFlPic=

> <r_lp_tautomer_probability>
1

> <r_epik_Ionization_Penalty>
0.141739

> <r_epik_Ionization_Penalty_Charging>
0.141731

> <r_epik_Ionization_Penalty_Neutral>
8.82171e-06

> <r_epik_State_Penalty>
0.131043

> <r_epik_Charging_Adjusted_Penalty>
0.272773

> <i_epik_Tot_Q>
1

> <i_epik_Tot_abs_Q>
1

> <r_epik_Metal_State_Penalty>
0.131384

> <b_epik_Metal_Only>
0

> <s_lp_Force_Field>
OPLS_2005

> <r_lp_Energy>
21.3939

> <b_lp_Chiralities_Consistent>
1

> <s_lp_Variant>
AV-unprocessed.smi:3149-3

> <Gold.Version>
5.8.1

> <Gold.Id.Protein>
6NUR|6NUR_protein|mol2

> <Gold.PLP.Fitness>
42.9306

> <Gold.PLP.PLP>
-32.1794

> <Gold.PLP.part.hbond>
-0.9845

> <Gold.PLP.part.metal>
0.0000

> <Gold.PLP.part.buried>
-4.1141

> <Gold.PLP.part.nonpolar>
-28.0342

> <Gold.PLP.part.repulsive>
0.2200

> <Gold.PLP.ligand.clash>
0.0000

> <Gold.PLP.ligand.torsion>
1.0864

> <Gold.PLP.Chemscore.Hbond>
2.0000

> <Gold.PLP.Chemscore.CHOScore>
2.0000

> <Gold.PLP.Chemscore.Metal>
0.0000

> <Gold.Chemscore.Hbonds>
donor molecule, donor type, donor heavy atom, donor atom, acceptor molecule, acceptor atom, score
      L1  H     3    38       P1  7948  2.00
      L1  C    14    35       P1 10186  1.00
      L1  C    16    37       P1 10747  0.71

> <Gold.PLP.Chemscore.Internal.Correction>
0.9241

> <Gold.Rescore>
     Score         DG    S(hbond)    S(metal)    S(lipo)     H(rot)  DE(clash)    DE(int)     intcor
     11.55     -12.66       0.97        0.00      74.34       1.85       0.00       1.10       ----

> <Gold.Chemscore.Fitness>
11.5536

> <Gold.Chemscore.DG>
-12.6615

> <Gold.Chemscore.ZeroCoef>
-5.4800

> <Gold.Chemscore.Hbond>
0.9675

> <Gold.Chemscore.Metal>
0.0000

> <Gold.Chemscore.Lipo>
74.3362

> <Gold.Chemscore.Internal_Hbond>
0.0000

> <Gold.Chemscore.DEClash>
0.0048

> <Gold.Chemscore.DEInternal>
1.1030

> <Gold.Chemscore.Rot>
1.8544

> <Gold.Chemscore.Internal.Correction>
   9.000000E+99

> <Gold.Chemscore.Hbonds>
donor molecule, donor type, donor heavy atom, donor atom, acceptor molecule, acceptor atom, score
      L1  H     3    38       P1  7948  0.95

> <Gold.Chemscore.Hbond.Weighted>
-3.2313

> <Gold.Chemscore.Metal.Weighted>
-0.0000

> <Gold.Chemscore.Lipo.Weighted>
-8.6973

> <Gold.Chemscore.Internal_Hbond.Weighted>
0.0000

> <Gold.Chemscore.DEClash.Weighted>
0.0048

> <Gold.Chemscore.DEInternal.Weighted>
1.1030

> <Gold.Chemscore.Rot.Weighted>
4.7472

> <Gold.Chemscore.Internal.Correction.Weighted>
   9.000000E+99

> <Gold.Protein.RotatedTorsions>
[ 6907 6896 6895 6894 ] final  159.72 input  -60.11 | X-H torsion
[ 7974 7965 7964 7962 ] final -146.34 input  175.53 | X-H torsion
[ 8008 7997 7996 7995 ] final   19.17 input   59.86 | X-H torsion
[ 10167 10162 10161 10158 ] final  132.21 input  -65.29 | X-H torsion
[ 10718 10713 10712 10709 ] final   -0.19 input   66.30 | X-H torsion
[ 10763 10752 10751 10750 ] final -168.64 input  -60.55 | X-H torsion
[ 11005 11000 10999 10996 ] final -167.73 input  -57.11 | X-H torsion

> <Gold.Protein.ActiveResidues>
 VAL166  LYS551  ARG553  GLY616  TRP617  ASP618  TYR619  PRO620  LYS621  CYS622 
 ASP623  PHE694  ASN695  SER759  ASP760  ASP761  ALA762  ILE779  LEU786  VAL792 
 PHE793  MET794  SER795  GLU796  ALA797  LYS798  CYS799  TRP800  GLU811  SER814 

> <Gold.Protein.RotatedAtoms>
  151.9814  133.3759  159.4108 H   0  0  0  0  0  0  0  0  0  0  0  0  # atno 6907 bound_to 6896
  150.6934  134.4035  159.5139 H   0  0  0  0  0  0  0  0  0  0  0  0  # atno 6908 bound_to 6896
  152.1754  134.8798  160.0581 H   0  0  0  0  0  0  0  0  0  0  0  0  # atno 6909 bound_to 6896
  144.8166  140.5468  143.5607 H   0  0  0  0  0  0  0  0  0  0  0  0  # atno 7974 bound_to 7965
  154.9167  140.3021  155.5237 H   0  0  0  0  0  0  0  0  0  0  0  0  # atno 8008 bound_to 7997
  156.3012  140.2379  156.4149 H   0  0  0  0  0  0  0  0  0  0  0  0  # atno 8009 bound_to 7997
  154.8371  140.0415  157.1505 H   0  0  0  0  0  0  0  0  0  0  0  0  # atno 8010 bound_to 7997
  139.5349  144.6672  151.4819 H   0  0  0  0  0  0  0  0  0  0  0  0  # atno 10167 bound_to 10162
  156.8241  130.5466  149.5694 H   0  0  0  0  0  0  0  0  0  0  0  0  # atno 10718 bound_to 10713
  154.6607  135.2924  154.9869 H   0  0  0  0  0  0  0  0  0  0  0  0  # atno 10763 bound_to 10752
  154.0930  135.6588  153.4859 H   0  0  0  0  0  0  0  0  0  0  0  0  # atno 10764 bound_to 10752
  153.0428  135.5224  154.7557 H   0  0  0  0  0  0  0  0  0  0  0  0  # atno 10765 bound_to 10752
  140.5499  134.5438  157.5120 H   0  0  0  0  0  0  0  0  0  0  0  0  # atno 11005 bound_to 11000
  145.5201  139.1477  143.3557 LP  0  0  0  0  0  0  0  0  0  0  0  0  # atno 17320 bound_to 7965
  146.2469  140.5342  142.8910 LP  0  0  0  0  0  0  0  0  0  0  0  0  # atno 17321 bound_to 7965
  140.6550  143.8617  150.6826 LP  0  0  0  0  0  0  0  0  0  0  0  0  # atno 17342 bound_to 10162
  140.1994  143.3971  152.1803 LP  0  0  0  0  0  0  0  0  0  0  0  0  # atno 17343 bound_to 10162
  156.0971  130.5941  150.9833 LP  0  0  0  0  0  0  0  0  0  0  0  0  # atno 17370 bound_to 10713
  157.6441  131.0906  150.8190 LP  0  0  0  0  0  0  0  0  0  0  0  0  # atno 17371 bound_to 10713
  139.9460  134.7701  156.0561 LP  0  0  0  0  0  0  0  0  0  0  0  0  # atno 17394 bound_to 11000
  141.1177  133.6622  156.3136 LP  0  0  0  0  0  0  0  0  0  0  0  0  # atno 17395 bound_to 11000

$$$$
