AV-unprocessed.smi:2213|AV-procd|sdf|8957|dock6
  -GOLD-   2272012173D 1   1.00000     0.00000
 Structure written by MMmdl.
 38 39  0  0  0  0  0  0  0  0  1 V2000
  153.4985  142.9757  162.9893 C   0  0  0  0  0  0  0  0  0  0  0  0
  153.1346  142.5130  161.5898 C   0  0  0  0  0  0  0  0  0  0  0  0
  152.2305  143.3265  160.9004 N   0  0  0  0  0  0  0  0  0  0  0  0
  151.8625  143.0100  159.7019 C   0  0  0  0  0  0  0  0  0  0  0  0
  152.3519  141.8613  159.0592 N   0  0  0  0  0  0  0  0  0  0  0  0
  151.8542  141.6150  157.6958 C   0  0  0  0  0  0  0  0  0  0  0  0
  150.4599  142.2394  157.4630 C   0  0  1  0  0  0  0  0  0  0  0  0
  150.2050  142.3738  156.0793 O   0  0  0  0  0  0  0  0  0  0  0  0
  149.3176  141.4071  158.0689 C   0  0  0  0  0  0  0  0  0  0  0  0
  148.0820  141.7850  157.4742 O   0  0  0  0  0  0  0  0  0  0  0  0
  147.3546  142.8030  158.0541 C   0  0  0  0  0  0  0  0  0  0  0  0
  147.7748  143.5201  159.2035 C   0  0  0  0  0  0  0  0  0  0  0  0
  146.9735  144.5485  159.7369 C   0  0  0  0  0  0  0  0  0  0  0  0
  147.4981  145.4119  161.1355 Cl  0  0  0  0  0  0  0  0  0  0  0  0
  145.7459  144.8733  159.1308 C   0  0  0  0  0  0  0  0  0  0  0  0
  145.3203  144.1684  157.9904 C   0  0  0  0  0  0  0  0  0  0  0  0
  146.1199  143.1393  157.4556 C   0  0  0  0  0  0  0  0  0  0  0  0
  145.5736  142.2874  156.0556 Cl  0  0  0  0  0  0  0  0  0  0  0  0
  153.2267  141.0067  159.6642 C   0  0  0  0  0  0  0  0  0  0  0  0
  153.6332  139.9899  159.0982 O   0  0  0  0  0  0  0  0  0  0  0  0
  153.6402  141.3820  161.0259 C   0  0  0  0  0  0  0  0  0  0  0  0
  154.6259  140.4569  161.7288 C   0  0  0  0  0  0  0  0  0  0  0  0
  154.5704  143.1601  163.0652 H   0  0  0  0  0  0  0  0  0  0  0  0
  153.2210  142.2200  163.7247 H   0  0  0  0  0  0  0  0  0  0  0  0
  152.9809  143.9000  163.2496 H   0  0  0  0  0  0  0  0  0  0  0  0
  151.1545  143.6065  159.1239 H   0  0  0  0  0  0  0  0  0  0  0  0
  152.5585  141.9550  156.9332 H   0  0  0  0  0  0  0  0  0  0  0  0
  151.7957  140.5358  157.5415 H   0  0  0  0  0  0  0  0  0  0  0  0
  150.4131  143.2372  157.9013 H   0  0  0  0  0  0  0  0  0  0  0  0
  149.8274  143.2266  155.9267 H   0  0  0  0  0  0  0  0  0  0  0  0
  149.5058  140.3530  157.8587 H   0  0  0  0  0  0  0  0  0  0  0  0
  149.2880  141.5293  159.1532 H   0  0  0  0  0  0  0  0  0  0  0  0
  148.7101  143.2997  159.6947 H   0  0  0  0  0  0  0  0  0  0  0  0
  145.1307  145.6619  159.5387 H   0  0  0  0  0  0  0  0  0  0  0  0
  144.3779  144.4178  157.5255 H   0  0  0  0  0  0  0  0  0  0  0  0
  154.1951  139.4611  161.8369 H   0  0  0  0  0  0  0  0  0  0  0  0
  154.9068  140.8031  162.7222 H   0  0  0  0  0  0  0  0  0  0  0  0
  155.5417  140.3678  161.1433 H   0  0  0  0  0  0  0  0  0  0  0  0
  1  2  1  0  0  0  0
  1 23  1  0  0  0  0
  1 24  1  0  0  0  0
  1 25  1  0  0  0  0
  2 21  2  0  0  0  0
  2  3  1  0  0  0  0
  3  4  2  0  0  0  0
  4  5  1  0  0  0  0
  4 26  1  0  0  0  0
  5  6  1  0  0  0  0
  5 19  1  0  0  0  0
  6  7  1  0  0  0  0
  6 27  1  0  0  0  0
  6 28  1  0  0  0  0
  7  8  1  0  0  0  0
  7  9  1  0  0  0  0
  7 29  1  0  0  0  0
  8 30  1  0  0  0  0
  9 10  1  0  0  0  0
  9 31  1  0  0  0  0
  9 32  1  0  0  0  0
 10 11  1  0  0  0  0
 11 17  1  0  0  0  0
 11 12  2  0  0  0  0
 12 13  1  0  0  0  0
 12 33  1  0  0  0  0
 13 14  1  0  0  0  0
 13 15  2  0  0  0  0
 15 16  1  0  0  0  0
 15 34  1  0  0  0  0
 16 17  2  0  0  0  0
 16 35  1  0  0  0  0
 17 18  1  0  0  0  0
 19 20  2  0  0  0  0
 19 21  1  0  0  0  0
 21 22  1  0  0  0  0
 22 36  1  0  0  0  0
 22 37  1  0  0  0  0
 22 38  1  0  0  0  0
M  END
> <s_m_source_file>
AV-unprocessed.smi

> <i_m_source_file_index>
2213

> <i_lp_mmshare_version>
43012

> <i_f3d_flags>
0

> <s_epik_input>
W0NIM11jMW5bY0hdbihjKD1PKWMxW0NIM10pW0NIMl1bQ0BIXShbT0hdKVtDSDJdT2MyW2NIXWMoQ2wpW2NIXVtjSF1jMkNs

> <s_epik_cmdline>
J2VwaWtfcHl0aG9uJywgJy1waCcsICc3LjAnLCAnLXRuJywgJzgnLCAnLW1hJywgJzIwMCcsICctbWV0YWxfYmluZGluZycsICctaW1hZScsICc8aW5maWxlLm1hZT4nLCAnLW9tYWUnLCAnPG91dGZpbGUubWFlPic=

> <r_lp_tautomer_probability>
1

> <r_epik_Ionization_Penalty>
3.50205e-05

> <r_epik_Ionization_Penalty_Charging>
7.87908e-08

> <r_epik_Ionization_Penalty_Neutral>
3.49418e-05

> <r_epik_State_Penalty>
-0

> <r_epik_Charging_Adjusted_Penalty>
7.87908e-08

> <i_epik_Tot_Q>
0

> <i_epik_Tot_abs_Q>
0

> <r_epik_Metal_State_Penalty>
-0

> <b_epik_Metal_Only>
0

> <s_lp_Force_Field>
OPLS_2005

> <r_lp_Energy>
23.8454

> <b_lp_Chiralities_Consistent>
1

> <s_lp_Variant>
AV-unprocessed.smi:2213-2

> <Gold.Version>
5.8.1

> <Gold.Id.Protein>
6NUR|6NUR_protein|mol2

> <Gold.PLP.Fitness>
45.2923

> <Gold.PLP.PLP>
-41.0738

> <Gold.PLP.part.hbond>
-2.0000

> <Gold.PLP.part.metal>
0.0000

> <Gold.PLP.part.buried>
-6.2644

> <Gold.PLP.part.nonpolar>
-31.9534

> <Gold.PLP.part.repulsive>
0.2033

> <Gold.PLP.ligand.clash>
0.0000

> <Gold.PLP.ligand.torsion>
0.8958

> <Gold.PLP.Chemscore.Hbond>
1.9913

> <Gold.PLP.Chemscore.CHOScore>
0.0000

> <Gold.PLP.Chemscore.Metal>
0.0000

> <Gold.Chemscore.Hbonds>
donor molecule, donor type, donor heavy atom, donor atom, acceptor molecule, acceptor atom, score
      L1  H     8    30       P1  8028  1.00
      P1  H  7997  8008       L1    20  0.52

> <Gold.PLP.Chemscore.Internal.Correction>
0.0364

> <Gold.Rescore>
     Score         DG    S(hbond)    S(metal)    S(lipo)     H(rot)  DE(clash)    DE(int)     intcor
     14.19     -14.97       1.98        0.00      76.78       2.38       0.02       0.77       ----

> <Gold.Chemscore.Fitness>
14.1862

> <Gold.Chemscore.DG>
-14.9706

> <Gold.Chemscore.ZeroCoef>
-5.4800

> <Gold.Chemscore.Hbond>
1.9781

> <Gold.Chemscore.Metal>
0.0000

> <Gold.Chemscore.Lipo>
76.7817

> <Gold.Chemscore.Internal_Hbond>
0.0000

> <Gold.Chemscore.DEClash>
0.0174

> <Gold.Chemscore.DEInternal>
0.7670

> <Gold.Chemscore.Rot>
2.3826

> <Gold.Chemscore.Internal.Correction>
   9.000000E+99

> <Gold.Chemscore.Hbonds>
donor molecule, donor type, donor heavy atom, donor atom, acceptor molecule, acceptor atom, score
      L1  H     8    30       P1  8028  1.00
      P1  H  7997  8008       L1    20  0.50

> <Gold.Chemscore.Hbond.Weighted>
-6.6067

> <Gold.Chemscore.Metal.Weighted>
-0.0000

> <Gold.Chemscore.Lipo.Weighted>
-8.9835

> <Gold.Chemscore.Internal_Hbond.Weighted>
0.0000

> <Gold.Chemscore.DEClash.Weighted>
0.0174

> <Gold.Chemscore.DEInternal.Weighted>
0.7670

> <Gold.Chemscore.Rot.Weighted>
6.0996

> <Gold.Chemscore.Internal.Correction.Weighted>
   9.000000E+99

> <Gold.Protein.RotatedTorsions>
[ 6907 6896 6895 6894 ] final   25.46 input  -60.11 | X-H torsion
[ 7974 7965 7964 7962 ] final  142.62 input  175.53 | X-H torsion
[ 8008 7997 7996 7995 ] final  -99.14 input   59.86 | X-H torsion
[ 10167 10162 10161 10158 ] final  -26.41 input  -65.29 | X-H torsion
[ 10718 10713 10712 10709 ] final  -44.98 input   66.30 | X-H torsion
[ 10763 10752 10751 10750 ] final  151.64 input  -60.55 | X-H torsion
[ 11005 11000 10999 10996 ] final -133.99 input  -57.11 | X-H torsion

> <Gold.Protein.ActiveResidues>
 VAL166  LYS551  ARG553  GLY616  TRP617  ASP618  TYR619  PRO620  LYS621  CYS622 
 ASP623  PHE694  ASN695  SER759  ASP760  ASP761  ALA762  ILE779  LEU786  VAL792 
 PHE793  MET794  SER795  GLU796  ALA797  LYS798  CYS799  TRP800  GLU811  SER814 

> <Gold.Protein.RotatedAtoms>
  151.9729  135.0068  160.0553 H   0  0  0  0  0  0  0  0  0  0  0  0  # atno 6907 bound_to 6896
  152.1767  133.4675  159.4945 H   0  0  0  0  0  0  0  0  0  0  0  0  # atno 6908 bound_to 6896
  150.6910  134.1802  159.4289 H   0  0  0  0  0  0  0  0  0  0  0  0  # atno 6909 bound_to 6896
  144.8992  139.5448  143.5762 H   0  0  0  0  0  0  0  0  0  0  0  0  # atno 7974 bound_to 7965
  154.8108  140.0450  157.1341 H   0  0  0  0  0  0  0  0  0  0  0  0  # atno 8008 bound_to 7997
  154.9370  140.3047  155.5119 H   0  0  0  0  0  0  0  0  0  0  0  0  # atno 8009 bound_to 7997
  156.2971  140.2312  156.4436 H   0  0  0  0  0  0  0  0  0  0  0  0  # atno 8010 bound_to 7997
  140.7283  143.4180  151.0997 H   0  0  0  0  0  0  0  0  0  0  0  0  # atno 10167 bound_to 10162
  156.2330  130.4174  149.8852 H   0  0  0  0  0  0  0  0  0  0  0  0  # atno 10718 bound_to 10713
  154.1071  135.2841  155.3239 H   0  0  0  0  0  0  0  0  0  0  0  0  # atno 10763 bound_to 10752
  154.6515  135.5367  153.7911 H   0  0  0  0  0  0  0  0  0  0  0  0  # atno 10764 bound_to 10752
  153.0358  135.6511  154.1232 H   0  0  0  0  0  0  0  0  0  0  0  0  # atno 10765 bound_to 10752
  140.9031  134.1665  157.4446 H   0  0  0  0  0  0  0  0  0  0  0  0  # atno 11005 bound_to 11000
  146.3098  139.7707  142.9028 LP  0  0  0  0  0  0  0  0  0  0  0  0  # atno 17320 bound_to 7965
  145.3647  141.0332  143.3265 LP  0  0  0  0  0  0  0  0  0  0  0  0  # atno 17321 bound_to 7965
  139.7822  143.8338  152.3139 LP  0  0  0  0  0  0  0  0  0  0  0  0  # atno 17342 bound_to 10162
  139.8293  144.7261  150.9471 LP  0  0  0  0  0  0  0  0  0  0  0  0  # atno 17343 bound_to 10162
  156.6460  130.8724  151.3522 LP  0  0  0  0  0  0  0  0  0  0  0  0  # atno 17370 bound_to 10713
  157.7141  130.9476  150.1193 LP  0  0  0  0  0  0  0  0  0  0  0  0  # atno 17371 bound_to 10713
  139.8745  134.9906  156.5509 LP  0  0  0  0  0  0  0  0  0  0  0  0  # atno 17394 bound_to 11000
  140.8205  133.8357  155.8891 LP  0  0  0  0  0  0  0  0  0  0  0  0  # atno 17395 bound_to 11000

$$$$
