AV-unprocessed.smi:1125|AV-procd|sdf|4835|dock1
  -GOLD-   22720 3393D 1   1.00000     0.00000
 Structure written by MMmdl.
 46 47  0  0  0  0  0  0  0  0  2 V2000
  147.1158  138.0912  153.8352 C   0  0  0  0  0  0  0  0  0  0  0  0
  148.4880  137.5898  154.0629 N   0  3  2  0  0  0  0  0  0  0  0  0
  148.5723  136.6994  155.2475 C   0  0  0  0  0  0  0  0  0  0  0  0
  149.9810  136.0949  155.3888 C   0  0  0  0  0  0  0  0  0  0  0  0
  151.0709  137.1832  155.4362 C   0  0  2  0  0  0  0  0  0  0  0  0
  151.0085  137.9475  156.6787 N   0  0  0  0  0  0  0  0  0  0  0  0
  151.8132  138.9648  157.0248 C   0  0  0  0  0  0  0  0  0  0  0  0
  152.7489  139.3553  156.3275 O   0  0  0  0  0  0  0  0  0  0  0  0
  151.5243  139.6354  158.3718 C   0  0  0  0  0  0  0  0  0  0  0  0
  151.3542  141.1195  158.2031 C   0  0  0  0  0  0  0  0  0  0  0  0
  151.0847  141.7914  157.0378 C   0  0  0  0  0  0  0  0  0  0  0  0
  150.9365  143.5069  157.2980 S   0  0  0  0  0  0  0  0  0  0  0  0
  151.2564  143.2547  159.0176 C   0  0  0  0  0  0  0  0  0  0  0  0
  151.2730  144.3401  160.0666 C   0  0  0  0  0  0  0  0  0  0  0  0
  152.2116  145.4778  159.6195 C   0  0  0  0  0  0  0  0  0  0  0  0
  151.7917  143.8055  161.4190 C   0  0  0  0  0  0  0  0  0  0  0  0
  149.8448  144.8726  160.2933 C   0  0  0  0  0  0  0  0  0  0  0  0
  151.4641  141.9666  159.3112 N   0  0  0  0  0  0  0  0  0  0  0  0
  150.9182  138.1266  154.2298 C   0  0  0  0  0  0  0  0  0  0  0  0
  149.4878  138.6856  154.1143 C   0  0  0  0  0  0  0  0  0  0  0  0
  146.7841  138.7152  154.6660 H   0  0  0  0  0  0  0  0  0  0  0  0
  146.4161  137.2615  153.7295 H   0  0  0  0  0  0  0  0  0  0  0  0
  147.0685  138.6840  152.9211 H   0  0  0  0  0  0  0  0  0  0  0  0
  148.3080  137.2591  156.1461 H   0  0  0  0  0  0  0  0  0  0  0  0
  147.8419  135.8951  155.1514 H   0  0  0  0  0  0  0  0  0  0  0  0
  150.0307  135.4643  156.2773 H   0  0  0  0  0  0  0  0  0  0  0  0
  150.1717  135.4356  154.5412 H   0  0  0  0  0  0  0  0  0  0  0  0
  152.0515  136.7078  155.3745 H   0  0  0  0  0  0  0  0  0  0  0  0
  150.2653  137.7100  157.3204 H   0  0  0  0  0  0  0  0  0  0  0  0
  150.6270  139.1895  158.8028 H   0  0  0  0  0  0  0  0  0  0  0  0
  152.3382  139.4198  159.0650 H   0  0  0  0  0  0  0  0  0  0  0  0
  150.9549  141.3817  156.0469 H   0  0  0  0  0  0  0  0  0  0  0  0
  152.2584  146.2720  160.3656 H   0  0  0  0  0  0  0  0  0  0  0  0
  151.8757  145.9294  158.6854 H   0  0  0  0  0  0  0  0  0  0  0  0
  153.2275  145.1142  159.4605 H   0  0  0  0  0  0  0  0  0  0  0  0
  152.8114  143.4271  161.3393 H   0  0  0  0  0  0  0  0  0  0  0  0
  151.1651  142.9974  161.7989 H   0  0  0  0  0  0  0  0  0  0  0  0
  151.7995  144.5891  162.1774 H   0  0  0  0  0  0  0  0  0  0  0  0
  149.8261  145.6474  161.0603 H   0  0  0  0  0  0  0  0  0  0  0  0
  149.1709  144.0765  160.6119 H   0  0  0  0  0  0  0  0  0  0  0  0
  149.4310  145.3083  159.3832 H   0  0  0  0  0  0  0  0  0  0  0  0
  151.6352  138.9461  154.2968 H   0  0  0  0  0  0  0  0  0  0  0  0
  151.1639  137.5834  153.3163 H   0  0  0  0  0  0  0  0  0  0  0  0
  149.4091  139.2939  153.2124 H   0  0  0  0  0  0  0  0  0  0  0  0
  149.2672  139.3431  154.9567 H   0  0  0  0  0  0  0  0  0  0  0  0
  148.7224  137.0237  153.2599 H   0  0  0  0  0  0  0  0  0  0  0  0
  1  2  1  0  0  0  0
  1 21  1  0  0  0  0
  1 22  1  0  0  0  0
  1 23  1  0  0  0  0
  2 20  1  0  0  0  0
  2  3  1  0  0  0  0
  2 46  1  0  0  0  0
  3  4  1  0  0  0  0
  3 24  1  0  0  0  0
  3 25  1  0  0  0  0
  4  5  1  0  0  0  0
  4 26  1  0  0  0  0
  4 27  1  0  0  0  0
  5  6  1  0  0  0  0
  5 19  1  0  0  0  0
  5 28  1  0  0  0  0
  6  7  1  0  0  0  0
  6 29  1  0  0  0  0
  7  8  2  0  0  0  0
  7  9  1  0  0  0  0
  9 10  1  0  0  0  0
  9 30  1  0  0  0  0
  9 31  1  0  0  0  0
 10 18  1  0  0  0  0
 10 11  2  0  0  0  0
 11 12  1  0  0  0  0
 11 32  1  0  0  0  0
 12 13  1  0  0  0  0
 13 14  1  0  0  0  0
 13 18  2  0  0  0  0
 14 15  1  0  0  0  0
 14 16  1  0  0  0  0
 14 17  1  0  0  0  0
 15 33  1  0  0  0  0
 15 34  1  0  0  0  0
 15 35  1  0  0  0  0
 16 36  1  0  0  0  0
 16 37  1  0  0  0  0
 16 38  1  0  0  0  0
 17 39  1  0  0  0  0
 17 40  1  0  0  0  0
 17 41  1  0  0  0  0
 19 20  1  0  0  0  0
 19 42  1  0  0  0  0
 19 43  1  0  0  0  0
 20 44  1  0  0  0  0
 20 45  1  0  0  0  0
M  CHG  1   2   1
M  END
> <s_m_source_file>
AV-unprocessed.smi

> <i_m_source_file_index>
1125

> <i_lp_mmshare_version>
43012

> <i_f3d_flags>
0

> <s_epik_input>
W0NIM11OMVtDSDJdW0NIMl1bQ0hdKFtDSDJdW0NIMl0xKVtOSF1DKD1PKVtDSDJdYzJbY0hdc2MobjIpQyhbQ0gzXSkoW0NIM10pW0NIM10=

> <s_epik_cmdline>
J2VwaWtfcHl0aG9uJywgJy1waCcsICc3LjAnLCAnLXRuJywgJzgnLCAnLW1hJywgJzIwMCcsICctbWV0YWxfYmluZGluZycsICctaW1hZScsICc8aW5maWxlLm1hZT4nLCAnLW9tYWUnLCAnPG91dGZpbGUubWFlPic=

> <r_epik_Ionization_Penalty>
0.00829478

> <r_epik_Ionization_Penalty_Charging>
0.0082618

> <r_epik_Ionization_Penalty_Neutral>
3.29858e-05

> <r_epik_State_Penalty>
0.00621662

> <r_epik_Charging_Adjusted_Penalty>
0.0144784

> <i_epik_Tot_Q>
1

> <i_epik_Tot_abs_Q>
1

> <r_epik_Metal_State_Penalty>
0.00621672

> <b_epik_Metal_Only>
0

> <s_lp_Force_Field>
OPLS_2005

> <r_lp_Energy>
6.26884

> <b_lp_Chiralities_Consistent>
1

> <s_lp_Variant>
AV-unprocessed.smi:1125-2

> <Gold.Version>
5.8.1

> <Gold.Id.Protein>
6NUR|6NUR_protein|mol2

> <Gold.PLP.Fitness>
43.7034

> <Gold.PLP.PLP>
-35.7355

> <Gold.PLP.part.hbond>
-2.0000

> <Gold.PLP.part.metal>
0.0000

> <Gold.PLP.part.buried>
-2.9708

> <Gold.PLP.part.nonpolar>
-29.7365

> <Gold.PLP.part.repulsive>
0.0444

> <Gold.PLP.ligand.clash>
0.0000

> <Gold.PLP.ligand.torsion>
0.5282

> <Gold.PLP.Chemscore.Hbond>
3.0000

> <Gold.PLP.Chemscore.CHOScore>
0.0000

> <Gold.PLP.Chemscore.Metal>
0.0000

> <Gold.Chemscore.Hbonds>
donor molecule, donor type, donor heavy atom, donor atom, acceptor molecule, acceptor atom, score
      L1  H     2    46       P1  7948  2.00
      P1  H  7997  8009       L1     8  1.00

> <Gold.PLP.Chemscore.Internal.Correction>
0.0242

> <Gold.Rescore>
     Score         DG    S(hbond)    S(metal)    S(lipo)     H(rot)  DE(clash)    DE(int)     intcor
     19.97     -21.80       1.99        0.00     113.44       1.40       1.37       0.47       ----

> <Gold.Chemscore.Fitness>
19.9687

> <Gold.Chemscore.DG>
-21.8037

> <Gold.Chemscore.ZeroCoef>
-5.4800

> <Gold.Chemscore.Hbond>
1.9891

> <Gold.Chemscore.Metal>
0.0000

> <Gold.Chemscore.Lipo>
113.4357

> <Gold.Chemscore.Internal_Hbond>
0.0000

> <Gold.Chemscore.DEClash>
1.3698

> <Gold.Chemscore.DEInternal>
0.4651

> <Gold.Chemscore.Rot>
1.4030

> <Gold.Chemscore.Internal.Correction>
   9.000000E+99

> <Gold.Chemscore.Hbonds>
donor molecule, donor type, donor heavy atom, donor atom, acceptor molecule, acceptor atom, score
      L1  H     2    46       P1  7948  0.99
      P1  H  7997  8009       L1     8  1.00

> <Gold.Chemscore.Hbond.Weighted>
-6.6434

> <Gold.Chemscore.Metal.Weighted>
-0.0000

> <Gold.Chemscore.Lipo.Weighted>
-13.2720

> <Gold.Chemscore.Internal_Hbond.Weighted>
0.0000

> <Gold.Chemscore.DEClash.Weighted>
1.3698

> <Gold.Chemscore.DEInternal.Weighted>
0.4651

> <Gold.Chemscore.Rot.Weighted>
3.5917

> <Gold.Chemscore.Internal.Correction.Weighted>
   9.000000E+99

> <Gold.Protein.RotatedTorsions>
[ 6907 6896 6895 6894 ] final   60.22 input  -60.11 | X-H torsion
[ 7974 7965 7964 7962 ] final   81.78 input  175.53 | X-H torsion
[ 8008 7997 7996 7995 ] final -159.43 input   59.86 | X-H torsion
[ 10167 10162 10161 10158 ] final -173.68 input  -65.29 | X-H torsion
[ 10718 10713 10712 10709 ] final   92.84 input   66.30 | X-H torsion
[ 10763 10752 10751 10750 ] final   96.79 input  -60.55 | X-H torsion
[ 11005 11000 10999 10996 ] final   38.14 input  -57.11 | X-H torsion

> <Gold.Protein.ActiveResidues>
 VAL166  LYS551  ARG553  GLY616  TRP617  ASP618  TYR619  PRO620  LYS621  CYS622 
 ASP623  PHE694  ASN695  SER759  ASP760  ASP761  ALA762  ILE779  LEU786  VAL792 
 PHE793  MET794  SER795  GLU796  ALA797  LYS798  CYS799  TRP800  GLU811  SER814 

> <Gold.Protein.RotatedAtoms>
  152.3984  134.6327  160.0079 H   0  0  0  0  0  0  0  0  0  0  0  0  # atno 6907 bound_to 6896
  151.6540  133.3314  159.3166 H   0  0  0  0  0  0  0  0  0  0  0  0  # atno 6908 bound_to 6896
  150.7888  134.6937  159.6556 H   0  0  0  0  0  0  0  0  0  0  0  0  # atno 6909 bound_to 6896
  145.6336  139.2410  143.2070 H   0  0  0  0  0  0  0  0  0  0  0  0  # atno 7974 bound_to 7965
  155.7625  140.0841  157.2148 H   0  0  0  0  0  0  0  0  0  0  0  0  # atno 8008 bound_to 7997
  154.4002  140.1540  156.2905 H   0  0  0  0  0  0  0  0  0  0  0  0  # atno 8009 bound_to 7997
  155.8826  140.3419  155.5901 H   0  0  0  0  0  0  0  0  0  0  0  0  # atno 8010 bound_to 7997
  139.5675  144.1721  152.1334 H   0  0  0  0  0  0  0  0  0  0  0  0  # atno 10167 bound_to 10162
  157.6957  131.0457  150.3942 H   0  0  0  0  0  0  0  0  0  0  0  0  # atno 10718 bound_to 10713
  153.2691  135.4206  155.0970 H   0  0  0  0  0  0  0  0  0  0  0  0  # atno 10763 bound_to 10752
  154.8449  135.3468  154.6269 H   0  0  0  0  0  0  0  0  0  0  0  0  # atno 10764 bound_to 10752
  153.6689  135.7044  153.5210 H   0  0  0  0  0  0  0  0  0  0  0  0  # atno 10765 bound_to 10752
  140.2155  134.3703  155.8029 H   0  0  0  0  0  0  0  0  0  0  0  0  # atno 11005 bound_to 11000
  146.1337  140.7152  142.9400 LP  0  0  0  0  0  0  0  0  0  0  0  0  # atno 17320 bound_to 7965
  144.7184  140.4289  143.7027 LP  0  0  0  0  0  0  0  0  0  0  0  0  # atno 17321 bound_to 7965
  140.1247  144.5342  150.6840 LP  0  0  0  0  0  0  0  0  0  0  0  0  # atno 17342 bound_to 10162
  140.6959  143.2403  151.5002 LP  0  0  0  0  0  0  0  0  0  0  0  0  # atno 17343 bound_to 10162
  156.4343  130.3978  149.6740 LP  0  0  0  0  0  0  0  0  0  0  0  0  # atno 17370 bound_to 10713
  156.3946  130.7644  151.2648 LP  0  0  0  0  0  0  0  0  0  0  0  0  # atno 17371 bound_to 10713
  141.2225  133.7166  156.8490 LP  0  0  0  0  0  0  0  0  0  0  0  0  # atno 17394 bound_to 11000
  140.1905  134.8969  157.3054 LP  0  0  0  0  0  0  0  0  0  0  0  0  # atno 17395 bound_to 11000

$$$$
