AV-unprocessed.smi:2510|AV-procd|sdf|9872|dock7
  -GOLD-   2272013503D 1   1.00000     0.00000
 Structure written by MMmdl.
 48 49  0  0  0  0  0  0  0  0  1 V2000
  152.8229  140.9539  159.0698 C   0  0  0  0  0  0  0  0  0  0  0  0
  151.8143  139.8054  158.8882 C   0  0  0  0  0  0  0  0  0  0  0  0
  151.1397  139.6899  157.4906 C   0  0  0  0  0  0  0  0  0  0  0  0
  152.2117  139.4316  156.4140 C   0  0  0  0  0  0  0  0  0  0  0  0
  151.6592  139.2660  154.9894 C   0  0  0  0  0  0  0  0  0  0  0  0
  149.8694  138.7986  157.3796 C   0  0  1  0  0  0  0  0  0  0  0  0
  149.7432  137.7472  158.3831 N   0  0  0  0  0  0  0  0  0  0  0  0
  148.5872  137.1804  158.7608 C   0  0  0  0  0  0  0  0  0  0  0  0
  147.4963  137.4754  158.2728 O   0  0  0  0  0  0  0  0  0  0  0  0
  148.6732  136.1240  159.8644 C   0  0  0  0  0  0  0  0  0  0  0  0
  147.5342  136.2823  160.8364 C   0  0  0  0  0  0  0  0  0  0  0  0
  146.3644  135.4748  160.9563 C   0  0  0  0  0  0  0  0  0  0  0  0
  145.6726  136.0333  161.9938 C   0  0  0  0  0  0  0  0  0  0  0  0
  144.3761  135.6625  162.6290 C   0  0  0  0  0  0  0  0  0  0  0  0
  146.4209  137.1052  162.4221 N   0  0  0  0  0  0  0  0  0  0  0  0
  147.5581  137.2700  161.7218 N   0  0  0  0  0  0  0  0  0  0  0  0
  148.9958  140.0138  157.7102 C   0  0  2  0  0  0  0  0  0  0  0  0
  147.6109  140.1116  157.0839 C   0  0  0  0  0  0  0  0  0  0  0  0
  150.1570  140.8400  157.1398 C   0  0  1  0  0  0  0  0  0  0  0  0
  150.4393  142.0440  157.8385 O   0  0  0  0  0  0  0  0  0  0  0  0
  151.3974  142.8585  157.1865 C   0  0  0  0  0  0  0  0  0  0  0  0
  146.1707  137.7245  163.1799 H   0  0  0  0  0  0  0  0  0  0  0  0
  153.3696  140.8386  160.0056 H   0  0  0  0  0  0  0  0  0  0  0  0
  152.3270  141.9234  159.1073 H   0  0  0  0  0  0  0  0  0  0  0  0
  153.5539  140.9887  158.2660 H   0  0  0  0  0  0  0  0  0  0  0  0
  152.3294  138.8756  159.1298 H   0  0  0  0  0  0  0  0  0  0  0  0
  151.0555  139.9051  159.6644 H   0  0  0  0  0  0  0  0  0  0  0  0
  152.9735  140.2105  156.4261 H   0  0  0  0  0  0  0  0  0  0  0  0
  152.7563  138.5191  156.6589 H   0  0  0  0  0  0  0  0  0  0  0  0
  152.4612  139.0189  154.2940 H   0  0  0  0  0  0  0  0  0  0  0  0
  151.1865  140.1788  154.6282 H   0  0  0  0  0  0  0  0  0  0  0  0
  150.9220  138.4644  154.9402 H   0  0  0  0  0  0  0  0  0  0  0  0
  149.6893  138.4573  156.3569 H   0  0  0  0  0  0  0  0  0  0  0  0
  150.5938  137.4346  158.8295 H   0  0  0  0  0  0  0  0  0  0  0  0
  148.6671  135.1312  159.4125 H   0  0  0  0  0  0  0  0  0  0  0  0
  149.6274  136.2208  160.3839 H   0  0  0  0  0  0  0  0  0  0  0  0
  146.0832  134.6102  160.3734 H   0  0  0  0  0  0  0  0  0  0  0  0
  143.9756  134.7475  162.1919 H   0  0  0  0  0  0  0  0  0  0  0  0
  143.6379  136.4525  162.4917 H   0  0  0  0  0  0  0  0  0  0  0  0
  144.5022  135.4968  163.6991 H   0  0  0  0  0  0  0  0  0  0  0  0
  148.9409  140.1581  158.7910 H   0  0  0  0  0  0  0  0  0  0  0  0
  147.6599  140.0515  155.9964 H   0  0  0  0  0  0  0  0  0  0  0  0
  147.1210  141.0503  157.3408 H   0  0  0  0  0  0  0  0  0  0  0  0
  146.9673  139.3021  157.4287 H   0  0  0  0  0  0  0  0  0  0  0  0
  150.0731  140.9892  156.0603 H   0  0  0  0  0  0  0  0  0  0  0  0
  151.6008  143.7394  157.7953 H   0  0  0  0  0  0  0  0  0  0  0  0
  151.0354  143.2010  156.2176 H   0  0  0  0  0  0  0  0  0  0  0  0
  152.3378  142.3249  157.0429 H   0  0  0  0  0  0  0  0  0  0  0  0
  1  2  1  0  0  0  0
  1 23  1  0  0  0  0
  1 24  1  0  0  0  0
  1 25  1  0  0  0  0
  2  3  1  0  0  0  0
  2 26  1  0  0  0  0
  2 27  1  0  0  0  0
  3 19  1  0  0  0  0
  3  4  1  0  0  0  0
  3  6  1  0  0  0  0
  4  5  1  0  0  0  0
  4 28  1  0  0  0  0
  4 29  1  0  0  0  0
  5 30  1  0  0  0  0
  5 31  1  0  0  0  0
  5 32  1  0  0  0  0
  6  7  1  0  0  0  0
  6 17  1  0  0  0  0
  6 33  1  0  0  0  0
  7  8  1  0  0  0  0
  7 34  1  0  0  0  0
  8  9  2  0  0  0  0
  8 10  1  0  0  0  0
 10 11  1  0  0  0  0
 10 35  1  0  0  0  0
 10 36  1  0  0  0  0
 11 16  2  0  0  0  0
 11 12  1  0  0  0  0
 12 13  2  0  0  0  0
 12 37  1  0  0  0  0
 13 14  1  0  0  0  0
 13 15  1  0  0  0  0
 14 38  1  0  0  0  0
 14 39  1  0  0  0  0
 14 40  1  0  0  0  0
 15 22  1  0  0  0  0
 15 16  1  0  0  0  0
 17 18  1  0  0  0  0
 17 19  1  0  0  0  0
 17 41  1  0  0  0  0
 18 42  1  0  0  0  0
 18 43  1  0  0  0  0
 18 44  1  0  0  0  0
 19 20  1  0  0  0  0
 19 45  1  0  0  0  0
 20 21  1  0  0  0  0
 21 46  1  0  0  0  0
 21 47  1  0  0  0  0
 21 48  1  0  0  0  0
M  END
> <s_m_source_file>
AV-unprocessed.smi

> <i_m_source_file_index>
2510

> <i_lp_mmshare_version>
43012

> <i_f3d_flags>
0

> <s_epik_input>
W0NIM11PW0NAQEhdMVtDQEhdKFtDSDNdKVtDQEBIXShDMShbQ0gyXVtDSDNdKVtDSDJdW0NIM10pW05IXUMoPU8pW0NIMl1jMltjSF1jKFtDSDNdKVtuSF1uMg==

> <s_epik_cmdline>
J2VwaWtfcHl0aG9uJywgJy1waCcsICc3LjAnLCAnLXRuJywgJzgnLCAnLW1hJywgJzIwMCcsICctbWV0YWxfYmluZGluZycsICctaW1hZScsICc8aW5maWxlLm1hZT4nLCAnLW9tYWUnLCAnPG91dGZpbGUubWFlPic=

> <r_lp_tautomer_probability>
0.5

> <r_epik_Ionization_Penalty>
9.73156e-05

> <r_epik_Ionization_Penalty_Charging>
0

> <r_epik_Ionization_Penalty_Neutral>
9.73156e-05

> <r_epik_State_Penalty>
0.41068

> <r_epik_Charging_Adjusted_Penalty>
0.41068

> <i_epik_Tot_Q>
0

> <i_epik_Tot_abs_Q>
0

> <r_epik_Metal_State_Penalty>
0.410699

> <b_epik_Metal_Only>
0

> <s_lp_Force_Field>
OPLS_2005

> <r_lp_Energy>
23.9763

> <b_lp_Chiralities_Consistent>
1

> <s_lp_Variant>
AV-unprocessed.smi:2510-3

> <Gold.Version>
5.8.1

> <Gold.Id.Protein>
6NUR|6NUR_protein|mol2

> <Gold.PLP.Fitness>
32.7914

> <Gold.PLP.PLP>
-28.9376

> <Gold.PLP.part.hbond>
-2.0000

> <Gold.PLP.part.metal>
0.0000

> <Gold.PLP.part.buried>
-4.0937

> <Gold.PLP.part.nonpolar>
-22.1728

> <Gold.PLP.part.repulsive>
0.4058

> <Gold.PLP.ligand.clash>
0.0000

> <Gold.PLP.ligand.torsion>
0.9684

> <Gold.PLP.Chemscore.Hbond>
1.7280

> <Gold.PLP.Chemscore.CHOScore>
0.0000

> <Gold.PLP.Chemscore.Metal>
0.0000

> <Gold.Chemscore.Hbonds>
donor molecule, donor type, donor heavy atom, donor atom, acceptor molecule, acceptor atom, score
      P1  H  6931  6943       L1    16  0.93
      P1  H  6934  6947       L1    16  0.70

> <Gold.PLP.Chemscore.Internal.Correction>
0.6067

> <Gold.Rescore>
     Score         DG    S(hbond)    S(metal)    S(lipo)     H(rot)  DE(clash)    DE(int)     intcor
     10.20     -13.40       0.99        0.00      78.93       1.81       0.01       3.19       ----

> <Gold.Chemscore.Fitness>
10.2019

> <Gold.Chemscore.DG>
-13.4024

> <Gold.Chemscore.ZeroCoef>
-5.4800

> <Gold.Chemscore.Hbond>
0.9947

> <Gold.Chemscore.Metal>
0.0000

> <Gold.Chemscore.Lipo>
78.9261

> <Gold.Chemscore.Internal_Hbond>
0.0000

> <Gold.Chemscore.DEClash>
0.0073

> <Gold.Chemscore.DEInternal>
3.1932

> <Gold.Chemscore.Rot>
1.8102

> <Gold.Chemscore.Internal.Correction>
   9.000000E+99

> <Gold.Chemscore.Hbonds>
donor molecule, donor type, donor heavy atom, donor atom, acceptor molecule, acceptor atom, score
      P1  H  6931  6943       L1    16  0.89
      P1  H  6934  6947       L1    16  0.14

> <Gold.Chemscore.Hbond.Weighted>
-3.3221

> <Gold.Chemscore.Metal.Weighted>
-0.0000

> <Gold.Chemscore.Lipo.Weighted>
-9.2344

> <Gold.Chemscore.Internal_Hbond.Weighted>
0.0000

> <Gold.Chemscore.DEClash.Weighted>
0.0073

> <Gold.Chemscore.DEInternal.Weighted>
3.1932

> <Gold.Chemscore.Rot.Weighted>
4.6341

> <Gold.Chemscore.Internal.Correction.Weighted>
   9.000000E+99

> <Gold.Protein.RotatedTorsions>
[ 6907 6896 6895 6894 ] final  -93.49 input  -60.11 | X-H torsion
[ 7974 7965 7964 7962 ] final -166.60 input  175.53 | X-H torsion
[ 8008 7997 7996 7995 ] final -105.44 input   59.86 | X-H torsion
[ 10167 10162 10161 10158 ] final -112.94 input  -65.29 | X-H torsion
[ 10718 10713 10712 10709 ] final   19.76 input   66.30 | X-H torsion
[ 10763 10752 10751 10750 ] final   61.03 input  -60.55 | X-H torsion
[ 11005 11000 10999 10996 ] final -126.11 input  -57.11 | X-H torsion

> <Gold.Protein.ActiveResidues>
 VAL166  LYS551  ARG553  GLY616  TRP617  ASP618  TYR619  PRO620  LYS621  CYS622 
 ASP623  PHE694  ASN695  SER759  ASP760  ASP761  ALA762  ILE779  LEU786  VAL792 
 PHE793  MET794  SER795  GLU796  ALA797  LYS798  CYS799  TRP800  GLU811  SER814 

> <Gold.Protein.RotatedAtoms>
  150.6923  134.1959  159.4302 H   0  0  0  0  0  0  0  0  0  0  0  0  # atno 6907 bound_to 6896
  151.9928  134.9968  160.0571 H   0  0  0  0  0  0  0  0  0  0  0  0  # atno 6908 bound_to 6896
  152.1652  133.4572  159.4918 H   0  0  0  0  0  0  0  0  0  0  0  0  # atno 6909 bound_to 6896
  144.7241  140.2642  143.6260 H   0  0  0  0  0  0  0  0  0  0  0  0  # atno 7974 bound_to 7965
  154.8999  140.0413  157.1887 H   0  0  0  0  0  0  0  0  0  0  0  0  # atno 8008 bound_to 7997
  154.8454  140.2921  155.5611 H   0  0  0  0  0  0  0  0  0  0  0  0  # atno 8009 bound_to 7997
  156.2994  140.2475  156.3404 H   0  0  0  0  0  0  0  0  0  0  0  0  # atno 8010 bound_to 7997
  140.1173  143.4474  152.1714 H   0  0  0  0  0  0  0  0  0  0  0  0  # atno 10167 bound_to 10162
  157.1149  130.6524  149.5907 H   0  0  0  0  0  0  0  0  0  0  0  0  # atno 10718 bound_to 10713
  152.9938  135.5515  154.5969 H   0  0  0  0  0  0  0  0  0  0  0  0  # atno 10763 bound_to 10752
  154.5319  135.2814  155.1175 H   0  0  0  0  0  0  0  0  0  0  0  0  # atno 10764 bound_to 10752
  154.2486  135.6403  153.5285 H   0  0  0  0  0  0  0  0  0  0  0  0  # atno 10765 bound_to 10752
  140.9708  134.0808  157.3872 H   0  0  0  0  0  0  0  0  0  0  0  0  # atno 11005 bound_to 11000
  145.8106  139.2001  143.1995 LP  0  0  0  0  0  0  0  0  0  0  0  0  # atno 17320 bound_to 7965
  146.0599  140.7981  142.9740 LP  0  0  0  0  0  0  0  0  0  0  0  0  # atno 17321 bound_to 7965
  139.5587  144.7391  151.4217 LP  0  0  0  0  0  0  0  0  0  0  0  0  # atno 17342 bound_to 10162
  140.6892  143.7902  150.7230 LP  0  0  0  0  0  0  0  0  0  0  0  0  # atno 17343 bound_to 10162
  155.9842  130.4865  150.6970 LP  0  0  0  0  0  0  0  0  0  0  0  0  # atno 17370 bound_to 10713
  157.4527  131.0874  151.0829 LP  0  0  0  0  0  0  0  0  0  0  0  0  # atno 17371 bound_to 10713
  139.8911  135.0116  156.6775 LP  0  0  0  0  0  0  0  0  0  0  0  0  # atno 17394 bound_to 11000
  140.7332  133.9041  155.8226 LP  0  0  0  0  0  0  0  0  0  0  0  0  # atno 17395 bound_to 11000

$$$$
