AV-unprocessed.smi:286|AV-procd|sdf|2176|dock2
  -GOLD-   2262021533D 1   1.00000     0.00000
 Structure written by MMmdl.
 46 48  0  0  0  0  0  0  0  0  1 V2000
  152.8121  138.9229  155.7526 O   0  0  0  0  0  0  0  0  0  0  0  0
  151.6442  139.1217  155.4141 C   0  0  0  0  0  0  0  0  0  0  0  0
  150.8230  138.1170  154.7468 C   0  0  0  0  0  0  0  0  0  0  0  0
  151.3508  136.9169  154.4513 F   0  0  0  0  0  0  0  0  0  0  0  0
  149.5391  138.3727  154.4150 C   0  0  0  0  0  0  0  0  0  0  0  0
  148.9153  139.5793  154.6842 N   0  0  0  0  0  0  0  0  0  0  0  0
  147.4743  139.8197  154.2950 C   0  0  1  0  0  0  0  0  0  0  0  0
  147.3053  139.6847  152.7770 C   0  0  0  0  0  0  0  0  0  0  0  0
  146.8208  138.2574  152.6397 C   0  0  0  0  0  0  0  0  0  0  0  0
  145.9848  138.0957  153.9034 C   0  0  0  0  0  0  0  0  0  0  0  0
  146.6708  138.8474  154.9003 O   0  0  0  0  0  0  0  0  0  0  0  0
  149.6391  140.6176  155.3099 C   0  0  0  0  0  0  0  0  0  0  0  0
  149.1083  141.7050  155.5496 O   0  0  0  0  0  0  0  0  0  0  0  0
  150.9878  140.3552  155.6491 N   0  0  0  0  0  0  0  0  0  0  0  0
  151.7327  141.4093  156.3182 C   0  0  0  0  0  0  0  0  0  0  0  0
  151.8172  141.2221  157.8512 C   0  0  1  0  0  0  0  0  0  0  0  0
  152.8638  140.3172  158.1468 O   0  0  0  0  0  0  0  0  0  0  0  0
  152.0648  142.5542  158.6010 C   0  0  0  0  0  0  0  0  0  0  0  0
  151.8831  142.4517  160.1341 C   0  0  0  0  0  0  0  0  0  0  0  0
  152.1935  143.7870  160.8301 C   0  0  0  0  0  0  0  0  0  0  0  0
  151.3428  144.9294  160.2543 C   0  0  0  0  0  0  0  0  0  0  0  0
  151.5235  145.0420  158.7328 C   0  0  0  0  0  0  0  0  0  0  0  0
  151.2098  143.7088  158.0338 C   0  0  0  0  0  0  0  0  0  0  0  0
  148.9852  137.5915  153.9161 H   0  0  0  0  0  0  0  0  0  0  0  0
  147.2083  140.8039  154.6834 H   0  0  0  0  0  0  0  0  0  0  0  0
  146.5340  140.3830  152.4498 H   0  0  0  0  0  0  0  0  0  0  0  0
  148.2273  139.8964  152.2338 H   0  0  0  0  0  0  0  0  0  0  0  0
  146.2517  138.0840  151.7261 H   0  0  0  0  0  0  0  0  0  0  0  0
  147.6656  137.5675  152.6529 H   0  0  0  0  0  0  0  0  0  0  0  0
  144.9928  138.5263  153.7601 H   0  0  0  0  0  0  0  0  0  0  0  0
  145.8647  137.0532  154.1992 H   0  0  0  0  0  0  0  0  0  0  0  0
  152.7150  141.5017  155.8519 H   0  0  0  0  0  0  0  0  0  0  0  0
  151.2296  142.3434  156.0621 H   0  0  0  0  0  0  0  0  0  0  0  0
  150.8848  140.7926  158.2199 H   0  0  0  0  0  0  0  0  0  0  0  0
  152.5264  139.4369  158.0826 H   0  0  0  0  0  0  0  0  0  0  0  0
  153.1067  142.8232  158.4185 H   0  0  0  0  0  0  0  0  0  0  0  0
  150.8613  142.1538  160.3722 H   0  0  0  0  0  0  0  0  0  0  0  0
  152.5322  141.6779  160.5443 H   0  0  0  0  0  0  0  0  0  0  0  0
  152.0163  143.6960  161.9021 H   0  0  0  0  0  0  0  0  0  0  0  0
  153.2517  144.0234  160.7112 H   0  0  0  0  0  0  0  0  0  0  0  0
  150.2912  144.7549  160.4858 H   0  0  0  0  0  0  0  0  0  0  0  0
  151.6131  145.8717  160.7322 H   0  0  0  0  0  0  0  0  0  0  0  0
  150.8786  145.8283  158.3395 H   0  0  0  0  0  0  0  0  0  0  0  0
  152.5480  145.3413  158.5072 H   0  0  0  0  0  0  0  0  0  0  0  0
  151.3843  143.8122  156.9623 H   0  0  0  0  0  0  0  0  0  0  0  0
  150.1495  143.4831  158.1526 H   0  0  0  0  0  0  0  0  0  0  0  0
  1  2  2  0  0  0  0
  2 14  1  0  0  0  0
  2  3  1  0  0  0  0
  3  4  1  0  0  0  0
  3  5  2  0  0  0  0
  5  6  1  0  0  0  0
  5 24  1  0  0  0  0
  6  7  1  0  0  0  0
  6 12  1  0  0  0  0
  7 11  1  0  0  0  0
  7  8  1  0  0  0  0
  7 25  1  0  0  0  0
  8  9  1  0  0  0  0
  8 26  1  0  0  0  0
  8 27  1  0  0  0  0
  9 10  1  0  0  0  0
  9 28  1  0  0  0  0
  9 29  1  0  0  0  0
 10 11  1  0  0  0  0
 10 30  1  0  0  0  0
 10 31  1  0  0  0  0
 12 13  2  0  0  0  0
 12 14  1  0  0  0  0
 14 15  1  0  0  0  0
 15 16  1  0  0  0  0
 15 32  1  0  0  0  0
 15 33  1  0  0  0  0
 16 17  1  0  0  0  0
 16 18  1  0  0  0  0
 16 34  1  0  0  0  0
 17 35  1  0  0  0  0
 18 23  1  0  0  0  0
 18 19  1  0  0  0  0
 18 36  1  0  0  0  0
 19 20  1  0  0  0  0
 19 37  1  0  0  0  0
 19 38  1  0  0  0  0
 20 21  1  0  0  0  0
 20 39  1  0  0  0  0
 20 40  1  0  0  0  0
 21 22  1  0  0  0  0
 21 41  1  0  0  0  0
 21 42  1  0  0  0  0
 22 23  1  0  0  0  0
 22 43  1  0  0  0  0
 22 44  1  0  0  0  0
 23 45  1  0  0  0  0
 23 46  1  0  0  0  0
M  END
> <s_m_source_file>
AV-unprocessed.smi

> <i_m_source_file_index>
286

> <i_lp_mmshare_version>
43012

> <i_f3d_flags>
0

> <s_epik_input>
TzFbQ0gyXVtDSDJdW0NIMl1bQ0BIXTFuKFtjSF1jKEYpYzI9TyljKD1PKW4yW0NIMl1bQ0BIXShbT0hdKVtDSF0zW0NIMl1bQ0gyXVtDSDJdW0NIMl1bQ0gyXTM=

> <s_epik_cmdline>
J2VwaWtfcHl0aG9uJywgJy1waCcsICc3LjAnLCAnLXRuJywgJzgnLCAnLW1hJywgJzIwMCcsICctbWV0YWxfYmluZGluZycsICctaW1hZScsICc8aW5maWxlLm1hZT4nLCAnLW9tYWUnLCAnPG91dGZpbGUubWFlPic=

> <r_lp_tautomer_probability>
1

> <r_epik_Ionization_Penalty>
3.15564e-07

> <r_epik_Ionization_Penalty_Charging>
2.06416e-08

> <r_epik_Ionization_Penalty_Neutral>
2.94923e-07

> <r_epik_State_Penalty>
-0

> <r_epik_Charging_Adjusted_Penalty>
2.06416e-08

> <i_epik_Tot_Q>
0

> <i_epik_Tot_abs_Q>
0

> <r_epik_Metal_State_Penalty>
-0

> <b_epik_Metal_Only>
0

> <s_epik_Chemistry_Notes>
This compound contains an acetal/aminal-like group ( X-CH(R)-Y where X, Y are N, S, or O) that may be acid/base labile, releasing an aldehyde.

> <s_lp_Force_Field>
OPLS_2005

> <r_lp_Energy>
42.0749

> <b_lp_Chiralities_Consistent>
1

> <s_lp_Variant>
AV-unprocessed.smi:286-4

> <Gold.Version>
5.8.1

> <Gold.Id.Protein>
6NUR|6NUR_protein|mol2

> <Gold.PLP.Fitness>
46.3804

> <Gold.PLP.PLP>
-41.7680

> <Gold.PLP.part.hbond>
-1.2537

> <Gold.PLP.part.metal>
0.0000

> <Gold.PLP.part.buried>
-1.7045

> <Gold.PLP.part.nonpolar>
-40.0570

> <Gold.PLP.part.repulsive>
1.2956

> <Gold.PLP.ligand.clash>
0.0000

> <Gold.PLP.ligand.torsion>
0.7252

> <Gold.PLP.Chemscore.Hbond>
1.0000

> <Gold.PLP.Chemscore.CHOScore>
1.0000

> <Gold.PLP.Chemscore.Metal>
0.0000

> <Gold.Chemscore.Hbonds>
donor molecule, donor type, donor heavy atom, donor atom, acceptor molecule, acceptor atom, score
      P1  H  7997  8009       L1    17  0.77
      L1  C     5    24       P1  7948  1.00

> <Gold.PLP.Chemscore.Internal.Correction>
0.0628

> <Gold.Rescore>
     Score         DG    S(hbond)    S(metal)    S(lipo)     H(rot)  DE(clash)    DE(int)     intcor
     10.56     -13.83       0.53        0.00     105.93       2.28       2.52       0.75       ----

> <Gold.Chemscore.Fitness>
10.5584

> <Gold.Chemscore.DG>
-13.8334

> <Gold.Chemscore.ZeroCoef>
-5.4800

> <Gold.Chemscore.Hbond>
0.5344

> <Gold.Chemscore.Metal>
0.0000

> <Gold.Chemscore.Lipo>
105.9314

> <Gold.Chemscore.Internal_Hbond>
0.0000

> <Gold.Chemscore.DEClash>
2.5240

> <Gold.Chemscore.DEInternal>
0.7510

> <Gold.Chemscore.Rot>
2.2756

> <Gold.Chemscore.Internal.Correction>
   9.000000E+99

> <Gold.Chemscore.Hbonds>
donor molecule, donor type, donor heavy atom, donor atom, acceptor molecule, acceptor atom, score
      P1  H  7997  8009       L1     1  0.18

> <Gold.Chemscore.Hbond.Weighted>
-1.7848

> <Gold.Chemscore.Metal.Weighted>
-0.0000

> <Gold.Chemscore.Lipo.Weighted>
-12.3940

> <Gold.Chemscore.Internal_Hbond.Weighted>
0.0000

> <Gold.Chemscore.DEClash.Weighted>
2.5240

> <Gold.Chemscore.DEInternal.Weighted>
0.7510

> <Gold.Chemscore.Rot.Weighted>
5.8254

> <Gold.Chemscore.Internal.Correction.Weighted>
   9.000000E+99

> <Gold.Protein.RotatedTorsions>
[ 6907 6896 6895 6894 ] final  -85.02 input  -60.11 | X-H torsion
[ 7974 7965 7964 7962 ] final  -23.29 input  175.53 | X-H torsion
[ 8008 7997 7996 7995 ] final  163.69 input   59.86 | X-H torsion
[ 10167 10162 10161 10158 ] final   81.30 input  -65.29 | X-H torsion
[ 10718 10713 10712 10709 ] final  143.40 input   66.30 | X-H torsion
[ 10763 10752 10751 10750 ] final -171.75 input  -60.55 | X-H torsion
[ 11005 11000 10999 10996 ] final  -83.11 input  -57.11 | X-H torsion

> <Gold.Protein.ActiveResidues>
 VAL166  LYS551  ARG553  GLY616  TRP617  ASP618  TYR619  PRO620  LYS621  CYS622 
 ASP623  PHE694  ASN695  SER759  ASP760  ASP761  ALA762  ILE779  LEU786  VAL792 
 PHE793  MET794  SER795  GLU796  ALA797  LYS798  CYS799  TRP800  GLU811  SER814 

> <Gold.Protein.RotatedAtoms>
  150.6872  134.3270  159.4810 H   0  0  0  0  0  0  0  0  0  0  0  0  # atno 6907 bound_to 6896
  152.1139  134.9252  160.0575 H   0  0  0  0  0  0  0  0  0  0  0  0  # atno 6908 bound_to 6896
  152.0484  133.3973  159.4403 H   0  0  0  0  0  0  0  0  0  0  0  0  # atno 6909 bound_to 6896
  146.1625  140.4595  142.8565 H   0  0  0  0  0  0  0  0  0  0  0  0  # atno 7974 bound_to 7965
  156.1937  140.1716  156.8040 H   0  0  0  0  0  0  0  0  0  0  0  0  # atno 8008 bound_to 7997
  154.5503  140.0719  156.8689 H   0  0  0  0  0  0  0  0  0  0  0  0  # atno 8009 bound_to 7997
  155.3041  140.3363  155.4249 H   0  0  0  0  0  0  0  0  0  0  0  0  # atno 8010 bound_to 7997
  139.9407  144.6091  150.8255 H   0  0  0  0  0  0  0  0  0  0  0  0  # atno 10167 bound_to 10162
  157.3694  131.0976  151.0843 H   0  0  0  0  0  0  0  0  0  0  0  0  # atno 10718 bound_to 10713
  154.6270  135.2882  155.0260 H   0  0  0  0  0  0  0  0  0  0  0  0  # atno 10763 bound_to 10752
  154.1435  135.6515  153.4951 H   0  0  0  0  0  0  0  0  0  0  0  0  # atno 10764 bound_to 10752
  153.0262  135.5338  154.7082 H   0  0  0  0  0  0  0  0  0  0  0  0  # atno 10765 bound_to 10752
  141.1659  133.7278  156.8671 H   0  0  0  0  0  0  0  0  0  0  0  0  # atno 11005 bound_to 11000
  144.8046  140.6277  143.6455 LP  0  0  0  0  0  0  0  0  0  0  0  0  # atno 17320 bound_to 7965
  145.4552  139.1519  143.3896 LP  0  0  0  0  0  0  0  0  0  0  0  0  # atno 17321 bound_to 7965
  140.7612  143.3168  151.2715 LP  0  0  0  0  0  0  0  0  0  0  0  0  # atno 17342 bound_to 10162
  139.6707  144.0025  152.2751 LP  0  0  0  0  0  0  0  0  0  0  0  0  # atno 17343 bound_to 10162
  157.1953  130.6370  149.5719 LP  0  0  0  0  0  0  0  0  0  0  0  0  # atno 17370 bound_to 10713
  155.9752  130.4709  150.6445 LP  0  0  0  0  0  0  0  0  0  0  0  0  # atno 17371 bound_to 10713
  140.1808  134.9035  157.2945 LP  0  0  0  0  0  0  0  0  0  0  0  0  # atno 17394 bound_to 11000
  140.2398  134.3810  155.7485 LP  0  0  0  0  0  0  0  0  0  0  0  0  # atno 17395 bound_to 11000

$$$$
