AV-unprocessed.smi:817|AV-procd|sdf|3828|dock10
  -GOLD-   22720 1273D 1   1.00000     0.00000
 Structure written by MMmdl.
 48 49  0  0  0  0  0  0  0  0  2 V2000
  145.9227  133.9914  156.5282 C   0  0  0  0  0  0  0  0  0  0  0  0
  145.5484  133.4548  155.1395 C   0  0  2  0  0  0  0  0  0  0  0  0
  146.4454  132.2690  154.7396 C   0  0  0  0  0  0  0  0  0  0  0  0
  146.1258  131.7661  153.3244 C   0  0  0  0  0  0  0  0  0  0  0  0
  146.1882  132.9146  152.3010 C   0  0  0  0  0  0  0  0  0  0  0  0
  145.2127  134.0807  152.6449 C   0  0  1  0  0  0  0  0  0  0  0  0
  145.3933  135.2401  151.6178 C   0  0  0  0  0  0  0  0  0  0  0  0
  146.4487  136.1844  151.9904 N   0  0  0  0  0  0  0  0  0  0  0  0
  146.3011  137.4215  152.4949 C   0  0  0  0  0  0  0  0  0  0  0  0
  145.1853  137.9005  152.6818 O   0  0  0  0  0  0  0  0  0  0  0  0
  147.4641  138.0566  152.7407 N   0  0  0  0  0  0  0  0  0  0  0  0
  147.6731  139.3561  153.2760 C   0  0  0  0  0  0  0  0  0  0  0  0
  146.5577  140.0380  153.8048 C   0  0  0  0  0  0  0  0  0  0  0  0
  146.7289  141.3334  154.3283 C   0  0  0  0  0  0  0  0  0  0  0  0
  148.0159  141.9037  154.2950 C   0  0  0  0  0  0  0  0  0  0  0  0
  149.0913  141.2726  153.7789 N   0  0  0  0  0  0  0  0  0  0  0  0
  148.9202  140.0296  153.2794 C   0  0  0  0  0  0  0  0  0  0  0  0
  143.7833  133.5897  152.6390 N   0  3  0  0  0  0  0  0  0  0  0  0
  143.3686  132.8071  151.4445 C   0  0  0  0  0  0  0  0  0  0  0  0
  142.7467  134.6011  152.9775 C   0  0  0  0  0  0  0  0  0  0  0  0
  145.6199  134.5678  154.0701 C   0  0  0  0  0  0  0  0  0  0  0  0
  146.9433  134.3756  156.5439 H   0  0  0  0  0  0  0  0  0  0  0  0
  145.8505  133.2091  157.2844 H   0  0  0  0  0  0  0  0  0  0  0  0
  145.2580  134.8018  156.8289 H   0  0  0  0  0  0  0  0  0  0  0  0
  144.5210  133.0947  155.2025 H   0  0  0  0  0  0  0  0  0  0  0  0
  147.4928  132.5709  154.7847 H   0  0  0  0  0  0  0  0  0  0  0  0
  146.3303  131.4531  155.4542 H   0  0  0  0  0  0  0  0  0  0  0  0
  146.8355  130.9868  153.0456 H   0  0  0  0  0  0  0  0  0  0  0  0
  145.1406  131.2987  153.3103 H   0  0  0  0  0  0  0  0  0  0  0  0
  147.2145  133.2832  152.2888 H   0  0  0  0  0  0  0  0  0  0  0  0
  146.0266  132.5340  151.2935 H   0  0  0  0  0  0  0  0  0  0  0  0
  145.6405  134.8422  150.6335 H   0  0  0  0  0  0  0  0  0  0  0  0
  144.4658  135.8029  151.5120 H   0  0  0  0  0  0  0  0  0  0  0  0
  147.3971  135.8680  151.8473 H   0  0  0  0  0  0  0  0  0  0  0  0
  148.3010  137.5662  152.4624 H   0  0  0  0  0  0  0  0  0  0  0  0
  145.5816  139.5753  153.8141 H   0  0  0  0  0  0  0  0  0  0  0  0
  145.8945  141.8773  154.7455 H   0  0  0  0  0  0  0  0  0  0  0  0
  148.1853  142.8950  154.6885 H   0  0  0  0  0  0  0  0  0  0  0  0
  149.8109  139.5897  152.8593 H   0  0  0  0  0  0  0  0  0  0  0  0
  143.3668  133.4144  150.5400 H   0  0  0  0  0  0  0  0  0  0  0  0
  142.3550  132.4276  151.5782 H   0  0  0  0  0  0  0  0  0  0  0  0
  143.9933  131.9318  151.2777 H   0  0  0  0  0  0  0  0  0  0  0  0
  142.7062  135.4054  152.2435 H   0  0  0  0  0  0  0  0  0  0  0  0
  142.8923  135.0352  153.9651 H   0  0  0  0  0  0  0  0  0  0  0  0
  141.7603  134.1366  153.0009 H   0  0  0  0  0  0  0  0  0  0  0  0
  145.0308  135.4317  154.3766 H   0  0  0  0  0  0  0  0  0  0  0  0
  146.6464  134.9363  154.0522 H   0  0  0  0  0  0  0  0  0  0  0  0
  143.7461  132.9270  153.4007 H   0  0  0  0  0  0  0  0  0  0  0  0
  1  2  1  0  0  0  0
  1 22  1  0  0  0  0
  1 23  1  0  0  0  0
  1 24  1  0  0  0  0
  2 21  1  0  0  0  0
  2  3  1  0  0  0  0
  2 25  1  0  0  0  0
  3  4  1  0  0  0  0
  3 26  1  0  0  0  0
  3 27  1  0  0  0  0
  4  5  1  0  0  0  0
  4 28  1  0  0  0  0
  4 29  1  0  0  0  0
  5  6  1  0  0  0  0
  5 30  1  0  0  0  0
  5 31  1  0  0  0  0
  6  7  1  0  0  0  0
  6 18  1  0  0  0  0
  6 21  1  0  0  0  0
  7  8  1  0  0  0  0
  7 32  1  0  0  0  0
  7 33  1  0  0  0  0
  8  9  1  0  0  0  0
  8 34  1  0  0  0  0
  9 10  2  0  0  0  0
  9 11  1  0  0  0  0
 11 12  1  0  0  0  0
 11 35  1  0  0  0  0
 12 17  1  0  0  0  0
 12 13  2  0  0  0  0
 13 14  1  0  0  0  0
 13 36  1  0  0  0  0
 14 15  2  0  0  0  0
 14 37  1  0  0  0  0
 15 16  1  0  0  0  0
 15 38  1  0  0  0  0
 16 17  2  0  0  0  0
 17 39  1  0  0  0  0
 18 19  1  0  0  0  0
 18 20  1  0  0  0  0
 18 48  1  0  0  0  0
 19 40  1  0  0  0  0
 19 41  1  0  0  0  0
 19 42  1  0  0  0  0
 20 43  1  0  0  0  0
 20 44  1  0  0  0  0
 20 45  1  0  0  0  0
 21 46  1  0  0  0  0
 21 47  1  0  0  0  0
M  CHG  1  18   1
M  END
> <s_m_source_file>
AV-unprocessed.smi

> <i_m_source_file_index>
817

> <i_lp_mmshare_version>
43012

> <i_f3d_flags>
0

> <s_epik_input>
W0NIM11bQ0BASF0oW0NIMl0xKVtDSDJdW0NIMl1bQ0gyXVtDQF0xKE4oW0NIM10pW0NIM10pW0NIMl1bTkhdQyg9TylbTkhdYzJbY0hdW2NIXVtjSF1uW2NIXTI=

> <s_epik_cmdline>
J2VwaWtfcHl0aG9uJywgJy1waCcsICc3LjAnLCAnLXRuJywgJzgnLCAnLW1hJywgJzIwMCcsICctbWV0YWxfYmluZGluZycsICctaW1hZScsICc8aW5maWxlLm1hZT4nLCAnLW9tYWUnLCAnPG91dGZpbGUubWFlPic=

> <r_lp_tautomer_probability>
1

> <r_epik_Ionization_Penalty>
0.00584939

> <r_epik_Ionization_Penalty_Charging>
0.00160539

> <r_epik_Ionization_Penalty_Neutral>
0.004244

> <r_epik_State_Penalty>
-0

> <r_epik_Charging_Adjusted_Penalty>
0.00160539

> <i_epik_Tot_Q>
1

> <i_epik_Tot_abs_Q>
1

> <r_epik_Metal_State_Penalty>
-0

> <b_epik_Metal_Only>
0

> <s_lp_Force_Field>
OPLS_2005

> <r_lp_Energy>
44.2375

> <b_lp_Chiralities_Consistent>
1

> <s_lp_Variant>
AV-unprocessed.smi:817-1

> <Gold.Version>
5.8.1

> <Gold.Id.Protein>
6NUR|6NUR_protein|mol2

> <Gold.PLP.Fitness>
37.4628

> <Gold.PLP.PLP>
-21.8814

> <Gold.PLP.part.hbond>
-4.3099

> <Gold.PLP.part.metal>
0.0000

> <Gold.PLP.part.buried>
3.1956

> <Gold.PLP.part.nonpolar>
-24.6702

> <Gold.PLP.part.repulsive>
2.0774

> <Gold.PLP.ligand.clash>
0.0000

> <Gold.PLP.ligand.torsion>
0.7688

> <Gold.PLP.Chemscore.Hbond>
4.3780

> <Gold.PLP.Chemscore.CHOScore>
1.2885

> <Gold.PLP.Chemscore.Metal>
0.0000

> <Gold.Chemscore.Hbonds>
donor molecule, donor type, donor heavy atom, donor atom, acceptor molecule, acceptor atom, score
      L1  H     8    34       P1  7948  0.98
      L1  H    11    35       P1  7948  0.98
      L1  H    18    48       P1 10957  1.66
      P1  H  8011  8017       L1    16  0.86
      L1  C    15    38       P1  8028  1.00
      L1  C    17    39       P1  7957  0.14

> <Gold.PLP.Chemscore.Internal.Correction>
0.1194

> <Gold.Rescore>
     Score         DG    S(hbond)    S(metal)    S(lipo)     H(rot)  DE(clash)    DE(int)     intcor
     14.43     -20.18       3.14        0.00      67.43       1.44       3.45       2.30       ----

> <Gold.Chemscore.Fitness>
14.4292

> <Gold.Chemscore.DG>
-20.1815

> <Gold.Chemscore.ZeroCoef>
-5.4800

> <Gold.Chemscore.Hbond>
3.1437

> <Gold.Chemscore.Metal>
0.0000

> <Gold.Chemscore.Lipo>
67.4296

> <Gold.Chemscore.Internal_Hbond>
0.0000

> <Gold.Chemscore.DEClash>
3.4500

> <Gold.Chemscore.DEInternal>
2.3023

> <Gold.Chemscore.Rot>
1.4405

> <Gold.Chemscore.Internal.Correction>
   9.000000E+99

> <Gold.Chemscore.Hbonds>
donor molecule, donor type, donor heavy atom, donor atom, acceptor molecule, acceptor atom, score
      L1  H     8    34       P1  7948  0.90
      L1  H    11    35       P1  7948  0.91
      L1  H    18    48       P1 10957  0.58
      P1  H  8011  8017       L1    16  0.33

> <Gold.Chemscore.Hbond.Weighted>
-10.5000

> <Gold.Chemscore.Metal.Weighted>
-0.0000

> <Gold.Chemscore.Lipo.Weighted>
-7.8893

> <Gold.Chemscore.Internal_Hbond.Weighted>
0.0000

> <Gold.Chemscore.DEClash.Weighted>
3.4500

> <Gold.Chemscore.DEInternal.Weighted>
2.3023

> <Gold.Chemscore.Rot.Weighted>
3.6878

> <Gold.Chemscore.Internal.Correction.Weighted>
   9.000000E+99

> <Gold.Protein.RotatedTorsions>
[ 6907 6896 6895 6894 ] final   74.02 input  -60.11 | X-H torsion
[ 7974 7965 7964 7962 ] final  -82.42 input  175.53 | X-H torsion
[ 8008 7997 7996 7995 ] final  147.54 input   59.86 | X-H torsion
[ 10167 10162 10161 10158 ] final -114.84 input  -65.29 | X-H torsion
[ 10718 10713 10712 10709 ] final   51.42 input   66.30 | X-H torsion
[ 10763 10752 10751 10750 ] final    2.74 input  -60.55 | X-H torsion
[ 11005 11000 10999 10996 ] final  177.86 input  -57.11 | X-H torsion

> <Gold.Protein.ActiveResidues>
 VAL166  LYS551  ARG553  GLY616  TRP617  ASP618  TYR619  PRO620  LYS621  CYS622 
 ASP623  PHE694  ASN695  SER759  ASP760  ASP761  ALA762  ILE779  LEU786  VAL792 
 PHE793  MET794  SER795  GLU796  ALA797  LYS798  CYS799  TRP800  GLU811  SER814 

> <Gold.Protein.RotatedAtoms>
  152.4954  134.4335  159.9519 H   0  0  0  0  0  0  0  0  0  0  0  0  # atno 6907 bound_to 6896
  151.4314  133.3663  159.2777 H   0  0  0  0  0  0  0  0  0  0  0  0  # atno 6908 bound_to 6896
  150.9151  134.8592  159.7511 H   0  0  0  0  0  0  0  0  0  0  0  0  # atno 6909 bound_to 6896
  145.5335  140.9518  143.1590 H   0  0  0  0  0  0  0  0  0  0  0  0  # atno 7974 bound_to 7965
  156.2821  140.2153  156.5555 H   0  0  0  0  0  0  0  0  0  0  0  0  # atno 8008 bound_to 7997
  154.7256  140.0500  157.0702 H   0  0  0  0  0  0  0  0  0  0  0  0  # atno 8009 bound_to 7997
  155.0421  140.3147  155.4724 H   0  0  0  0  0  0  0  0  0  0  0  0  # atno 8010 bound_to 7997
  140.0966  143.4651  152.1838 H   0  0  0  0  0  0  0  0  0  0  0  0  # atno 10167 bound_to 10162
  157.4979  130.8418  149.8281 H   0  0  0  0  0  0  0  0  0  0  0  0  # atno 10718 bound_to 10713
  153.2919  135.6949  153.7285 H   0  0  0  0  0  0  0  0  0  0  0  0  # atno 10763 bound_to 10752
  153.6232  135.3423  155.3018 H   0  0  0  0  0  0  0  0  0  0  0  0  # atno 10764 bound_to 10752
  154.8526  135.4391  154.2004 H   0  0  0  0  0  0  0  0  0  0  0  0  # atno 10765 bound_to 10752
  140.3887  134.6881  157.4494 H   0  0  0  0  0  0  0  0  0  0  0  0  # atno 11005 bound_to 11000
  144.7613  139.6949  143.7233 LP  0  0  0  0  0  0  0  0  0  0  0  0  # atno 17320 bound_to 7965
  146.2028  139.5334  142.9732 LP  0  0  0  0  0  0  0  0  0  0  0  0  # atno 17321 bound_to 7965
  139.5695  144.7454  151.3931 LP  0  0  0  0  0  0  0  0  0  0  0  0  # atno 17342 bound_to 10162
  140.7000  143.7655  150.7388 LP  0  0  0  0  0  0  0  0  0  0  0  0  # atno 17343 bound_to 10162
  156.0211  130.3795  150.1958 LP  0  0  0  0  0  0  0  0  0  0  0  0  # atno 17370 bound_to 10713
  157.0148  130.9961  151.3356 LP  0  0  0  0  0  0  0  0  0  0  0  0  # atno 17371 bound_to 10713
  140.0423  134.6250  155.8965 LP  0  0  0  0  0  0  0  0  0  0  0  0  # atno 17394 bound_to 11000
  141.1898  133.6566  156.5385 LP  0  0  0  0  0  0  0  0  0  0  0  0  # atno 17395 bound_to 11000

$$$$
