AV-unprocessed.smi:2454|AV-procd|sdf|9696|dock6
  -GOLD-   2272013333D 1   1.00000     0.00000
 Structure written by MMmdl.
 42 43  0  0  0  0  0  0  0  0  1 V2000
  151.8060  139.7971  156.0102 C   0  0  0  0  0  0  0  0  0  0  0  0
  151.1481  140.1598  154.8091 O   0  0  0  0  0  0  0  0  0  0  0  0
  149.8809  140.7518  155.0407 C   0  0  0  0  0  0  0  0  0  0  0  0
  148.8246  139.7019  155.3167 C   0  0  0  0  0  0  0  0  0  0  0  0
  148.5701  138.6606  154.3995 C   0  0  0  0  0  0  0  0  0  0  0  0
  147.5599  137.7311  154.7350 C   0  0  0  0  0  0  0  0  0  0  0  0
  147.3455  136.6977  153.7760 N   0  0  0  0  0  0  0  0  0  0  0  0
  146.3738  135.7665  153.6660 C   0  0  0  0  0  0  0  0  0  0  0  0
  145.4605  135.7074  154.4877 O   0  0  0  0  0  0  0  0  0  0  0  0
  146.4730  134.9269  152.6221 N   0  0  0  0  0  0  0  0  0  0  0  0
  145.5564  133.8395  152.2937 C   0  0  1  0  0  0  0  0  0  0  0  0
  144.9590  134.0713  150.8945 C   0  0  0  0  0  0  0  0  0  0  0  0
  144.0585  132.9010  150.4728 C   0  0  0  0  0  0  0  0  0  0  0  0
  144.8140  131.5643  150.5374 C   0  0  0  0  0  0  0  0  0  0  0  0
  145.4068  131.3122  151.9401 C   0  0  1  0  0  0  0  0  0  0  0  0
  146.1531  129.9644  152.0196 C   0  0  0  0  0  0  0  0  0  0  0  0
  145.2998  128.9434  151.9353 F   0  0  0  0  0  0  0  0  0  0  0  0
  147.0362  129.8715  151.0252 F   0  0  0  0  0  0  0  0  0  0  0  0
  146.8163  129.8770  153.1727 F   0  0  0  0  0  0  0  0  0  0  0  0
  146.3065  132.4957  152.3564 C   0  0  0  0  0  0  0  0  0  0  0  0
  146.8828  137.8688  155.9039 N   0  0  0  0  0  0  0  0  0  0  0  0
  147.2017  138.8922  156.6998 C   0  0  0  0  0  0  0  0  0  0  0  0
  148.1349  139.8165  156.4714 N   0  0  0  0  0  0  0  0  0  0  0  0
  152.7752  139.3555  155.7783 H   0  0  0  0  0  0  0  0  0  0  0  0
  151.2271  139.0620  156.5704 H   0  0  0  0  0  0  0  0  0  0  0  0
  151.9763  140.6674  156.6454 H   0  0  0  0  0  0  0  0  0  0  0  0
  149.9375  141.4314  155.8925 H   0  0  0  0  0  0  0  0  0  0  0  0
  149.5820  141.3474  154.1760 H   0  0  0  0  0  0  0  0  0  0  0  0
  149.1267  138.5835  153.4766 H   0  0  0  0  0  0  0  0  0  0  0  0
  148.0474  136.6523  153.0519 H   0  0  0  0  0  0  0  0  0  0  0  0
  147.2591  135.0554  152.0002 H   0  0  0  0  0  0  0  0  0  0  0  0
  144.7356  133.8034  153.0124 H   0  0  0  0  0  0  0  0  0  0  0  0
  144.3868  134.9999  150.8803 H   0  0  0  0  0  0  0  0  0  0  0  0
  145.7608  134.1911  150.1642 H   0  0  0  0  0  0  0  0  0  0  0  0
  143.1845  132.8590  151.1241 H   0  0  0  0  0  0  0  0  0  0  0  0
  143.6833  133.0674  149.4627 H   0  0  0  0  0  0  0  0  0  0  0  0
  144.1373  130.7542  150.2643 H   0  0  0  0  0  0  0  0  0  0  0  0
  145.6114  131.5628  149.7933 H   0  0  0  0  0  0  0  0  0  0  0  0
  144.5763  131.2652  152.6463 H   0  0  0  0  0  0  0  0  0  0  0  0
  147.1825  132.5343  151.7070 H   0  0  0  0  0  0  0  0  0  0  0  0
  146.6818  132.3376  153.3682 H   0  0  0  0  0  0  0  0  0  0  0  0
  146.6477  138.9792  157.6227 H   0  0  0  0  0  0  0  0  0  0  0  0
  1  2  1  0  0  0  0
  1 24  1  0  0  0  0
  1 25  1  0  0  0  0
  1 26  1  0  0  0  0
  2  3  1  0  0  0  0
  3  4  1  0  0  0  0
  3 27  1  0  0  0  0
  3 28  1  0  0  0  0
  4 23  1  0  0  0  0
  4  5  2  0  0  0  0
  5  6  1  0  0  0  0
  5 29  1  0  0  0  0
  6  7  1  0  0  0  0
  6 21  2  0  0  0  0
  7  8  1  0  0  0  0
  7 30  1  0  0  0  0
  8  9  2  0  0  0  0
  8 10  1  0  0  0  0
 10 11  1  0  0  0  0
 10 31  1  0  0  0  0
 11 20  1  0  0  0  0
 11 12  1  0  0  0  0
 11 32  1  0  0  0  0
 12 13  1  0  0  0  0
 12 33  1  0  0  0  0
 12 34  1  0  0  0  0
 13 14  1  0  0  0  0
 13 35  1  0  0  0  0
 13 36  1  0  0  0  0
 14 15  1  0  0  0  0
 14 37  1  0  0  0  0
 14 38  1  0  0  0  0
 15 16  1  0  0  0  0
 15 20  1  0  0  0  0
 15 39  1  0  0  0  0
 16 17  1  0  0  0  0
 16 18  1  0  0  0  0
 16 19  1  0  0  0  0
 20 40  1  0  0  0  0
 20 41  1  0  0  0  0
 21 22  1  0  0  0  0
 22 23  2  0  0  0  0
 22 42  1  0  0  0  0
M  END
> <s_m_source_file>
AV-unprocessed.smi

> <i_m_source_file_index>
2454

> <i_lp_mmshare_version>
43012

> <i_f3d_flags>
0

> <s_epik_input>
W0NIM11PW0NIMl1jMVtjSF1jKG5bY0hdbjEpW05IXUMoPU8pW05IXVtDQEBIXTJbQ0gyXVtDSDJdW0NIMl1bQ0BASF0oQyhGKShGKUYpW0NIMl0y

> <s_epik_cmdline>
J2VwaWtfcHl0aG9uJywgJy1waCcsICc3LjAnLCAnLXRuJywgJzgnLCAnLW1hJywgJzIwMCcsICctbWV0YWxfYmluZGluZycsICctaW1hZScsICc8aW5maWxlLm1hZT4nLCAnLW9tYWUnLCAnPG91dGZpbGUubWFlPic=

> <r_lp_tautomer_probability>
1

> <r_epik_Ionization_Penalty>
3.01554e-05

> <r_epik_Ionization_Penalty_Charging>
0

> <r_epik_Ionization_Penalty_Neutral>
3.01554e-05

> <r_epik_State_Penalty>
-0

> <r_epik_Charging_Adjusted_Penalty>
0

> <i_epik_Tot_Q>
0

> <i_epik_Tot_abs_Q>
0

> <r_epik_Metal_State_Penalty>
-0

> <b_epik_Metal_Only>
0

> <s_lp_Force_Field>
OPLS_2005

> <r_lp_Energy>
13.6068

> <b_lp_Chiralities_Consistent>
1

> <s_lp_Variant>
AV-unprocessed.smi:2454-2

> <Gold.Version>
5.8.1

> <Gold.Id.Protein>
6NUR|6NUR_protein|mol2

> <Gold.PLP.Fitness>
39.0136

> <Gold.PLP.PLP>
-31.1794

> <Gold.PLP.part.hbond>
-2.9573

> <Gold.PLP.part.metal>
0.0000

> <Gold.PLP.part.buried>
1.2751

> <Gold.PLP.part.nonpolar>
-28.6243

> <Gold.PLP.part.repulsive>
0.1111

> <Gold.PLP.ligand.clash>
0.0000

> <Gold.PLP.ligand.torsion>
0.3275

> <Gold.PLP.Chemscore.Hbond>
2.8160

> <Gold.PLP.Chemscore.CHOScore>
0.0000

> <Gold.PLP.Chemscore.Metal>
0.0000

> <Gold.Chemscore.Hbonds>
donor molecule, donor type, donor heavy atom, donor atom, acceptor molecule, acceptor atom, score
      L1  H     7    30       P1  7948  1.00
      L1  H    10    31       P1  7948  0.82
      P1  H  7989  7998       L1     2  1.00

> <Gold.PLP.Chemscore.Internal.Correction>
0.0413

> <Gold.Rescore>
     Score         DG    S(hbond)    S(metal)    S(lipo)     H(rot)  DE(clash)    DE(int)     intcor
     16.38     -19.00       2.77        0.00      71.52       1.60       1.05       1.58       ----

> <Gold.Chemscore.Fitness>
16.3790

> <Gold.Chemscore.DG>
-19.0033

> <Gold.Chemscore.ZeroCoef>
-5.4800

> <Gold.Chemscore.Hbond>
2.7726

> <Gold.Chemscore.Metal>
0.0000

> <Gold.Chemscore.Lipo>
71.5197

> <Gold.Chemscore.Internal_Hbond>
0.0000

> <Gold.Chemscore.DEClash>
1.0474

> <Gold.Chemscore.DEInternal>
1.5768

> <Gold.Chemscore.Rot>
1.6035

> <Gold.Chemscore.Internal.Correction>
   9.000000E+99

> <Gold.Chemscore.Hbonds>
donor molecule, donor type, donor heavy atom, donor atom, acceptor molecule, acceptor atom, score
      L1  H     7    30       P1  7948  0.95
      L1  H    10    31       P1  7948  0.72
      P1  H  7989  7998       L1     2  0.38

> <Gold.Chemscore.Hbond.Weighted>
-9.2605

> <Gold.Chemscore.Metal.Weighted>
-0.0000

> <Gold.Chemscore.Lipo.Weighted>
-8.3678

> <Gold.Chemscore.Internal_Hbond.Weighted>
0.0000

> <Gold.Chemscore.DEClash.Weighted>
1.0474

> <Gold.Chemscore.DEInternal.Weighted>
1.5768

> <Gold.Chemscore.Rot.Weighted>
4.1050

> <Gold.Chemscore.Internal.Correction.Weighted>
   9.000000E+99

> <Gold.Protein.RotatedTorsions>
[ 6907 6896 6895 6894 ] final  -93.52 input  -60.11 | X-H torsion
[ 7974 7965 7964 7962 ] final   68.83 input  175.53 | X-H torsion
[ 8008 7997 7996 7995 ] final  -67.59 input   59.86 | X-H torsion
[ 10167 10162 10161 10158 ] final   -1.33 input  -65.29 | X-H torsion
[ 10718 10713 10712 10709 ] final   35.62 input   66.30 | X-H torsion
[ 10763 10752 10751 10750 ] final  -76.17 input  -60.55 | X-H torsion
[ 11005 11000 10999 10996 ] final  -94.73 input  -57.11 | X-H torsion

> <Gold.Protein.ActiveResidues>
 VAL166  LYS551  ARG553  GLY616  TRP617  ASP618  TYR619  PRO620  LYS621  CYS622 
 ASP623  PHE694  ASN695  SER759  ASP760  ASP761  ALA762  ILE779  LEU786  VAL792 
 PHE793  MET794  SER795  GLU796  ALA797  LYS798  CYS799  TRP800  GLU811  SER814 

> <Gold.Protein.RotatedAtoms>
  150.6924  134.1954  159.4301 H   0  0  0  0  0  0  0  0  0  0  0  0  # atno 6907 bound_to 6896
  151.9923  134.9970  160.0571 H   0  0  0  0  0  0  0  0  0  0  0  0  # atno 6908 bound_to 6896
  152.1656  133.4575  159.4920 H   0  0  0  0  0  0  0  0  0  0  0  0  # atno 6909 bound_to 6896
  145.7978  139.2967  143.1172 H   0  0  0  0  0  0  0  0  0  0  0  0  # atno 7974 bound_to 7965
  154.4810  140.0889  156.7377 H   0  0  0  0  0  0  0  0  0  0  0  0  # atno 8008 bound_to 7997
  155.4471  140.3456  155.4278 H   0  0  0  0  0  0  0  0  0  0  0  0  # atno 8009 bound_to 7997
  156.1191  140.1469  156.9219 H   0  0  0  0  0  0  0  0  0  0  0  0  # atno 8010 bound_to 7997
  140.6806  143.6788  150.8123 H   0  0  0  0  0  0  0  0  0  0  0  0  # atno 10167 bound_to 10162
  157.3249  130.7467  149.6809 H   0  0  0  0  0  0  0  0  0  0  0  0  # atno 10718 bound_to 10713
  154.4963  135.5806  153.6497 H   0  0  0  0  0  0  0  0  0  0  0  0  # atno 10763 bound_to 10752
  152.9871  135.6125  154.3060 H   0  0  0  0  0  0  0  0  0  0  0  0  # atno 10764 bound_to 10752
  154.2964  135.2847  155.2611 H   0  0  0  0  0  0  0  0  0  0  0  0  # atno 10765 bound_to 10752
  141.1462  133.7976  157.0338 H   0  0  0  0  0  0  0  0  0  0  0  0  # atno 11005 bound_to 11000
  145.9909  140.8603  143.0067 LP  0  0  0  0  0  0  0  0  0  0  0  0  # atno 17320 bound_to 7965
  144.6773  140.2214  143.7366 LP  0  0  0  0  0  0  0  0  0  0  0  0  # atno 17321 bound_to 7965
  140.0487  143.5272  152.2684 LP  0  0  0  0  0  0  0  0  0  0  0  0  # atno 17342 bound_to 10162
  139.6125  144.7612  151.2919 LP  0  0  0  0  0  0  0  0  0  0  0  0  # atno 17343 bound_to 10162
  155.9689  130.4212  150.4459 LP  0  0  0  0  0  0  0  0  0  0  0  0  # atno 17370 bound_to 10713
  157.2481  131.0540  151.2396 LP  0  0  0  0  0  0  0  0  0  0  0  0  # atno 17371 bound_to 10713
  140.0737  134.9688  157.1510 LP  0  0  0  0  0  0  0  0  0  0  0  0  # atno 17394 bound_to 11000
  140.3674  134.2427  155.7181 LP  0  0  0  0  0  0  0  0  0  0  0  0  # atno 17395 bound_to 11000

$$$$
