AV-unprocessed.smi:3354|AV-procd|sdf|12955|dock2
  -GOLD-   2272019393D 1   1.00000     0.00000
 Structure written by MMmdl.
 38 40  0  0  0  0  0  0  0  0  1 V2000
  148.0634  128.2144  151.9542 C   0  0  0  0  0  0  0  0  0  0  0  0
  147.6407  129.2114  153.0112 C   0  0  2  0  0  0  0  0  0  0  0  0
  146.1828  129.5737  153.1679 C   0  0  0  0  0  0  0  0  0  0  0  0
  147.1643  130.5961  152.6284 C   0  0  1  0  0  0  0  0  0  0  0  0
  147.5769  131.7072  153.4349 N   0  0  0  0  0  0  0  0  0  0  0  0
  148.7421  132.5187  153.1107 C   0  0  0  0  0  0  0  0  0  0  0  0
  149.0566  133.3185  154.3896 C   0  0  1  0  0  0  0  0  0  0  0  0
  149.3300  134.7249  154.1057 N   0  0  0  0  0  0  0  0  0  0  0  0
  149.9732  135.5637  154.9297 C   0  0  0  0  0  0  0  0  0  0  0  0
  150.4288  135.2223  156.0208 O   0  0  0  0  0  0  0  0  0  0  0  0
  150.0580  136.7949  154.3967 N   0  0  0  0  0  0  0  0  0  0  0  0
  150.6266  137.9751  154.9502 C   0  0  0  0  0  0  0  0  0  0  0  0
  151.5214  138.0000  156.0483 C   0  0  0  0  0  0  0  0  0  0  0  0
  151.9980  139.2426  156.5088 C   0  0  0  0  0  0  0  0  0  0  0  0
  151.5601  140.4140  155.8614 C   0  0  0  0  0  0  0  0  0  0  0  0
  150.7004  140.4066  154.8213 N   0  0  0  0  0  0  0  0  0  0  0  0
  150.2475  139.2118  154.3854 C   0  0  0  0  0  0  0  0  0  0  0  0
  147.8241  133.1502  155.2876 C   0  0  0  0  0  0  0  0  0  0  0  0
  147.0617  132.0122  154.6312 C   0  0  0  0  0  0  0  0  0  0  0  0
  146.1042  131.4576  155.1695 O   0  0  0  0  0  0  0  0  0  0  0  0
  147.4619  128.3267  151.0518 H   0  0  0  0  0  0  0  0  0  0  0  0
  147.9431  127.1979  152.3286 H   0  0  0  0  0  0  0  0  0  0  0  0
  149.1107  128.3683  151.6944 H   0  0  0  0  0  0  0  0  0  0  0  0
  148.2137  129.1377  153.9340 H   0  0  0  0  0  0  0  0  0  0  0  0
  145.4765  129.1437  152.4607 H   0  0  0  0  0  0  0  0  0  0  0  0
  145.8095  129.6708  154.1850 H   0  0  0  0  0  0  0  0  0  0  0  0
  147.0787  130.7992  151.5618 H   0  0  0  0  0  0  0  0  0  0  0  0
  149.5909  131.9000  152.8160 H   0  0  0  0  0  0  0  0  0  0  0  0
  148.4923  133.1735  152.2741 H   0  0  0  0  0  0  0  0  0  0  0  0
  149.9156  132.8718  154.8949 H   0  0  0  0  0  0  0  0  0  0  0  0
  148.9953  135.0855  153.2241 H   0  0  0  0  0  0  0  0  0  0  0  0
  149.6925  136.8947  153.4611 H   0  0  0  0  0  0  0  0  0  0  0  0
  151.8422  137.1035  156.5544 H   0  0  0  0  0  0  0  0  0  0  0  0
  152.6812  139.2962  157.3434 H   0  0  0  0  0  0  0  0  0  0  0  0
  151.9056  141.3827  156.1911 H   0  0  0  0  0  0  0  0  0  0  0  0
  149.5584  139.2454  153.5539 H   0  0  0  0  0  0  0  0  0  0  0  0
  148.0959  132.9054  156.3151 H   0  0  0  0  0  0  0  0  0  0  0  0
  147.1924  134.0396  155.2977 H   0  0  0  0  0  0  0  0  0  0  0  0
  1  2  1  0  0  0  0
  1 21  1  0  0  0  0
  1 22  1  0  0  0  0
  1 23  1  0  0  0  0
  2  4  1  0  0  0  0
  2  3  1  0  0  0  0
  2 24  1  0  0  0  0
  3  4  1  0  0  0  0
  3 25  1  0  0  0  0
  3 26  1  0  0  0  0
  4  5  1  0  0  0  0
  4 27  1  0  0  0  0
  5 19  1  0  0  0  0
  5  6  1  0  0  0  0
  6  7  1  0  0  0  0
  6 28  1  0  0  0  0
  6 29  1  0  0  0  0
  7  8  1  0  0  0  0
  7 18  1  0  0  0  0
  7 30  1  0  0  0  0
  8  9  1  0  0  0  0
  8 31  1  0  0  0  0
  9 10  2  0  0  0  0
  9 11  1  0  0  0  0
 11 12  1  0  0  0  0
 11 32  1  0  0  0  0
 12 17  1  0  0  0  0
 12 13  2  0  0  0  0
 13 14  1  0  0  0  0
 13 33  1  0  0  0  0
 14 15  2  0  0  0  0
 14 34  1  0  0  0  0
 15 16  1  0  0  0  0
 15 35  1  0  0  0  0
 16 17  2  0  0  0  0
 17 36  1  0  0  0  0
 18 19  1  0  0  0  0
 18 37  1  0  0  0  0
 18 38  1  0  0  0  0
 19 20  2  0  0  0  0
M  END
> <s_m_source_file>
AV-unprocessed.smi

> <i_m_source_file_index>
3354

> <i_lp_mmshare_version>
43012

> <i_f3d_flags>
0

> <s_epik_input>
W0NIM11bQ0BASF0xW0NIMl1bQ0BIXTFOMltDSDJdW0NASF0oW0NIMl1DMj1PKVtOSF1DKD1PKVtOSF1jM1tjSF1bY0hdW2NIXW5bY0hdMw==

> <s_epik_cmdline>
J2VwaWtfcHl0aG9uJywgJy1waCcsICc3LjAnLCAnLXRuJywgJzgnLCAnLW1hJywgJzIwMCcsICctbWV0YWxfYmluZGluZycsICctaW1hZScsICc8aW5maWxlLm1hZT4nLCAnLW9tYWUnLCAnPG91dGZpbGUubWFlPic=

> <r_epik_Ionization_Penalty>
0.00456191

> <r_epik_Ionization_Penalty_Charging>
0

> <r_epik_Ionization_Penalty_Neutral>
0.00456191

> <r_epik_State_Penalty>
0.00327094

> <r_epik_Charging_Adjusted_Penalty>
0.00327094

> <i_epik_Tot_Q>
0

> <i_epik_Tot_abs_Q>
0

> <r_epik_Metal_State_Penalty>
-0

> <b_epik_Metal_Only>
0

> <s_lp_Force_Field>
OPLS_2005

> <r_lp_Energy>
43.1486

> <b_lp_Chiralities_Consistent>
1

> <s_lp_Variant>
AV-unprocessed.smi:3354-1

> <Gold.Version>
5.8.1

> <Gold.Id.Protein>
6NUR|6NUR_protein|mol2

> <Gold.PLP.Fitness>
40.2454

> <Gold.PLP.PLP>
-29.6068

> <Gold.PLP.part.hbond>
-3.4196

> <Gold.PLP.part.metal>
0.0000

> <Gold.PLP.part.buried>
-0.0320

> <Gold.PLP.part.nonpolar>
-25.7637

> <Gold.PLP.part.repulsive>
0.3539

> <Gold.PLP.ligand.clash>
0.0051

> <Gold.PLP.ligand.torsion>
0.7576

> <Gold.PLP.Chemscore.Hbond>
3.0000

> <Gold.PLP.Chemscore.CHOScore>
0.9962

> <Gold.PLP.Chemscore.Metal>
0.0000

> <Gold.Chemscore.Hbonds>
donor molecule, donor type, donor heavy atom, donor atom, acceptor molecule, acceptor atom, score
      L1  H     8    31       P1  7948  1.00
      L1  H    11    32       P1  7948  1.00
      P1  H  7989  7998       L1    16  1.00
      L1  C    17    36       P1  7957  1.00

> <Gold.PLP.Chemscore.Internal.Correction>
0.1702

> <Gold.Rescore>
     Score         DG    S(hbond)    S(metal)    S(lipo)     H(rot)  DE(clash)    DE(int)     intcor
     12.57     -15.92       1.52        0.00      72.95       1.24       0.06       3.29       ----

> <Gold.Chemscore.Fitness>
12.5697

> <Gold.Chemscore.DG>
-15.9191

> <Gold.Chemscore.ZeroCoef>
-5.4800

> <Gold.Chemscore.Hbond>
1.5175

> <Gold.Chemscore.Metal>
0.0000

> <Gold.Chemscore.Lipo>
72.9475

> <Gold.Chemscore.Internal_Hbond>
0.0000

> <Gold.Chemscore.DEClash>
0.0622

> <Gold.Chemscore.DEInternal>
3.2872

> <Gold.Chemscore.Rot>
1.2361

> <Gold.Chemscore.Internal.Correction>
   9.000000E+99

> <Gold.Chemscore.Hbonds>
donor molecule, donor type, donor heavy atom, donor atom, acceptor molecule, acceptor atom, score
      L1  H     8    31       P1  7948  0.25
      L1  H    11    32       P1  7948  0.59
      P1  H  7989  7998       L1    16  0.15

> <Gold.Chemscore.Hbond.Weighted>
-5.0685

> <Gold.Chemscore.Metal.Weighted>
-0.0000

> <Gold.Chemscore.Lipo.Weighted>
-8.5349

> <Gold.Chemscore.Internal_Hbond.Weighted>
0.0000

> <Gold.Chemscore.DEClash.Weighted>
0.0622

> <Gold.Chemscore.DEInternal.Weighted>
3.2872

> <Gold.Chemscore.Rot.Weighted>
3.1643

> <Gold.Chemscore.Internal.Correction.Weighted>
   9.000000E+99

> <Gold.Protein.RotatedTorsions>
[ 6907 6896 6895 6894 ] final  114.47 input  -60.11 | X-H torsion
[ 7974 7965 7964 7962 ] final  160.10 input  175.53 | X-H torsion
[ 8008 7997 7996 7995 ] final  108.76 input   59.86 | X-H torsion
[ 10167 10162 10161 10158 ] final  -67.13 input  -65.29 | X-H torsion
[ 10718 10713 10712 10709 ] final -150.30 input   66.30 | X-H torsion
[ 10763 10752 10751 10750 ] final  149.65 input  -60.55 | X-H torsion
[ 11005 11000 10999 10996 ] final  122.48 input  -57.11 | X-H torsion

> <Gold.Protein.ActiveResidues>
 VAL166  LYS551  ARG553  GLY616  TRP617  ASP618  TYR619  PRO620  LYS621  CYS622 
 ASP623  PHE694  ASN695  SER759  ASP760  ASP761  ALA762  ILE779  LEU786  VAL792 
 PHE793  MET794  SER795  GLU796  ALA797  LYS798  CYS799  TRP800  GLU811  SER814 

> <Gold.Protein.RotatedAtoms>
  152.4800  133.8232  159.7063 H   0  0  0  0  0  0  0  0  0  0  0  0  # atno 6907 bound_to 6896
  150.8844  133.7319  159.2929 H   0  0  0  0  0  0  0  0  0  0  0  0  # atno 6908 bound_to 6896
  151.4813  135.1056  159.9830 H   0  0  0  0  0  0  0  0  0  0  0  0  # atno 6909 bound_to 6896
  144.7755  139.7710  143.6280 H   0  0  0  0  0  0  0  0  0  0  0  0  # atno 7974 bound_to 7965
  156.1927  140.3070  155.9365 H   0  0  0  0  0  0  0  0  0  0  0  0  # atno 8008 bound_to 7997
  155.3136  140.0452  157.3053 H   0  0  0  0  0  0  0  0  0  0  0  0  # atno 8009 bound_to 7997
  154.5472  140.2280  155.8553 H   0  0  0  0  0  0  0  0  0  0  0  0  # atno 8010 bound_to 7997
  140.5606  143.2313  151.6735 H   0  0  0  0  0  0  0  0  0  0  0  0  # atno 10167 bound_to 10162
  156.4443  130.8137  151.2367 H   0  0  0  0  0  0  0  0  0  0  0  0  # atno 10718 bound_to 10713
  154.0746  135.2864  155.3302 H   0  0  0  0  0  0  0  0  0  0  0  0  # atno 10763 bound_to 10752
  154.6724  135.5294  153.8158 H   0  0  0  0  0  0  0  0  0  0  0  0  # atno 10764 bound_to 10752
  153.0472  135.6561  154.0925 H   0  0  0  0  0  0  0  0  0  0  0  0  # atno 10765 bound_to 10752
  139.9270  134.9641  156.8115 H   0  0  0  0  0  0  0  0  0  0  0  0  # atno 11005 bound_to 11000
  146.1931  139.5182  142.9792 LP  0  0  0  0  0  0  0  0  0  0  0  0  # atno 17320 bound_to 7965
  145.6200  141.0324  143.1920 LP  0  0  0  0  0  0  0  0  0  0  0  0  # atno 17321 bound_to 7965
  139.5068  144.3668  152.0509 LP  0  0  0  0  0  0  0  0  0  0  0  0  # atno 17342 bound_to 10162
  140.2794  144.3876  150.6124 LP  0  0  0  0  0  0  0  0  0  0  0  0  # atno 17343 bound_to 10162
  157.7505  131.0158  150.3519 LP  0  0  0  0  0  0  0  0  0  0  0  0  # atno 17370 bound_to 10713
  156.3883  130.3893  149.7049 LP  0  0  0  0  0  0  0  0  0  0  0  0  # atno 17371 bound_to 10713
  140.6308  133.9907  155.7661 LP  0  0  0  0  0  0  0  0  0  0  0  0  # atno 17394 bound_to 11000
  141.0834  134.0027  157.3350 LP  0  0  0  0  0  0  0  0  0  0  0  0  # atno 17395 bound_to 11000

$$$$
