#       Name:                AV-unprocessed.smi:285
#       Creating user name   scv26
#       Creation time:       Thu Mar 26 21:53:20 2020


#       File generated by GOLD software.
#

@<TRIPOS>MOLECULE
AV-unprocessed.smi:285
    40    42     1
SMALL
NO_CHARGES


@<TRIPOS>ATOM
      1 ****        -5.1219   0.1238  -0.4431 N.pl3          1 S1                 0.0000
      2 ****        -3.8067   0.3793  -0.3985 C.ar           1 S1                 0.0000
      3 ****        -3.3987   1.6671  -0.4823 N.ar           1 S1                 0.0000
      4 ****        -2.0926   1.9494  -0.4385 C.ar           1 S1                 0.0000
      5 ****        -1.0597   1.1111  -0.3172 N.ar           1 S1                 0.0000
      6 ****        -1.4711  -0.1885  -0.2341 C.ar           1 S1                 0.0000
      7 ****        -2.8250  -0.6352  -0.2668 C.ar           1 S1                 0.0000
      8 ****        -2.8770  -2.0190  -0.1560 N.2            1 S1                 0.0000
      9 ****        -1.6186  -2.3469  -0.0631 C.2            1 S1                 0.0000
     10 ****        -1.1114  -4.1725   0.1312 Br             1 S1                 0.0000
     11 ****        -0.6973  -1.3245  -0.1003 N.pl3          1 S1                 0.0000
     12 ****         0.7932  -1.3972  -0.0169 C.3            1 S1                 0.0000
     13 ****         1.2993  -0.8848   1.3227 C.3            1 S1                 0.0000
     14 ****         2.7182  -0.5277   0.9384 C.3            1 S1                 0.0000
     15 ****         3.2950   0.3707   1.8652 O.3            1 S1                 0.0000
     16 ****         2.5542   0.0197  -0.4967 C.3            1 S1                 0.0000
     17 ****         2.4000   1.5486  -0.6221 C.3            1 S1                 0.0000
     18 ****         3.6584   2.1871  -0.5521 O.3            1 S1                 0.0000
     19 ****         1.3445  -0.5654  -0.9879 O.3            1 S1                 0.0000
     20 ****        -5.4519  -0.8288  -0.3818 H              1 S1                 0.0000
     21 ****        -5.7803   0.8835  -0.5376 H              1 S1                 0.0000
     22 ****        -1.8382   2.9965  -0.5107 H              1 S1                 0.0000
     23 ****         1.0646  -2.4339  -0.2152 H              1 S1                 0.0000
     24 ****         0.7349  -0.0003   1.6226 H              1 S1                 0.0000
     25 ****         1.2234  -1.6479   2.0977 H              1 S1                 0.0000
     26 ****         3.3205  -1.4369   0.9098 H              1 S1                 0.0000
     27 ****         4.1468   0.6261   1.5443 H              1 S1                 0.0000
     28 ****         3.3786  -0.3181  -1.1262 H              1 S1                 0.0000
     29 ****         1.9610   1.7983  -1.5883 H              1 S1                 0.0000
     30 ****         1.7322   1.9463   0.1428 H              1 S1                 0.0000
     31 ****         3.5265   3.1189  -0.6379 H              1 S1                 0.0000
     32 ****        -4.0697   2.4026  -0.5764 LP             1 S1                 0.0000
     33 ****        -0.1027   1.3998  -0.2906 LP             1 S1                 0.0000
     34 ****        -3.6798  -2.6151  -0.1492 LP             1 S1                 0.0000
     35 ****         3.3896  -0.0765   2.7546 LP             1 S1                 0.0000
     36 ****         2.7133   1.1788   1.9586 LP             1 S1                 0.0000
     37 ****         4.2446   1.8597  -1.2932 LP             1 S1                 0.0000
     38 ****         4.0899   1.9870   0.3275 LP             1 S1                 0.0000
     39 ****         0.6930   0.1592  -1.2129 LP             1 S1                 0.0000
     40 ****         1.5442  -1.1006  -1.8087 LP             1 S1                 0.0000
@<TRIPOS>BOND
    1    1    2 1     
    2    1   20 1     
    3    1   21 1     
    4    2    7 ar    
    5    2    3 ar    
    6    3    4 ar    
    7    4    5 ar    
    8    4   22 1     
    9    5    6 ar    
   10    6   11 1     
   11    6    7 ar    
   12    7    8 1     
   13    8    9 2     
   14    9   10 1     
   15    9   11 1     
   16   11   12 1     
   17   12   19 1     
   18   12   13 1     
   19   12   23 1     
   20   13   14 1     
   21   13   24 1     
   22   13   25 1     
   23   14   15 1     
   24   14   16 1     
   25   14   26 1     
   26   15   27 1     
   27   16   17 1     
   28   16   19 1     
   29   16   28 1     
   30   17   18 1     
   31   17   29 1     
   32   17   30 1     
   33   18   31 1     
   34    3   32 1     
   35    5   33 1     
   36    8   34 1     
   37   15   35 1     
   38   15   36 1     
   39   18   37 1     
   40   18   38 1     
   41   19   39 1     
   42   19   40 1     
@<TRIPOS>SUBSTRUCTURE
      1 S1             1
@<TRIPOS>SET
LONE_PAIRS      STATIC     ATOMS    <user>   **** ""
9 32 33 34 35 36 37 38 39 40
DONOR_HYDROGENS      STATIC     ATOMS    <user>   **** ""
4 20 21 27 31
ATOM$BLUE        STATIC     ATOMS    COLORGROUP SYSTEM
9 32 33 34 35 36 37 38 39 40
ATOM$RED        STATIC     ATOMS    COLORGROUP SYSTEM
4 20 21 27 31
