AV-unprocessed.smi:69|AV-procd|sdf|644|dock1
  -GOLD-   2262016533D 1   1.00000     0.00000
 Structure written by MMmdl.
 32 34  0  0  0  0  0  0  0  0  1 V2000
  154.2857  141.8333  160.4691 N   0  0  0  0  0  0  0  0  0  0  0  0
  153.6022  140.9758  159.6989 C   0  0  0  0  0  0  0  0  0  0  0  0
  154.1045  139.7316  159.5162 N   0  0  0  0  0  0  0  0  0  0  0  0
  153.4407  138.8586  158.7504 C   0  0  0  0  0  0  0  0  0  0  0  0
  152.2886  139.0276  158.0946 N   0  0  0  0  0  0  0  0  0  0  0  0
  151.7861  140.2827  158.2840 C   0  0  0  0  0  0  0  0  0  0  0  0
  152.3787  141.3110  159.0661 C   0  0  0  0  0  0  0  0  0  0  0  0
  151.5875  142.4512  159.0236 N   0  0  0  0  0  0  0  0  0  0  0  0
  150.5858  142.1112  158.2562 C   0  0  0  0  0  0  0  0  0  0  0  0
  150.6294  140.8220  157.7658 N   0  0  0  0  0  0  0  0  0  0  0  0
  149.6590  140.1094  156.8715 C   0  0  1  0  0  0  0  0  0  0  0  0
  148.5048  140.8886  156.7654 O   0  0  0  0  0  0  0  0  0  0  0  0
  148.4892  141.5595  155.5099 C   0  0  2  0  0  0  0  0  0  0  0  0
  147.0521  141.9706  155.1566 C   0  0  0  0  0  0  0  0  0  0  0  0
  147.0612  142.8343  154.0402 O   0  0  0  0  0  0  0  0  0  0  0  0
  149.0690  140.4822  154.5939 C   0  0  1  0  0  0  0  0  0  0  0  0
  149.4894  140.9874  153.3400 O   0  0  0  0  0  0  0  0  0  0  0  0
  150.2068  139.9107  155.4369 C   0  0  1  0  0  0  0  0  0  0  0  0
  151.4399  140.5730  155.1942 O   0  0  0  0  0  0  0  0  0  0  0  0
  149.4336  139.1776  157.3919 H   0  0  0  0  0  0  0  0  0  0  0  0
  149.1557  142.4242  155.5337 H   0  0  0  0  0  0  0  0  0  0  0  0
  148.3217  139.7046  154.4286 H   0  0  0  0  0  0  0  0  0  0  0  0
  150.3448  138.8461  155.2447 H   0  0  0  0  0  0  0  0  0  0  0  0
  153.9293  142.7664  160.6178 H   0  0  0  0  0  0  0  0  0  0  0  0
  155.1527  141.5450  160.8991 H   0  0  0  0  0  0  0  0  0  0  0  0
  153.8986  137.8857  158.6484 H   0  0  0  0  0  0  0  0  0  0  0  0
  149.7853  142.8002  158.0298 H   0  0  0  0  0  0  0  0  0  0  0  0
  146.4649  141.0925  154.8860 H   0  0  0  0  0  0  0  0  0  0  0  0
  146.5542  142.4462  156.0021 H   0  0  0  0  0  0  0  0  0  0  0  0
  147.5732  143.5987  154.2559 H   0  0  0  0  0  0  0  0  0  0  0  0
  149.2731  140.3532  152.6737 H   0  0  0  0  0  0  0  0  0  0  0  0
  152.1433  139.9634  155.3589 H   0  0  0  0  0  0  0  0  0  0  0  0
  1  2  1  0  0  0  0
  1 24  1  0  0  0  0
  1 25  1  0  0  0  0
  2  7  1  0  0  0  0
  2  3  2  0  0  0  0
  3  4  1  0  0  0  0
  4  5  2  0  0  0  0
  4 26  1  0  0  0  0
  5  6  1  0  0  0  0
  6 10  1  0  0  0  0
  6  7  2  0  0  0  0
  7  8  1  0  0  0  0
  8  9  2  0  0  0  0
  9 10  1  0  0  0  0
  9 27  1  0  0  0  0
 10 11  1  0  0  0  0
 11 20  1  0  0  0  0
 11 18  1  0  0  0  0
 11 12  1  0  0  0  0
 12 13  1  0  0  0  0
 13 21  1  0  0  0  0
 13 14  1  0  0  0  0
 13 16  1  0  0  0  0
 14 15  1  0  0  0  0
 14 28  1  0  0  0  0
 14 29  1  0  0  0  0
 15 30  1  0  0  0  0
 16 22  1  0  0  0  0
 16 17  1  0  0  0  0
 16 18  1  0  0  0  0
 17 31  1  0  0  0  0
 18 23  1  0  0  0  0
 18 19  1  0  0  0  0
 19 32  1  0  0  0  0
M  END
> <s_m_source_file>
AV-unprocessed.smi

> <i_m_source_file_index>
69

> <i_lp_mmshare_version>
43012

> <i_f3d_flags>
0

> <s_epik_input>
bjFbY0hdbmMoW05IMl0pYyhjMTIpbltjSF1uMltDQEBIXTNPW0NASF0oW0NIMl1bT0hdKVtDQEBIXShbT0hdKVtDQEhdM1tPSF0=

> <s_epik_cmdline>
J2VwaWtfcHl0aG9uJywgJy1waCcsICc3LjAnLCAnLXRuJywgJzgnLCAnLW1hJywgJzIwMCcsICctbWV0YWxfYmluZGluZycsICctaW1hZScsICc8aW5maWxlLm1hZT4nLCAnLW9tYWUnLCAnPG91dGZpbGUubWFlPic=

> <r_lp_tautomer_probability>
1

> <r_epik_Ionization_Penalty>
0.000428445

> <r_epik_Ionization_Penalty_Charging>
0

> <r_epik_Ionization_Penalty_Neutral>
0.000428445

> <r_epik_State_Penalty>
-0

> <r_epik_Charging_Adjusted_Penalty>
0

> <i_epik_Tot_Q>
0

> <i_epik_Tot_abs_Q>
0

> <r_epik_Metal_State_Penalty>
-0

> <b_epik_Metal_Only>
0

> <s_epik_Chemistry_Notes>
This compound contains an acetal/aminal-like group ( X-CH(R)-Y where X, Y are N, S, or O) that may be acid/base labile, releasing an aldehyde.

> <s_lp_Force_Field>
OPLS_2005

> <r_lp_Energy>
41.389

> <b_lp_Chiralities_Consistent>
1

> <s_lp_Variant>
AV-unprocessed.smi:69-2

> <Gold.Version>
5.8.1

> <Gold.Id.Protein>
6NUR|6NUR_protein|mol2

> <Gold.PLP.Fitness>
37.4989

> <Gold.PLP.PLP>
-27.3033

> <Gold.PLP.part.hbond>
-5.4914

> <Gold.PLP.part.metal>
0.0000

> <Gold.PLP.part.buried>
-3.2802

> <Gold.PLP.part.nonpolar>
-17.5704

> <Gold.PLP.part.repulsive>
0.0900

> <Gold.PLP.ligand.clash>
0.0000

> <Gold.PLP.ligand.torsion>
0.3484

> <Gold.PLP.Chemscore.Hbond>
3.6053

> <Gold.PLP.Chemscore.CHOScore>
0.0000

> <Gold.PLP.Chemscore.Metal>
0.0000

> <Gold.Chemscore.Hbonds>
donor molecule, donor type, donor heavy atom, donor atom, acceptor molecule, acceptor atom, score
      L1  H    15    30       P1  8028  0.67
      L1  H    17    31       P1  7957  0.78
      P1  H  7989  7998       L1    19  0.85
      P1  H  8011  8017       L1    17  1.00

> <Gold.PLP.Chemscore.Internal.Correction>
0.0766

> <Gold.Rescore>
     Score         DG    S(hbond)    S(metal)    S(lipo)     H(rot)  DE(clash)    DE(int)     intcor
      5.63      -6.38       2.28        0.00      30.79       4.03       0.36       0.39       ----

> <Gold.Chemscore.Fitness>
5.6311

> <Gold.Chemscore.DG>
-6.3813

> <Gold.Chemscore.ZeroCoef>
-5.4800

> <Gold.Chemscore.Hbond>
2.2785

> <Gold.Chemscore.Metal>
0.0000

> <Gold.Chemscore.Lipo>
30.7867

> <Gold.Chemscore.Internal_Hbond>
0.0000

> <Gold.Chemscore.DEClash>
0.3644

> <Gold.Chemscore.DEInternal>
0.3858

> <Gold.Chemscore.Rot>
4.0277

> <Gold.Chemscore.Internal.Correction>
   9.000000E+99

> <Gold.Chemscore.Hbonds>
donor molecule, donor type, donor heavy atom, donor atom, acceptor molecule, acceptor atom, score
      L1  H    15    30       P1  8028  0.19
      L1  H    17    31       P1  7957  0.76
      P1  H  7989  7998       L1    19  0.20
      P1  H  8011  8017       L1    17  0.25

> <Gold.Chemscore.Hbond.Weighted>
-7.6103

> <Gold.Chemscore.Metal.Weighted>
-0.0000

> <Gold.Chemscore.Lipo.Weighted>
-3.6020

> <Gold.Chemscore.Internal_Hbond.Weighted>
0.0000

> <Gold.Chemscore.DEClash.Weighted>
0.3644

> <Gold.Chemscore.DEInternal.Weighted>
0.3858

> <Gold.Chemscore.Rot.Weighted>
10.3110

> <Gold.Chemscore.Internal.Correction.Weighted>
   9.000000E+99

> <Gold.Protein.RotatedTorsions>
[ 6907 6896 6895 6894 ] final  -15.61 input  -60.11 | X-H torsion
[ 7974 7965 7964 7962 ] final   57.20 input  175.53 | X-H torsion
[ 8008 7997 7996 7995 ] final  -31.34 input   59.86 | X-H torsion
[ 10167 10162 10161 10158 ] final   66.62 input  -65.29 | X-H torsion
[ 10718 10713 10712 10709 ] final   58.72 input   66.30 | X-H torsion
[ 10763 10752 10751 10750 ] final  -64.34 input  -60.55 | X-H torsion
[ 11005 11000 10999 10996 ] final   38.60 input  -57.11 | X-H torsion

> <Gold.Protein.ActiveResidues>
 VAL166  LYS551  ARG553  GLY616  TRP617  ASP618  TYR619  PRO620  LYS621  CYS622 
 ASP623  PHE694  ASN695  SER759  ASP760  ASP761  ALA762  ILE779  LEU786  VAL792 
 PHE793  MET794  SER795  GLU796  ALA797  LYS798  CYS799  TRP800  GLU811  SER814 

> <Gold.Protein.RotatedAtoms>
  151.3213  135.0819  159.9306 H   0  0  0  0  0  0  0  0  0  0  0  0  # atno 6907 bound_to 6896
  152.5256  133.9636  159.7739 H   0  0  0  0  0  0  0  0  0  0  0  0  # atno 6908 bound_to 6896
  150.9958  133.6052  159.2732 H   0  0  0  0  0  0  0  0  0  0  0  0  # atno 6909 bound_to 6896
  145.9317  139.3813  143.0417 H   0  0  0  0  0  0  0  0  0  0  0  0  # atno 7974 bound_to 7965
  154.4217  140.1767  156.1551 H   0  0  0  0  0  0  0  0  0  0  0  0  # atno 8008 bound_to 7997
  155.9884  140.3371  155.6705 H   0  0  0  0  0  0  0  0  0  0  0  0  # atno 8009 bound_to 7997
  155.6406  140.0679  157.2610 H   0  0  0  0  0  0  0  0  0  0  0  0  # atno 8010 bound_to 7997
  140.0984  144.4925  150.7053 H   0  0  0  0  0  0  0  0  0  0  0  0  # atno 10167 bound_to 10162
  157.5619  130.8842  149.9125 H   0  0  0  0  0  0  0  0  0  0  0  0  # atno 10718 bound_to 10713
  154.3286  135.6181  153.5541 H   0  0  0  0  0  0  0  0  0  0  0  0  # atno 10763 bound_to 10752
  152.9813  135.5741  154.4988 H   0  0  0  0  0  0  0  0  0  0  0  0  # atno 10764 bound_to 10752
  154.4670  135.2858  155.1648 H   0  0  0  0  0  0  0  0  0  0  0  0  # atno 10765 bound_to 10752
  140.2110  134.3755  155.8049 H   0  0  0  0  0  0  0  0  0  0  0  0  # atno 11005 bound_to 11000
  145.8418  140.9577  143.0795 LP  0  0  0  0  0  0  0  0  0  0  0  0  # atno 17320 bound_to 7965
  144.6766  140.0294  143.7483 LP  0  0  0  0  0  0  0  0  0  0  0  0  # atno 17321 bound_to 7965
  140.6991  143.2423  151.4916 LP  0  0  0  0  0  0  0  0  0  0  0  0  # atno 17342 bound_to 10162
  139.5685  144.1985  152.1801 LP  0  0  0  0  0  0  0  0  0  0  0  0  # atno 17343 bound_to 10162
  156.0671  130.3690  150.0856 LP  0  0  0  0  0  0  0  0  0  0  0  0  # atno 17370 bound_to 10713
  156.9019  130.9623  151.3575 LP  0  0  0  0  0  0  0  0  0  0  0  0  # atno 17371 bound_to 10713
  141.2226  133.7143  156.8418 LP  0  0  0  0  0  0  0  0  0  0  0  0  # atno 17394 bound_to 11000
  140.1951  134.8938  157.3105 LP  0  0  0  0  0  0  0  0  0  0  0  0  # atno 17395 bound_to 11000

$$$$
