AV-unprocessed.smi:2270|AV-procd|sdf|9159|dock6
  -GOLD-   2272012363D 1   1.00000     0.00000
 Structure written by MMmdl.
 52 53  0  0  0  0  0  0  0  0  1 V2000
  151.4019  146.1111  160.3167 C   0  0  0  0  0  0  0  0  0  0  0  0
  151.4774  144.7513  159.6552 C   0  0  0  0  0  0  0  0  0  0  0  0
  152.2839  143.7284  160.1916 C   0  0  0  0  0  0  0  0  0  0  0  0
  152.3039  142.4860  159.5329 C   0  0  0  0  0  0  0  0  0  0  0  0
  151.5210  142.3180  158.3744 C   0  0  0  0  0  0  0  0  0  0  0  0
  150.7402  143.3967  157.9009 C   0  0  0  0  0  0  0  0  0  0  0  0
  149.9807  143.1245  156.7324 N   0  0  0  0  0  0  0  0  0  0  0  0
  149.6184  141.9275  156.2381 C   0  0  0  0  0  0  0  0  0  0  0  0
  149.8361  140.8411  156.7750 O   0  0  0  0  0  0  0  0  0  0  0  0
  148.9775  142.0626  155.0678 N   0  0  0  0  0  0  0  0  0  0  0  0
  148.4602  140.9732  154.2438 C   0  0  0  0  0  0  0  0  0  0  0  0
  147.0157  140.5630  154.6453 C   0  0  1  0  0  0  0  0  0  0  0  0
  146.1000  141.7622  155.0425 C   0  0  0  0  0  0  0  0  0  0  0  0
  146.1046  142.8634  153.9685 C   0  0  0  0  0  0  0  0  0  0  0  0
  146.3268  142.3649  156.4412 C   0  0  0  0  0  0  0  0  0  0  0  0
  146.3788  139.5866  153.7406 N   0  0  0  0  0  0  0  0  0  0  0  0
  147.2441  139.0505  152.6822 C   0  0  0  0  0  0  0  0  0  0  0  0
  146.4534  138.1431  151.7218 C   0  0  0  0  0  0  0  0  0  0  0  0
  145.8333  137.0255  152.4314 N   0  0  0  0  0  0  0  0  0  0  0  0
  145.0893  136.1640  151.5255 C   0  0  0  0  0  0  0  0  0  0  0  0
  144.9795  137.5520  153.4941 C   0  0  0  0  0  0  0  0  0  0  0  0
  145.7707  138.4598  154.4539 C   0  0  0  0  0  0  0  0  0  0  0  0
  150.7278  144.5911  158.5436 N   0  0  0  0  0  0  0  0  0  0  0  0
  152.1941  146.2349  161.0555 H   0  0  0  0  0  0  0  0  0  0  0  0
  150.4425  146.2308  160.8202 H   0  0  0  0  0  0  0  0  0  0  0  0
  151.5028  146.9042  159.5751 H   0  0  0  0  0  0  0  0  0  0  0  0
  152.8711  143.8888  161.0839 H   0  0  0  0  0  0  0  0  0  0  0  0
  152.9083  141.6742  159.9098 H   0  0  0  0  0  0  0  0  0  0  0  0
  151.5233  141.3693  157.8576 H   0  0  0  0  0  0  0  0  0  0  0  0
  149.7001  143.9342  156.1994 H   0  0  0  0  0  0  0  0  0  0  0  0
  148.8445  142.9968  154.7093 H   0  0  0  0  0  0  0  0  0  0  0  0
  148.5191  141.2234  153.1841 H   0  0  0  0  0  0  0  0  0  0  0  0
  149.1429  140.1361  154.3847 H   0  0  0  0  0  0  0  0  0  0  0  0
  147.1447  140.0377  155.5930 H   0  0  0  0  0  0  0  0  0  0  0  0
  145.0796  141.3798  155.0510 H   0  0  0  0  0  0  0  0  0  0  0  0
  147.0765  143.3530  153.9020 H   0  0  0  0  0  0  0  0  0  0  0  0
  145.3636  143.6315  154.1919 H   0  0  0  0  0  0  0  0  0  0  0  0
  145.8686  142.4569  152.9847 H   0  0  0  0  0  0  0  0  0  0  0  0
  147.2010  143.0137  156.4671 H   0  0  0  0  0  0  0  0  0  0  0  0
  146.4435  141.6017  157.2088 H   0  0  0  0  0  0  0  0  0  0  0  0
  145.4751  142.9811  156.7302 H   0  0  0  0  0  0  0  0  0  0  0  0
  147.7018  139.8484  152.1063 H   0  0  0  0  0  0  0  0  0  0  0  0
  148.0628  138.4768  153.1181 H   0  0  0  0  0  0  0  0  0  0  0  0
  145.6904  138.7311  151.2088 H   0  0  0  0  0  0  0  0  0  0  0  0
  147.1243  137.7624  150.9509 H   0  0  0  0  0  0  0  0  0  0  0  0
  144.6482  135.3256  152.0654 H   0  0  0  0  0  0  0  0  0  0  0  0
  145.7449  135.7551  150.7561 H   0  0  0  0  0  0  0  0  0  0  0  0
  144.2852  136.7112  151.0317 H   0  0  0  0  0  0  0  0  0  0  0  0
  144.1489  138.1135  153.0634 H   0  0  0  0  0  0  0  0  0  0  0  0
  144.5403  136.7275  154.0563 H   0  0  0  0  0  0  0  0  0  0  0  0
  146.5346  137.8710  154.9621 H   0  0  0  0  0  0  0  0  0  0  0  0
  145.0954  138.8296  155.2260 H   0  0  0  0  0  0  0  0  0  0  0  0
  1  2  1  0  0  0  0
  1 24  1  0  0  0  0
  1 25  1  0  0  0  0
  1 26  1  0  0  0  0
  2 23  1  0  0  0  0
  2  3  2  0  0  0  0
  3  4  1  0  0  0  0
  3 27  1  0  0  0  0
  4  5  2  0  0  0  0
  4 28  1  0  0  0  0
  5  6  1  0  0  0  0
  5 29  1  0  0  0  0
  6  7  1  0  0  0  0
  6 23  2  0  0  0  0
  7  8  1  0  0  0  0
  7 30  1  0  0  0  0
  8  9  2  0  0  0  0
  8 10  1  0  0  0  0
 10 11  1  0  0  0  0
 10 31  1  0  0  0  0
 11 12  1  0  0  0  0
 11 32  1  0  0  0  0
 11 33  1  0  0  0  0
 12 13  1  0  0  0  0
 12 16  1  0  0  0  0
 12 34  1  0  0  0  0
 13 14  1  0  0  0  0
 13 15  1  0  0  0  0
 13 35  1  0  0  0  0
 14 36  1  0  0  0  0
 14 37  1  0  0  0  0
 14 38  1  0  0  0  0
 15 39  1  0  0  0  0
 15 40  1  0  0  0  0
 15 41  1  0  0  0  0
 16 22  1  0  0  0  0
 16 17  1  0  0  0  0
 17 18  1  0  0  0  0
 17 42  1  0  0  0  0
 17 43  1  0  0  0  0
 18 19  1  0  0  0  0
 18 44  1  0  0  0  0
 18 45  1  0  0  0  0
 19 20  1  0  0  0  0
 19 21  1  0  0  0  0
 20 46  1  0  0  0  0
 20 47  1  0  0  0  0
 20 48  1  0  0  0  0
 21 22  1  0  0  0  0
 21 49  1  0  0  0  0
 21 50  1  0  0  0  0
 22 51  1  0  0  0  0
 22 52  1  0  0  0  0
M  END
> <s_m_source_file>
AV-unprocessed.smi

> <i_m_source_file_index>
2270

> <i_lp_mmshare_version>
43012

> <i_f3d_flags>
0

> <s_epik_input>
W0NIM11jMVtjSF1bY0hdW2NIXWMobjEpW05IXUMoPU8pW05IXVtDSDJdW0NASF0oW0NIXShbQ0gzXSlbQ0gzXSlOMltDSDJdW0NIMl1OKFtDSDNdKVtDSDJdW0NIMl0y

> <s_epik_cmdline>
J2VwaWtfcHl0aG9uJywgJy1waCcsICc3LjAnLCAnLXRuJywgJzgnLCAnLW1hJywgJzIwMCcsICctbWV0YWxfYmluZGluZycsICctaW1hZScsICc8aW5maWxlLm1hZT4nLCAnLW9tYWUnLCAnPG91dGZpbGUubWFlPic=

> <r_epik_Ionization_Penalty>
2.57754

> <r_epik_Ionization_Penalty_Charging>
0

> <r_epik_Ionization_Penalty_Neutral>
2.57754

> <r_epik_State_Penalty>
2.00874

> <r_epik_Charging_Adjusted_Penalty>
2.00874

> <i_epik_Tot_Q>
0

> <i_epik_Tot_abs_Q>
0

> <r_epik_Metal_State_Penalty>
2.00874

> <b_epik_Metal_Only>
0

> <s_lp_Force_Field>
OPLS_2005

> <r_lp_Energy>
49.2336

> <b_lp_Chiralities_Consistent>
1

> <s_lp_Variant>
AV-unprocessed.smi:2270-6

> <Gold.Version>
5.8.1

> <Gold.Id.Protein>
6NUR|6NUR_protein|mol2

> <Gold.PLP.Fitness>
44.2137

> <Gold.PLP.PLP>
-42.9636

> <Gold.PLP.part.hbond>
-1.7798

> <Gold.PLP.part.metal>
0.0000

> <Gold.PLP.part.buried>
-3.0071

> <Gold.PLP.part.nonpolar>
-40.1073

> <Gold.PLP.part.repulsive>
0.8104

> <Gold.PLP.ligand.clash>
0.0000

> <Gold.PLP.ligand.torsion>
2.0241

> <Gold.PLP.Chemscore.Hbond>
1.6261

> <Gold.PLP.Chemscore.CHOScore>
0.0000

> <Gold.PLP.Chemscore.Metal>
0.0000

> <Gold.Chemscore.Hbonds>
donor molecule, donor type, donor heavy atom, donor atom, acceptor molecule, acceptor atom, score
      L1  H     7    30       P1  8028  0.29
      L1  H    10    31       P1  8028  0.62

> <Gold.PLP.Chemscore.Internal.Correction>
0.4202

> <Gold.Rescore>
     Score         DG    S(hbond)    S(metal)    S(lipo)     H(rot)  DE(clash)    DE(int)     intcor
     14.48     -18.87       1.63        0.00     102.18       1.56       0.30       4.09       ----

> <Gold.Chemscore.Fitness>
14.4792

> <Gold.Chemscore.DG>
-18.8688

> <Gold.Chemscore.ZeroCoef>
-5.4800

> <Gold.Chemscore.Hbond>
1.6260

> <Gold.Chemscore.Metal>
0.0000

> <Gold.Chemscore.Lipo>
102.1752

> <Gold.Chemscore.Internal_Hbond>
0.0000

> <Gold.Chemscore.DEClash>
0.2991

> <Gold.Chemscore.DEInternal>
4.0905

> <Gold.Chemscore.Rot>
1.5612

> <Gold.Chemscore.Internal.Correction>
   9.000000E+99

> <Gold.Chemscore.Hbonds>
donor molecule, donor type, donor heavy atom, donor atom, acceptor molecule, acceptor atom, score
      L1  H     7    30       P1  8028  0.29
      L1  H    10    31       P1  8028  0.61

> <Gold.Chemscore.Hbond.Weighted>
-5.4309

> <Gold.Chemscore.Metal.Weighted>
-0.0000

> <Gold.Chemscore.Lipo.Weighted>
-11.9545

> <Gold.Chemscore.Internal_Hbond.Weighted>
0.0000

> <Gold.Chemscore.DEClash.Weighted>
0.2991

> <Gold.Chemscore.DEInternal.Weighted>
4.0905

> <Gold.Chemscore.Rot.Weighted>
3.9966

> <Gold.Chemscore.Internal.Correction.Weighted>
   9.000000E+99

> <Gold.Protein.RotatedTorsions>
[ 6907 6896 6895 6894 ] final   28.19 input  -60.11 | X-H torsion
[ 7974 7965 7964 7962 ] final  154.51 input  175.53 | X-H torsion
[ 8008 7997 7996 7995 ] final   85.90 input   59.86 | X-H torsion
[ 10167 10162 10161 10158 ] final   55.94 input  -65.29 | X-H torsion
[ 10718 10713 10712 10709 ] final -173.29 input   66.30 | X-H torsion
[ 10763 10752 10751 10750 ] final   79.64 input  -60.55 | X-H torsion
[ 11005 11000 10999 10996 ] final   25.78 input  -57.11 | X-H torsion

> <Gold.Protein.ActiveResidues>
 VAL166  LYS551  ARG553  GLY616  TRP617  ASP618  TYR619  PRO620  LYS621  CYS622 
 ASP623  PHE694  ASN695  SER759  ASP760  ASP761  ALA762  ILE779  LEU786  VAL792 
 PHE793  MET794  SER795  GLU796  ALA797  LYS798  CYS799  TRP800  GLU811  SER814 

> <Gold.Protein.RotatedAtoms>
  152.0133  134.9864  160.0568 H   0  0  0  0  0  0  0  0  0  0  0  0  # atno 6907 bound_to 6896
  152.1408  133.4458  159.4774 H   0  0  0  0  0  0  0  0  0  0  0  0  # atno 6908 bound_to 6896
  150.6865  134.2226  159.4446 H   0  0  0  0  0  0  0  0  0  0  0  0  # atno 6909 bound_to 6896
  144.8084  139.6943  143.6152 H   0  0  0  0  0  0  0  0  0  0  0  0  # atno 7974 bound_to 7965
  155.9560  140.3397  155.6448 H   0  0  0  0  0  0  0  0  0  0  0  0  # atno 8008 bound_to 7997
  155.6860  140.0743  157.2485 H   0  0  0  0  0  0  0  0  0  0  0  0  # atno 8009 bound_to 7997
  154.4132  140.1666  156.2021 H   0  0  0  0  0  0  0  0  0  0  0  0  # atno 8010 bound_to 7997
  140.2141  144.3858  150.6477 H   0  0  0  0  0  0  0  0  0  0  0  0  # atno 10167 bound_to 10162
  156.7682  130.9439  151.3119 H   0  0  0  0  0  0  0  0  0  0  0  0  # atno 10718 bound_to 10713
  153.0969  135.4832  154.8794 H   0  0  0  0  0  0  0  0  0  0  0  0  # atno 10763 bound_to 10752
  154.7334  135.3065  154.8855 H   0  0  0  0  0  0  0  0  0  0  0  0  # atno 10764 bound_to 10752
  153.9484  135.6826  153.4797 H   0  0  0  0  0  0  0  0  0  0  0  0  # atno 10765 bound_to 10752
  140.3441  134.2301  155.7687 H   0  0  0  0  0  0  0  0  0  0  0  0  # atno 11005 bound_to 11000
  146.2379  139.5942  142.9511 LP  0  0  0  0  0  0  0  0  0  0  0  0  # atno 17320 bound_to 7965
  145.5382  141.0422  143.2345 LP  0  0  0  0  0  0  0  0  0  0  0  0  # atno 17321 bound_to 7965
  140.6302  143.2186  151.6511 LP  0  0  0  0  0  0  0  0  0  0  0  0  # atno 17342 bound_to 10162
  139.5169  144.3333  152.0806 LP  0  0  0  0  0  0  0  0  0  0  0  0  # atno 17343 bound_to 10162
  157.6703  130.9045  150.0026 LP  0  0  0  0  0  0  0  0  0  0  0  0  # atno 17370 bound_to 10713
  156.1295  130.3643  149.9755 LP  0  0  0  0  0  0  0  0  0  0  0  0  # atno 17371 bound_to 10713
  141.2030  133.7922  157.0360 LP  0  0  0  0  0  0  0  0  0  0  0  0  # atno 17394 bound_to 11000
  140.0757  134.9677  157.1541 LP  0  0  0  0  0  0  0  0  0  0  0  0  # atno 17395 bound_to 11000

$$$$
