AV-unprocessed.smi:101|AV-procd|sdf|932|dock10
  -GOLD-   2262017443D 1   1.00000     0.00000
 Structure written by MMmdl.
 43 45  0  0  0  0  0  0  0  0  2 V2000
  150.3797  134.2314  154.3506 C   0  0  0  0  0  0  0  0  0  0  0  0
  149.2764  135.2750  154.3615 C   0  0  0  0  0  0  0  0  0  0  0  0
  149.5007  136.5580  154.7231 C   0  0  0  0  0  0  0  0  0  0  0  0
  148.4909  137.5057  154.7306 N   0  0  0  0  0  0  0  0  0  0  0  0
  148.7516  138.9443  155.1382 C   0  0  1  0  0  0  0  0  0  0  0  0
  150.0634  139.0671  155.6117 O   0  0  0  0  0  0  0  0  0  0  0  0
  150.8484  139.8096  154.6856 C   0  0  2  0  0  0  0  0  0  0  0  0
  152.0349  140.4431  155.4222 C   0  0  0  0  0  0  0  0  0  0  0  0
  151.5697  141.1401  156.5662 O   0  0  0  0  0  0  0  0  0  0  0  0
  152.2379  141.0466  157.7316 C   0  0  0  0  0  0  0  0  0  0  0  0
  152.8835  140.0524  158.0697 O   0  0  0  0  0  0  0  0  0  0  0  0
  152.1152  142.2737  158.5707 C   0  0  0  0  0  0  0  0  0  0  0  0
  151.7383  143.4942  157.9628 C   0  0  0  0  0  0  0  0  0  0  0  0
  151.6170  144.6699  158.7288 C   0  0  0  0  0  0  0  0  0  0  0  0
  151.8727  144.6401  160.1120 C   0  0  0  0  0  0  0  0  0  0  0  0
  152.2493  143.4327  160.7286 C   0  0  0  0  0  0  0  0  0  0  0  0
  152.3698  142.2553  159.9644 C   0  0  0  0  0  0  0  0  0  0  0  0
  149.8365  140.8079  154.1259 C   0  0  1  0  0  0  0  0  0  0  0  0
  150.2496  141.4149  152.9158 O   0  0  0  0  0  0  0  0  0  0  0  0
  148.5867  139.9480  153.9703 C   0  0  1  0  0  0  0  0  0  0  0  0
  148.5289  139.3280  152.6934 O   0  0  0  0  0  0  0  0  0  0  0  0
  147.1780  137.1332  154.3419 C   0  0  0  0  0  0  0  0  0  0  0  0
  146.3089  138.0055  154.3406 O   0  0  0  0  0  0  0  0  0  0  0  0
  146.9413  135.8408  153.9787 N   0  5  0  0  0  0  0  0  0  0  0  0
  147.9170  134.8877  153.9660 C   0  0  0  0  0  0  0  0  0  0  0  0
  147.6901  133.7245  153.6344 O   0  0  0  0  0  0  0  0  0  0  0  0
  151.3300  134.6549  154.6768 H   0  0  0  0  0  0  0  0  0  0  0  0
  150.5155  133.8315  153.3453 H   0  0  0  0  0  0  0  0  0  0  0  0
  150.1302  133.4064  155.0188 H   0  0  0  0  0  0  0  0  0  0  0  0
  150.5015  136.8399  155.0111 H   0  0  0  0  0  0  0  0  0  0  0  0
  148.0812  139.1402  155.9767 H   0  0  0  0  0  0  0  0  0  0  0  0
  151.1974  139.1349  153.9018 H   0  0  0  0  0  0  0  0  0  0  0  0
  152.7565  139.6769  155.7093 H   0  0  0  0  0  0  0  0  0  0  0  0
  152.5472  141.1444  154.7619 H   0  0  0  0  0  0  0  0  0  0  0  0
  151.5374  143.5418  156.9021 H   0  0  0  0  0  0  0  0  0  0  0  0
  151.3276  145.5958  158.2537 H   0  0  0  0  0  0  0  0  0  0  0  0
  151.7805  145.5421  160.6990 H   0  0  0  0  0  0  0  0  0  0  0  0
  152.4473  143.4086  161.7900 H   0  0  0  0  0  0  0  0  0  0  0  0
  152.6633  141.3460  160.4687 H   0  0  0  0  0  0  0  0  0  0  0  0
  149.6483  141.5866  154.8666 H   0  0  0  0  0  0  0  0  0  0  0  0
  149.9804  140.8570  152.2016 H   0  0  0  0  0  0  0  0  0  0  0  0
  147.6763  140.5310  154.1137 H   0  0  0  0  0  0  0  0  0  0  0  0
  149.2009  139.7107  152.1490 H   0  0  0  0  0  0  0  0  0  0  0  0
  1  2  1  0  0  0  0
  1 27  1  0  0  0  0
  1 28  1  0  0  0  0
  1 29  1  0  0  0  0
  2 25  1  0  0  0  0
  2  3  2  0  0  0  0
  3  4  1  0  0  0  0
  3 30  1  0  0  0  0
  4  5  1  0  0  0  0
  4 22  1  0  0  0  0
  5 20  1  0  0  0  0
  5  6  1  0  0  0  0
  5 31  1  0  0  0  0
  6  7  1  0  0  0  0
  7  8  1  0  0  0  0
  7 18  1  0  0  0  0
  7 32  1  0  0  0  0
  8  9  1  0  0  0  0
  8 33  1  0  0  0  0
  8 34  1  0  0  0  0
  9 10  1  0  0  0  0
 10 11  2  0  0  0  0
 10 12  1  0  0  0  0
 12 17  1  0  0  0  0
 12 13  2  0  0  0  0
 13 14  1  0  0  0  0
 13 35  1  0  0  0  0
 14 15  2  0  0  0  0
 14 36  1  0  0  0  0
 15 16  1  0  0  0  0
 15 37  1  0  0  0  0
 16 17  2  0  0  0  0
 16 38  1  0  0  0  0
 17 39  1  0  0  0  0
 18 19  1  0  0  0  0
 18 20  1  0  0  0  0
 18 40  1  0  0  0  0
 19 41  1  0  0  0  0
 20 21  1  0  0  0  0
 20 42  1  0  0  0  0
 21 43  1  0  0  0  0
 22 23  2  0  0  0  0
 22 24  1  0  0  0  0
 24 25  1  0  0  0  0
 25 26  2  0  0  0  0
M  CHG  1  24  -1
M  END
> <s_m_source_file>
AV-unprocessed.smi

> <i_m_source_file_index>
101

> <i_lp_mmshare_version>
43012

> <i_f3d_flags>
0

> <s_epik_input>
Tz1jMVtuSF1jKD1PKW4oW2NIXWMxW0NIM10pW0NAQEhdMk9bQ0BIXShbQ0BASF0oW09IXSlbQ0BIXTJbT0hdKVtDSDJdT0MoPU8pYzNbY0hdW2NIXVtjSF1bY0hdW2NIXTM=

> <s_epik_cmdline>
J2VwaWtfcHl0aG9uJywgJy1waCcsICc3LjAnLCAnLXRuJywgJzgnLCAnLW1hJywgJzIwMCcsICctbWV0YWxfYmluZGluZycsICctaW1hZScsICc8aW5maWxlLm1hZT4nLCAnLW9tYWUnLCAnPG91dGZpbGUubWFlPic=

> <r_lp_tautomer_probability>
0.999537

> <r_epik_Ionization_Penalty>
3.21006

> <r_epik_Ionization_Penalty_Charging>
5.75142e-08

> <r_epik_Ionization_Penalty_Neutral>
3.21006

> <r_epik_State_Penalty>
3.20925

> <r_epik_Charging_Adjusted_Penalty>
3.20925

> <i_epik_Tot_Q>
-1

> <i_epik_Tot_abs_Q>
1

> <r_epik_Metal_State_Penalty>
0.119957

> <b_epik_Metal_Only>
1

> <s_epik_Chemistry_Notes>
This compound has an ester and may undergo hydrolysis at high or low pH. This compound contains an acetal/aminal-like group ( X-CH(R)-Y where X, Y are N, S, or O) that may be acid/base labile, releasing an aldehyde.

> <s_lp_Force_Field>
OPLS_2005

> <r_lp_Energy>
48.7646

> <b_lp_Chiralities_Consistent>
1

> <s_lp_Variant>
AV-unprocessed.smi:101-20

> <Gold.Version>
5.8.1

> <Gold.Id.Protein>
6NUR|6NUR_protein|mol2

> <Gold.PLP.Fitness>
50.5743

> <Gold.PLP.PLP>
-41.1836

> <Gold.PLP.part.hbond>
-4.5061

> <Gold.PLP.part.metal>
0.0000

> <Gold.PLP.part.buried>
-3.1848

> <Gold.PLP.part.nonpolar>
-32.9051

> <Gold.PLP.part.repulsive>
0.1473

> <Gold.PLP.ligand.clash>
0.0000

> <Gold.PLP.ligand.torsion>
0.9516

> <Gold.PLP.Chemscore.Hbond>
3.7371

> <Gold.PLP.Chemscore.CHOScore>
0.0000

> <Gold.PLP.Chemscore.Metal>
0.0000

> <Gold.Chemscore.Hbonds>
donor molecule, donor type, donor heavy atom, donor atom, acceptor molecule, acceptor atom, score
      L1  H    19    41       P1  7957  0.55
      P1  H  7997  8008       L1    11  1.00
      P1  H  8011  8017       L1    19  0.12

> <Gold.PLP.Chemscore.Internal.Correction>
0.0825

> <Gold.Rescore>
     Score         DG    S(hbond)    S(metal)    S(lipo)     H(rot)  DE(clash)    DE(int)     intcor
     17.57     -20.01       3.00        0.00     109.94       3.27       1.36       1.08       ----

> <Gold.Chemscore.Fitness>
17.5749

> <Gold.Chemscore.DG>
-20.0148

> <Gold.Chemscore.ZeroCoef>
-5.4800

> <Gold.Chemscore.Hbond>
3.0035

> <Gold.Chemscore.Metal>
0.0000

> <Gold.Chemscore.Lipo>
109.9410

> <Gold.Chemscore.Internal_Hbond>
0.0000

> <Gold.Chemscore.DEClash>
1.3584

> <Gold.Chemscore.DEInternal>
1.0815

> <Gold.Chemscore.Rot>
3.2656

> <Gold.Chemscore.Internal.Correction>
   9.000000E+99

> <Gold.Chemscore.Hbonds>
donor molecule, donor type, donor heavy atom, donor atom, acceptor molecule, acceptor atom, score
      L1  H    19    41       P1  7957  0.56
      L1  H    21    43       P1  7957  0.05
      P1  H  7997  8008       L1    11  0.42
      P1  H  8011  8017       L1    19  0.01

> <Gold.Chemscore.Hbond.Weighted>
-10.0316

> <Gold.Chemscore.Metal.Weighted>
-0.0000

> <Gold.Chemscore.Lipo.Weighted>
-12.8631

> <Gold.Chemscore.Internal_Hbond.Weighted>
0.0000

> <Gold.Chemscore.DEClash.Weighted>
1.3584

> <Gold.Chemscore.DEInternal.Weighted>
1.0815

> <Gold.Chemscore.Rot.Weighted>
8.3598

> <Gold.Chemscore.Internal.Correction.Weighted>
   9.000000E+99

> <Gold.Protein.RotatedTorsions>
[ 6907 6896 6895 6894 ] final   84.82 input  -60.11 | X-H torsion
[ 7974 7965 7964 7962 ] final -121.39 input  175.53 | X-H torsion
[ 8008 7997 7996 7995 ] final  -75.26 input   59.86 | X-H torsion
[ 10167 10162 10161 10158 ] final  126.76 input  -65.29 | X-H torsion
[ 10718 10713 10712 10709 ] final  164.55 input   66.30 | X-H torsion
[ 10763 10752 10751 10750 ] final   10.77 input  -60.55 | X-H torsion
[ 11005 11000 10999 10996 ] final   16.53 input  -57.11 | X-H torsion

> <Gold.Protein.ActiveResidues>
 VAL166  LYS551  ARG553  GLY616  TRP617  ASP618  TYR619  PRO620  LYS621  CYS622 
 ASP623  PHE694  ASN695  SER759  ASP760  ASP761  ALA762  ILE779  LEU786  VAL792 
 PHE793  MET794  SER795  GLU796  ALA797  LYS798  CYS799  TRP800  GLU811  SER814 

> <Gold.Protein.RotatedAtoms>
  152.5361  134.2681  159.8960 H   0  0  0  0  0  0  0  0  0  0  0  0  # atno 6907 bound_to 6896
  151.2638  133.4282  159.2625 H   0  0  0  0  0  0  0  0  0  0  0  0  # atno 6908 bound_to 6896
  151.0428  134.9634  159.8227 H   0  0  0  0  0  0  0  0  0  0  0  0  # atno 6909 bound_to 6896
  145.0409  140.8143  143.4267 H   0  0  0  0  0  0  0  0  0  0  0  0  # atno 7974 bound_to 7965
  154.5402  140.0747  156.8496 H   0  0  0  0  0  0  0  0  0  0  0  0  # atno 8008 bound_to 7997
  155.3197  140.3395  155.4223 H   0  0  0  0  0  0  0  0  0  0  0  0  # atno 8009 bound_to 7997
  156.1867  140.1671  156.8158 H   0  0  0  0  0  0  0  0  0  0  0  0  # atno 8010 bound_to 7997
  139.5614  144.6884  151.4033 H   0  0  0  0  0  0  0  0  0  0  0  0  # atno 10167 bound_to 10162
  157.0928  131.0422  151.2530 H   0  0  0  0  0  0  0  0  0  0  0  0  # atno 10718 bound_to 10713
  153.1996  135.6854  153.8248 H   0  0  0  0  0  0  0  0  0  0  0  0  # atno 10763 bound_to 10752
  153.7518  135.3222  155.3323 H   0  0  0  0  0  0  0  0  0  0  0  0  # atno 10764 bound_to 10752
  154.8164  135.4683  154.0757 H   0  0  0  0  0  0  0  0  0  0  0  0  # atno 10765 bound_to 10752
  140.4461  134.1272  155.7696 H   0  0  0  0  0  0  0  0  0  0  0  0  # atno 11005 bound_to 11000
  145.1649  139.2437  143.5372 LP  0  0  0  0  0  0  0  0  0  0  0  0  # atno 17320 bound_to 7965
  146.3509  140.1386  142.8595 LP  0  0  0  0  0  0  0  0  0  0  0  0  # atno 17321 bound_to 7965
  140.6894  143.7898  150.7233 LP  0  0  0  0  0  0  0  0  0  0  0  0  # atno 17342 bound_to 10162
  140.1375  143.4470  152.2215 LP  0  0  0  0  0  0  0  0  0  0  0  0  # atno 17343 bound_to 10162
  157.4707  130.7707  149.7320 LP  0  0  0  0  0  0  0  0  0  0  0  0  # atno 17370 bound_to 10713
  155.9893  130.3952  150.3077 LP  0  0  0  0  0  0  0  0  0  0  0  0  # atno 17371 bound_to 10713
  141.1684  133.8657  157.1644 LP  0  0  0  0  0  0  0  0  0  0  0  0  # atno 17394 bound_to 11000
  140.0037  135.0017  157.0247 LP  0  0  0  0  0  0  0  0  0  0  0  0  # atno 17395 bound_to 11000

$$$$
