#       Name:                AV-unprocessed.smi:2604
#       Creating user name   scv26
#       Creation time:       Fri Mar 27 14:20:28 2020


#       File generated by GOLD software.
#

@<TRIPOS>MOLECULE
AV-unprocessed.smi:2604
    28    29     1
SMALL
NO_CHARGES


@<TRIPOS>ATOM
      1 ****        -3.4345  -0.6287   0.1625 C.ar           1 S1                 0.0000
      2 ****        -4.0122   0.6433  -0.0185 C.ar           1 S1                 0.0000
      3 ****        -3.2862   1.7739  -0.1533 N.ar           1 S1                 0.0000
      4 ****        -1.9408   1.6714  -0.1065 C.ar           1 S1                 0.0000
      5 ****        -1.2587   0.4488   0.0767 C.ar           1 S1                 0.0000
      6 ****         0.2607   0.4123   0.1063 C.3            1 S1                 0.0000
      7 ****         0.8302  -0.1725  -1.2064 C.3            1 S1                 0.0000
      8 ****         2.3070  -0.1623  -1.1801 N.4            1 S1                 1.0000
      9 ****         2.8226  -0.8753   0.0050 C.3            1 S1                 0.0000
     10 ****         2.2229  -0.2679   1.2861 C.3            1 S1                 0.0000
     11 ****         0.7670  -0.3597   1.2414 N.3            1 S1                 0.0000
     12 ****        -2.0307  -0.7267   0.2092 C.ar           1 S1                 0.0000
     13 ****        -4.0542  -1.5075   0.2625 H              1 S1                 0.0000
     14 ****        -5.0856   0.7553  -0.0580 H              1 S1                 0.0000
     15 ****        -1.3927   2.5952  -0.2202 H              1 S1                 0.0000
     16 ****         0.6099   1.4401   0.2196 H              1 S1                 0.0000
     17 ****         0.4800  -1.1941  -1.3621 H              1 S1                 0.0000
     18 ****         0.4935   0.4144  -2.0615 H              1 S1                 0.0000
     19 ****         2.6620  -0.5996  -2.0184 H              1 S1                 0.0000
     20 ****         2.5758  -1.9355  -0.0699 H              1 S1                 0.0000
     21 ****         3.9102  -0.7997   0.0213 H              1 S1                 0.0000
     22 ****         2.5838  -0.8089   2.1611 H              1 S1                 0.0000
     23 ****         2.5282   0.7728   1.4048 H              1 S1                 0.0000
     24 ****         0.3764   0.0044   2.0997 H              1 S1                 0.0000
     25 ****        -1.5583  -1.6890   0.3430 H              1 S1                 0.0000
     26 ****         2.6240   0.7958  -1.1451 H              1 S1                 0.0000
     27 ****        -3.7314   2.6598  -0.2837 LP             1 S1                 0.0000
     28 ****         0.4998  -1.3176   1.1367 LP             1 S1                 0.0000
@<TRIPOS>BOND
    1    1   12 ar    
    2    1    2 ar    
    3    1   13 1     
    4    2    3 ar    
    5    2   14 1     
    6    3    4 ar    
    7    4    5 ar    
    8    4   15 1     
    9    5    6 1     
   10    5   12 ar    
   11    6   11 1     
   12    6    7 1     
   13    6   16 1     
   14    7    8 1     
   15    7   17 1     
   16    7   18 1     
   17    8    9 1     
   18    8   19 1     
   19    8   26 1     
   20    9   10 1     
   21    9   20 1     
   22    9   21 1     
   23   10   11 1     
   24   10   22 1     
   25   10   23 1     
   26   11   24 1     
   27   12   25 1     
   28    3   27 1     
   29   11   28 1     
@<TRIPOS>SUBSTRUCTURE
      1 S1             1
@<TRIPOS>SET
LONE_PAIRS      STATIC     ATOMS    <user>   **** ""
2 27 28
DONOR_HYDROGENS      STATIC     ATOMS    <user>   **** ""
3 19 26 24
ATOM$BLUE        STATIC     ATOMS    COLORGROUP SYSTEM
2 27 28
ATOM$RED        STATIC     ATOMS    COLORGROUP SYSTEM
3 19 26 24
