AV-unprocessed.smi:648|AV-procd|sdf|3175|dock6
  -GOLD-   22720 0103D 1   1.00000     0.00000
 Structure written by MMmdl.
 45 46  0  0  0  0  0  0  0  0  1 V2000
  151.9447  138.3327  154.1599 C   0  0  0  0  0  0  0  0  0  0  0  0
  150.6271  138.7977  154.7977 C   0  0  1  0  0  0  0  0  0  0  0  0
  150.1485  137.7978  155.8676 C   0  0  0  0  0  0  0  0  0  0  0  0
  148.8140  138.1966  156.5403 C   0  0  0  0  0  0  0  0  0  0  0  0
  147.6194  137.8977  155.6049 C   0  0  0  0  0  0  0  0  0  0  0  0
  148.6168  137.3114  157.7910 C   0  0  0  0  0  0  0  0  0  0  0  0
  148.8660  139.6829  157.0123 C   0  0  0  0  0  0  0  0  0  0  0  0
  149.4610  140.7474  156.0360 C   0  0  1  0  0  0  0  0  0  0  0  0
  148.4300  141.1213  154.9356 C   0  0  0  0  0  0  0  0  0  0  0  0
  148.7736  142.3200  154.2658 O   0  0  0  0  0  0  0  0  0  0  0  0
  149.7014  142.0072  156.7772 N   0  0  0  0  0  0  0  0  0  0  0  0
  150.9924  142.2301  157.4395 C   0  0  0  0  0  0  0  0  0  0  0  0
  151.3295  143.7268  157.4663 C   0  0  0  0  0  0  0  0  0  0  0  0
  151.3467  144.2480  158.8187 N   0  0  0  0  0  0  0  0  0  0  0  0
  150.5673  145.1562  159.4082 C   0  0  0  0  0  0  0  0  0  0  0  0
  150.8782  145.3863  160.6765 N   0  0  0  0  0  0  0  0  0  0  0  0
  151.9311  144.5256  160.8124 C   0  0  0  0  0  0  0  0  0  0  0  0
  152.2520  143.8182  159.7289 N   0  0  0  0  0  0  0  0  0  0  0  0
  150.7795  140.1958  155.4231 C   0  0  0  0  0  0  0  0  0  0  0  0
  152.7417  138.2617  154.9006 H   0  0  0  0  0  0  0  0  0  0  0  0
  152.2719  139.0262  153.3849 H   0  0  0  0  0  0  0  0  0  0  0  0
  151.8323  137.3520  153.6968 H   0  0  0  0  0  0  0  0  0  0  0  0
  149.8919  138.8454  153.9956 H   0  0  0  0  0  0  0  0  0  0  0  0
  150.0573  136.8023  155.4306 H   0  0  0  0  0  0  0  0  0  0  0  0
  150.9248  137.7158  156.6300 H   0  0  0  0  0  0  0  0  0  0  0  0
  146.7001  138.3562  155.9704 H   0  0  0  0  0  0  0  0  0  0  0  0
  147.4370  136.8246  155.5357 H   0  0  0  0  0  0  0  0  0  0  0  0
  147.7773  138.2268  154.5819 H   0  0  0  0  0  0  0  0  0  0  0  0
  147.6803  137.5456  158.2985 H   0  0  0  0  0  0  0  0  0  0  0  0
  149.4219  137.4457  158.5145 H   0  0  0  0  0  0  0  0  0  0  0  0
  148.5935  136.2521  157.5327 H   0  0  0  0  0  0  0  0  0  0  0  0
  147.8763  140.0001  157.3438 H   0  0  0  0  0  0  0  0  0  0  0  0
  149.4697  139.6823  157.9174 H   0  0  0  0  0  0  0  0  0  0  0  0
  148.3468  140.3628  154.1670 H   0  0  0  0  0  0  0  0  0  0  0  0
  147.4334  141.2357  155.3640 H   0  0  0  0  0  0  0  0  0  0  0  0
  148.9956  142.9717  154.9132 H   0  0  0  0  0  0  0  0  0  0  0  0
  149.4880  142.7946  156.1727 H   0  0  0  0  0  0  0  0  0  0  0  0
  150.9901  141.8492  158.4591 H   0  0  0  0  0  0  0  0  0  0  0  0
  151.7891  141.7132  156.9057 H   0  0  0  0  0  0  0  0  0  0  0  0
  152.3072  143.9051  157.0161 H   0  0  0  0  0  0  0  0  0  0  0  0
  150.6022  144.2946  156.8842 H   0  0  0  0  0  0  0  0  0  0  0  0
  149.7576  145.6591  158.8998 H   0  0  0  0  0  0  0  0  0  0  0  0
  152.4766  144.4166  161.7382 H   0  0  0  0  0  0  0  0  0  0  0  0
  151.5454  140.1074  156.1929 H   0  0  0  0  0  0  0  0  0  0  0  0
  151.1814  140.8936  154.6877 H   0  0  0  0  0  0  0  0  0  0  0  0
  1  2  1  0  0  0  0
  1 20  1  0  0  0  0
  1 21  1  0  0  0  0
  1 22  1  0  0  0  0
  2 19  1  0  0  0  0
  2  3  1  0  0  0  0
  2 23  1  0  0  0  0
  3  4  1  0  0  0  0
  3 24  1  0  0  0  0
  3 25  1  0  0  0  0
  4  5  1  0  0  0  0
  4  6  1  0  0  0  0
  4  7  1  0  0  0  0
  5 26  1  0  0  0  0
  5 27  1  0  0  0  0
  5 28  1  0  0  0  0
  6 29  1  0  0  0  0
  6 30  1  0  0  0  0
  6 31  1  0  0  0  0
  7  8  1  0  0  0  0
  7 32  1  0  0  0  0
  7 33  1  0  0  0  0
  8  9  1  0  0  0  0
  8 11  1  0  0  0  0
  8 19  1  0  0  0  0
  9 10  1  0  0  0  0
  9 34  1  0  0  0  0
  9 35  1  0  0  0  0
 10 36  1  0  0  0  0
 11 12  1  0  0  0  0
 11 37  1  0  0  0  0
 12 13  1  0  0  0  0
 12 38  1  0  0  0  0
 12 39  1  0  0  0  0
 13 14  1  0  0  0  0
 13 40  1  0  0  0  0
 13 41  1  0  0  0  0
 14 18  1  0  0  0  0
 14 15  1  0  0  0  0
 15 16  2  0  0  0  0
 15 42  1  0  0  0  0
 16 17  1  0  0  0  0
 17 18  2  0  0  0  0
 17 43  1  0  0  0  0
 19 44  1  0  0  0  0
 19 45  1  0  0  0  0
M  END
> <s_m_source_file>
AV-unprocessed.smi

> <i_m_source_file_index>
648

> <i_lp_mmshare_version>
43012

> <i_f3d_flags>
0

> <s_epik_input>
W0NIM11DMShbQ0gzXSlbQ0gyXVtDQEBIXShbQ0gzXSlbQ0gyXVtDQF0oW0NIMl0xKShbQ0gyXVtPSF0pW05IXVtDSDJdW0NIMl1uMltjSF1uW2NIXW4y

> <s_epik_cmdline>
J2VwaWtfcHl0aG9uJywgJy1waCcsICc3LjAnLCAnLXRuJywgJzgnLCAnLW1hJywgJzIwMCcsICctbWV0YWxfYmluZGluZycsICctaW1hZScsICc8aW5maWxlLm1hZT4nLCAnLW9tYWUnLCAnPG91dGZpbGUubWFlPic=

> <r_lp_tautomer_probability>
1

> <r_epik_Ionization_Penalty>
2.45849

> <r_epik_Ionization_Penalty_Charging>
0

> <r_epik_Ionization_Penalty_Neutral>
2.45849

> <r_epik_State_Penalty>
2.62037

> <r_epik_Charging_Adjusted_Penalty>
2.62037

> <i_epik_Tot_Q>
0

> <i_epik_Tot_abs_Q>
0

> <r_epik_Metal_State_Penalty>
2.62024

> <b_epik_Metal_Only>
0

> <s_lp_Force_Field>
OPLS_2005

> <r_lp_Energy>
36.0578

> <b_lp_Chiralities_Consistent>
1

> <s_lp_Variant>
AV-unprocessed.smi:648-6

> <Gold.Version>
5.8.1

> <Gold.Id.Protein>
6NUR|6NUR_protein|mol2

> <Gold.PLP.Fitness>
41.1530

> <Gold.PLP.PLP>
-34.0400

> <Gold.PLP.part.hbond>
-3.2984

> <Gold.PLP.part.metal>
0.0000

> <Gold.PLP.part.buried>
-5.6009

> <Gold.PLP.part.nonpolar>
-25.8730

> <Gold.PLP.part.repulsive>
0.4918

> <Gold.PLP.ligand.clash>
0.0000

> <Gold.PLP.ligand.torsion>
1.2704

> <Gold.PLP.Chemscore.Hbond>
2.2072

> <Gold.PLP.Chemscore.CHOScore>
1.0000

> <Gold.PLP.Chemscore.Metal>
0.0000

> <Gold.Chemscore.Hbonds>
donor molecule, donor type, donor heavy atom, donor atom, acceptor molecule, acceptor atom, score
      L1  H    10    36       P1  8028  1.00
      L1  H    11    37       P1  8028  0.88
      P1  H  8011  8017       L1    10  0.15
      L1  C    15    42       P1  8029  1.00

> <Gold.PLP.Chemscore.Internal.Correction>
0.0323

> <Gold.Rescore>
     Score         DG    S(hbond)    S(metal)    S(lipo)     H(rot)  DE(clash)    DE(int)     intcor
      9.40     -10.96       1.94        0.00      59.80       3.12       0.14       1.42       ----

> <Gold.Chemscore.Fitness>
9.3979

> <Gold.Chemscore.DG>
-10.9628

> <Gold.Chemscore.ZeroCoef>
-5.4800

> <Gold.Chemscore.Hbond>
1.9367

> <Gold.Chemscore.Metal>
0.0000

> <Gold.Chemscore.Lipo>
59.8044

> <Gold.Chemscore.Internal_Hbond>
0.0000

> <Gold.Chemscore.DEClash>
0.1430

> <Gold.Chemscore.DEInternal>
1.4219

> <Gold.Chemscore.Rot>
3.1183

> <Gold.Chemscore.Internal.Correction>
   9.000000E+99

> <Gold.Chemscore.Hbonds>
donor molecule, donor type, donor heavy atom, donor atom, acceptor molecule, acceptor atom, score
      L1  H    10    36       P1  8028  0.95
      L1  H    11    37       P1  8028  0.85
      P1  H  8011  8017       L1    10  0.14

> <Gold.Chemscore.Hbond.Weighted>
-6.4686

> <Gold.Chemscore.Metal.Weighted>
-0.0000

> <Gold.Chemscore.Lipo.Weighted>
-6.9971

> <Gold.Chemscore.Internal_Hbond.Weighted>
0.0000

> <Gold.Chemscore.DEClash.Weighted>
0.1430

> <Gold.Chemscore.DEInternal.Weighted>
1.4219

> <Gold.Chemscore.Rot.Weighted>
7.9829

> <Gold.Chemscore.Internal.Correction.Weighted>
   9.000000E+99

> <Gold.Protein.RotatedTorsions>
[ 6907 6896 6895 6894 ] final  -10.46 input  -60.11 | X-H torsion
[ 7974 7965 7964 7962 ] final  111.83 input  175.53 | X-H torsion
[ 8008 7997 7996 7995 ] final   96.96 input   59.86 | X-H torsion
[ 10167 10162 10161 10158 ] final -133.58 input  -65.29 | X-H torsion
[ 10718 10713 10712 10709 ] final -175.73 input   66.30 | X-H torsion
[ 10763 10752 10751 10750 ] final -146.17 input  -60.55 | X-H torsion
[ 11005 11000 10999 10996 ] final -145.51 input  -57.11 | X-H torsion

> <Gold.Protein.ActiveResidues>
 VAL166  LYS551  ARG553  GLY616  TRP617  ASP618  TYR619  PRO620  LYS621  CYS622 
 ASP623  PHE694  ASN695  SER759  ASP760  ASP761  ALA762  ILE779  LEU786  VAL792 
 PHE793  MET794  SER795  GLU796  ALA797  LYS798  CYS799  TRP800  GLU811  SER814 

> <Gold.Protein.RotatedAtoms>
  151.4017  135.0972  159.9557 H   0  0  0  0  0  0  0  0  0  0  0  0  # atno 6907 bound_to 6896
  152.5048  133.8882  159.7391 H   0  0  0  0  0  0  0  0  0  0  0  0  # atno 6908 bound_to 6896
  150.9357  133.6658  159.2829 H   0  0  0  0  0  0  0  0  0  0  0  0  # atno 6909 bound_to 6896
  145.2373  139.2794  143.4136 H   0  0  0  0  0  0  0  0  0  0  0  0  # atno 7974 bound_to 7965
  156.0851  140.3265  155.7743 H   0  0  0  0  0  0  0  0  0  0  0  0  # atno 8008 bound_to 7997
  155.5089  140.0575  157.2944 H   0  0  0  0  0  0  0  0  0  0  0  0  # atno 8009 bound_to 7997
  154.4604  140.1964  156.0276 H   0  0  0  0  0  0  0  0  0  0  0  0  # atno 8010 bound_to 7997
  139.8968  143.6655  152.2602 H   0  0  0  0  0  0  0  0  0  0  0  0  # atno 10167 bound_to 10162
  156.8042  130.9563  151.3118 H   0  0  0  0  0  0  0  0  0  0  0  0  # atno 10718 bound_to 10713
  154.8348  135.3393  154.6620 H   0  0  0  0  0  0  0  0  0  0  0  0  # atno 10763 bound_to 10752
  153.7236  135.6956  153.5011 H   0  0  0  0  0  0  0  0  0  0  0  0  # atno 10764 bound_to 10752
  153.2363  135.4399  155.0603 H   0  0  0  0  0  0  0  0  0  0  0  0  # atno 10765 bound_to 10752
  140.7915  134.2963  157.5011 H   0  0  0  0  0  0  0  0  0  0  0  0  # atno 11005 bound_to 11000
  146.3338  140.2726  142.8606 LP  0  0  0  0  0  0  0  0  0  0  0  0  # atno 17320 bound_to 7965
  144.9621  140.8286  143.5507 LP  0  0  0  0  0  0  0  0  0  0  0  0  # atno 17321 bound_to 7965
  139.7060  144.7628  151.1192 LP  0  0  0  0  0  0  0  0  0  0  0  0  # atno 17342 bound_to 10162
  140.7715  143.5393  150.9331 LP  0  0  0  0  0  0  0  0  0  0  0  0  # atno 17343 bound_to 10162
  157.6538  130.8907  149.9687 LP  0  0  0  0  0  0  0  0  0  0  0  0  # atno 17370 bound_to 10713
  156.1083  130.3651  150.0095 LP  0  0  0  0  0  0  0  0  0  0  0  0  # atno 17371 bound_to 10713
  139.8731  134.9377  156.3695 LP  0  0  0  0  0  0  0  0  0  0  0  0  # atno 17394 bound_to 11000
  140.9385  133.7531  156.0115 LP  0  0  0  0  0  0  0  0  0  0  0  0  # atno 17395 bound_to 11000

$$$$
