AV-unprocessed.smi:2202|AV-procd|sdf|8930|dock2
  -GOLD-   2272012143D 1   1.00000     0.00000
 Structure written by MMmdl.
 42 44  0  0  0  0  0  0  0  0  1 V2000
  151.5921  137.0899  159.2388 O   0  0  0  0  0  0  0  0  0  0  0  0
  151.0835  137.6152  158.2473 C   0  0  0  0  0  0  0  0  0  0  0  0
  151.8324  138.6957  157.4543 C   0  0  0  0  0  0  0  0  0  0  0  0
  151.9426  139.9699  158.1757 N   0  0  0  0  0  0  0  0  0  0  0  0
  152.6308  140.1378  159.3224 C   0  0  0  0  0  0  0  0  0  0  0  0
  153.1682  139.2649  160.0029 O   0  0  0  0  0  0  0  0  0  0  0  0
  152.7270  141.6251  159.6279 C   0  0  2  0  0  0  0  0  0  0  0  0
  152.6884  142.1835  161.0556 C   0  0  0  0  0  0  0  0  0  0  0  0
  152.5448  143.7066  160.9661 C   0  0  0  0  0  0  0  0  0  0  0  0
  152.1721  144.3625  159.8397 C   0  0  0  0  0  0  0  0  0  0  0  0
  151.8075  143.6597  158.5277 C   0  0  0  0  0  0  0  0  0  0  0  0
  151.5591  142.1785  158.8364 C   0  0  1  0  0  0  0  0  0  0  0  0
  151.3998  141.1272  157.7489 C   0  0  0  0  0  0  0  0  0  0  0  0
  150.8094  141.3248  156.6872 O   0  0  0  0  0  0  0  0  0  0  0  0
  149.8600  137.3005  157.7968 N   0  0  0  0  0  0  0  0  0  0  0  0
  148.9824  136.2988  158.3910 C   0  0  0  0  0  0  0  0  0  0  0  0
  147.7931  136.9480  159.1192 C   0  0  0  0  0  0  0  0  0  0  0  0
  147.5587  136.3422  160.4899 C   0  0  0  0  0  0  0  0  0  0  0  0
  147.4067  134.9478  160.6453 C   0  0  0  0  0  0  0  0  0  0  0  0
  147.1855  134.4374  161.9393 C   0  0  0  0  0  0  0  0  0  0  0  0
  147.1234  135.3361  163.0216 C   0  0  0  0  0  0  0  0  0  0  0  0
  147.2857  136.7115  162.7609 C   0  0  0  0  0  0  0  0  0  0  0  0
  147.4985  137.2111  161.5244 N   0  0  0  0  0  0  0  0  0  0  0  0
  152.8305  138.3310  157.2038 H   0  0  0  0  0  0  0  0  0  0  0  0
  151.3213  138.8420  156.5012 H   0  0  0  0  0  0  0  0  0  0  0  0
  153.6635  141.9525  159.1700 H   0  0  0  0  0  0  0  0  0  0  0  0
  151.8595  141.7683  161.6297 H   0  0  0  0  0  0  0  0  0  0  0  0
  153.6112  141.9376  161.5814 H   0  0  0  0  0  0  0  0  0  0  0  0
  152.7634  144.2671  161.8631 H   0  0  0  0  0  0  0  0  0  0  0  0
  152.1166  145.4413  159.8427 H   0  0  0  0  0  0  0  0  0  0  0  0
  150.9082  144.1140  158.1106 H   0  0  0  0  0  0  0  0  0  0  0  0
  152.6119  143.7922  157.8031 H   0  0  0  0  0  0  0  0  0  0  0  0
  150.6488  142.1136  159.4375 H   0  0  0  0  0  0  0  0  0  0  0  0
  149.5145  137.7857  156.9816 H   0  0  0  0  0  0  0  0  0  0  0  0
  148.6321  135.6077  157.6225 H   0  0  0  0  0  0  0  0  0  0  0  0
  149.5702  135.7087  159.0948 H   0  0  0  0  0  0  0  0  0  0  0  0
  147.9613  138.0205  159.2249 H   0  0  0  0  0  0  0  0  0  0  0  0
  146.8818  136.8390  158.5292 H   0  0  0  0  0  0  0  0  0  0  0  0
  147.4576  134.2835  159.7950 H   0  0  0  0  0  0  0  0  0  0  0  0
  147.0647  133.3761  162.0983 H   0  0  0  0  0  0  0  0  0  0  0  0
  146.9549  134.9808  164.0273 H   0  0  0  0  0  0  0  0  0  0  0  0
  147.2433  137.4293  163.5667 H   0  0  0  0  0  0  0  0  0  0  0  0
  1  2  2  0  0  0  0
  2  3  1  0  0  0  0
  2 15  1  0  0  0  0
  3  4  1  0  0  0  0
  3 24  1  0  0  0  0
  3 25  1  0  0  0  0
  4 13  1  0  0  0  0
  4  5  1  0  0  0  0
  5  6  2  0  0  0  0
  5  7  1  0  0  0  0
  7 12  1  0  0  0  0
  7  8  1  0  0  0  0
  7 26  1  0  0  0  0
  8  9  1  0  0  0  0
  8 27  1  0  0  0  0
  8 28  1  0  0  0  0
  9 10  2  0  0  0  0
  9 29  1  0  0  0  0
 10 11  1  0  0  0  0
 10 30  1  0  0  0  0
 11 12  1  0  0  0  0
 11 31  1  0  0  0  0
 11 32  1  0  0  0  0
 12 13  1  0  0  0  0
 12 33  1  0  0  0  0
 13 14  2  0  0  0  0
 15 16  1  0  0  0  0
 15 34  1  0  0  0  0
 16 17  1  0  0  0  0
 16 35  1  0  0  0  0
 16 36  1  0  0  0  0
 17 18  1  0  0  0  0
 17 37  1  0  0  0  0
 17 38  1  0  0  0  0
 18 23  1  0  0  0  0
 18 19  2  0  0  0  0
 19 20  1  0  0  0  0
 19 39  1  0  0  0  0
 20 21  2  0  0  0  0
 20 40  1  0  0  0  0
 21 22  1  0  0  0  0
 21 41  1  0  0  0  0
 22 23  2  0  0  0  0
 22 42  1  0  0  0  0
M  END
> <s_m_source_file>
AV-unprocessed.smi

> <i_m_source_file_index>
2202

> <i_lp_mmshare_version>
43012

> <i_f3d_flags>
0

> <s_epik_input>
W0NIMl0xW0NIXT1bQ0hdW0NIMl1bQ0BIXShbQ0BIXTEyKUMoPU8pTihDMj1PKVtDSDJdQyg9TylbTkhdW0NIMl1bQ0gyXWMzW2NIXVtjSF1bY0hdW2NIXW4z

> <s_epik_cmdline>
J2VwaWtfcHl0aG9uJywgJy1waCcsICc3LjAnLCAnLXRuJywgJzgnLCAnLW1hJywgJzIwMCcsICctbWV0YWxfYmluZGluZycsICctaW1hZScsICc8aW5maWxlLm1hZT4nLCAnLW9tYWUnLCAnPG91dGZpbGUubWFlPic=

> <r_lp_tautomer_probability>
1

> <r_epik_Ionization_Penalty>
0.0244696

> <r_epik_Ionization_Penalty_Charging>
0

> <r_epik_Ionization_Penalty_Neutral>
0.0244696

> <r_epik_State_Penalty>
0.0198648

> <r_epik_Charging_Adjusted_Penalty>
0.0198648

> <i_epik_Tot_Q>
0

> <i_epik_Tot_abs_Q>
0

> <r_epik_Metal_State_Penalty>
0.0190699

> <b_epik_Metal_Only>
0

> <s_lp_Force_Field>
OPLS_2005

> <r_lp_Energy>
19.074

> <b_lp_Chiralities_Consistent>
1

> <s_lp_Variant>
AV-unprocessed.smi:2202-2

> <Gold.Version>
5.8.1

> <Gold.Id.Protein>
6NUR|6NUR_protein|mol2

> <Gold.PLP.Fitness>
57.5354

> <Gold.PLP.PLP>
-50.3543

> <Gold.PLP.part.hbond>
-3.0000

> <Gold.PLP.part.metal>
0.0000

> <Gold.PLP.part.buried>
-7.0910

> <Gold.PLP.part.nonpolar>
-41.0299

> <Gold.PLP.part.repulsive>
0.1190

> <Gold.PLP.ligand.clash>
0.0000

> <Gold.PLP.ligand.torsion>
0.5628

> <Gold.PLP.Chemscore.Hbond>
2.7521

> <Gold.PLP.Chemscore.CHOScore>
0.0000

> <Gold.PLP.Chemscore.Metal>
0.0000

> <Gold.Chemscore.Hbonds>
donor molecule, donor type, donor heavy atom, donor atom, acceptor molecule, acceptor atom, score
      P1  H  6896  6909       L1     1  0.94
      P1  H  6931  6943       L1    23  0.84
      P1  H  6934  6947       L1    23  0.85

> <Gold.PLP.Chemscore.Internal.Correction>
0.0502

> <Gold.Rescore>
     Score         DG    S(hbond)    S(metal)    S(lipo)     H(rot)  DE(clash)    DE(int)     intcor
     19.11     -21.00       2.00        0.00     116.00       1.85       0.00       1.89       ----

> <Gold.Chemscore.Fitness>
19.1096

> <Gold.Chemscore.DG>
-20.9988

> <Gold.Chemscore.ZeroCoef>
-5.4800

> <Gold.Chemscore.Hbond>
2.0039

> <Gold.Chemscore.Metal>
0.0000

> <Gold.Chemscore.Lipo>
115.9998

> <Gold.Chemscore.Internal_Hbond>
0.0000

> <Gold.Chemscore.DEClash>
0.0000

> <Gold.Chemscore.DEInternal>
1.8892

> <Gold.Chemscore.Rot>
1.8540

> <Gold.Chemscore.Internal.Correction>
   9.000000E+99

> <Gold.Chemscore.Hbonds>
donor molecule, donor type, donor heavy atom, donor atom, acceptor molecule, acceptor atom, score
      P1  H  6896  6909       L1     1  0.89
      P1  H  6931  6943       L1    23  0.16
      P1  H  6934  6947       L1    23  0.71

> <Gold.Chemscore.Hbond.Weighted>
-6.6931

> <Gold.Chemscore.Metal.Weighted>
-0.0000

> <Gold.Chemscore.Lipo.Weighted>
-13.5720

> <Gold.Chemscore.Internal_Hbond.Weighted>
0.0000

> <Gold.Chemscore.DEClash.Weighted>
0.0000

> <Gold.Chemscore.DEInternal.Weighted>
1.8892

> <Gold.Chemscore.Rot.Weighted>
4.7462

> <Gold.Chemscore.Internal.Correction.Weighted>
   9.000000E+99

> <Gold.Protein.RotatedTorsions>
[ 6907 6896 6895 6894 ] final  119.46 input  -60.11 | X-H torsion
[ 7974 7965 7964 7962 ] final  -20.55 input  175.53 | X-H torsion
[ 8008 7997 7996 7995 ] final  -46.75 input   59.86 | X-H torsion
[ 10167 10162 10161 10158 ] final   30.17 input  -65.29 | X-H torsion
[ 10718 10713 10712 10709 ] final  117.44 input   66.30 | X-H torsion
[ 10763 10752 10751 10750 ] final -123.77 input  -60.55 | X-H torsion
[ 11005 11000 10999 10996 ] final  171.04 input  -57.11 | X-H torsion

> <Gold.Protein.ActiveResidues>
 VAL166  LYS551  ARG553  GLY616  TRP617  ASP618  TYR619  PRO620  LYS621  CYS622 
 ASP623  PHE694  ASN695  SER759  ASP760  ASP761  ALA762  ILE779  LEU786  VAL792 
 PHE793  MET794  SER795  GLU796  ALA797  LYS798  CYS799  TRP800  GLU811  SER814 

> <Gold.Protein.RotatedAtoms>
  152.4470  133.7556  159.6717 H   0  0  0  0  0  0  0  0  0  0  0  0  # atno 6907 bound_to 6896
  150.8372  133.7983  159.3081 H   0  0  0  0  0  0  0  0  0  0  0  0  # atno 6908 bound_to 6896
  151.5619  135.1068  160.0026 H   0  0  0  0  0  0  0  0  0  0  0  0  # atno 6909 bound_to 6896
  146.1782  140.4217  142.8505 H   0  0  0  0  0  0  0  0  0  0  0  0  # atno 7974 bound_to 7965
  154.4010  140.1364  156.4062 H   0  0  0  0  0  0  0  0  0  0  0  0  # atno 8008 bound_to 7997
  155.7777  140.3482  155.5260 H   0  0  0  0  0  0  0  0  0  0  0  0  # atno 8009 bound_to 7997
  155.8704  140.0971  157.1544 H   0  0  0  0  0  0  0  0  0  0  0  0  # atno 8010 bound_to 7997
  140.4701  144.0776  150.6235 H   0  0  0  0  0  0  0  0  0  0  0  0  # atno 10167 bound_to 10162
  157.6096  131.1037  150.7615 H   0  0  0  0  0  0  0  0  0  0  0  0  # atno 10718 bound_to 10713
  154.8713  135.4087  154.2997 H   0  0  0  0  0  0  0  0  0  0  0  0  # atno 10763 bound_to 10752
  153.3858  135.7013  153.6536 H   0  0  0  0  0  0  0  0  0  0  0  0  # atno 10764 bound_to 10752
  153.5339  135.3662  155.2660 H   0  0  0  0  0  0  0  0  0  0  0  0  # atno 10765 bound_to 10752
  140.3147  134.7487  157.4018 H   0  0  0  0  0  0  0  0  0  0  0  0  # atno 11005 bound_to 11000
  144.8271  140.6646  143.6315 LP  0  0  0  0  0  0  0  0  0  0  0  0  # atno 17320 bound_to 7965
  145.4151  139.1573  143.4104 LP  0  0  0  0  0  0  0  0  0  0  0  0  # atno 17321 bound_to 7965
  140.3988  143.2714  151.9973 LP  0  0  0  0  0  0  0  0  0  0  0  0  # atno 17342 bound_to 10162
  139.4817  144.6015  151.7596 LP  0  0  0  0  0  0  0  0  0  0  0  0  # atno 17343 bound_to 10162
  156.7995  130.4916  149.5372 LP  0  0  0  0  0  0  0  0  0  0  0  0  # atno 17370 bound_to 10713
  156.1194  130.6099  151.0171 LP  0  0  0  0  0  0  0  0  0  0  0  0  # atno 17371 bound_to 10713
  140.0994  134.5493  155.8367 LP  0  0  0  0  0  0  0  0  0  0  0  0  # atno 17394 bound_to 11000
  141.2100  133.6690  156.6480 LP  0  0  0  0  0  0  0  0  0  0  0  0  # atno 17395 bound_to 11000

$$$$
