#       Name:                AV-unprocessed.smi:1906
#       Creating user name   scv26
#       Creation time:       Fri Mar 27 09:46:58 2020


#       File generated by GOLD software.
#

@<TRIPOS>MOLECULE
AV-unprocessed.smi:1906
    38    40     1
SMALL
NO_CHARGES


@<TRIPOS>ATOM
      1 ****        -1.5445   1.2020  -2.8691 C.3            1 S1                 0.0000
      2 ****        -1.5455   1.7121  -1.4629 C.2            1 S1                 0.0000
      3 ****        -1.9900   2.9296  -1.1495 N.2            1 S1                 0.0000
      4 ****        -1.8152   2.9730   0.2204 C.ar           1 S1                 0.0000
      5 ****        -2.0975   3.9979   1.1518 C.ar           1 S1                 0.0000
      6 ****        -1.8301   3.8094   2.5238 C.ar           1 S1                 0.0000
      7 ****        -1.2777   2.5963   2.9836 C.ar           1 S1                 0.0000
      8 ****        -0.9892   1.5619   2.0727 C.ar           1 S1                 0.0000
      9 ****        -1.2582   1.7556   0.7046 C.ar           1 S1                 0.0000
     10 ****        -1.0969   0.9619  -0.4260 N.pl3          1 S1                 0.0000
     11 ****        -0.5603  -0.3917  -0.4513 C.3            1 S1                 0.0000
     12 ****         0.9765  -0.4220  -0.3350 C.3            1 S1                 0.0000
     13 ****         1.5573   0.2706  -1.4228 O.3            1 S1                 0.0000
     14 ****         1.4922  -1.8475  -0.2206 C.ar           1 S1                 0.0000
     15 ****         1.5338  -2.6909  -1.3528 C.ar           1 S1                 0.0000
     16 ****         2.0005  -4.0147  -1.2347 C.ar           1 S1                 0.0000
     17 ****         2.4273  -4.5028   0.0153 C.ar           1 S1                 0.0000
     18 ****         2.3860  -3.6666   1.1476 C.ar           1 S1                 0.0000
     19 ****         2.7940  -4.1351   2.3506 F              1 S1                 0.0000
     20 ****         1.9185  -2.3434   1.0301 C.ar           1 S1                 0.0000
     21 ****        -1.8707   1.9811  -3.5589 H              1 S1                 0.0000
     22 ****        -2.2239   0.3546  -2.9623 H              1 S1                 0.0000
     23 ****        -0.5425   0.8868  -3.1596 H              1 S1                 0.0000
     24 ****        -2.5207   4.9308   0.8105 H              1 S1                 0.0000
     25 ****        -2.0502   4.5992   3.2270 H              1 S1                 0.0000
     26 ****        -1.0755   2.4600   4.0359 H              1 S1                 0.0000
     27 ****        -0.5662   0.6313   2.4210 H              1 S1                 0.0000
     28 ****        -1.0032  -0.9385   0.3821 H              1 S1                 0.0000
     29 ****        -0.8900  -0.9023  -1.3562 H              1 S1                 0.0000
     30 ****         1.2708   0.1179   0.5660 H              1 S1                 0.0000
     31 ****         2.4885   0.3338  -1.2745 H              1 S1                 0.0000
     32 ****         1.2040  -2.3257  -2.3147 H              1 S1                 0.0000
     33 ****         2.0293  -4.6564  -2.1031 H              1 S1                 0.0000
     34 ****         2.7843  -5.5182   0.1057 H              1 S1                 0.0000
     35 ****         1.8867  -1.7113   1.9055 H              1 S1                 0.0000
     36 ****        -2.3581   3.6353  -1.7550 LP             1 S1                 0.0000
     37 ****         1.1630   1.1873  -1.4884 LP             1 S1                 0.0000
     38 ****         1.3838  -0.2284  -2.2719 LP             1 S1                 0.0000
@<TRIPOS>BOND
    1    1    2 1     
    2    1   21 1     
    3    1   22 1     
    4    1   23 1     
    5    2   10 1     
    6    2    3 2     
    7    3    4 1     
    8    4    9 ar    
    9    4    5 ar    
   10    5    6 ar    
   11    5   24 1     
   12    6    7 ar    
   13    6   25 1     
   14    7    8 ar    
   15    7   26 1     
   16    8    9 ar    
   17    8   27 1     
   18    9   10 1     
   19   10   11 1     
   20   11   12 1     
   21   11   28 1     
   22   11   29 1     
   23   12   13 1     
   24   12   14 1     
   25   12   30 1     
   26   13   31 1     
   27   14   20 ar    
   28   14   15 ar    
   29   15   16 ar    
   30   15   32 1     
   31   16   17 ar    
   32   16   33 1     
   33   17   18 ar    
   34   17   34 1     
   35   18   19 1     
   36   18   20 ar    
   37   20   35 1     
   38    3   36 1     
   39   13   37 1     
   40   13   38 1     
@<TRIPOS>SUBSTRUCTURE
      1 S1             1
@<TRIPOS>SET
LONE_PAIRS      STATIC     ATOMS    <user>   **** ""
3 36 37 38
DONOR_HYDROGENS      STATIC     ATOMS    <user>   **** ""
1 31
ATOM$BLUE        STATIC     ATOMS    COLORGROUP SYSTEM
3 36 37 38
ATOM$RED        STATIC     ATOMS    COLORGROUP SYSTEM
1 31
