AV-unprocessed.smi:3161|AV-procd|sdf|12061|dock7
  -GOLD-   2272017493D 1   1.00000     0.00000
 Structure written by MMmdl.
 40 41  0  0  0  0  0  0  0  0  1 V2000
  154.2498  140.6797  162.0522 C   0  0  0  0  0  0  0  0  0  0  0  0
  153.6173  141.8494  161.3549 C   0  0  0  0  0  0  0  0  0  0  0  0
  152.7647  142.8450  161.9106 C   0  0  0  0  0  0  0  0  0  0  0  0
  152.3749  143.7437  161.0216 N   0  0  0  0  0  0  0  0  0  0  0  0
  152.9579  143.3527  159.8679 N   0  0  0  0  0  0  0  0  0  0  0  0
  152.7448  144.1164  158.6479 C   0  0  0  0  0  0  0  0  0  0  0  0
  151.2652  144.1843  158.2072 C   0  0  2  0  0  0  0  0  0  0  0  0
  150.3852  144.9331  159.2284 C   0  0  0  0  0  0  0  0  0  0  0  0
  150.7643  142.8322  157.9364 N   0  0  0  0  0  0  0  0  0  0  0  0
  151.0579  142.2966  156.6076 C   0  0  0  0  0  0  0  0  0  0  0  0
  151.4694  140.8188  156.6878 C   0  0  1  0  0  0  0  0  0  0  0  0
  150.4819  139.9711  157.5171 C   0  0  0  0  0  0  0  0  0  0  0  0
  150.8867  138.4930  157.4902 C   0  0  0  0  0  0  0  0  0  0  0  0
  151.0462  138.0275  156.0394 C   0  0  0  0  0  0  0  0  0  0  0  0
  151.9899  138.9704  155.2763 C   0  0  0  0  0  0  0  0  0  0  0  0
  151.5095  140.3092  155.3566 O   0  0  0  0  0  0  0  0  0  0  0  0
  153.7189  142.2161  160.0430 C   0  0  0  0  0  0  0  0  0  0  0  0
  154.0034  140.6581  163.1140 H   0  0  0  0  0  0  0  0  0  0  0  0
  155.3369  140.7059  161.9750 H   0  0  0  0  0  0  0  0  0  0  0  0
  153.9195  139.7320  161.6267 H   0  0  0  0  0  0  0  0  0  0  0  0
  152.4196  142.9405  162.9296 H   0  0  0  0  0  0  0  0  0  0  0  0
  153.1304  145.1259  158.7995 H   0  0  0  0  0  0  0  0  0  0  0  0
  153.3545  143.6768  157.8573 H   0  0  0  0  0  0  0  0  0  0  0  0
  151.2402  144.7514  157.2759 H   0  0  0  0  0  0  0  0  0  0  0  0
  150.8370  145.8869  159.5017 H   0  0  0  0  0  0  0  0  0  0  0  0
  150.2492  144.3572  160.1444 H   0  0  0  0  0  0  0  0  0  0  0  0
  149.3978  145.1565  158.8251 H   0  0  0  0  0  0  0  0  0  0  0  0
  149.7618  142.8061  158.0935 H   0  0  0  0  0  0  0  0  0  0  0  0
  150.1973  142.3926  155.9460 H   0  0  0  0  0  0  0  0  0  0  0  0
  151.8671  142.8719  156.1562 H   0  0  0  0  0  0  0  0  0  0  0  0
  152.4720  140.7517  157.1152 H   0  0  0  0  0  0  0  0  0  0  0  0
  150.4454  140.3245  158.5481 H   0  0  0  0  0  0  0  0  0  0  0  0
  149.4741  140.0804  157.1139 H   0  0  0  0  0  0  0  0  0  0  0  0
  151.8282  138.3607  158.0245 H   0  0  0  0  0  0  0  0  0  0  0  0
  150.1440  137.8844  158.0066 H   0  0  0  0  0  0  0  0  0  0  0  0
  151.4264  137.0059  156.0101 H   0  0  0  0  0  0  0  0  0  0  0  0
  150.0720  138.0135  155.5495 H   0  0  0  0  0  0  0  0  0  0  0  0
  153.0042  138.9123  155.6737 H   0  0  0  0  0  0  0  0  0  0  0  0
  152.0433  138.6778  154.2276 H   0  0  0  0  0  0  0  0  0  0  0  0
  154.2612  141.7641  159.2254 H   0  0  0  0  0  0  0  0  0  0  0  0
  1  2  1  0  0  0  0
  1 18  1  0  0  0  0
  1 19  1  0  0  0  0
  1 20  1  0  0  0  0
  2 17  2  0  0  0  0
  2  3  1  0  0  0  0
  3  4  2  0  0  0  0
  3 21  1  0  0  0  0
  4  5  1  0  0  0  0
  5  6  1  0  0  0  0
  5 17  1  0  0  0  0
  6  7  1  0  0  0  0
  6 22  1  0  0  0  0
  6 23  1  0  0  0  0
  7  8  1  0  0  0  0
  7  9  1  0  0  0  0
  7 24  1  0  0  0  0
  8 25  1  0  0  0  0
  8 26  1  0  0  0  0
  8 27  1  0  0  0  0
  9 10  1  0  0  0  0
  9 28  1  0  0  0  0
 10 11  1  0  0  0  0
 10 29  1  0  0  0  0
 10 30  1  0  0  0  0
 11 16  1  0  0  0  0
 11 12  1  0  0  0  0
 11 31  1  0  0  0  0
 12 13  1  0  0  0  0
 12 32  1  0  0  0  0
 12 33  1  0  0  0  0
 13 14  1  0  0  0  0
 13 34  1  0  0  0  0
 13 35  1  0  0  0  0
 14 15  1  0  0  0  0
 14 36  1  0  0  0  0
 14 37  1  0  0  0  0
 15 16  1  0  0  0  0
 15 38  1  0  0  0  0
 15 39  1  0  0  0  0
 17 40  1  0  0  0  0
M  END
> <s_m_source_file>
AV-unprocessed.smi

> <i_m_source_file_index>
3161

> <i_lp_mmshare_version>
43012

> <i_f3d_flags>
0

> <s_epik_input>
W0NIM11jMVtjSF1ubihbY0hdMSlbQ0gyXVtDQEhdKFtDSDNdKVtOSF1bQ0gyXVtDQEBIXTJbQ0gyXVtDSDJdW0NIMl1bQ0gyXU8y

> <s_epik_cmdline>
J2VwaWtfcHl0aG9uJywgJy1waCcsICc3LjAnLCAnLXRuJywgJzgnLCAnLW1hJywgJzIwMCcsICctbWV0YWxfYmluZGluZycsICctaW1hZScsICc8aW5maWxlLm1hZT4nLCAnLW9tYWUnLCAnPG91dGZpbGUubWFlPic=

> <r_lp_tautomer_probability>
1

> <r_epik_Ionization_Penalty>
2.51986

> <r_epik_Ionization_Penalty_Charging>
0

> <r_epik_Ionization_Penalty_Neutral>
2.51986

> <r_epik_State_Penalty>
2.68614

> <r_epik_Charging_Adjusted_Penalty>
2.68614

> <i_epik_Tot_Q>
0

> <i_epik_Tot_abs_Q>
0

> <r_epik_Metal_State_Penalty>
2.68606

> <b_epik_Metal_Only>
0

> <s_lp_Force_Field>
OPLS_2005

> <r_lp_Energy>
14.508

> <b_lp_Chiralities_Consistent>
1

> <s_lp_Variant>
AV-unprocessed.smi:3161-7

> <Gold.Version>
5.8.1

> <Gold.Id.Protein>
6NUR|6NUR_protein|mol2

> <Gold.PLP.Fitness>
43.6745

> <Gold.PLP.PLP>
-42.0073

> <Gold.PLP.part.hbond>
-1.0000

> <Gold.PLP.part.metal>
0.0000

> <Gold.PLP.part.buried>
-6.6428

> <Gold.PLP.part.nonpolar>
-35.0741

> <Gold.PLP.part.repulsive>
0.1128

> <Gold.PLP.ligand.clash>
0.0000

> <Gold.PLP.ligand.torsion>
0.6488

> <Gold.PLP.Chemscore.Hbond>
0.9760

> <Gold.PLP.Chemscore.CHOScore>
0.0000

> <Gold.PLP.Chemscore.Metal>
0.0000

> <Gold.Chemscore.Hbonds>
donor molecule, donor type, donor heavy atom, donor atom, acceptor molecule, acceptor atom, score
      P1  H  7989  7998       L1    16  0.91

> <Gold.PLP.Chemscore.Internal.Correction>
0.0369

> <Gold.Rescore>
     Score         DG    S(hbond)    S(metal)    S(lipo)     H(rot)  DE(clash)    DE(int)     intcor
     15.55     -17.77       0.88        0.00     112.79       1.50       0.35       1.87       ----

> <Gold.Chemscore.Fitness>
15.5508

> <Gold.Chemscore.DG>
-17.7677

> <Gold.Chemscore.ZeroCoef>
-5.4800

> <Gold.Chemscore.Hbond>
0.8801

> <Gold.Chemscore.Metal>
0.0000

> <Gold.Chemscore.Lipo>
112.7859

> <Gold.Chemscore.Internal_Hbond>
0.0000

> <Gold.Chemscore.DEClash>
0.3461

> <Gold.Chemscore.DEInternal>
1.8707

> <Gold.Chemscore.Rot>
1.5030

> <Gold.Chemscore.Internal.Correction>
   9.000000E+99

> <Gold.Chemscore.Hbonds>
donor molecule, donor type, donor heavy atom, donor atom, acceptor molecule, acceptor atom, score
      P1  H  7989  7998       L1    16  0.27

> <Gold.Chemscore.Hbond.Weighted>
-2.9394

> <Gold.Chemscore.Metal.Weighted>
-0.0000

> <Gold.Chemscore.Lipo.Weighted>
-13.1960

> <Gold.Chemscore.Internal_Hbond.Weighted>
0.0000

> <Gold.Chemscore.DEClash.Weighted>
0.3461

> <Gold.Chemscore.DEInternal.Weighted>
1.8707

> <Gold.Chemscore.Rot.Weighted>
3.8477

> <Gold.Chemscore.Internal.Correction.Weighted>
   9.000000E+99

> <Gold.Protein.RotatedTorsions>
[ 6907 6896 6895 6894 ] final   60.55 input  -60.11 | X-H torsion
[ 7974 7965 7964 7962 ] final    8.07 input  175.53 | X-H torsion
[ 8008 7997 7996 7995 ] final -143.36 input   59.86 | X-H torsion
[ 10167 10162 10161 10158 ] final   34.60 input  -65.29 | X-H torsion
[ 10718 10713 10712 10709 ] final  155.86 input   66.30 | X-H torsion
[ 10763 10752 10751 10750 ] final  112.66 input  -60.55 | X-H torsion
[ 11005 11000 10999 10996 ] final -178.37 input  -57.11 | X-H torsion

> <Gold.Protein.ActiveResidues>
 VAL166  LYS551  ARG553  GLY616  TRP617  ASP618  TYR619  PRO620  LYS621  CYS622 
 ASP623  PHE694  ASN695  SER759  ASP760  ASP761  ALA762  ILE779  LEU786  VAL792 
 PHE793  MET794  SER795  GLU796  ALA797  LYS798  CYS799  TRP800  GLU811  SER814 

> <Gold.Protein.RotatedAtoms>
  152.4012  134.6283  160.0068 H   0  0  0  0  0  0  0  0  0  0  0  0  # atno 6907 bound_to 6896
  151.6487  133.3316  159.3155 H   0  0  0  0  0  0  0  0  0  0  0  0  # atno 6908 bound_to 6896
  150.7912  134.6980  159.6579 H   0  0  0  0  0  0  0  0  0  0  0  0  # atno 6909 bound_to 6896
  146.2420  139.9988  142.8418 H   0  0  0  0  0  0  0  0  0  0  0  0  # atno 7974 bound_to 7965
  155.5093  140.0582  157.2926 H   0  0  0  0  0  0  0  0  0  0  0  0  # atno 8008 bound_to 7997
  154.4558  140.1972  156.0333 H   0  0  0  0  0  0  0  0  0  0  0  0  # atno 8009 bound_to 7997
  156.0795  140.3249  155.7680 H   0  0  0  0  0  0  0  0  0  0  0  0  # atno 8010 bound_to 7997
  140.4300  144.1338  150.6158 H   0  0  0  0  0  0  0  0  0  0  0  0  # atno 10167 bound_to 10162
  157.2126  131.0701  151.1960 H   0  0  0  0  0  0  0  0  0  0  0  0  # atno 10718 bound_to 10713
  153.4811  135.3679  155.2442 H   0  0  0  0  0  0  0  0  0  0  0  0  # atno 10763 bound_to 10752
  154.8755  135.3954  154.3699 H   0  0  0  0  0  0  0  0  0  0  0  0  # atno 10764 bound_to 10752
  153.4302  135.7082  153.6300 H   0  0  0  0  0  0  0  0  0  0  0  0  # atno 10765 bound_to 10752
  140.4306  134.6523  157.4710 H   0  0  0  0  0  0  0  0  0  0  0  0  # atno 11005 bound_to 11000
  145.1434  140.9584  143.4475 LP  0  0  0  0  0  0  0  0  0  0  0  0  # atno 17320 bound_to 7965
  145.0274  139.3371  143.6042 LP  0  0  0  0  0  0  0  0  0  0  0  0  # atno 17321 bound_to 7965
  140.4437  143.2515  151.9439 LP  0  0  0  0  0  0  0  0  0  0  0  0  # atno 17342 bound_to 10162
  139.4784  144.5629  151.8210 LP  0  0  0  0  0  0  0  0  0  0  0  0  # atno 17343 bound_to 10162
  157.3656  130.7154  149.6531 LP  0  0  0  0  0  0  0  0  0  0  0  0  # atno 17370 bound_to 10713
  155.9689  130.4213  150.4463 LP  0  0  0  0  0  0  0  0  0  0  0  0  # atno 17371 bound_to 10713
  140.0137  134.6651  155.9342 LP  0  0  0  0  0  0  0  0  0  0  0  0  # atno 17394 bound_to 11000
  141.1747  133.6539  156.4784 LP  0  0  0  0  0  0  0  0  0  0  0  0  # atno 17395 bound_to 11000

$$$$
