AV-unprocessed.smi:369|AV-procd|sdf|2435|dock3
  -GOLD-   2262022373D 1   1.00000     0.00000
 Structure written by MMmdl.
 50 51  0  0  0  0  0  0  0  0  1 V2000
  146.6037  133.7084  151.6278 C   0  0  0  0  0  0  0  0  0  0  0  0
  145.6104  134.8674  151.8806 C   0  0  0  0  0  0  0  0  0  0  0  0
  145.8062  135.9441  150.7940 C   0  0  0  0  0  0  0  0  0  0  0  0
  144.1721  134.3162  151.7905 C   0  0  0  0  0  0  0  0  0  0  0  0
  145.8064  135.5254  153.2682 C   0  0  0  0  0  0  0  0  0  0  0  0
  144.8760  135.5319  154.0761 O   0  0  0  0  0  0  0  0  0  0  0  0
  146.9991  136.0790  153.5481 N   0  0  0  0  0  0  0  0  0  0  0  0
  147.3574  136.7235  154.8083 C   0  0  0  0  0  0  0  0  0  0  0  0
  148.3409  137.8838  154.6193 C   0  0  0  0  0  0  0  0  0  0  0  0
  148.0290  139.0314  154.9404 O   0  0  0  0  0  0  0  0  0  0  0  0
  149.5449  137.5587  154.1245 N   0  0  0  0  0  0  0  0  0  0  0  0
  150.6453  138.4918  153.8998 C   0  0  0  0  0  0  0  0  0  0  0  0
  151.1905  139.1686  155.1526 C   0  0  0  0  0  0  0  0  0  0  0  0
  150.6050  140.3685  155.6015 C   0  0  0  0  0  0  0  0  0  0  0  0
  151.1213  141.0001  156.7490 C   0  0  0  0  0  0  0  0  0  0  0  0
  152.2173  140.4140  157.4248 C   0  0  0  0  0  0  0  0  0  0  0  0
  152.7589  141.0354  158.5711 N   0  0  0  0  0  0  0  0  0  0  0  0
  152.2950  142.3818  158.9018 C   0  0  0  0  0  0  0  0  0  0  0  0
  153.1759  142.9981  160.0016 C   0  0  0  0  0  0  0  0  0  0  0  0
  153.2060  142.1341  161.1325 O   0  0  0  0  0  0  0  0  0  0  0  0
  153.7649  140.8642  160.8135 C   0  0  0  0  0  0  0  0  0  0  0  0
  152.9080  140.1717  159.7399 C   0  0  0  0  0  0  0  0  0  0  0  0
  152.7738  139.2539  156.9980 N   0  0  0  0  0  0  0  0  0  0  0  0
  152.2767  138.6543  155.8958 C   0  0  0  0  0  0  0  0  0  0  0  0
  146.4325  133.2526  150.6520 H   0  0  0  0  0  0  0  0  0  0  0  0
  146.5005  132.9180  152.3730 H   0  0  0  0  0  0  0  0  0  0  0  0
  147.6396  134.0505  151.6418 H   0  0  0  0  0  0  0  0  0  0  0  0
  146.8123  136.3648  150.8263 H   0  0  0  0  0  0  0  0  0  0  0  0
  145.1010  136.7688  150.9067 H   0  0  0  0  0  0  0  0  0  0  0  0
  145.6595  135.5289  149.7964 H   0  0  0  0  0  0  0  0  0  0  0  0
  143.9926  133.8391  150.8264 H   0  0  0  0  0  0  0  0  0  0  0  0
  143.4257  135.1041  151.9019 H   0  0  0  0  0  0  0  0  0  0  0  0
  143.9815  133.5703  152.5632 H   0  0  0  0  0  0  0  0  0  0  0  0
  147.7187  136.0314  152.8414 H   0  0  0  0  0  0  0  0  0  0  0  0
  146.4473  137.1161  155.2619 H   0  0  0  0  0  0  0  0  0  0  0  0
  147.7637  135.9907  155.5082 H   0  0  0  0  0  0  0  0  0  0  0  0
  149.7142  136.5910  153.8904 H   0  0  0  0  0  0  0  0  0  0  0  0
  151.4599  137.9361  153.4349 H   0  0  0  0  0  0  0  0  0  0  0  0
  150.3510  139.2578  153.1801 H   0  0  0  0  0  0  0  0  0  0  0  0
  149.7697  140.8033  155.0725 H   0  0  0  0  0  0  0  0  0  0  0  0
  150.6674  141.9142  157.1013 H   0  0  0  0  0  0  0  0  0  0  0  0
  152.3241  143.0183  158.0165 H   0  0  0  0  0  0  0  0  0  0  0  0
  151.2581  142.3358  159.2376 H   0  0  0  0  0  0  0  0  0  0  0  0
  154.1892  143.1731  159.6362 H   0  0  0  0  0  0  0  0  0  0  0  0
  152.7751  143.9656  160.3044 H   0  0  0  0  0  0  0  0  0  0  0  0
  154.7946  140.9827  160.4721 H   0  0  0  0  0  0  0  0  0  0  0  0
  153.7979  140.2551  161.7169 H   0  0  0  0  0  0  0  0  0  0  0  0
  151.9181  139.9489  160.1403 H   0  0  0  0  0  0  0  0  0  0  0  0
  153.3669  139.2186  159.4812 H   0  0  0  0  0  0  0  0  0  0  0  0
  152.7753  137.7411  155.6078 H   0  0  0  0  0  0  0  0  0  0  0  0
  1  2  1  0  0  0  0
  1 25  1  0  0  0  0
  1 26  1  0  0  0  0
  1 27  1  0  0  0  0
  2  3  1  0  0  0  0
  2  4  1  0  0  0  0
  2  5  1  0  0  0  0
  3 28  1  0  0  0  0
  3 29  1  0  0  0  0
  3 30  1  0  0  0  0
  4 31  1  0  0  0  0
  4 32  1  0  0  0  0
  4 33  1  0  0  0  0
  5  6  2  0  0  0  0
  5  7  1  0  0  0  0
  7  8  1  0  0  0  0
  7 34  1  0  0  0  0
  8  9  1  0  0  0  0
  8 35  1  0  0  0  0
  8 36  1  0  0  0  0
  9 10  2  0  0  0  0
  9 11  1  0  0  0  0
 11 12  1  0  0  0  0
 11 37  1  0  0  0  0
 12 13  1  0  0  0  0
 12 38  1  0  0  0  0
 12 39  1  0  0  0  0
 13 24  1  0  0  0  0
 13 14  2  0  0  0  0
 14 15  1  0  0  0  0
 14 40  1  0  0  0  0
 15 16  2  0  0  0  0
 15 41  1  0  0  0  0
 16 17  1  0  0  0  0
 16 23  1  0  0  0  0
 17 22  1  0  0  0  0
 17 18  1  0  0  0  0
 18 19  1  0  0  0  0
 18 42  1  0  0  0  0
 18 43  1  0  0  0  0
 19 20  1  0  0  0  0
 19 44  1  0  0  0  0
 19 45  1  0  0  0  0
 20 21  1  0  0  0  0
 21 22  1  0  0  0  0
 21 46  1  0  0  0  0
 21 47  1  0  0  0  0
 22 48  1  0  0  0  0
 22 49  1  0  0  0  0
 23 24  2  0  0  0  0
 24 50  1  0  0  0  0
M  END
> <s_m_source_file>
AV-unprocessed.smi

> <i_m_source_file_index>
369

> <i_lp_mmshare_version>
43012

> <i_f3d_flags>
0

> <s_epik_input>
W0NIM11DKFtDSDNdKShbQ0gzXSlDKD1PKVtOSF1bQ0gyXUMoPU8pW05IXVtDSDJdYzFbY0hdW2NIXWMobltjSF0xKU4yW0NIMl1bQ0gyXU9bQ0gyXVtDSDJdMg==

> <s_epik_cmdline>
J2VwaWtfcHl0aG9uJywgJy1waCcsICc3LjAnLCAnLXRuJywgJzgnLCAnLW1hJywgJzIwMCcsICctbWV0YWxfYmluZGluZycsICctaW1hZScsICc8aW5maWxlLm1hZT4nLCAnLW9tYWUnLCAnPG91dGZpbGUubWFlPic=

> <r_lp_tautomer_probability>
1

> <r_epik_Ionization_Penalty>
0.00465227

> <r_epik_Ionization_Penalty_Charging>
0

> <r_epik_Ionization_Penalty_Neutral>
0.00465227

> <r_epik_State_Penalty>
0.0033653

> <r_epik_Charging_Adjusted_Penalty>
0.0033653

> <i_epik_Tot_Q>
0

> <i_epik_Tot_abs_Q>
0

> <r_epik_Metal_State_Penalty>
-0

> <b_epik_Metal_Only>
0

> <s_lp_Force_Field>
OPLS_2005

> <r_lp_Energy>
18.739

> <b_lp_Chiralities_Consistent>
1

> <s_lp_Variant>
AV-unprocessed.smi:369-1

> <Gold.Version>
5.8.1

> <Gold.Id.Protein>
6NUR|6NUR_protein|mol2

> <Gold.PLP.Fitness>
45.9678

> <Gold.PLP.PLP>
-40.0806

> <Gold.PLP.part.hbond>
-3.0000

> <Gold.PLP.part.metal>
0.0000

> <Gold.PLP.part.buried>
-4.3645

> <Gold.PLP.part.nonpolar>
-32.2068

> <Gold.PLP.part.repulsive>
0.1259

> <Gold.PLP.ligand.clash>
0.0000

> <Gold.PLP.ligand.torsion>
0.7246

> <Gold.PLP.Chemscore.Hbond>
2.3229

> <Gold.PLP.Chemscore.CHOScore>
0.0000

> <Gold.PLP.Chemscore.Metal>
0.0000

> <Gold.Chemscore.Hbonds>
donor molecule, donor type, donor heavy atom, donor atom, acceptor molecule, acceptor atom, score
      L1  H     7    34       P1  7948  1.00
      L1  H    11    37       P1  7948  0.12
      P1  H  7997  8008       L1    23  0.60

> <Gold.PLP.Chemscore.Internal.Correction>
0.3677

> <Gold.Rescore>
     Score         DG    S(hbond)    S(metal)    S(lipo)     H(rot)  DE(clash)    DE(int)     intcor
     16.33     -18.17       2.12        0.00      94.09       2.10       0.01       1.83       ----

> <Gold.Chemscore.Fitness>
16.3272

> <Gold.Chemscore.DG>
-18.1712

> <Gold.Chemscore.ZeroCoef>
-5.4800

> <Gold.Chemscore.Hbond>
2.1154

> <Gold.Chemscore.Metal>
0.0000

> <Gold.Chemscore.Lipo>
94.0924

> <Gold.Chemscore.Internal_Hbond>
0.0000

> <Gold.Chemscore.DEClash>
0.0142

> <Gold.Chemscore.DEInternal>
1.8298

> <Gold.Chemscore.Rot>
2.1028

> <Gold.Chemscore.Internal.Correction>
   9.000000E+99

> <Gold.Chemscore.Hbonds>
donor molecule, donor type, donor heavy atom, donor atom, acceptor molecule, acceptor atom, score
      L1  H     7    34       P1  7948  0.98
      L1  H    11    37       P1  7948  0.07
      P1  H  7997  8008       L1    23  0.04

> <Gold.Chemscore.Hbond.Weighted>
-7.0656

> <Gold.Chemscore.Metal.Weighted>
-0.0000

> <Gold.Chemscore.Lipo.Weighted>
-11.0088

> <Gold.Chemscore.Internal_Hbond.Weighted>
0.0000

> <Gold.Chemscore.DEClash.Weighted>
0.0142

> <Gold.Chemscore.DEInternal.Weighted>
1.8298

> <Gold.Chemscore.Rot.Weighted>
5.3832

> <Gold.Chemscore.Internal.Correction.Weighted>
   9.000000E+99

> <Gold.Protein.RotatedTorsions>
[ 6907 6896 6895 6894 ] final  -71.66 input  -60.11 | X-H torsion
[ 7974 7965 7964 7962 ] final  122.27 input  175.53 | X-H torsion
[ 8008 7997 7996 7995 ] final  -70.17 input   59.86 | X-H torsion
[ 10167 10162 10161 10158 ] final    6.25 input  -65.29 | X-H torsion
[ 10718 10713 10712 10709 ] final -164.63 input   66.30 | X-H torsion
[ 10763 10752 10751 10750 ] final   38.03 input  -60.55 | X-H torsion
[ 11005 11000 10999 10996 ] final  -41.81 input  -57.11 | X-H torsion

> <Gold.Protein.ActiveResidues>
 VAL166  LYS551  ARG553  GLY616  TRP617  ASP618  TYR619  PRO620  LYS621  CYS622 
 ASP623  PHE694  ASN695  SER759  ASP760  ASP761  ALA762  ILE779  LEU786  VAL792 
 PHE793  MET794  SER795  GLU796  ALA797  LYS798  CYS799  TRP800  GLU811  SER814 

> <Gold.Protein.RotatedAtoms>
  150.7203  134.5276  159.5684 H   0  0  0  0  0  0  0  0  0  0  0  0  # atno 6907 bound_to 6896
  152.2817  134.7818  160.0404 H   0  0  0  0  0  0  0  0  0  0  0  0  # atno 6908 bound_to 6896
  151.8463  133.3397  159.3696 H   0  0  0  0  0  0  0  0  0  0  0  0  # atno 6909 bound_to 6896
  145.1095  139.3463  143.4770 H   0  0  0  0  0  0  0  0  0  0  0  0  # atno 7974 bound_to 7965
  154.4992  140.0839  156.7762 H   0  0  0  0  0  0  0  0  0  0  0  0  # atno 8008 bound_to 7997
  155.4043  140.3438  155.4241 H   0  0  0  0  0  0  0  0  0  0  0  0  # atno 8009 bound_to 7997
  156.1434  140.1536  156.8872 H   0  0  0  0  0  0  0  0  0  0  0  0  # atno 8010 bound_to 7997
  140.6438  143.7711  150.7468 H   0  0  0  0  0  0  0  0  0  0  0  0  # atno 10167 bound_to 10162
  156.6418  130.8972  151.2997 H   0  0  0  0  0  0  0  0  0  0  0  0  # atno 10718 bound_to 10713
  153.0015  135.6261  154.2240 H   0  0  0  0  0  0  0  0  0  0  0  0  # atno 10763 bound_to 10752
  154.1983  135.2805  155.3001 H   0  0  0  0  0  0  0  0  0  0  0  0  # atno 10764 bound_to 10752
  154.5704  135.5678  153.7149 H   0  0  0  0  0  0  0  0  0  0  0  0  # atno 10765 bound_to 10752
  141.0272  133.6836  156.2509 H   0  0  0  0  0  0  0  0  0  0  0  0  # atno 11005 bound_to 11000
  146.3527  140.1007  142.8608 LP  0  0  0  0  0  0  0  0  0  0  0  0  # atno 17320 bound_to 7965
  145.0864  140.9255  143.4795 LP  0  0  0  0  0  0  0  0  0  0  0  0  # atno 17321 bound_to 7965
  140.1348  143.4494  152.2231 LP  0  0  0  0  0  0  0  0  0  0  0  0  # atno 17342 bound_to 10162
  139.5648  144.7428  151.4054 LP  0  0  0  0  0  0  0  0  0  0  0  0  # atno 17343 bound_to 10162
  157.7168  130.9508  150.1287 LP  0  0  0  0  0  0  0  0  0  0  0  0  # atno 17370 bound_to 10713
  156.2153  130.3670  149.8621 LP  0  0  0  0  0  0  0  0  0  0  0  0  # atno 17371 bound_to 10713
  140.6470  134.5106  157.5574 LP  0  0  0  0  0  0  0  0  0  0  0  0  # atno 17394 bound_to 11000
  139.9184  134.8199  156.1291 LP  0  0  0  0  0  0  0  0  0  0  0  0  # atno 17395 bound_to 11000

$$$$
