AV-unprocessed.smi:2923|AV-procd|sdf|11204|dock3
  -GOLD-   2272016 93D 1   1.00000     0.00000
 Structure written by MMmdl.
 47 49  0  0  0  0  0  0  0  0  2 V2000
  143.8474  132.6344  149.2603 C   0  0  0  0  0  0  0  0  0  0  0  0
  144.4550  132.7414  150.5803 N   0  0  0  0  0  0  0  0  0  0  0  0
  144.8487  131.5410  151.3098 C   0  0  0  0  0  0  0  0  0  0  0  0
  144.6111  134.0096  151.1805 C   0  0  0  0  0  0  0  0  0  0  0  0
  145.7723  134.3920  151.8960 C   0  0  0  0  0  0  0  0  0  0  0  0
  145.8525  135.6785  152.4671 C   0  0  0  0  0  0  0  0  0  0  0  0
  144.7805  136.5824  152.3164 C   0  0  0  0  0  0  0  0  0  0  0  0
  144.9018  137.8623  152.9222 N   0  0  0  0  0  0  0  0  0  0  0  0
  145.7800  138.2661  153.8563 C   0  0  0  0  0  0  0  0  0  0  0  0
  146.6244  137.5519  154.3961 O   0  0  0  0  0  0  0  0  0  0  0  0
  145.6182  139.5639  154.1461 N   0  0  0  0  0  0  0  0  0  0  0  0
  146.4232  140.2965  155.1185 C   0  0  2  0  0  0  0  0  0  0  0  0
  145.5804  141.2457  155.9845 C   0  0  1  0  0  0  0  0  0  0  0  0
  145.4568  141.0002  157.4639 C   0  0  0  0  0  0  0  0  0  0  0  0
  146.5423  141.9059  158.0526 C   0  0  0  0  0  0  0  0  0  0  0  0
  147.4550  142.1179  156.9782 O   0  0  0  0  0  0  0  0  0  0  0  0
  146.6872  142.2704  155.7868 C   0  0  1  0  0  0  0  0  0  0  0  0
  147.1894  141.5137  154.5391 C   0  0  0  0  0  0  0  0  0  0  0  0
  148.7060  141.3586  154.4151 C   0  0  0  0  0  0  0  0  0  0  0  0
  146.6940  142.0980  153.2083 C   0  0  0  0  0  0  0  0  0  0  0  0
  143.6373  136.1502  151.6030 C   0  0  0  0  0  0  0  0  0  0  0  0
  143.6020  134.9082  151.0739 N   0  3  0  0  0  0  0  0  0  0  0  0
  142.8323  133.0327  149.2719 H   0  0  0  0  0  0  0  0  0  0  0  0
  143.7946  131.5965  148.9312 H   0  0  0  0  0  0  0  0  0  0  0  0
  144.4313  133.1872  148.5237 H   0  0  0  0  0  0  0  0  0  0  0  0
  145.9132  131.5683  151.5462 H   0  0  0  0  0  0  0  0  0  0  0  0
  144.6601  130.6407  150.7245 H   0  0  0  0  0  0  0  0  0  0  0  0
  144.2876  131.4572  152.2413 H   0  0  0  0  0  0  0  0  0  0  0  0
  146.6069  133.7179  152.0187 H   0  0  0  0  0  0  0  0  0  0  0  0
  146.7382  135.9675  153.0143 H   0  0  0  0  0  0  0  0  0  0  0  0
  144.2177  138.5460  152.6329 H   0  0  0  0  0  0  0  0  0  0  0  0
  144.8988  140.0816  153.6631 H   0  0  0  0  0  0  0  0  0  0  0  0
  147.0648  139.6569  155.7290 H   0  0  0  0  0  0  0  0  0  0  0  0
  144.6560  141.5565  155.4941 H   0  0  0  0  0  0  0  0  0  0  0  0
  144.4696  141.2535  157.8514 H   0  0  0  0  0  0  0  0  0  0  0  0
  145.6523  139.9543  157.7025 H   0  0  0  0  0  0  0  0  0  0  0  0
  146.1192  142.8658  158.3526 H   0  0  0  0  0  0  0  0  0  0  0  0
  147.0365  141.4650  158.9184 H   0  0  0  0  0  0  0  0  0  0  0  0
  146.3288  143.2879  155.6236 H   0  0  0  0  0  0  0  0  0  0  0  0
  149.1954  142.3207  154.2609 H   0  0  0  0  0  0  0  0  0  0  0  0
  148.9746  140.7120  153.5791 H   0  0  0  0  0  0  0  0  0  0  0  0
  149.1397  140.9161  155.3122 H   0  0  0  0  0  0  0  0  0  0  0  0
  147.1486  143.0683  153.0064 H   0  0  0  0  0  0  0  0  0  0  0  0
  145.6138  142.2464  153.2083 H   0  0  0  0  0  0  0  0  0  0  0  0
  146.9325  141.4460  152.3674 H   0  0  0  0  0  0  0  0  0  0  0  0
  142.7446  136.7350  151.4409 H   0  0  0  0  0  0  0  0  0  0  0  0
  142.7625  134.6301  150.5652 H   0  0  0  0  0  0  0  0  0  0  0  0
  1  2  1  0  0  0  0
  1 23  1  0  0  0  0
  1 24  1  0  0  0  0
  1 25  1  0  0  0  0
  2  3  1  0  0  0  0
  2  4  1  0  0  0  0
  3 26  1  0  0  0  0
  3 27  1  0  0  0  0
  3 28  1  0  0  0  0
  4 22  1  0  0  0  0
  4  5  2  0  0  0  0
  5  6  1  0  0  0  0
  5 29  1  0  0  0  0
  6  7  2  0  0  0  0
  6 30  1  0  0  0  0
  7  8  1  0  0  0  0
  7 21  1  0  0  0  0
  8  9  1  0  0  0  0
  8 31  1  0  0  0  0
  9 10  2  0  0  0  0
  9 11  1  0  0  0  0
 11 12  1  0  0  0  0
 11 32  1  0  0  0  0
 12 18  1  0  0  0  0
 12 13  1  0  0  0  0
 12 33  1  0  0  0  0
 13 17  1  0  0  0  0
 13 14  1  0  0  0  0
 13 34  1  0  0  0  0
 14 15  1  0  0  0  0
 14 35  1  0  0  0  0
 14 36  1  0  0  0  0
 15 16  1  0  0  0  0
 15 37  1  0  0  0  0
 15 38  1  0  0  0  0
 16 17  1  0  0  0  0
 17 18  1  0  0  0  0
 17 39  1  0  0  0  0
 18 19  1  0  0  0  0
 18 20  1  0  0  0  0
 19 40  1  0  0  0  0
 19 41  1  0  0  0  0
 19 42  1  0  0  0  0
 20 43  1  0  0  0  0
 20 44  1  0  0  0  0
 20 45  1  0  0  0  0
 21 22  2  0  0  0  0
 21 46  1  0  0  0  0
 22 47  1  0  0  0  0
M  CHG  1  22   1
M  END
> <s_m_source_file>
AV-unprocessed.smi

> <i_m_source_file_index>
2923

> <i_lp_mmshare_version>
43012

> <i_f3d_flags>
0

> <s_epik_input>
W0NIM11OKFtDSDNdKWMxW2NIXVtjSF1jKFtjSF1uMSlbTkhdQyg9TylbTkhdW0NASF0yQyhbQ0gzXSkoW0NIM10pW0NAQEhdKFtDQEhdMjMpT1tDSDJdW0NIMl0z

> <s_epik_cmdline>
J2VwaWtfcHl0aG9uJywgJy1waCcsICc3LjAnLCAnLXRuJywgJzgnLCAnLW1hJywgJzIwMCcsICctbWV0YWxfYmluZGluZycsICctaW1hZScsICc8aW5maWxlLm1hZT4nLCAnLW9tYWUnLCAnPG91dGZpbGUubWFlPic=

> <r_lp_tautomer_probability>
0.999994

> <r_epik_Ionization_Penalty>
0.252205

> <r_epik_Ionization_Penalty_Charging>
0.252185

> <r_epik_Ionization_Penalty_Neutral>
1.99479e-05

> <r_epik_State_Penalty>
0.243573

> <r_epik_Charging_Adjusted_Penalty>
0.495758

> <i_epik_Tot_Q>
1

> <i_epik_Tot_abs_Q>
1

> <r_epik_Metal_State_Penalty>
0.534372

> <b_epik_Metal_Only>
0

> <s_lp_Force_Field>
OPLS_2005

> <r_lp_Energy>
44.365

> <b_lp_Chiralities_Consistent>
1

> <s_lp_Variant>
AV-unprocessed.smi:2923-3

> <Gold.Version>
5.8.1

> <Gold.Id.Protein>
6NUR|6NUR_protein|mol2

> <Gold.PLP.Fitness>
40.6691

> <Gold.PLP.PLP>
-30.2584

> <Gold.PLP.part.hbond>
-2.9761

> <Gold.PLP.part.metal>
0.0000

> <Gold.PLP.part.buried>
-3.9813

> <Gold.PLP.part.nonpolar>
-23.2270

> <Gold.PLP.part.repulsive>
0.2596

> <Gold.PLP.ligand.clash>
0.0000

> <Gold.PLP.ligand.torsion>
0.8712

> <Gold.PLP.Chemscore.Hbond>
3.9913

> <Gold.PLP.Chemscore.CHOScore>
0.0000

> <Gold.PLP.Chemscore.Metal>
0.0000

> <Gold.Chemscore.Hbonds>
donor molecule, donor type, donor heavy atom, donor atom, acceptor molecule, acceptor atom, score
      L1  H     8    31       P1 10175  1.00
      L1  H    11    32       P1 10175  1.00
      L1  H    22    47       P1 10186  2.00

> <Gold.PLP.Chemscore.Internal.Correction>
0.1793

> <Gold.Rescore>
     Score         DG    S(hbond)    S(metal)    S(lipo)     H(rot)  DE(clash)    DE(int)     intcor
     15.77     -18.71       2.31        0.00      68.94       1.00       0.95       1.99       ----

> <Gold.Chemscore.Fitness>
15.7728

> <Gold.Chemscore.DG>
-18.7069

> <Gold.Chemscore.ZeroCoef>
-5.4800

> <Gold.Chemscore.Hbond>
2.3118

> <Gold.Chemscore.Metal>
0.0000

> <Gold.Chemscore.Lipo>
68.9361

> <Gold.Chemscore.Internal_Hbond>
0.0000

> <Gold.Chemscore.DEClash>
0.9451

> <Gold.Chemscore.DEInternal>
1.9890

> <Gold.Chemscore.Rot>
1.0000

> <Gold.Chemscore.Internal.Correction>
   9.000000E+99

> <Gold.Chemscore.Hbonds>
donor molecule, donor type, donor heavy atom, donor atom, acceptor molecule, acceptor atom, score
      L1  H     8    31       P1 10175  0.92
      L1  H    11    32       P1 10175  1.00
      L1  H    22    47       P1 10186  0.24

> <Gold.Chemscore.Hbond.Weighted>
-7.7214

> <Gold.Chemscore.Metal.Weighted>
-0.0000

> <Gold.Chemscore.Lipo.Weighted>
-8.0655

> <Gold.Chemscore.Internal_Hbond.Weighted>
0.0000

> <Gold.Chemscore.DEClash.Weighted>
0.9451

> <Gold.Chemscore.DEInternal.Weighted>
1.9890

> <Gold.Chemscore.Rot.Weighted>
2.5600

> <Gold.Chemscore.Internal.Correction.Weighted>
   9.000000E+99

> <Gold.Protein.RotatedTorsions>
[ 6907 6896 6895 6894 ] final -148.14 input  -60.11 | X-H torsion
[ 7974 7965 7964 7962 ] final   62.47 input  175.53 | X-H torsion
[ 8008 7997 7996 7995 ] final  -55.21 input   59.86 | X-H torsion
[ 10167 10162 10161 10158 ] final   14.03 input  -65.29 | X-H torsion
[ 10718 10713 10712 10709 ] final  122.48 input   66.30 | X-H torsion
[ 10763 10752 10751 10750 ] final  160.85 input  -60.55 | X-H torsion
[ 11005 11000 10999 10996 ] final  174.03 input  -57.11 | X-H torsion

> <Gold.Protein.ActiveResidues>
 VAL166  LYS551  ARG553  GLY616  TRP617  ASP618  TYR619  PRO620  LYS621  CYS622 
 ASP623  PHE694  ASN695  SER759  ASP760  ASP761  ALA762  ILE779  LEU786  VAL792 
 PHE793  MET794  SER795  GLU796  ALA797  LYS798  CYS799  TRP800  GLU811  SER814 

> <Gold.Protein.RotatedAtoms>
  151.1656  133.4817  159.2593 H   0  0  0  0  0  0  0  0  0  0  0  0  # atno 6907 bound_to 6896
  151.1409  135.0179  159.8635 H   0  0  0  0  0  0  0  0  0  0  0  0  # atno 6908 bound_to 6896
  152.5462  134.1549  159.8587 H   0  0  0  0  0  0  0  0  0  0  0  0  # atno 6909 bound_to 6896
  145.8729  139.3390  143.0751 H   0  0  0  0  0  0  0  0  0  0  0  0  # atno 7974 bound_to 7965
  154.4187  140.1158  156.5439 H   0  0  0  0  0  0  0  0  0  0  0  0  # atno 8008 bound_to 7997
  155.6479  140.3496  155.4719 H   0  0  0  0  0  0  0  0  0  0  0  0  # atno 8009 bound_to 7997
  155.9817  140.1161  157.0710 H   0  0  0  0  0  0  0  0  0  0  0  0  # atno 8010 bound_to 7997
  140.5963  143.8695  150.6921 H   0  0  0  0  0  0  0  0  0  0  0  0  # atno 10167 bound_to 10162
  157.5739  131.1081  150.8315 H   0  0  0  0  0  0  0  0  0  0  0  0  # atno 10718 bound_to 10713
  154.2538  135.2770  155.2806 H   0  0  0  0  0  0  0  0  0  0  0  0  # atno 10763 bound_to 10752
  154.5442  135.5694  153.6869 H   0  0  0  0  0  0  0  0  0  0  0  0  # atno 10764 bound_to 10752
  152.9975  135.6258  154.2686 H   0  0  0  0  0  0  0  0  0  0  0  0  # atno 10765 bound_to 10752
  140.3469  134.7229  157.4241 H   0  0  0  0  0  0  0  0  0  0  0  0  # atno 11005 bound_to 11000
  145.9115  140.9177  143.0451 LP  0  0  0  0  0  0  0  0  0  0  0  0  # atno 17320 bound_to 7965
  144.6726  140.1166  143.7452 LP  0  0  0  0  0  0  0  0  0  0  0  0  # atno 17321 bound_to 7965
  140.2230  143.3794  152.1627 LP  0  0  0  0  0  0  0  0  0  0  0  0  # atno 17342 bound_to 10162
  139.5260  144.7103  151.5227 LP  0  0  0  0  0  0  0  0  0  0  0  0  # atno 17343 bound_to 10162
  156.8779  130.5169  149.5292 LP  0  0  0  0  0  0  0  0  0  0  0  0  # atno 17370 bound_to 10713
  156.0784  130.5800  150.9517 LP  0  0  0  0  0  0  0  0  0  0  0  0  # atno 17371 bound_to 10713
  140.0735  134.5829  155.8616 LP  0  0  0  0  0  0  0  0  0  0  0  0  # atno 17394 bound_to 11000
  141.2023  133.6624  156.5999 LP  0  0  0  0  0  0  0  0  0  0  0  0  # atno 17395 bound_to 11000

$$$$
