AV-unprocessed.smi:2764|AV-procd|sdf|10643|dock4
  -GOLD-   2272015 93D 1   1.00000     0.00000
 Structure written by MMmdl.
 47 49  0  0  0  0  0  0  0  0  2 V2000
  150.5171  141.7124  155.2765 O   0  0  0  0  0  0  0  0  0  0  0  0
  151.0234  140.8539  155.9994 C   0  0  0  0  0  0  0  0  0  0  0  0
  151.5002  141.0620  157.2395 N   0  0  0  0  0  0  0  0  0  0  0  0
  151.5167  142.2729  157.9820 C   0  0  0  0  0  0  0  0  0  0  0  0
  152.5687  142.3853  158.9194 C   0  0  0  0  0  0  0  0  0  0  0  0
  152.6739  143.5486  159.7068 C   0  0  0  0  0  0  0  0  0  0  0  0
  151.7222  144.5693  159.5347 C   0  0  0  0  0  0  0  0  0  0  0  0
  151.7830  145.7059  160.2681 F   0  0  0  0  0  0  0  0  0  0  0  0
  150.7056  144.3789  158.5807 C   0  0  0  0  0  0  0  0  0  0  0  0
  150.6035  143.2642  157.8257 N   0  0  0  0  0  0  0  0  0  0  0  0
  151.1646  139.5713  155.6329 N   0  0  0  0  0  0  0  0  0  0  0  0
  150.7621  139.0115  154.3426 C   0  0  2  0  0  0  0  0  0  0  0  0
  149.2378  138.8030  154.2532 C   0  0  0  0  0  0  0  0  0  0  0  0
  148.7580  137.6580  155.1621 C   0  0  0  0  0  0  0  0  0  0  0  0
  149.4715  136.3894  154.8588 N   0  3  2  0  0  0  0  0  0  0  0  0
  148.9255  135.2411  155.6306 C   0  0  0  0  0  0  0  0  0  0  0  0
  149.6718  133.9179  155.3581 C   0  0  1  0  0  0  0  0  0  0  0  0
  149.2333  132.7202  156.1978 C   0  0  0  0  0  0  0  0  0  0  0  0
  149.2836  131.5290  155.2351 C   0  0  0  0  0  0  0  0  0  0  0  0
  149.8459  132.0383  154.0355 O   0  0  0  0  0  0  0  0  0  0  0  0
  149.4627  133.3976  153.9368 C   0  0  0  0  0  0  0  0  0  0  0  0
  150.9437  136.5498  154.9978 C   0  0  0  0  0  0  0  0  0  0  0  0
  151.4767  137.6735  154.0895 C   0  0  0  0  0  0  0  0  0  0  0  0
  151.8949  140.2612  157.7100 H   0  0  0  0  0  0  0  0  0  0  0  0
  153.2916  141.5911  159.0374 H   0  0  0  0  0  0  0  0  0  0  0  0
  153.4705  143.6544  160.4285 H   0  0  0  0  0  0  0  0  0  0  0  0
  149.9560  145.1393  158.4181 H   0  0  0  0  0  0  0  0  0  0  0  0
  151.5988  138.9384  156.2886 H   0  0  0  0  0  0  0  0  0  0  0  0
  151.0687  139.7123  153.5639 H   0  0  0  0  0  0  0  0  0  0  0  0
  148.7065  139.7231  154.4993 H   0  0  0  0  0  0  0  0  0  0  0  0
  148.9705  138.5717  153.2211 H   0  0  0  0  0  0  0  0  0  0  0  0
  148.9033  137.9190  156.2117 H   0  0  0  0  0  0  0  0  0  0  0  0
  147.6855  137.5227  155.0162 H   0  0  0  0  0  0  0  0  0  0  0  0
  148.8875  135.4709  156.6964 H   0  0  0  0  0  0  0  0  0  0  0  0
  147.8890  135.0870  155.3267 H   0  0  0  0  0  0  0  0  0  0  0  0
  150.7442  134.0683  155.4941 H   0  0  0  0  0  0  0  0  0  0  0  0
  149.8987  132.5723  157.0486 H   0  0  0  0  0  0  0  0  0  0  0  0
  148.2194  132.8409  156.5809 H   0  0  0  0  0  0  0  0  0  0  0  0
  149.8789  130.7020  155.6226 H   0  0  0  0  0  0  0  0  0  0  0  0
  148.2780  131.1581  155.0324 H   0  0  0  0  0  0  0  0  0  0  0  0
  148.4152  133.4624  153.6369 H   0  0  0  0  0  0  0  0  0  0  0  0
  150.0660  133.9302  153.2011 H   0  0  0  0  0  0  0  0  0  0  0  0
  151.1917  136.7556  156.0401 H   0  0  0  0  0  0  0  0  0  0  0  0
  151.4527  135.6261  154.7328 H   0  0  0  0  0  0  0  0  0  0  0  0
  151.3341  137.3845  153.0474 H   0  0  0  0  0  0  0  0  0  0  0  0
  152.5529  137.7877  154.2259 H   0  0  0  0  0  0  0  0  0  0  0  0
  149.2850  136.1928  153.8858 H   0  0  0  0  0  0  0  0  0  0  0  0
  1  2  2  0  0  0  0
  2  3  1  0  0  0  0
  2 11  1  0  0  0  0
  3  4  1  0  0  0  0
  3 24  1  0  0  0  0
  4 10  1  0  0  0  0
  4  5  2  0  0  0  0
  5  6  1  0  0  0  0
  5 25  1  0  0  0  0
  6  7  2  0  0  0  0
  6 26  1  0  0  0  0
  7  8  1  0  0  0  0
  7  9  1  0  0  0  0
  9 10  2  0  0  0  0
  9 27  1  0  0  0  0
 11 12  1  0  0  0  0
 11 28  1  0  0  0  0
 12 23  1  0  0  0  0
 12 13  1  0  0  0  0
 12 29  1  0  0  0  0
 13 14  1  0  0  0  0
 13 30  1  0  0  0  0
 13 31  1  0  0  0  0
 14 15  1  0  0  0  0
 14 32  1  0  0  0  0
 14 33  1  0  0  0  0
 15 16  1  0  0  0  0
 15 22  1  0  0  0  0
 15 47  1  0  0  0  0
 16 17  1  0  0  0  0
 16 34  1  0  0  0  0
 16 35  1  0  0  0  0
 17 21  1  0  0  0  0
 17 18  1  0  0  0  0
 17 36  1  0  0  0  0
 18 19  1  0  0  0  0
 18 37  1  0  0  0  0
 18 38  1  0  0  0  0
 19 20  1  0  0  0  0
 19 39  1  0  0  0  0
 19 40  1  0  0  0  0
 20 21  1  0  0  0  0
 21 41  1  0  0  0  0
 21 42  1  0  0  0  0
 22 23  1  0  0  0  0
 22 43  1  0  0  0  0
 22 44  1  0  0  0  0
 23 45  1  0  0  0  0
 23 46  1  0  0  0  0
M  CHG  1  15   1
M  END
> <s_m_source_file>
AV-unprocessed.smi

> <i_m_source_file_index>
2764

> <i_lp_mmshare_version>
43012

> <i_f3d_flags>
0

> <s_epik_input>
bjFbY0hdYyhGKVtjSF1bY0hdYzFbTkhdQyg9TylbTkhdW0NIXTJbQ0gyXVtDSDJdTihbQ0gyXVtDSDJdMilbQ0gyXVtDQEBIXTNbQ0gyXVtDSDJdT1tDSDJdMw==

> <s_epik_cmdline>
J2VwaWtfcHl0aG9uJywgJy1waCcsICc3LjAnLCAnLXRuJywgJzgnLCAnLW1hJywgJzIwMCcsICctbWV0YWxfYmluZGluZycsICctaW1hZScsICc8aW5maWxlLm1hZT4nLCAnLW9tYWUnLCAnPG91dGZpbGUubWFlPic=

> <r_epik_Ionization_Penalty>
0.0075076

> <r_epik_Ionization_Penalty_Charging>
0.00747775

> <r_epik_Ionization_Penalty_Neutral>
2.98483e-05

> <r_epik_State_Penalty>
0.00558817

> <r_epik_Charging_Adjusted_Penalty>
0.0130659

> <i_epik_Tot_Q>
1

> <i_epik_Tot_abs_Q>
1

> <r_epik_Metal_State_Penalty>
-0

> <b_epik_Metal_Only>
0

> <s_lp_Force_Field>
OPLS_2005

> <r_lp_Energy>
38.1344

> <b_lp_Chiralities_Consistent>
1

> <s_lp_Variant>
AV-unprocessed.smi:2764-4

> <Gold.Version>
5.8.1

> <Gold.Id.Protein>
6NUR|6NUR_protein|mol2

> <Gold.PLP.Fitness>
49.0989

> <Gold.PLP.PLP>
-40.4656

> <Gold.PLP.part.hbond>
-2.0000

> <Gold.PLP.part.metal>
0.0000

> <Gold.PLP.part.buried>
-0.6740

> <Gold.PLP.part.nonpolar>
-38.0519

> <Gold.PLP.part.repulsive>
0.7251

> <Gold.PLP.ligand.clash>
0.0000

> <Gold.PLP.ligand.torsion>
0.4488

> <Gold.PLP.Chemscore.Hbond>
2.1562

> <Gold.PLP.Chemscore.CHOScore>
1.0065

> <Gold.PLP.Chemscore.Metal>
0.0000

> <Gold.Chemscore.Hbonds>
donor molecule, donor type, donor heavy atom, donor atom, acceptor molecule, acceptor atom, score
      L1  H    15    47       P1  7948  2.00
      P1  H  7989  7998       L1     1  0.10
      L1  C     9    27       P1  8029  1.00

> <Gold.PLP.Chemscore.Internal.Correction>
0.0428

> <Gold.Rescore>
     Score         DG    S(hbond)    S(metal)    S(lipo)     H(rot)  DE(clash)    DE(int)     intcor
     14.08     -17.15       1.37        0.00      93.09       1.49       1.58       1.49       ----

> <Gold.Chemscore.Fitness>
14.0847

> <Gold.Chemscore.DG>
-17.1510

> <Gold.Chemscore.ZeroCoef>
-5.4800

> <Gold.Chemscore.Hbond>
1.3748

> <Gold.Chemscore.Metal>
0.0000

> <Gold.Chemscore.Lipo>
93.0864

> <Gold.Chemscore.Internal_Hbond>
0.0000

> <Gold.Chemscore.DEClash>
1.5762

> <Gold.Chemscore.DEInternal>
1.4901

> <Gold.Chemscore.Rot>
1.4891

> <Gold.Chemscore.Internal.Correction>
   9.000000E+99

> <Gold.Chemscore.Hbonds>
donor molecule, donor type, donor heavy atom, donor atom, acceptor molecule, acceptor atom, score
      L1  H    15    47       P1  7948  0.82
      P1  H  7989  7998       L1     1  0.01

> <Gold.Chemscore.Hbond.Weighted>
-4.5920

> <Gold.Chemscore.Metal.Weighted>
-0.0000

> <Gold.Chemscore.Lipo.Weighted>
-10.8911

> <Gold.Chemscore.Internal_Hbond.Weighted>
0.0000

> <Gold.Chemscore.DEClash.Weighted>
1.5762

> <Gold.Chemscore.DEInternal.Weighted>
1.4901

> <Gold.Chemscore.Rot.Weighted>
3.8121

> <Gold.Chemscore.Internal.Correction.Weighted>
   9.000000E+99

> <Gold.Protein.RotatedTorsions>
[ 6907 6896 6895 6894 ] final   20.94 input  -60.11 | X-H torsion
[ 7974 7965 7964 7962 ] final   20.81 input  175.53 | X-H torsion
[ 8008 7997 7996 7995 ] final  -68.50 input   59.86 | X-H torsion
[ 10167 10162 10161 10158 ] final  -42.52 input  -65.29 | X-H torsion
[ 10718 10713 10712 10709 ] final  139.60 input   66.30 | X-H torsion
[ 10763 10752 10751 10750 ] final  -62.03 input  -60.55 | X-H torsion
[ 11005 11000 10999 10996 ] final -140.62 input  -57.11 | X-H torsion

> <Gold.Protein.ActiveResidues>
 VAL166  LYS551  ARG553  GLY616  TRP617  ASP618  TYR619  PRO620  LYS621  CYS622 
 ASP623  PHE694  ASN695  SER759  ASP760  ASP761  ALA762  ILE779  LEU786  VAL792 
 PHE793  MET794  SER795  GLU796  ALA797  LYS798  CYS799  TRP800  GLU811  SER814 

> <Gold.Protein.RotatedAtoms>
  151.9041  135.0366  160.0508 H   0  0  0  0  0  0  0  0  0  0  0  0  # atno 6907 bound_to 6896
  152.2333  133.5071  159.5237 H   0  0  0  0  0  0  0  0  0  0  0  0  # atno 6908 bound_to 6896
  150.7032  134.1103  159.4040 H   0  0  0  0  0  0  0  0  0  0  0  0  # atno 6909 bound_to 6896
  146.2096  139.8116  142.8699 H   0  0  0  0  0  0  0  0  0  0  0  0  # atno 7974 bound_to 7965
  154.4872  140.0871  156.7514 H   0  0  0  0  0  0  0  0  0  0  0  0  # atno 8008 bound_to 7997
  155.4320  140.3450  155.4263 H   0  0  0  0  0  0  0  0  0  0  0  0  # atno 8009 bound_to 7997
  156.1279  140.1493  156.9097 H   0  0  0  0  0  0  0  0  0  0  0  0  # atno 8010 bound_to 7997
  140.6966  143.3033  151.3220 H   0  0  0  0  0  0  0  0  0  0  0  0  # atno 10167 bound_to 10162
  157.4126  131.1030  151.0438 H   0  0  0  0  0  0  0  0  0  0  0  0  # atno 10718 bound_to 10713
  154.2937  135.6248  153.5396 H   0  0  0  0  0  0  0  0  0  0  0  0  # atno 10763 bound_to 10752
  152.9849  135.5662  154.5361 H   0  0  0  0  0  0  0  0  0  0  0  0  # atno 10764 bound_to 10752
  154.4977  135.2870  155.1422 H   0  0  0  0  0  0  0  0  0  0  0  0  # atno 10765 bound_to 10752
  140.8405  134.2408  157.4812 H   0  0  0  0  0  0  0  0  0  0  0  0  # atno 11005 bound_to 11000
  145.3189  141.0239  143.3511 LP  0  0  0  0  0  0  0  0  0  0  0  0  # atno 17320 bound_to 7965
  144.8881  139.4812  143.6691 LP  0  0  0  0  0  0  0  0  0  0  0  0  # atno 17321 bound_to 7965
  139.6430  144.0504  152.2569 LP  0  0  0  0  0  0  0  0  0  0  0  0  # atno 17342 bound_to 10162
  140.0016  144.6289  150.7725 LP  0  0  0  0  0  0  0  0  0  0  0  0  # atno 17343 bound_to 10162
  157.1397  130.6137  149.5551 LP  0  0  0  0  0  0  0  0  0  0  0  0  # atno 17370 bound_to 10713
  155.9855  130.4886  150.7036 LP  0  0  0  0  0  0  0  0  0  0  0  0  # atno 17371 bound_to 10713
  139.8703  134.9633  156.4456 LP  0  0  0  0  0  0  0  0  0  0  0  0  # atno 17394 bound_to 11000
  140.8900  133.7855  155.9562 LP  0  0  0  0  0  0  0  0  0  0  0  0  # atno 17395 bound_to 11000

$$$$
