AV-unprocessed.smi:775|AV-procd|sdf|3698|dock3
  -GOLD-   22720 1123D 1   1.00000     0.00000
 Structure written by MMmdl.
 38 39  0  0  0  0  0  0  0  0  1 V2000
  152.1983  140.7184  159.2032 C   0  0  0  0  0  0  0  0  0  0  0  0
  151.0102  140.9619  158.2613 C   0  0  1  0  0  0  0  0  0  0  0  0
  150.1381  142.1306  158.7790 C   0  0  0  0  0  0  0  0  0  0  0  0
  150.8823  143.3538  159.0272 N   0  0  0  0  0  0  0  0  0  0  0  0
  151.2268  144.3457  158.1324 C   0  0  0  0  0  0  0  0  0  0  0  0
  151.9076  145.3035  158.8280 C   0  0  0  0  0  0  0  0  0  0  0  0
  151.9139  144.8107  160.1626 C   0  0  0  0  0  0  0  0  0  0  0  0
  151.2905  143.6500  160.2800 N   0  0  0  0  0  0  0  0  0  0  0  0
  151.5719  141.2507  156.9440 N   0  0  0  0  0  0  0  0  0  0  0  0
  150.5830  141.8095  156.0124 C   0  0  0  0  0  0  0  0  0  0  0  0
  150.1301  140.7740  154.9745 C   0  0  0  0  0  0  0  0  0  0  0  0
  150.9750  139.9772  154.5632 O   0  0  0  0  0  0  0  0  0  0  0  0
  148.8402  140.7433  154.5525 N   0  0  0  0  0  0  0  0  0  0  0  0
  147.8176  141.6961  155.0176 C   0  0  0  0  0  0  0  0  0  0  0  0
  146.7743  141.9946  153.9325 C   0  0  0  0  0  0  0  0  0  0  0  0
  146.2365  140.7763  153.3544 N   0  0  0  0  0  0  0  0  0  0  0  0
  146.9626  139.6689  153.1612 C   0  0  0  0  0  0  0  0  0  0  0  0
  146.4893  138.6730  152.6186 O   0  0  0  0  0  0  0  0  0  0  0  0
  148.4193  139.6477  153.6528 C   0  0  0  0  0  0  0  0  0  0  0  0
  151.8559  140.4632  160.2065 H   0  0  0  0  0  0  0  0  0  0  0  0
  152.8323  141.6022  159.2854 H   0  0  0  0  0  0  0  0  0  0  0  0
  152.8192  139.8928  158.8532 H   0  0  0  0  0  0  0  0  0  0  0  0
  150.4299  140.0381  158.2345 H   0  0  0  0  0  0  0  0  0  0  0  0
  149.3731  142.3724  158.0402 H   0  0  0  0  0  0  0  0  0  0  0  0
  149.6038  141.8372  159.6848 H   0  0  0  0  0  0  0  0  0  0  0  0
  150.9665  144.2852  157.0859 H   0  0  0  0  0  0  0  0  0  0  0  0
  152.3316  146.2189  158.4430 H   0  0  0  0  0  0  0  0  0  0  0  0
  152.3463  145.2602  161.0443 H   0  0  0  0  0  0  0  0  0  0  0  0
  151.9603  140.3962  156.5707 H   0  0  0  0  0  0  0  0  0  0  0  0
  149.7071  142.1363  156.5750 H   0  0  0  0  0  0  0  0  0  0  0  0
  150.9651  142.6952  155.5089 H   0  0  0  0  0  0  0  0  0  0  0  0
  147.3329  141.2803  155.9021 H   0  0  0  0  0  0  0  0  0  0  0  0
  148.2446  142.6525  155.3119 H   0  0  0  0  0  0  0  0  0  0  0  0
  145.9578  142.5871  154.3455 H   0  0  0  0  0  0  0  0  0  0  0  0
  147.2240  142.5864  153.1343 H   0  0  0  0  0  0  0  0  0  0  0  0
  145.2743  140.7859  153.0481 H   0  0  0  0  0  0  0  0  0  0  0  0
  149.0547  139.6489  152.7655 H   0  0  0  0  0  0  0  0  0  0  0  0
  148.5857  138.6940  154.1569 H   0  0  0  0  0  0  0  0  0  0  0  0
  1  2  1  0  0  0  0
  1 20  1  0  0  0  0
  1 21  1  0  0  0  0
  1 22  1  0  0  0  0
  2  3  1  0  0  0  0
  2  9  1  0  0  0  0
  2 23  1  0  0  0  0
  3  4  1  0  0  0  0
  3 24  1  0  0  0  0
  3 25  1  0  0  0  0
  4  8  1  0  0  0  0
  4  5  1  0  0  0  0
  5  6  2  0  0  0  0
  5 26  1  0  0  0  0
  6  7  1  0  0  0  0
  6 27  1  0  0  0  0
  7  8  2  0  0  0  0
  7 28  1  0  0  0  0
  9 10  1  0  0  0  0
  9 29  1  0  0  0  0
 10 11  1  0  0  0  0
 10 30  1  0  0  0  0
 10 31  1  0  0  0  0
 11 12  2  0  0  0  0
 11 13  1  0  0  0  0
 13 19  1  0  0  0  0
 13 14  1  0  0  0  0
 14 15  1  0  0  0  0
 14 32  1  0  0  0  0
 14 33  1  0  0  0  0
 15 16  1  0  0  0  0
 15 34  1  0  0  0  0
 15 35  1  0  0  0  0
 16 17  1  0  0  0  0
 16 36  1  0  0  0  0
 17 18  2  0  0  0  0
 17 19  1  0  0  0  0
 19 37  1  0  0  0  0
 19 38  1  0  0  0  0
M  END
> <s_m_source_file>
AV-unprocessed.smi

> <i_m_source_file_index>
775

> <i_lp_mmshare_version>
43012

> <i_f3d_flags>
0

> <s_epik_input>
bjFbY0hdW2NIXVtjSF1uMVtDSDJdW0NAQEhdKFtDSDNdKVtOSF1bQ0gyXUMoPU8pTjJbQ0gyXVtDSDJdW05IXUMoPU8pW0NIMl0y

> <s_epik_cmdline>
J2VwaWtfcHl0aG9uJywgJy1waCcsICc3LjAnLCAnLXRuJywgJzgnLCAnLW1hJywgJzIwMCcsICctbWV0YWxfYmluZGluZycsICctaW1hZScsICc8aW5maWxlLm1hZT4nLCAnLW9tYWUnLCAnPG91dGZpbGUubWFlPic=

> <r_lp_tautomer_probability>
1

> <r_epik_Ionization_Penalty>
0.836058

> <r_epik_Ionization_Penalty_Charging>
0

> <r_epik_Ionization_Penalty_Neutral>
0.836058

> <r_epik_State_Penalty>
0.870309

> <r_epik_Charging_Adjusted_Penalty>
0.870309

> <i_epik_Tot_Q>
0

> <i_epik_Tot_abs_Q>
0

> <r_epik_Metal_State_Penalty>
0.870266

> <b_epik_Metal_Only>
0

> <s_lp_Force_Field>
OPLS_2005

> <r_lp_Energy>
25.6331

> <b_lp_Chiralities_Consistent>
1

> <s_lp_Variant>
AV-unprocessed.smi:775-4

> <Gold.Version>
5.8.1

> <Gold.Id.Protein>
6NUR|6NUR_protein|mol2

> <Gold.PLP.Fitness>
43.6922

> <Gold.PLP.PLP>
-36.8331

> <Gold.PLP.part.hbond>
-2.0536

> <Gold.PLP.part.metal>
0.0000

> <Gold.PLP.part.buried>
-0.8823

> <Gold.PLP.part.nonpolar>
-34.7734

> <Gold.PLP.part.repulsive>
0.4713

> <Gold.PLP.ligand.clash>
0.0000

> <Gold.PLP.ligand.torsion>
1.1031

> <Gold.PLP.Chemscore.Hbond>
2.0000

> <Gold.PLP.Chemscore.CHOScore>
1.0000

> <Gold.PLP.Chemscore.Metal>
0.0000

> <Gold.Chemscore.Hbonds>
donor molecule, donor type, donor heavy atom, donor atom, acceptor molecule, acceptor atom, score
      L1  H    16    36       P1 10175  1.00
      P1  H  7989  7998       L1    12  0.95
      L1  C     5    26       P1  8028  1.00

> <Gold.PLP.Chemscore.Internal.Correction>
0.0654

> <Gold.Rescore>
     Score         DG    S(hbond)    S(metal)    S(lipo)     H(rot)  DE(clash)    DE(int)     intcor
     14.04     -15.19       1.72        0.00      80.45       2.12       0.14       1.01       ----

> <Gold.Chemscore.Fitness>
14.0428

> <Gold.Chemscore.DG>
-15.1897

> <Gold.Chemscore.ZeroCoef>
-5.4800

> <Gold.Chemscore.Hbond>
1.7168

> <Gold.Chemscore.Metal>
0.0000

> <Gold.Chemscore.Lipo>
80.4484

> <Gold.Chemscore.Internal_Hbond>
0.0000

> <Gold.Chemscore.DEClash>
0.1359

> <Gold.Chemscore.DEInternal>
1.0109

> <Gold.Chemscore.Rot>
2.1239

> <Gold.Chemscore.Internal.Correction>
   9.000000E+99

> <Gold.Chemscore.Hbonds>
donor molecule, donor type, donor heavy atom, donor atom, acceptor molecule, acceptor atom, score
      L1  H    16    36       P1 10175  0.60
      P1  H  7989  7998       L1    12  0.20

> <Gold.Chemscore.Hbond.Weighted>
-5.7343

> <Gold.Chemscore.Metal.Weighted>
-0.0000

> <Gold.Chemscore.Lipo.Weighted>
-9.4125

> <Gold.Chemscore.Internal_Hbond.Weighted>
0.0000

> <Gold.Chemscore.DEClash.Weighted>
0.1359

> <Gold.Chemscore.DEInternal.Weighted>
1.0109

> <Gold.Chemscore.Rot.Weighted>
5.4371

> <Gold.Chemscore.Internal.Correction.Weighted>
   9.000000E+99

> <Gold.Protein.RotatedTorsions>
[ 6907 6896 6895 6894 ] final  165.23 input  -60.11 | X-H torsion
[ 7974 7965 7964 7962 ] final  102.64 input  175.53 | X-H torsion
[ 8008 7997 7996 7995 ] final  137.09 input   59.86 | X-H torsion
[ 10167 10162 10161 10158 ] final -154.80 input  -65.29 | X-H torsion
[ 10718 10713 10712 10709 ] final    5.74 input   66.30 | X-H torsion
[ 10763 10752 10751 10750 ] final  168.12 input  -60.55 | X-H torsion
[ 11005 11000 10999 10996 ] final  111.05 input  -57.11 | X-H torsion

> <Gold.Protein.ActiveResidues>
 VAL166  LYS551  ARG553  GLY616  TRP617  ASP618  TYR619  PRO620  LYS621  CYS622 
 ASP623  PHE694  ASN695  SER759  ASP760  ASP761  ALA762  ILE779  LEU786  VAL792 
 PHE793  MET794  SER795  GLU796  ALA797  LYS798  CYS799  TRP800  GLU811  SER814 

> <Gold.Protein.RotatedAtoms>
  151.8976  133.3530  159.3819 H   0  0  0  0  0  0  0  0  0  0  0  0  # atno 6907 bound_to 6896
  150.7088  134.4860  159.5502 H   0  0  0  0  0  0  0  0  0  0  0  0  # atno 6908 bound_to 6896
  152.2443  134.8198  160.0506 H   0  0  0  0  0  0  0  0  0  0  0  0  # atno 6909 bound_to 6896
  145.3564  139.2427  143.3530 H   0  0  0  0  0  0  0  0  0  0  0  0  # atno 7974 bound_to 7965
  156.3003  140.2428  156.3853 H   0  0  0  0  0  0  0  0  0  0  0  0  # atno 8008 bound_to 7997
  154.8664  140.0418  157.1717 H   0  0  0  0  0  0  0  0  0  0  0  0  # atno 8009 bound_to 7997
  154.8842  140.2953  155.5411 H   0  0  0  0  0  0  0  0  0  0  0  0  # atno 8010 bound_to 7997
  139.6983  143.9305  152.2417 H   0  0  0  0  0  0  0  0  0  0  0  0  # atno 10167 bound_to 10162
  156.9118  130.5759  149.5647 H   0  0  0  0  0  0  0  0  0  0  0  0  # atno 10718 bound_to 10713
  154.3640  135.2753  155.2304 H   0  0  0  0  0  0  0  0  0  0  0  0  # atno 10763 bound_to 10752
  154.4480  135.5938  153.6176 H   0  0  0  0  0  0  0  0  0  0  0  0  # atno 10764 bound_to 10752
  152.9842  135.6035  154.3863 H   0  0  0  0  0  0  0  0  0  0  0  0  # atno 10765 bound_to 10752
  139.8895  134.9499  156.6373 H   0  0  0  0  0  0  0  0  0  0  0  0  # atno 11005 bound_to 11000
  146.2946  140.4190  142.8726 LP  0  0  0  0  0  0  0  0  0  0  0  0  # atno 17320 bound_to 7965
  144.8679  140.7232  143.6065 LP  0  0  0  0  0  0  0  0  0  0  0  0  # atno 17321 bound_to 7965
  139.9140  144.6839  150.8532 LP  0  0  0  0  0  0  0  0  0  0  0  0  # atno 17342 bound_to 10162
  140.7702  143.3422  151.2184 LP  0  0  0  0  0  0  0  0  0  0  0  0  # atno 17343 bound_to 10162
  156.0532  130.5598  150.9035 LP  0  0  0  0  0  0  0  0  0  0  0  0  # atno 17370 bound_to 10713
  157.5963  131.0943  150.9036 LP  0  0  0  0  0  0  0  0  0  0  0  0  # atno 17371 bound_to 10713
  140.7620  133.8809  155.8426 LP  0  0  0  0  0  0  0  0  0  0  0  0  # atno 17394 bound_to 11000
  140.9914  134.1274  157.4405 LP  0  0  0  0  0  0  0  0  0  0  0  0  # atno 17395 bound_to 11000

$$$$
