AV-unprocessed.smi:35|AV-procd|sdf|251|dock1
  -GOLD-   2262016 13D 1   1.00000     0.00000
 Structure written by MMmdl.
 29 30  0  0  0  0  0  0  0  0  1 V2000
  152.5752  139.3765  157.6722 O   0  0  0  0  0  0  0  0  0  0  0  0
  151.7371  139.6751  156.8245 C   0  0  0  0  0  0  0  0  0  0  0  0
  151.4424  138.7931  155.7817 N   0  0  0  0  0  0  0  0  0  0  0  0
  150.5096  139.0195  154.7679 C   0  0  0  0  0  0  0  0  0  0  0  0
  150.3480  138.1794  153.8833 O   0  0  0  0  0  0  0  0  0  0  0  0
  149.7819  140.2311  154.8105 N   0  0  0  0  0  0  0  0  0  0  0  0
  148.7804  140.5056  153.7007 C   0  0  2  0  0  0  0  0  0  0  0  0
  148.1632  141.7390  153.9095 O   0  0  0  0  0  0  0  0  0  0  0  0
  146.9539  141.5467  154.6316 C   0  0  1  0  0  0  0  0  0  0  0  0
  146.0496  142.7774  154.4742 C   0  0  0  0  0  0  0  0  0  0  0  0
  144.7252  142.4496  154.8359 O   0  0  0  0  0  0  0  0  0  0  0  0
  146.3960  140.2830  153.9759 C   0  0  2  0  0  0  0  0  0  0  0  0
  145.5377  139.6026  154.8699 O   0  0  0  0  0  0  0  0  0  0  0  0
  147.6461  139.4533  153.6896 C   0  0  1  0  0  0  0  0  0  0  0  0
  147.5333  138.8160  152.4332 O   0  0  0  0  0  0  0  0  0  0  0  0
  150.0702  141.1548  155.8108 C   0  0  0  0  0  0  0  0  0  0  0  0
  150.9829  140.9225  156.7833 C   0  0  0  0  0  0  0  0  0  0  0  0
  151.2424  142.3647  158.1167 Br  0  0  0  0  0  0  0  0  0  0  0  0
  151.9523  137.9220  155.7556 H   0  0  0  0  0  0  0  0  0  0  0  0
  149.3793  140.5436  152.7882 H   0  0  0  0  0  0  0  0  0  0  0  0
  147.1713  141.3513  155.6838 H   0  0  0  0  0  0  0  0  0  0  0  0
  146.4112  143.6156  155.0705 H   0  0  0  0  0  0  0  0  0  0  0  0
  146.0344  143.1013  153.4332 H   0  0  0  0  0  0  0  0  0  0  0  0
  144.3512  141.9139  154.1531 H   0  0  0  0  0  0  0  0  0  0  0  0
  145.8695  140.5360  153.0539 H   0  0  0  0  0  0  0  0  0  0  0  0
  146.0685  139.1639  155.5173 H   0  0  0  0  0  0  0  0  0  0  0  0
  147.8129  138.7091  154.4702 H   0  0  0  0  0  0  0  0  0  0  0  0
  147.9947  137.9918  152.4751 H   0  0  0  0  0  0  0  0  0  0  0  0
  149.5657  142.1085  155.8360 H   0  0  0  0  0  0  0  0  0  0  0  0
  1  2  2  0  0  0  0
  2 17  1  0  0  0  0
  2  3  1  0  0  0  0
  3 19  1  0  0  0  0
  3  4  1  0  0  0  0
  4  5  2  0  0  0  0
  4  6  1  0  0  0  0
  6  7  1  0  0  0  0
  6 16  1  0  0  0  0
  7 14  1  0  0  0  0
  7  8  1  0  0  0  0
  7 20  1  0  0  0  0
  8  9  1  0  0  0  0
  9 10  1  0  0  0  0
  9 12  1  0  0  0  0
  9 21  1  0  0  0  0
 10 11  1  0  0  0  0
 10 22  1  0  0  0  0
 10 23  1  0  0  0  0
 11 24  1  0  0  0  0
 12 13  1  0  0  0  0
 12 14  1  0  0  0  0
 12 25  1  0  0  0  0
 13 26  1  0  0  0  0
 14 15  1  0  0  0  0
 14 27  1  0  0  0  0
 15 28  1  0  0  0  0
 16 17  2  0  0  0  0
 16 29  1  0  0  0  0
 17 18  1  0  0  0  0
M  END
> <s_m_source_file>
AV-unprocessed.smi

> <i_m_source_file_index>
35

> <i_lp_mmshare_version>
43012

> <i_f3d_flags>
0

> <s_epik_input>
Tz1jMVtuSF1jKD1PKW4oW2NIXWMxQnIpW0NAQEhdMk9bQ0BASF0oW0NIMl1bT0hdKVtDQEBIXShbT0hdKVtDQEhdMltPSF0=

> <s_epik_cmdline>
J2VwaWtfcHl0aG9uJywgJy1waCcsICc3LjAnLCAnLXRuJywgJzgnLCAnLW1hJywgJzIwMCcsICctbWV0YWxfYmluZGluZycsICctaW1hZScsICc8aW5maWxlLm1hZT4nLCAnLW9tYWUnLCAnPG91dGZpbGUubWFlPic=

> <r_lp_tautomer_probability>
0.999537

> <r_epik_Ionization_Penalty>
0.10812

> <r_epik_Ionization_Penalty_Charging>
0.108119

> <r_epik_Ionization_Penalty_Neutral>
4.93006e-07

> <r_epik_State_Penalty>
0.0979238

> <r_epik_Charging_Adjusted_Penalty>
0.206043

> <i_epik_Tot_Q>
0

> <i_epik_Tot_abs_Q>
0

> <r_epik_Metal_State_Penalty>
3.07911

> <b_epik_Metal_Only>
0

> <s_epik_Chemistry_Notes>
This compound contains an acetal/aminal-like group ( X-CH(R)-Y where X, Y are N, S, or O) that may be acid/base labile, releasing an aldehyde.

> <s_lp_Force_Field>
OPLS_2005

> <r_lp_Energy>
25.602

> <b_lp_Chiralities_Consistent>
1

> <s_lp_Variant>
AV-unprocessed.smi:35-5

> <Gold.Version>
5.8.1

> <Gold.Id.Protein>
6NUR|6NUR_protein|mol2

> <Gold.PLP.Fitness>
40.0602

> <Gold.PLP.PLP>
-28.7338

> <Gold.PLP.part.hbond>
-5.1047

> <Gold.PLP.part.metal>
0.0000

> <Gold.PLP.part.buried>
1.1667

> <Gold.PLP.part.nonpolar>
-24.9051

> <Gold.PLP.part.repulsive>
0.5149

> <Gold.PLP.ligand.clash>
0.0000

> <Gold.PLP.ligand.torsion>
0.1150

> <Gold.PLP.Chemscore.Hbond>
2.8400

> <Gold.PLP.Chemscore.CHOScore>
1.0000

> <Gold.PLP.Chemscore.Metal>
0.0000

> <Gold.Chemscore.Hbonds>
donor molecule, donor type, donor heavy atom, donor atom, acceptor molecule, acceptor atom, score
      L1  H    11    24       P1 10175  0.24
      L1  H    15    28       P1  7948  0.89
      P1  H  7997  8009       L1     1  0.65
      P1  H  8011  8017       L1     8  0.01
      L1  C    16    29       P1  8028  0.57

> <Gold.PLP.Chemscore.Internal.Correction>
0.0364

> <Gold.Rescore>
     Score         DG    S(hbond)    S(metal)    S(lipo)     H(rot)  DE(clash)    DE(int)     intcor
      5.19      -6.28       1.71        0.00      38.38       3.67       0.02       1.06       ----

> <Gold.Chemscore.Fitness>
5.1932

> <Gold.Chemscore.DG>
-6.2769

> <Gold.Chemscore.ZeroCoef>
-5.4800

> <Gold.Chemscore.Hbond>
1.7072

> <Gold.Chemscore.Metal>
0.0000

> <Gold.Chemscore.Lipo>
38.3774

> <Gold.Chemscore.Internal_Hbond>
0.0000

> <Gold.Chemscore.DEClash>
0.0195

> <Gold.Chemscore.DEInternal>
1.0642

> <Gold.Chemscore.Rot>
3.6701

> <Gold.Chemscore.Internal.Correction>
   9.000000E+99

> <Gold.Chemscore.Hbonds>
donor molecule, donor type, donor heavy atom, donor atom, acceptor molecule, acceptor atom, score
      L1  H    11    24       P1 10175  0.02
      L1  H    15    28       P1  7948  0.85
      P1  H  7997  8009       L1     1  0.32

> <Gold.Chemscore.Hbond.Weighted>
-5.7022

> <Gold.Chemscore.Metal.Weighted>
-0.0000

> <Gold.Chemscore.Lipo.Weighted>
-4.4902

> <Gold.Chemscore.Internal_Hbond.Weighted>
0.0000

> <Gold.Chemscore.DEClash.Weighted>
0.0195

> <Gold.Chemscore.DEInternal.Weighted>
1.0642

> <Gold.Chemscore.Rot.Weighted>
9.3955

> <Gold.Chemscore.Internal.Correction.Weighted>
   9.000000E+99

> <Gold.Protein.RotatedTorsions>
[ 6907 6896 6895 6894 ] final   92.05 input  -60.11 | X-H torsion
[ 7974 7965 7964 7962 ] final  129.96 input  175.53 | X-H torsion
[ 8008 7997 7996 7995 ] final  166.02 input   59.86 | X-H torsion
[ 10167 10162 10161 10158 ] final   -7.25 input  -65.29 | X-H torsion
[ 10718 10713 10712 10709 ] final -172.07 input   66.30 | X-H torsion
[ 10763 10752 10751 10750 ] final  124.61 input  -60.55 | X-H torsion
[ 11005 11000 10999 10996 ] final -106.75 input  -57.11 | X-H torsion

> <Gold.Protein.ActiveResidues>
 VAL166  LYS551  ARG553  GLY616  TRP617  ASP618  TYR619  PRO620  LYS621  CYS622 
 ASP623  PHE694  ASN695  SER759  ASP760  ASP761  ALA762  ILE779  LEU786  VAL792 
 PHE793  MET794  SER795  GLU796  ALA797  LYS798  CYS799  TRP800  GLU811  SER814 

> <Gold.Protein.RotatedAtoms>
  152.5452  134.1563  159.8538 H   0  0  0  0  0  0  0  0  0  0  0  0  # atno 6907 bound_to 6896
  151.1585  133.4853  159.2602 H   0  0  0  0  0  0  0  0  0  0  0  0  # atno 6908 bound_to 6896
  151.1398  135.0184  159.8675 H   0  0  0  0  0  0  0  0  0  0  0  0  # atno 6909 bound_to 6896
  145.0230  139.4115  143.5188 H   0  0  0  0  0  0  0  0  0  0  0  0  # atno 7974 bound_to 7965
  156.1752  140.1654  156.8375 H   0  0  0  0  0  0  0  0  0  0  0  0  # atno 8008 bound_to 7997
  154.5300  140.0759  156.8361 H   0  0  0  0  0  0  0  0  0  0  0  0  # atno 8009 bound_to 7997
  155.3427  140.3385  155.4241 H   0  0  0  0  0  0  0  0  0  0  0  0  # atno 8010 bound_to 7997
  140.7023  143.6102  150.8712 H   0  0  0  0  0  0  0  0  0  0  0  0  # atno 10167 bound_to 10162
  156.7502  130.9375  151.3114 H   0  0  0  0  0  0  0  0  0  0  0  0  # atno 10718 bound_to 10713
  153.6642  135.3341  155.3135 H   0  0  0  0  0  0  0  0  0  0  0  0  # atno 10763 bound_to 10752
  154.8507  135.4371  154.1772 H   0  0  0  0  0  0  0  0  0  0  0  0  # atno 10764 bound_to 10752
  153.2747  135.7003  153.7521 H   0  0  0  0  0  0  0  0  0  0  0  0  # atno 10765 bound_to 10752
  141.0989  133.8921  157.1893 H   0  0  0  0  0  0  0  0  0  0  0  0  # atno 11005 bound_to 11000
  146.3488  139.9738  142.8703 LP  0  0  0  0  0  0  0  0  0  0  0  0  # atno 17320 bound_to 7965
  145.1871  140.9794  143.4233 LP  0  0  0  0  0  0  0  0  0  0  0  0  # atno 17321 bound_to 7965
  139.9825  143.5936  152.2938 LP  0  0  0  0  0  0  0  0  0  0  0  0  # atno 17342 bound_to 10162
  139.6562  144.7662  151.2052 LP  0  0  0  0  0  0  0  0  0  0  0  0  # atno 17343 bound_to 10162
  157.6780  130.9113  150.0198 LP  0  0  0  0  0  0  0  0  0  0  0  0  # atno 17370 bound_to 10713
  156.1406  130.3642  149.9588 LP  0  0  0  0  0  0  0  0  0  0  0  0  # atno 17371 bound_to 10713
  139.9834  135.0090  156.9804 LP  0  0  0  0  0  0  0  0  0  0  0  0  # atno 17394 bound_to 11000
  140.5072  134.1038  155.7262 LP  0  0  0  0  0  0  0  0  0  0  0  0  # atno 17395 bound_to 11000

$$$$
