AV-unprocessed.smi:1604|AV-procd|sdf|6447|dock9
  -GOLD-   22720 7103D 1   1.00000     0.00000
 Structure written by MMmdl.
 46 48  0  0  0  0  0  0  0  0  1 V2000
  150.6065  136.7602  158.9985 O   0  0  0  0  0  0  0  0  0  0  0  0
  149.5782  137.1295  158.4307 C   0  0  0  0  0  0  0  0  0  0  0  0
  149.5341  137.8072  157.2720 N   0  0  0  0  0  0  0  0  0  0  0  0
  150.6250  138.1941  156.4445 C   0  0  0  0  0  0  0  0  0  0  0  0
  151.9149  137.6357  156.6172 C   0  0  0  0  0  0  0  0  0  0  0  0
  152.9787  138.0987  155.8240 C   0  0  0  0  0  0  0  0  0  0  0  0
  152.7186  139.1184  154.8938 C   0  0  0  0  0  0  0  0  0  0  0  0
  151.4998  139.6697  154.7270 N   0  0  0  0  0  0  0  0  0  0  0  0
  150.4599  139.2239  155.4743 C   0  0  0  0  0  0  0  0  0  0  0  0
  149.2019  139.8267  155.2420 N   0  0  0  0  0  0  0  0  0  0  0  0
  148.4349  139.3862  154.0798 C   0  0  0  0  0  0  0  0  0  0  0  0
  147.7326  140.6305  153.5256 C   0  0  0  0  0  0  0  0  0  0  0  0
  147.7130  141.5913  154.7104 C   0  0  0  0  0  0  0  0  0  0  0  0
  149.0273  141.2652  155.4139 C   0  0  0  0  0  0  0  0  0  0  0  0
  148.3438  136.8806  158.8901 N   0  0  0  0  0  0  0  0  0  0  0  0
  148.0183  136.1628  160.1221 C   0  0  2  0  0  0  0  0  0  0  0  0
  147.7244  134.6704  159.8213 C   0  0  0  0  0  0  0  0  0  0  0  0
  146.8274  133.9368  160.8400 C   0  0  0  0  0  0  0  0  0  0  0  0
  147.2857  134.0216  162.3098 C   0  0  0  0  0  0  0  0  0  0  0  0
  147.4920  135.4398  162.8943 C   0  0  0  0  0  0  0  0  0  0  0  0
  146.7392  136.4916  162.2114 N   0  0  0  0  0  0  0  0  0  0  0  0
  146.9405  136.8946  160.9449 C   0  0  0  0  0  0  0  0  0  0  0  0
  146.2744  137.8012  160.4467 O   0  0  0  0  0  0  0  0  0  0  0  0
  148.6170  137.9591  156.8784 H   0  0  0  0  0  0  0  0  0  0  0  0
  152.1091  136.8782  157.3612 H   0  0  0  0  0  0  0  0  0  0  0  0
  153.9722  137.6909  155.9363 H   0  0  0  0  0  0  0  0  0  0  0  0
  153.5108  139.5076  154.2715 H   0  0  0  0  0  0  0  0  0  0  0  0
  149.0655  138.9154  153.3240 H   0  0  0  0  0  0  0  0  0  0  0  0
  147.6934  138.6559  154.4044 H   0  0  0  0  0  0  0  0  0  0  0  0
  148.3277  141.0594  152.7184 H   0  0  0  0  0  0  0  0  0  0  0  0
  146.7384  140.4163  153.1327 H   0  0  0  0  0  0  0  0  0  0  0  0
  147.6380  142.6373  154.4127 H   0  0  0  0  0  0  0  0  0  0  0  0
  146.8706  141.3615  155.3643 H   0  0  0  0  0  0  0  0  0  0  0  0
  149.0028  141.5402  156.4687 H   0  0  0  0  0  0  0  0  0  0  0  0
  149.8387  141.8141  154.9344 H   0  0  0  0  0  0  0  0  0  0  0  0
  147.5602  137.2250  158.3547 H   0  0  0  0  0  0  0  0  0  0  0  0
  148.9181  136.2009  160.7377 H   0  0  0  0  0  0  0  0  0  0  0  0
  147.2437  134.5868  158.8456 H   0  0  0  0  0  0  0  0  0  0  0  0
  148.6711  134.1371  159.7274 H   0  0  0  0  0  0  0  0  0  0  0  0
  145.8062  134.3114  160.7590 H   0  0  0  0  0  0  0  0  0  0  0  0
  146.7645  132.8864  160.5546 H   0  0  0  0  0  0  0  0  0  0  0  0
  146.5388  133.5072  162.9154 H   0  0  0  0  0  0  0  0  0  0  0  0
  148.2057  133.4503  162.4378 H   0  0  0  0  0  0  0  0  0  0  0  0
  147.2078  135.4431  163.9469 H   0  0  0  0  0  0  0  0  0  0  0  0
  148.5517  135.6970  162.8840 H   0  0  0  0  0  0  0  0  0  0  0  0
  146.0227  136.9607  162.7462 H   0  0  0  0  0  0  0  0  0  0  0  0
  1  2  2  0  0  0  0
  2  3  1  0  0  0  0
  2 15  1  0  0  0  0
  3  4  1  0  0  0  0
  3 24  1  0  0  0  0
  4  9  1  0  0  0  0
  4  5  2  0  0  0  0
  5  6  1  0  0  0  0
  5 25  1  0  0  0  0
  6  7  2  0  0  0  0
  6 26  1  0  0  0  0
  7  8  1  0  0  0  0
  7 27  1  0  0  0  0
  8  9  2  0  0  0  0
  9 10  1  0  0  0  0
 10 14  1  0  0  0  0
 10 11  1  0  0  0  0
 11 12  1  0  0  0  0
 11 28  1  0  0  0  0
 11 29  1  0  0  0  0
 12 13  1  0  0  0  0
 12 30  1  0  0  0  0
 12 31  1  0  0  0  0
 13 14  1  0  0  0  0
 13 32  1  0  0  0  0
 13 33  1  0  0  0  0
 14 34  1  0  0  0  0
 14 35  1  0  0  0  0
 15 16  1  0  0  0  0
 15 36  1  0  0  0  0
 16 22  1  0  0  0  0
 16 17  1  0  0  0  0
 16 37  1  0  0  0  0
 17 18  1  0  0  0  0
 17 38  1  0  0  0  0
 17 39  1  0  0  0  0
 18 19  1  0  0  0  0
 18 40  1  0  0  0  0
 18 41  1  0  0  0  0
 19 20  1  0  0  0  0
 19 42  1  0  0  0  0
 19 43  1  0  0  0  0
 20 21  1  0  0  0  0
 20 44  1  0  0  0  0
 20 45  1  0  0  0  0
 21 22  1  0  0  0  0
 21 46  1  0  0  0  0
 22 23  2  0  0  0  0
M  END
> <s_m_source_file>
AV-unprocessed.smi

> <i_m_source_file_index>
1604

> <i_lp_mmshare_version>
43012

> <i_f3d_flags>
0

> <s_epik_input>
Tz1DMVtOSF1bQ0gyXVtDSDJdW0NIMl1bQ0gyXVtDQEhdMVtOSF1DKD1PKVtOSF1jMltjSF1bY0hdW2NIXW5jMk4zW0NIMl1bQ0gyXVtDSDJdW0NIMl0z

> <s_epik_cmdline>
J2VwaWtfcHl0aG9uJywgJy1waCcsICc3LjAnLCAnLXRuJywgJzgnLCAnLW1hJywgJzIwMCcsICctbWV0YWxfYmluZGluZycsICctaW1hZScsICc8aW5maWxlLm1hZT4nLCAnLW9tYWUnLCAnPG91dGZpbGUubWFlPic=

> <r_lp_tautomer_probability>
1

> <r_epik_Ionization_Penalty>
0.0837267

> <r_epik_Ionization_Penalty_Charging>
0

> <r_epik_Ionization_Penalty_Neutral>
0.0837267

> <r_epik_State_Penalty>
0.0738331

> <r_epik_Charging_Adjusted_Penalty>
0.0738331

> <i_epik_Tot_Q>
0

> <i_epik_Tot_abs_Q>
0

> <r_epik_Metal_State_Penalty>
0.0646802

> <b_epik_Metal_Only>
0

> <s_lp_Force_Field>
OPLS_2005

> <r_lp_Energy>
41.479

> <b_lp_Chiralities_Consistent>
1

> <s_lp_Variant>
AV-unprocessed.smi:1604-1

> <Gold.Version>
5.8.1

> <Gold.Id.Protein>
6NUR|6NUR_protein|mol2

> <Gold.PLP.Fitness>
43.7930

> <Gold.PLP.PLP>
-35.5824

> <Gold.PLP.part.hbond>
-3.0000

> <Gold.PLP.part.metal>
0.0000

> <Gold.PLP.part.buried>
-2.8837

> <Gold.PLP.part.nonpolar>
-30.2857

> <Gold.PLP.part.repulsive>
0.4039

> <Gold.PLP.ligand.clash>
0.0000

> <Gold.PLP.ligand.torsion>
0.5774

> <Gold.PLP.Chemscore.Hbond>
3.0000

> <Gold.PLP.Chemscore.CHOScore>
0.0000

> <Gold.PLP.Chemscore.Metal>
0.0000

> <Gold.Chemscore.Hbonds>
donor molecule, donor type, donor heavy atom, donor atom, acceptor molecule, acceptor atom, score
      P1  H  6896  6909       L1     1  1.00
      P1  H  6934  6947       L1    23  0.95
      P1  H  7989  7998       L1     8  1.00

> <Gold.PLP.Chemscore.Internal.Correction>
0.3654

> <Gold.Rescore>
     Score         DG    S(hbond)    S(metal)    S(lipo)     H(rot)  DE(clash)    DE(int)     intcor
     18.63     -20.57       2.54        0.00      83.88       1.25       0.07       1.87       ----

> <Gold.Chemscore.Fitness>
18.6267

> <Gold.Chemscore.DG>
-20.5723

> <Gold.Chemscore.ZeroCoef>
-5.4800

> <Gold.Chemscore.Hbond>
2.5353

> <Gold.Chemscore.Metal>
0.0000

> <Gold.Chemscore.Lipo>
83.8825

> <Gold.Chemscore.Internal_Hbond>
0.0000

> <Gold.Chemscore.DEClash>
0.0744

> <Gold.Chemscore.DEInternal>
1.8712

> <Gold.Chemscore.Rot>
1.2461

> <Gold.Chemscore.Internal.Correction>
   9.000000E+99

> <Gold.Chemscore.Hbonds>
donor molecule, donor type, donor heavy atom, donor atom, acceptor molecule, acceptor atom, score
      P1  H  6896  6909       L1     1  0.98
      P1  H  6934  6947       L1    23  0.21
      P1  H  7989  7998       L1     8  0.60

> <Gold.Chemscore.Hbond.Weighted>
-8.4679

> <Gold.Chemscore.Metal.Weighted>
-0.0000

> <Gold.Chemscore.Lipo.Weighted>
-9.8142

> <Gold.Chemscore.Internal_Hbond.Weighted>
0.0000

> <Gold.Chemscore.DEClash.Weighted>
0.0744

> <Gold.Chemscore.DEInternal.Weighted>
1.8712

> <Gold.Chemscore.Rot.Weighted>
3.1899

> <Gold.Chemscore.Internal.Correction.Weighted>
   9.000000E+99

> <Gold.Protein.RotatedTorsions>
[ 6907 6896 6895 6894 ] final   91.95 input  -60.11 | X-H torsion
[ 7974 7965 7964 7962 ] final  118.25 input  175.53 | X-H torsion
[ 8008 7997 7996 7995 ] final  -82.03 input   59.86 | X-H torsion
[ 10167 10162 10161 10158 ] final  -93.29 input  -65.29 | X-H torsion
[ 10718 10713 10712 10709 ] final -168.68 input   66.30 | X-H torsion
[ 10763 10752 10751 10750 ] final   23.89 input  -60.55 | X-H torsion
[ 11005 11000 10999 10996 ] final -157.31 input  -57.11 | X-H torsion

> <Gold.Protein.ActiveResidues>
 VAL166  LYS551  ARG553  GLY616  TRP617  ASP618  TYR619  PRO620  LYS621  CYS622 
 ASP623  PHE694  ASN695  SER759  ASP760  ASP761  ALA762  ILE779  LEU786  VAL792 
 PHE793  MET794  SER795  GLU796  ALA797  LYS798  CYS799  TRP800  GLU811  SER814 

> <Gold.Protein.RotatedAtoms>
  152.5451  134.1577  159.8544 H   0  0  0  0  0  0  0  0  0  0  0  0  # atno 6907 bound_to 6896
  151.1598  133.4845  159.2602 H   0  0  0  0  0  0  0  0  0  0  0  0  # atno 6908 bound_to 6896
  151.1384  135.0178  159.8669 H   0  0  0  0  0  0  0  0  0  0  0  0  # atno 6909 bound_to 6896
  145.1574  139.3174  143.4535 H   0  0  0  0  0  0  0  0  0  0  0  0  # atno 7974 bound_to 7965
  154.6044  140.0639  156.9411 H   0  0  0  0  0  0  0  0  0  0  0  0  # atno 8008 bound_to 7997
  155.2078  140.3320  155.4315 H   0  0  0  0  0  0  0  0  0  0  0  0  # atno 8009 bound_to 7997
  156.2338  140.1853  156.7156 H   0  0  0  0  0  0  0  0  0  0  0  0  # atno 8010 bound_to 7997
  140.3261  143.3021  151.9993 H   0  0  0  0  0  0  0  0  0  0  0  0  # atno 10167 bound_to 10162
  156.7005  130.9194  151.3079 H   0  0  0  0  0  0  0  0  0  0  0  0  # atno 10718 bound_to 10713
  153.0804  135.6617  154.0056 H   0  0  0  0  0  0  0  0  0  0  0  0  # atno 10763 bound_to 10752
  153.9679  135.2967  155.3430 H   0  0  0  0  0  0  0  0  0  0  0  0  # atno 10764 bound_to 10752
  154.7203  135.5168  153.8872 H   0  0  0  0  0  0  0  0  0  0  0  0  # atno 10765 bound_to 10752
  140.6660  134.4299  157.5233 H   0  0  0  0  0  0  0  0  0  0  0  0  # atno 11005 bound_to 11000
  146.3487  140.1672  142.8590 LP  0  0  0  0  0  0  0  0  0  0  0  0  # atno 17320 bound_to 7965
  145.0366  140.8913  143.5077 LP  0  0  0  0  0  0  0  0  0  0  0  0  # atno 17321 bound_to 7965
  139.4865  144.6272  151.7141 LP  0  0  0  0  0  0  0  0  0  0  0  0  # atno 17342 bound_to 10162
  140.5439  144.0535  150.6099 LP  0  0  0  0  0  0  0  0  0  0  0  0  # atno 17343 bound_to 10162
  157.6975  130.9297  150.0687 LP  0  0  0  0  0  0  0  0  0  0  0  0  # atno 17370 bound_to 10713
  156.1732  130.3647  149.9136 LP  0  0  0  0  0  0  0  0  0  0  0  0  # atno 17371 bound_to 10713
  139.8997  134.8585  156.1949 LP  0  0  0  0  0  0  0  0  0  0  0  0  # atno 17394 bound_to 11000
  141.0429  133.6928  156.1630 LP  0  0  0  0  0  0  0  0  0  0  0  0  # atno 17395 bound_to 11000

$$$$
