AV-unprocessed.smi:1284|AV-procd|sdf|5364|dock7
  -GOLD-   22720 4503D 1   1.00000     0.00000
 Structure written by MMmdl.
 39 41  0  0  0  0  0  0  0  0  1 V2000
  153.3210  138.4350  154.9389 N   0  0  0  0  0  0  0  0  0  0  0  0
  152.3361  139.1088  155.5391 C   0  0  0  0  0  0  0  0  0  0  0  0
  151.7227  140.0112  154.9735 O   0  0  0  0  0  0  0  0  0  0  0  0
  151.9881  138.7085  156.9775 C   0  0  0  0  0  0  0  0  0  0  0  0
  152.0993  139.9215  157.8642 C   0  0  0  0  0  0  0  0  0  0  0  0
  151.4739  141.0640  157.5676 N   0  0  0  0  0  0  0  0  0  0  0  0
  151.8254  141.8905  158.6154 C   0  0  0  0  0  0  0  0  0  0  0  0
  151.4670  143.2303  158.8871 C   0  0  0  0  0  0  0  0  0  0  0  0
  151.9539  143.8795  160.0404 C   0  0  0  0  0  0  0  0  0  0  0  0
  152.8057  143.2002  160.9349 C   0  0  0  0  0  0  0  0  0  0  0  0
  153.1777  141.8664  160.6802 C   0  0  0  0  0  0  0  0  0  0  0  0
  152.6869  141.2213  159.5285 C   0  0  0  0  0  0  0  0  0  0  0  0
  152.8494  139.9436  158.9984 N   0  0  0  0  0  0  0  0  0  0  0  0
  153.6639  138.8816  159.5777 C   0  0  0  0  0  0  0  0  0  0  0  0
  152.8362  137.8826  160.4107 C   0  0  1  0  0  0  0  0  0  0  0  0
  152.0927  137.0761  159.5204 O   0  0  0  0  0  0  0  0  0  0  0  0
  153.7037  137.0574  161.3516 C   0  0  0  0  0  0  0  0  0  0  0  0
  154.6138  136.1159  160.8240 C   0  0  0  0  0  0  0  0  0  0  0  0
  155.3977  135.3253  161.6861 C   0  0  0  0  0  0  0  0  0  0  0  0
  155.2773  135.4721  163.0811 C   0  0  0  0  0  0  0  0  0  0  0  0
  154.3718  136.4096  163.6138 C   0  0  0  0  0  0  0  0  0  0  0  0
  153.5867  137.1998  162.7521 C   0  0  0  0  0  0  0  0  0  0  0  0
  153.5889  138.6744  153.9953 H   0  0  0  0  0  0  0  0  0  0  0  0
  153.8018  137.6968  155.4321 H   0  0  0  0  0  0  0  0  0  0  0  0
  150.9879  138.2801  156.9970 H   0  0  0  0  0  0  0  0  0  0  0  0
  152.6709  137.9382  157.3388 H   0  0  0  0  0  0  0  0  0  0  0  0
  150.8149  143.7587  158.2079 H   0  0  0  0  0  0  0  0  0  0  0  0
  151.6721  144.9030  160.2397 H   0  0  0  0  0  0  0  0  0  0  0  0
  153.1737  143.7035  161.8169 H   0  0  0  0  0  0  0  0  0  0  0  0
  153.8277  141.3446  161.3665 H   0  0  0  0  0  0  0  0  0  0  0  0
  154.1964  138.3714  158.7753 H   0  0  0  0  0  0  0  0  0  0  0  0
  154.4387  139.3343  160.1977 H   0  0  0  0  0  0  0  0  0  0  0  0
  152.1047  138.4289  161.0040 H   0  0  0  0  0  0  0  0  0  0  0  0
  152.1158  137.4776  158.6651 H   0  0  0  0  0  0  0  0  0  0  0  0
  154.7059  135.9882  159.7555 H   0  0  0  0  0  0  0  0  0  0  0  0
  156.0889  134.6035  161.2764 H   0  0  0  0  0  0  0  0  0  0  0  0
  155.8776  134.8643  163.7420 H   0  0  0  0  0  0  0  0  0  0  0  0
  154.2763  136.5203  164.6838 H   0  0  0  0  0  0  0  0  0  0  0  0
  152.8870  137.9083  163.1703 H   0  0  0  0  0  0  0  0  0  0  0  0
  1  2  1  0  0  0  0
  1 23  1  0  0  0  0
  1 24  1  0  0  0  0
  2  3  2  0  0  0  0
  2  4  1  0  0  0  0
  4  5  1  0  0  0  0
  4 25  1  0  0  0  0
  4 26  1  0  0  0  0
  5 13  1  0  0  0  0
  5  6  2  0  0  0  0
  6  7  1  0  0  0  0
  7 12  2  0  0  0  0
  7  8  1  0  0  0  0
  8  9  2  0  0  0  0
  8 27  1  0  0  0  0
  9 10  1  0  0  0  0
  9 28  1  0  0  0  0
 10 11  2  0  0  0  0
 10 29  1  0  0  0  0
 11 12  1  0  0  0  0
 11 30  1  0  0  0  0
 12 13  1  0  0  0  0
 13 14  1  0  0  0  0
 14 15  1  0  0  0  0
 14 31  1  0  0  0  0
 14 32  1  0  0  0  0
 15 16  1  0  0  0  0
 15 17  1  0  0  0  0
 15 33  1  0  0  0  0
 16 34  1  0  0  0  0
 17 22  1  0  0  0  0
 17 18  2  0  0  0  0
 18 19  1  0  0  0  0
 18 35  1  0  0  0  0
 19 20  2  0  0  0  0
 19 36  1  0  0  0  0
 20 21  1  0  0  0  0
 20 37  1  0  0  0  0
 21 22  2  0  0  0  0
 21 38  1  0  0  0  0
 22 39  1  0  0  0  0
M  END
> <s_m_source_file>
AV-unprocessed.smi

> <i_m_source_file_index>
1284

> <i_lp_mmshare_version>
43012

> <i_f3d_flags>
0

> <s_epik_input>
W2NIXTFbY0hdW2NIXVtjSF1jKGMxMiluKGMobjIpW0NIMl1DKD1PKVtOSDJdKVtDSDJdW0NASF0oW09IXSljM1tjSF1bY0hdW2NIXVtjSF1bY0hdMw==

> <s_epik_cmdline>
J2VwaWtfcHl0aG9uJywgJy1waCcsICc3LjAnLCAnLXRuJywgJzgnLCAnLW1hJywgJzIwMCcsICctbWV0YWxfYmluZGluZycsICctaW1hZScsICc8aW5maWxlLm1hZT4nLCAnLW9tYWUnLCAnPG91dGZpbGUubWFlPic=

> <r_epik_Ionization_Penalty>
0.0366899

> <r_epik_Ionization_Penalty_Charging>
0

> <r_epik_Ionization_Penalty_Neutral>
0.0366899

> <r_epik_State_Penalty>
0.0306642

> <r_epik_Charging_Adjusted_Penalty>
0.0306642

> <i_epik_Tot_Q>
0

> <i_epik_Tot_abs_Q>
0

> <r_epik_Metal_State_Penalty>
0.028853

> <b_epik_Metal_Only>
0

> <s_lp_Force_Field>
OPLS_2005

> <r_lp_Energy>
12.7879

> <b_lp_Chiralities_Consistent>
1

> <s_lp_Variant>
AV-unprocessed.smi:1284-2

> <Gold.Version>
5.8.1

> <Gold.Id.Protein>
6NUR|6NUR_protein|mol2

> <Gold.PLP.Fitness>
48.4710

> <Gold.PLP.PLP>
-43.5973

> <Gold.PLP.part.hbond>
-2.0000

> <Gold.PLP.part.metal>
0.0000

> <Gold.PLP.part.buried>
-6.9736

> <Gold.PLP.part.nonpolar>
-35.5273

> <Gold.PLP.part.repulsive>
0.2905

> <Gold.PLP.ligand.clash>
0.0000

> <Gold.PLP.ligand.torsion>
0.5759

> <Gold.PLP.Chemscore.Hbond>
2.0000

> <Gold.PLP.Chemscore.CHOScore>
0.0000

> <Gold.PLP.Chemscore.Metal>
0.0000

> <Gold.Chemscore.Hbonds>
donor molecule, donor type, donor heavy atom, donor atom, acceptor molecule, acceptor atom, score
      P1  H  6896  6907       L1    16  1.00
      P1  H  7989  7998       L1     3  0.99

> <Gold.PLP.Chemscore.Internal.Correction>
0.0256

> <Gold.Rescore>
     Score         DG    S(hbond)    S(metal)    S(lipo)     H(rot)  DE(clash)    DE(int)     intcor
     16.55     -18.44       1.98        0.00     116.97       2.86       0.01       1.88       ----

> <Gold.Chemscore.Fitness>
16.5543

> <Gold.Chemscore.DG>
-18.4437

> <Gold.Chemscore.ZeroCoef>
-5.4800

> <Gold.Chemscore.Hbond>
1.9766

> <Gold.Chemscore.Metal>
0.0000

> <Gold.Chemscore.Lipo>
116.9653

> <Gold.Chemscore.Internal_Hbond>
0.0000

> <Gold.Chemscore.DEClash>
0.0089

> <Gold.Chemscore.DEInternal>
1.8805

> <Gold.Chemscore.Rot>
2.8606

> <Gold.Chemscore.Internal.Correction>
   9.000000E+99

> <Gold.Chemscore.Hbonds>
donor molecule, donor type, donor heavy atom, donor atom, acceptor molecule, acceptor atom, score
      P1  H  6896  6907       L1    16  0.92
      P1  H  7989  7998       L1     3  0.94

> <Gold.Chemscore.Hbond.Weighted>
-6.6019

> <Gold.Chemscore.Metal.Weighted>
-0.0000

> <Gold.Chemscore.Lipo.Weighted>
-13.6849

> <Gold.Chemscore.Internal_Hbond.Weighted>
0.0000

> <Gold.Chemscore.DEClash.Weighted>
0.0089

> <Gold.Chemscore.DEInternal.Weighted>
1.8805

> <Gold.Chemscore.Rot.Weighted>
7.3231

> <Gold.Chemscore.Internal.Correction.Weighted>
   9.000000E+99

> <Gold.Protein.RotatedTorsions>
[ 6907 6896 6895 6894 ] final   -1.08 input  -60.11 | X-H torsion
[ 7974 7965 7964 7962 ] final -119.63 input  175.53 | X-H torsion
[ 8008 7997 7996 7995 ] final   41.14 input   59.86 | X-H torsion
[ 10167 10162 10161 10158 ] final  -65.93 input  -65.29 | X-H torsion
[ 10718 10713 10712 10709 ] final -165.89 input   66.30 | X-H torsion
[ 10763 10752 10751 10750 ] final -167.08 input  -60.55 | X-H torsion
[ 11005 11000 10999 10996 ] final  -75.69 input  -57.11 | X-H torsion

> <Gold.Protein.ActiveResidues>
 VAL166  LYS551  ARG553  GLY616  TRP617  ASP618  TYR619  PRO620  LYS621  CYS622 
 ASP623  PHE694  ASN695  SER759  ASP760  ASP761  ALA762  ILE779  LEU786  VAL792 
 PHE793  MET794  SER795  GLU796  ALA797  LYS798  CYS799  TRP800  GLU811  SER814 

> <Gold.Protein.RotatedAtoms>
  151.5518  135.1067  159.9951 H   0  0  0  0  0  0  0  0  0  0  0  0  # atno 6907 bound_to 6896
  152.4488  133.7583  159.6743 H   0  0  0  0  0  0  0  0  0  0  0  0  # atno 6908 bound_to 6896
  150.8410  133.7869  159.3085 H   0  0  0  0  0  0  0  0  0  0  0  0  # atno 6909 bound_to 6896
  145.0604  140.8285  143.4156 H   0  0  0  0  0  0  0  0  0  0  0  0  # atno 7974 bound_to 7965
  155.2648  140.3362  155.4270 H   0  0  0  0  0  0  0  0  0  0  0  0  # atno 8008 bound_to 7997
  156.2159  140.1788  156.7633 H   0  0  0  0  0  0  0  0  0  0  0  0  # atno 8009 bound_to 7997
  154.5752  140.0663  156.9009 H   0  0  0  0  0  0  0  0  0  0  0  0  # atno 8010 bound_to 7997
  140.5694  143.2317  151.6570 H   0  0  0  0  0  0  0  0  0  0  0  0  # atno 10167 bound_to 10162
  156.6599  130.9041  151.3027 H   0  0  0  0  0  0  0  0  0  0  0  0  # atno 10718 bound_to 10713
  154.6768  135.2948  154.9667 H   0  0  0  0  0  0  0  0  0  0  0  0  # atno 10763 bound_to 10752
  154.0676  135.6622  153.4824 H   0  0  0  0  0  0  0  0  0  0  0  0  # atno 10764 bound_to 10752
  153.0521  135.5167  154.7791 H   0  0  0  0  0  0  0  0  0  0  0  0  # atno 10765 bound_to 10752
  141.1647  133.6956  156.7555 H   0  0  0  0  0  0  0  0  0  0  0  0  # atno 11005 bound_to 11000
  145.1416  139.2568  143.5487 LP  0  0  0  0  0  0  0  0  0  0  0  0  # atno 17320 bound_to 7965
  146.3524  140.1095  142.8604 LP  0  0  0  0  0  0  0  0  0  0  0  0  # atno 17321 bound_to 7965
  139.5109  144.3526  152.0638 LP  0  0  0  0  0  0  0  0  0  0  0  0  # atno 17342 bound_to 10162
  140.2661  144.4014  150.6168 LP  0  0  0  0  0  0  0  0  0  0  0  0  # atno 17343 bound_to 10162
  157.7113  130.9444  150.1099 LP  0  0  0  0  0  0  0  0  0  0  0  0  # atno 17370 bound_to 10713
  156.2019  130.3661  149.8778 LP  0  0  0  0  0  0  0  0  0  0  0  0  # atno 17371 bound_to 10713
  140.2572  134.8494  157.3724 LP  0  0  0  0  0  0  0  0  0  0  0  0  # atno 17394 bound_to 11000
  140.1645  134.4686  155.7872 LP  0  0  0  0  0  0  0  0  0  0  0  0  # atno 17395 bound_to 11000

$$$$
