AV-unprocessed.smi:419|AV-procd|sdf|2531|dock4
  -GOLD-   2262022493D 1   1.00000     0.00000
 Structure written by MMmdl.
 44 46  0  0  0  0  0  0  0  0  1 V2000
  153.8969  132.3132  164.3427 C   0  0  0  0  0  0  0  0  0  0  0  0
  154.6004  132.9542  163.2886 O   0  0  0  0  0  0  0  0  0  0  0  0
  154.7434  134.3241  163.3434 C   0  0  0  0  0  0  0  0  0  0  0  0
  154.1985  135.1430  164.3627 C   0  0  0  0  0  0  0  0  0  0  0  0
  154.3936  136.5375  164.3367 C   0  0  0  0  0  0  0  0  0  0  0  0
  155.1317  137.1476  163.3035 C   0  0  0  0  0  0  0  0  0  0  0  0
  155.2714  138.5181  163.3567 O   0  0  0  0  0  0  0  0  0  0  0  0
  156.2379  139.1294  162.5121 C   0  0  0  0  0  0  0  0  0  0  0  0
  155.5458  140.1969  161.6479 C   0  0  1  0  0  0  0  0  0  0  0  0
  156.4534  140.5660  160.6281 O   0  0  0  0  0  0  0  0  0  0  0  0
  154.2751  139.6456  160.9686 C   0  0  0  0  0  0  0  0  0  0  0  0
  153.4967  140.7059  160.3297 N   0  0  0  0  0  0  0  0  0  0  0  0
  153.0031  140.6944  159.0686 C   0  0  0  0  0  0  0  0  0  0  0  0
  153.1276  139.7802  158.2538 O   0  0  0  0  0  0  0  0  0  0  0  0
  152.3473  141.8606  158.8642 N   0  0  0  0  0  0  0  0  0  0  0  0
  151.6585  142.2779  157.6492 C   0  0  0  0  0  0  0  0  0  0  0  0
  152.4107  142.6340  160.0304 C   0  0  0  0  0  0  0  0  0  0  0  0
  151.8823  143.9023  160.3259 C   0  0  0  0  0  0  0  0  0  0  0  0
  152.1226  144.4160  161.6218 C   0  0  0  0  0  0  0  0  0  0  0  0
  152.8666  143.6703  162.5729 C   0  0  0  0  0  0  0  0  0  0  0  0
  153.3863  142.3951  162.2484 C   0  0  0  0  0  0  0  0  0  0  0  0
  153.1344  141.9088  160.9535 C   0  0  0  0  0  0  0  0  0  0  0  0
  155.6776  136.3285  162.2851 C   0  0  0  0  0  0  0  0  0  0  0  0
  155.4818  134.9343  162.3104 C   0  0  0  0  0  0  0  0  0  0  0  0
  153.8654  131.2402  164.1540 H   0  0  0  0  0  0  0  0  0  0  0  0
  152.8669  132.6666  164.4074 H   0  0  0  0  0  0  0  0  0  0  0  0
  154.3929  132.4649  165.3023 H   0  0  0  0  0  0  0  0  0  0  0  0
  153.6257  134.7259  165.1768 H   0  0  0  0  0  0  0  0  0  0  0  0
  153.9704  137.1473  165.1214 H   0  0  0  0  0  0  0  0  0  0  0  0
  157.0578  139.5648  163.0868 H   0  0  0  0  0  0  0  0  0  0  0  0
  156.6574  138.3583  161.8638 H   0  0  0  0  0  0  0  0  0  0  0  0
  155.3009  141.0630  162.2644 H   0  0  0  0  0  0  0  0  0  0  0  0
  156.3770  139.9464  159.9190 H   0  0  0  0  0  0  0  0  0  0  0  0
  154.5170  138.8548  160.2576 H   0  0  0  0  0  0  0  0  0  0  0  0
  153.6334  139.1762  161.7160 H   0  0  0  0  0  0  0  0  0  0  0  0
  151.9306  143.3014  157.3904 H   0  0  0  0  0  0  0  0  0  0  0  0
  150.5792  142.2374  157.7973 H   0  0  0  0  0  0  0  0  0  0  0  0
  151.9098  141.6426  156.7987 H   0  0  0  0  0  0  0  0  0  0  0  0
  151.3156  144.4627  159.5970 H   0  0  0  0  0  0  0  0  0  0  0  0
  151.7336  145.3870  161.8909 H   0  0  0  0  0  0  0  0  0  0  0  0
  153.0370  144.0803  163.5575 H   0  0  0  0  0  0  0  0  0  0  0  0
  153.9492  141.8225  162.9701 H   0  0  0  0  0  0  0  0  0  0  0  0
  156.2504  136.7439  161.4701 H   0  0  0  0  0  0  0  0  0  0  0  0
  155.9036  134.3254  161.5242 H   0  0  0  0  0  0  0  0  0  0  0  0
  1  2  1  0  0  0  0
  1 25  1  0  0  0  0
  1 26  1  0  0  0  0
  1 27  1  0  0  0  0
  2  3  1  0  0  0  0
  3 24  1  0  0  0  0
  3  4  2  0  0  0  0
  4  5  1  0  0  0  0
  4 28  1  0  0  0  0
  5  6  2  0  0  0  0
  5 29  1  0  0  0  0
  6  7  1  0  0  0  0
  6 23  1  0  0  0  0
  7  8  1  0  0  0  0
  8  9  1  0  0  0  0
  8 30  1  0  0  0  0
  8 31  1  0  0  0  0
  9 10  1  0  0  0  0
  9 11  1  0  0  0  0
  9 32  1  0  0  0  0
 10 33  1  0  0  0  0
 11 12  1  0  0  0  0
 11 34  1  0  0  0  0
 11 35  1  0  0  0  0
 12 22  1  0  0  0  0
 12 13  1  0  0  0  0
 13 14  2  0  0  0  0
 13 15  1  0  0  0  0
 15 16  1  0  0  0  0
 15 17  1  0  0  0  0
 16 36  1  0  0  0  0
 16 37  1  0  0  0  0
 16 38  1  0  0  0  0
 17 22  2  0  0  0  0
 17 18  1  0  0  0  0
 18 19  2  0  0  0  0
 18 39  1  0  0  0  0
 19 20  1  0  0  0  0
 19 40  1  0  0  0  0
 20 21  2  0  0  0  0
 20 41  1  0  0  0  0
 21 22  1  0  0  0  0
 21 42  1  0  0  0  0
 23 24  2  0  0  0  0
 23 43  1  0  0  0  0
 24 44  1  0  0  0  0
M  END
> <s_m_source_file>
AV-unprocessed.smi

> <i_m_source_file_index>
419

> <i_lp_mmshare_version>
43012

> <i_f3d_flags>
0

> <s_epik_input>
W0NIM11PYzFbY0hdW2NIXWMoW2NIXVtjSF0xKU9bQ0gyXVtDQEhdKFtPSF0pW0NIMl1uKGMoPU8pbjJbQ0gzXSljKGMyMylbY0hdW2NIXVtjSF1bY0hdMw==

> <s_epik_cmdline>
J2VwaWtfcHl0aG9uJywgJy1waCcsICc3LjAnLCAnLXRuJywgJzgnLCAnLW1hJywgJzIwMCcsICctbWV0YWxfYmluZGluZycsICctaW1hZScsICc8aW5maWxlLm1hZT4nLCAnLW9tYWUnLCAnPG91dGZpbGUubWFlPic=

> <r_lp_tautomer_probability>
1

> <r_epik_Ionization_Penalty>
2.40131e-06

> <r_epik_Ionization_Penalty_Charging>
2.01037e-09

> <r_epik_Ionization_Penalty_Neutral>
2.3993e-06

> <r_epik_State_Penalty>
-0

> <r_epik_Charging_Adjusted_Penalty>
2.01037e-09

> <i_epik_Tot_Q>
0

> <i_epik_Tot_abs_Q>
0

> <r_epik_Metal_State_Penalty>
-0

> <b_epik_Metal_Only>
0

> <s_lp_Force_Field>
OPLS_2005

> <r_lp_Energy>
50.9462

> <b_lp_Chiralities_Consistent>
1

> <s_lp_Variant>
AV-unprocessed.smi:419-2

> <Gold.Version>
5.8.1

> <Gold.Id.Protein>
6NUR|6NUR_protein|mol2

> <Gold.PLP.Fitness>
53.1931

> <Gold.PLP.PLP>
-51.6318

> <Gold.PLP.part.hbond>
-2.0000

> <Gold.PLP.part.metal>
0.0000

> <Gold.PLP.part.buried>
-4.5557

> <Gold.PLP.part.nonpolar>
-44.0785

> <Gold.PLP.part.repulsive>
0.0000

> <Gold.PLP.ligand.clash>
0.0000

> <Gold.PLP.ligand.torsion>
0.7699

> <Gold.PLP.Chemscore.Hbond>
1.0000

> <Gold.PLP.Chemscore.CHOScore>
0.0000

> <Gold.PLP.Chemscore.Metal>
0.0000

> <Gold.Chemscore.Hbonds>
donor molecule, donor type, donor heavy atom, donor atom, acceptor molecule, acceptor atom, score
      P1  H  7997  8009       L1    14  1.00

> <Gold.PLP.Chemscore.Internal.Correction>
0.1011

> <Gold.Rescore>
     Score         DG    S(hbond)    S(metal)    S(lipo)     H(rot)  DE(clash)    DE(int)     intcor
     18.87     -19.84       0.96        0.00     147.68       2.40       0.34       0.63       ----

> <Gold.Chemscore.Fitness>
18.8654

> <Gold.Chemscore.DG>
-19.8365

> <Gold.Chemscore.ZeroCoef>
-5.4800

> <Gold.Chemscore.Hbond>
0.9609

> <Gold.Chemscore.Metal>
0.0000

> <Gold.Chemscore.Lipo>
147.6808

> <Gold.Chemscore.Internal_Hbond>
0.0000

> <Gold.Chemscore.DEClash>
0.3378

> <Gold.Chemscore.DEInternal>
0.6333

> <Gold.Chemscore.Rot>
2.3952

> <Gold.Chemscore.Internal.Correction>
   9.000000E+99

> <Gold.Chemscore.Hbonds>
donor molecule, donor type, donor heavy atom, donor atom, acceptor molecule, acceptor atom, score
      P1  H  7997  8009       L1    14  0.77

> <Gold.Chemscore.Hbond.Weighted>
-3.2095

> <Gold.Chemscore.Metal.Weighted>
-0.0000

> <Gold.Chemscore.Lipo.Weighted>
-17.2787

> <Gold.Chemscore.Internal_Hbond.Weighted>
0.0000

> <Gold.Chemscore.DEClash.Weighted>
0.3378

> <Gold.Chemscore.DEInternal.Weighted>
0.6333

> <Gold.Chemscore.Rot.Weighted>
6.1316

> <Gold.Chemscore.Internal.Correction.Weighted>
   9.000000E+99

> <Gold.Protein.RotatedTorsions>
[ 6907 6896 6895 6894 ] final -141.71 input  -60.11 | X-H torsion
[ 7974 7965 7964 7962 ] final  147.56 input  175.53 | X-H torsion
[ 8008 7997 7996 7995 ] final  145.36 input   59.86 | X-H torsion
[ 10167 10162 10161 10158 ] final   71.04 input  -65.29 | X-H torsion
[ 10718 10713 10712 10709 ] final  136.45 input   66.30 | X-H torsion
[ 10763 10752 10751 10750 ] final  -15.24 input  -60.55 | X-H torsion
[ 11005 11000 10999 10996 ] final -123.31 input  -57.11 | X-H torsion

> <Gold.Protein.ActiveResidues>
 VAL166  LYS551  ARG553  GLY616  TRP617  ASP618  TYR619  PRO620  LYS621  CYS622 
 ASP623  PHE694  ASN695  SER759  ASP760  ASP761  ALA762  ILE779  LEU786  VAL792 
 PHE793  MET794  SER795  GLU796  ALA797  LYS798  CYS799  TRP800  GLU811  SER814 

> <Gold.Protein.RotatedAtoms>
  151.0773  133.5418  159.2622 H   0  0  0  0  0  0  0  0  0  0  0  0  # atno 6907 bound_to 6896
  151.2334  135.0562  159.9006 H   0  0  0  0  0  0  0  0  0  0  0  0  # atno 6908 bound_to 6896
  152.5419  134.0559  159.8184 H   0  0  0  0  0  0  0  0  0  0  0  0  # atno 6909 bound_to 6896
  144.8582  139.6044  143.5943 H   0  0  0  0  0  0  0  0  0  0  0  0  # atno 7974 bound_to 7965
  156.2885  140.2211  156.5202 H   0  0  0  0  0  0  0  0  0  0  0  0  # atno 8008 bound_to 7997
  154.7535  140.0478  157.0935 H   0  0  0  0  0  0  0  0  0  0  0  0  # atno 8009 bound_to 7997
  155.0080  140.3109  155.4844 H   0  0  0  0  0  0  0  0  0  0  0  0  # atno 8010 bound_to 7997
  140.0504  144.5316  150.7367 H   0  0  0  0  0  0  0  0  0  0  0  0  # atno 10167 bound_to 10162
  157.4465  131.1062  151.0083 H   0  0  0  0  0  0  0  0  0  0  0  0  # atno 10718 bound_to 10713
  153.5404  135.7013  153.5639 H   0  0  0  0  0  0  0  0  0  0  0  0  # atno 10763 bound_to 10752
  153.3608  135.3970  155.1716 H   0  0  0  0  0  0  0  0  0  0  0  0  # atno 10764 bound_to 10752
  154.8674  135.3788  154.4908 H   0  0  0  0  0  0  0  0  0  0  0  0  # atno 10765 bound_to 10752
  140.9929  134.0514  157.3633 H   0  0  0  0  0  0  0  0  0  0  0  0  # atno 11005 bound_to 11000
  146.2839  139.6952  142.9209 LP  0  0  0  0  0  0  0  0  0  0  0  0  # atno 17320 bound_to 7965
  145.4365  141.0419  143.2881 LP  0  0  0  0  0  0  0  0  0  0  0  0  # atno 17321 bound_to 7965
  140.7219  143.2597  151.4249 LP  0  0  0  0  0  0  0  0  0  0  0  0  # atno 17342 bound_to 10162
  139.5957  144.1403  152.2140 LP  0  0  0  0  0  0  0  0  0  0  0  0  # atno 17343 bound_to 10162
  157.0927  130.5949  149.5443 LP  0  0  0  0  0  0  0  0  0  0  0  0  # atno 17370 bound_to 10713
  155.9969  130.5040  150.7516 LP  0  0  0  0  0  0  0  0  0  0  0  0  # atno 17371 bound_to 10713
  139.9000  135.0161  156.7224 LP  0  0  0  0  0  0  0  0  0  0  0  0  # atno 17394 bound_to 11000
  140.7012  133.9304  155.8025 LP  0  0  0  0  0  0  0  0  0  0  0  0  # atno 17395 bound_to 11000

$$$$
