AV-unprocessed.smi:506|AV-procd|sdf|2750|dock9
  -GOLD-   2262023213D 1   1.00000     0.00000
 Structure written by MMmdl.
 40 42  0  0  0  0  0  0  0  0  1 V2000
  143.0235  145.4705  157.2666 C   0  0  0  0  0  0  0  0  0  0  0  0
  143.3469  144.7504  156.0862 O   0  0  0  0  0  0  0  0  0  0  0  0
  144.4797  143.9652  156.0953 C   0  0  0  0  0  0  0  0  0  0  0  0
  144.8529  143.3634  154.8776 C   0  0  0  0  0  0  0  0  0  0  0  0
  145.9963  142.5464  154.7985 C   0  0  0  0  0  0  0  0  0  0  0  0
  146.7930  142.3101  155.9354 C   0  0  0  0  0  0  0  0  0  0  0  0
  147.8927  141.4971  155.7700 O   0  0  0  0  0  0  0  0  0  0  0  0
  148.8799  141.4770  156.7925 C   0  0  0  0  0  0  0  0  0  0  0  0
  150.2741  141.5205  156.1509 C   0  0  0  0  0  0  0  0  0  0  0  0
  151.3202  141.1374  157.0884 N   0  0  0  0  0  0  0  0  0  0  0  0
  152.0922  140.0218  157.0743 C   0  0  0  0  0  0  0  0  0  0  0  0
  151.9517  138.9661  156.0210 C   0  0  0  0  0  0  0  0  0  0  0  0
  152.0901  139.4795  154.7135 O   0  0  0  0  0  0  0  0  0  0  0  0
  152.9853  139.9214  158.0596 N   0  0  0  0  0  0  0  0  0  0  0  0
  152.7760  141.0821  158.7786 C   0  0  0  0  0  0  0  0  0  0  0  0
  153.4139  141.5691  159.9419 C   0  0  0  0  0  0  0  0  0  0  0  0
  153.0283  142.8039  160.5037 C   0  0  0  0  0  0  0  0  0  0  0  0
  152.0014  143.5676  159.9123 C   0  0  0  0  0  0  0  0  0  0  0  0
  151.3514  143.0998  158.7542 C   0  0  0  0  0  0  0  0  0  0  0  0
  151.7401  141.8665  158.1969 C   0  0  0  0  0  0  0  0  0  0  0  0
  146.4234  142.9136  157.1622 C   0  0  0  0  0  0  0  0  0  0  0  0
  145.2795  143.7320  157.2412 C   0  0  0  0  0  0  0  0  0  0  0  0
  142.1085  146.0394  157.1014 H   0  0  0  0  0  0  0  0  0  0  0  0
  143.8098  146.1796  157.5291 H   0  0  0  0  0  0  0  0  0  0  0  0
  142.8467  144.7989  158.1079 H   0  0  0  0  0  0  0  0  0  0  0  0
  144.2559  143.5296  153.9931 H   0  0  0  0  0  0  0  0  0  0  0  0
  146.2638  142.0944  153.8544 H   0  0  0  0  0  0  0  0  0  0  0  0
  148.7568  142.3372  157.4521 H   0  0  0  0  0  0  0  0  0  0  0  0
  148.7802  140.5730  157.3950 H   0  0  0  0  0  0  0  0  0  0  0  0
  150.3112  140.8449  155.2958 H   0  0  0  0  0  0  0  0  0  0  0  0
  150.4831  142.5161  155.7604 H   0  0  0  0  0  0  0  0  0  0  0  0
  152.6891  138.1802  156.1824 H   0  0  0  0  0  0  0  0  0  0  0  0
  150.9710  138.4973  156.1092 H   0  0  0  0  0  0  0  0  0  0  0  0
  152.6669  138.9105  154.2274 H   0  0  0  0  0  0  0  0  0  0  0  0
  154.2025  140.9924  160.4019 H   0  0  0  0  0  0  0  0  0  0  0  0
  153.5239  143.1671  161.3921 H   0  0  0  0  0  0  0  0  0  0  0  0
  151.7134  144.5135  160.3474 H   0  0  0  0  0  0  0  0  0  0  0  0
  150.5670  143.6841  158.2965 H   0  0  0  0  0  0  0  0  0  0  0  0
  147.0032  142.7659  158.0605 H   0  0  0  0  0  0  0  0  0  0  0  0
  145.0366  144.1707  158.1970 H   0  0  0  0  0  0  0  0  0  0  0  0
  1  2  1  0  0  0  0
  1 23  1  0  0  0  0
  1 24  1  0  0  0  0
  1 25  1  0  0  0  0
  2  3  1  0  0  0  0
  3 22  1  0  0  0  0
  3  4  2  0  0  0  0
  4  5  1  0  0  0  0
  4 26  1  0  0  0  0
  5  6  2  0  0  0  0
  5 27  1  0  0  0  0
  6  7  1  0  0  0  0
  6 21  1  0  0  0  0
  7  8  1  0  0  0  0
  8  9  1  0  0  0  0
  8 28  1  0  0  0  0
  8 29  1  0  0  0  0
  9 10  1  0  0  0  0
  9 30  1  0  0  0  0
  9 31  1  0  0  0  0
 10 20  1  0  0  0  0
 10 11  1  0  0  0  0
 11 12  1  0  0  0  0
 11 14  2  0  0  0  0
 12 13  1  0  0  0  0
 12 32  1  0  0  0  0
 12 33  1  0  0  0  0
 13 34  1  0  0  0  0
 14 15  1  0  0  0  0
 15 20  2  0  0  0  0
 15 16  1  0  0  0  0
 16 17  2  0  0  0  0
 16 35  1  0  0  0  0
 17 18  1  0  0  0  0
 17 36  1  0  0  0  0
 18 19  2  0  0  0  0
 18 37  1  0  0  0  0
 19 20  1  0  0  0  0
 19 38  1  0  0  0  0
 21 22  2  0  0  0  0
 21 39  1  0  0  0  0
 22 40  1  0  0  0  0
M  END
> <s_m_source_file>
AV-unprocessed.smi

> <i_m_source_file_index>
506

> <i_lp_mmshare_version>
43012

> <i_f3d_flags>
0

> <s_epik_input>
W0NIM11PYzFbY0hdW2NIXWMoW2NIXVtjSF0xKU9bQ0gyXVtDSDJdbihjKG4yKVtDSDJdW09IXSljKGMyMylbY0hdW2NIXVtjSF1bY0hdMw==

> <s_epik_cmdline>
J2VwaWtfcHl0aG9uJywgJy1waCcsICc3LjAnLCAnLXRuJywgJzgnLCAnLW1hJywgJzIwMCcsICctbWV0YWxfYmluZGluZycsICctaW1hZScsICc8aW5maWxlLm1hZT4nLCAnLW9tYWUnLCAnPG91dGZpbGUubWFlPic=

> <r_lp_tautomer_probability>
1

> <r_epik_Ionization_Penalty>
0.0483634

> <r_epik_Ionization_Penalty_Charging>
0

> <r_epik_Ionization_Penalty_Neutral>
0.0483634

> <r_epik_State_Penalty>
0.0411758

> <r_epik_Charging_Adjusted_Penalty>
0.0411758

> <i_epik_Tot_Q>
0

> <i_epik_Tot_abs_Q>
0

> <r_epik_Metal_State_Penalty>
4.26388e-05

> <b_epik_Metal_Only>
0

> <s_lp_Force_Field>
OPLS_2005

> <r_lp_Energy>
17.7354

> <b_lp_Chiralities_Consistent>
1

> <s_lp_Variant>
AV-unprocessed.smi:506-1

> <Gold.Version>
5.8.1

> <Gold.Id.Protein>
6NUR|6NUR_protein|mol2

> <Gold.PLP.Fitness>
43.6390

> <Gold.PLP.PLP>
-39.3027

> <Gold.PLP.part.hbond>
-2.0000

> <Gold.PLP.part.metal>
0.0000

> <Gold.PLP.part.buried>
-4.6960

> <Gold.PLP.part.nonpolar>
-32.3856

> <Gold.PLP.part.repulsive>
0.1298

> <Gold.PLP.ligand.clash>
0.0000

> <Gold.PLP.ligand.torsion>
0.6698

> <Gold.PLP.Chemscore.Hbond>
1.8640

> <Gold.PLP.Chemscore.CHOScore>
0.0000

> <Gold.PLP.Chemscore.Metal>
0.0000

> <Gold.Chemscore.Hbonds>
donor molecule, donor type, donor heavy atom, donor atom, acceptor molecule, acceptor atom, score
      P1  H  7989  7998       L1    13  0.86
      P1  H  7997  8009       L1    14  1.00

> <Gold.PLP.Chemscore.Internal.Correction>
0.0838

> <Gold.Rescore>
     Score         DG    S(hbond)    S(metal)    S(lipo)     H(rot)  DE(clash)    DE(int)     intcor
     14.37     -15.18       1.17        0.00     103.30       2.46       0.19       0.62       ----

> <Gold.Chemscore.Fitness>
14.3716

> <Gold.Chemscore.DG>
-15.1752

> <Gold.Chemscore.ZeroCoef>
-5.4800

> <Gold.Chemscore.Hbond>
1.1670

> <Gold.Chemscore.Metal>
0.0000

> <Gold.Chemscore.Lipo>
103.2955

> <Gold.Chemscore.Internal_Hbond>
0.0000

> <Gold.Chemscore.DEClash>
0.1850

> <Gold.Chemscore.DEInternal>
0.6186

> <Gold.Chemscore.Rot>
2.4562

> <Gold.Chemscore.Internal.Correction>
   9.000000E+99

> <Gold.Chemscore.Hbonds>
donor molecule, donor type, donor heavy atom, donor atom, acceptor molecule, acceptor atom, score
      P1  H  7989  7998       L1    13  0.38
      P1  H  7997  8009       L1    14  0.24

> <Gold.Chemscore.Hbond.Weighted>
-3.8976

> <Gold.Chemscore.Metal.Weighted>
-0.0000

> <Gold.Chemscore.Lipo.Weighted>
-12.0856

> <Gold.Chemscore.Internal_Hbond.Weighted>
0.0000

> <Gold.Chemscore.DEClash.Weighted>
0.1850

> <Gold.Chemscore.DEInternal.Weighted>
0.6186

> <Gold.Chemscore.Rot.Weighted>
6.2880

> <Gold.Chemscore.Internal.Correction.Weighted>
   9.000000E+99

> <Gold.Protein.RotatedTorsions>
[ 6907 6896 6895 6894 ] final  127.29 input  -60.11 | X-H torsion
[ 7974 7965 7964 7962 ] final  -87.96 input  175.53 | X-H torsion
[ 8008 7997 7996 7995 ] final  147.81 input   59.86 | X-H torsion
[ 10167 10162 10161 10158 ] final -140.85 input  -65.29 | X-H torsion
[ 10718 10713 10712 10709 ] final   55.97 input   66.30 | X-H torsion
[ 10763 10752 10751 10750 ] final  153.51 input  -60.55 | X-H torsion
[ 11005 11000 10999 10996 ] final  -80.15 input  -57.11 | X-H torsion

> <Gold.Protein.ActiveResidues>
 VAL166  LYS551  ARG553  GLY616  TRP617  ASP618  TYR619  PRO620  LYS621  CYS622 
 ASP623  PHE694  ASN695  SER759  ASP760  ASP761  ALA762  ILE779  LEU786  VAL792 
 PHE793  MET794  SER795  GLU796  ALA797  LYS798  CYS799  TRP800  GLU811  SER814 

> <Gold.Protein.RotatedAtoms>
  152.3825  133.6566  159.6172 H   0  0  0  0  0  0  0  0  0  0  0  0  # atno 6907 bound_to 6896
  150.7753  133.9089  159.3372 H   0  0  0  0  0  0  0  0  0  0  0  0  # atno 6908 bound_to 6896
  151.6892  135.0950  160.0282 H   0  0  0  0  0  0  0  0  0  0  0  0  # atno 6909 bound_to 6896
  145.4596  140.9561  143.1977 H   0  0  0  0  0  0  0  0  0  0  0  0  # atno 7974 bound_to 7965
  156.2812  140.2145  156.5597 H   0  0  0  0  0  0  0  0  0  0  0  0  # atno 8008 bound_to 7997
  154.7223  140.0502  157.0674 H   0  0  0  0  0  0  0  0  0  0  0  0  # atno 8009 bound_to 7997
  155.0462  140.3151  155.4710 H   0  0  0  0  0  0  0  0  0  0  0  0  # atno 8010 bound_to 7997
  139.8241  143.7534  152.2666 H   0  0  0  0  0  0  0  0  0  0  0  0  # atno 10167 bound_to 10162
  157.5391  130.8684  149.8796 H   0  0  0  0  0  0  0  0  0  0  0  0  # atno 10718 bound_to 10713
  154.1374  135.2823  155.3170 H   0  0  0  0  0  0  0  0  0  0  0  0  # atno 10763 bound_to 10752
  154.6312  135.5434  153.7686 H   0  0  0  0  0  0  0  0  0  0  0  0  # atno 10764 bound_to 10752
  153.0262  135.6463  154.1522 H   0  0  0  0  0  0  0  0  0  0  0  0  # atno 10765 bound_to 10752
  141.1668  133.7137  156.8229 H   0  0  0  0  0  0  0  0  0  0  0  0  # atno 11005 bound_to 11000
  144.8011  139.6139  143.7071 LP  0  0  0  0  0  0  0  0  0  0  0  0  # atno 17320 bound_to 7965
  146.2458  139.6096  142.9460 LP  0  0  0  0  0  0  0  0  0  0  0  0  # atno 17321 bound_to 7965
  139.7721  144.7473  151.0209 LP  0  0  0  0  0  0  0  0  0  0  0  0  # atno 17342 bound_to 10162
  140.7811  143.4633  151.0247 LP  0  0  0  0  0  0  0  0  0  0  0  0  # atno 17343 bound_to 10162
  156.0482  130.3723  150.1265 LP  0  0  0  0  0  0  0  0  0  0  0  0  # atno 17370 bound_to 10713
  156.9446  130.9755  151.3510 LP  0  0  0  0  0  0  0  0  0  0  0  0  # atno 17371 bound_to 10713
  140.2106  134.8830  157.3270 LP  0  0  0  0  0  0  0  0  0  0  0  0  # atno 17394 bound_to 11000
  140.2090  134.4161  155.7622 LP  0  0  0  0  0  0  0  0  0  0  0  0  # atno 17395 bound_to 11000

$$$$
