AV-unprocessed.smi:37|AV-procd|sdf|324|dock6
  -GOLD-   2262016153D 1   1.00000     0.00000
 Structure written by MMmdl.
 43 44  0  0  0  0  0  0  0  0  2 V2000
  148.3827  141.1532  153.8946 C   0  0  0  0  0  0  0  0  0  0  0  0
  146.8519  141.1473  154.0195 C   0  0  0  0  0  0  0  0  0  0  0  0
  146.3053  139.9589  154.8138 C   0  0  0  0  0  0  0  0  0  0  0  0
  145.0984  139.7773  154.9857 O   0  0  0  0  0  0  0  0  0  0  0  0
  147.2879  139.1741  155.2795 O   0  0  0  0  0  0  0  0  0  0  0  0
  146.9921  137.8511  155.6941 C   0  0  0  0  0  0  0  0  0  0  0  0
  148.1289  136.9148  155.2593 C   0  0  1  0  0  0  0  0  0  0  0  0
  149.2906  137.6443  154.8628 O   0  0  0  0  0  0  0  0  0  0  0  0
  150.4562  136.9753  155.2550 C   0  0  1  0  0  0  0  0  0  0  0  0
  151.1952  137.8108  156.2842 N   0  0  0  0  0  0  0  0  0  0  0  0
  151.2915  137.4137  157.6090 C   0  0  0  0  0  0  0  0  0  0  0  0
  151.9693  138.1487  158.5135 C   0  0  0  0  0  0  0  0  0  0  0  0
  152.0536  137.7297  159.7880 F   0  0  0  0  0  0  0  0  0  0  0  0
  152.6110  139.3941  158.0984 C   0  0  0  0  0  0  0  0  0  0  0  0
  153.2315  140.0585  158.9270 O   0  0  0  0  0  0  0  0  0  0  0  0
  152.4904  139.7685  156.7921 N   0  5  0  0  0  0  0  0  0  0  0  0
  151.8076  139.0262  155.8722 C   0  0  0  0  0  0  0  0  0  0  0  0
  151.6973  139.3545  154.6907 O   0  0  0  0  0  0  0  0  0  0  0  0
  150.0214  135.6347  155.8669 C   0  0  2  0  0  0  0  0  0  0  0  0
  149.9641  134.2425  154.4428 Br  0  0  0  0  0  0  0  0  0  0  0  0
  148.6084  135.9356  156.3363 C   0  0  1  0  0  0  0  0  0  0  0  0
  148.6355  136.5774  157.6067 O   0  0  0  0  0  0  0  0  0  0  0  0
  148.6132  135.8629  158.7437 C   0  0  0  0  0  0  0  0  0  0  0  0
  148.8748  134.6647  158.8492 O   0  0  0  0  0  0  0  0  0  0  0  0
  148.2561  136.7120  159.9625 C   0  0  0  0  0  0  0  0  0  0  0  0
  147.2464  136.0207  160.8896 C   0  0  0  0  0  0  0  0  0  0  0  0
  148.7162  142.0157  153.3175 H   0  0  0  0  0  0  0  0  0  0  0  0
  148.7454  140.2579  153.3883 H   0  0  0  0  0  0  0  0  0  0  0  0
  148.8613  141.2062  154.8731 H   0  0  0  0  0  0  0  0  0  0  0  0
  146.5197  142.0675  154.5006 H   0  0  0  0  0  0  0  0  0  0  0  0
  146.4038  141.1319  153.0257 H   0  0  0  0  0  0  0  0  0  0  0  0
  146.8480  137.8128  156.7744 H   0  0  0  0  0  0  0  0  0  0  0  0
  146.0583  137.5351  155.2270 H   0  0  0  0  0  0  0  0  0  0  0  0
  147.8027  136.3309  154.3976 H   0  0  0  0  0  0  0  0  0  0  0  0
  151.1464  136.8827  154.4149 H   0  0  0  0  0  0  0  0  0  0  0  0
  150.8310  136.4962  157.9406 H   0  0  0  0  0  0  0  0  0  0  0  0
  150.6941  135.2841  156.6501 H   0  0  0  0  0  0  0  0  0  0  0  0
  147.9804  135.0442  156.3746 H   0  0  0  0  0  0  0  0  0  0  0  0
  149.1701  136.9337  160.5140 H   0  0  0  0  0  0  0  0  0  0  0  0
  147.8547  137.6660  159.6191 H   0  0  0  0  0  0  0  0  0  0  0  0
  147.0751  136.6208  161.7831 H   0  0  0  0  0  0  0  0  0  0  0  0
  147.6061  135.0428  161.2117 H   0  0  0  0  0  0  0  0  0  0  0  0
  146.2821  135.8821  160.3987 H   0  0  0  0  0  0  0  0  0  0  0  0
  1  2  1  0  0  0  0
  1 27  1  0  0  0  0
  1 28  1  0  0  0  0
  1 29  1  0  0  0  0
  2  3  1  0  0  0  0
  2 30  1  0  0  0  0
  2 31  1  0  0  0  0
  3  4  2  0  0  0  0
  3  5  1  0  0  0  0
  5  6  1  0  0  0  0
  6  7  1  0  0  0  0
  6 32  1  0  0  0  0
  6 33  1  0  0  0  0
  7 21  1  0  0  0  0
  7  8  1  0  0  0  0
  7 34  1  0  0  0  0
  8  9  1  0  0  0  0
  9 10  1  0  0  0  0
  9 19  1  0  0  0  0
  9 35  1  0  0  0  0
 10 17  1  0  0  0  0
 10 11  1  0  0  0  0
 11 12  2  0  0  0  0
 11 36  1  0  0  0  0
 12 13  1  0  0  0  0
 12 14  1  0  0  0  0
 14 15  2  0  0  0  0
 14 16  1  0  0  0  0
 16 17  1  0  0  0  0
 17 18  2  0  0  0  0
 19 20  1  0  0  0  0
 19 21  1  0  0  0  0
 19 37  1  0  0  0  0
 21 22  1  0  0  0  0
 21 38  1  0  0  0  0
 22 23  1  0  0  0  0
 23 24  2  0  0  0  0
 23 25  1  0  0  0  0
 25 26  1  0  0  0  0
 25 39  1  0  0  0  0
 25 40  1  0  0  0  0
 26 41  1  0  0  0  0
 26 42  1  0  0  0  0
 26 43  1  0  0  0  0
M  CHG  1  16  -1
M  END
> <s_m_source_file>
AV-unprocessed.smi

> <i_m_source_file_index>
37

> <i_lp_mmshare_version>
43012

> <i_f3d_flags>
0

> <s_epik_input>
W0NIM11bQ0gyXUMoPU8pT1tDSDJdW0NAQEhdMU9bQ0BASF0objJbY0hdYyhGKWMoPU8pW25IXWMyPU8pW0NAQEhdKEJyKVtDQEhdMU9DKD1PKVtDSDJdW0NIM10=

> <s_epik_cmdline>
J2VwaWtfcHl0aG9uJywgJy1waCcsICc3LjAnLCAnLXRuJywgJzgnLCAnLW1hJywgJzIwMCcsICctbWV0YWxfYmluZGluZycsICctaW1hZScsICc8aW5maWxlLm1hZT4nLCAnLW9tYWUnLCAnPG91dGZpbGUubWFlPic=

> <r_epik_Ionization_Penalty>
1.08158

> <r_epik_Ionization_Penalty_Charging>
9.05154e-09

> <r_epik_Ionization_Penalty_Neutral>
1.08158

> <r_epik_State_Penalty>
1.13706

> <r_epik_Charging_Adjusted_Penalty>
1.13706

> <i_epik_Tot_Q>
-1

> <i_epik_Tot_abs_Q>
1

> <r_epik_Metal_State_Penalty>
0.00343535

> <b_epik_Metal_Only>
0

> <s_epik_Chemistry_Notes>
This compound has an ester and may undergo hydrolysis at high or low pH. This compound contains an acetal/aminal-like group ( X-CH(R)-Y where X, Y are N, S, or O) that may be acid/base labile, releasing an aldehyde.

> <s_lp_Force_Field>
OPLS_2005

> <r_lp_Energy>
30.833

> <b_lp_Chiralities_Consistent>
1

> <s_lp_Variant>
AV-unprocessed.smi:37-22

> <Gold.Version>
5.8.1

> <Gold.Id.Protein>
6NUR|6NUR_protein|mol2

> <Gold.PLP.Fitness>
36.8527

> <Gold.PLP.PLP>
-28.7369

> <Gold.PLP.part.hbond>
-3.9095

> <Gold.PLP.part.metal>
0.0000

> <Gold.PLP.part.buried>
-3.9375

> <Gold.PLP.part.nonpolar>
-21.2003

> <Gold.PLP.part.repulsive>
0.3220

> <Gold.PLP.ligand.clash>
0.0000

> <Gold.PLP.ligand.torsion>
2.0000

> <Gold.PLP.Chemscore.Hbond>
4.0000

> <Gold.PLP.Chemscore.CHOScore>
0.0000

> <Gold.PLP.Chemscore.Metal>
0.0000

> <Gold.Chemscore.Hbonds>
donor molecule, donor type, donor heavy atom, donor atom, acceptor molecule, acceptor atom, score
      P1  H  6896  6907       L1    24  1.00
      P1  H  7989  7998       L1    18  1.00
      P1  H  7997  8008       L1    16  1.90

> <Gold.PLP.Chemscore.Internal.Correction>
0.1157

> <Gold.Rescore>
     Score         DG    S(hbond)    S(metal)    S(lipo)     H(rot)  DE(clash)    DE(int)     intcor
      6.44     -10.93       2.51        0.00      46.35       3.27       0.03       4.47       ----

> <Gold.Chemscore.Fitness>
6.4409

> <Gold.Chemscore.DG>
-10.9349

> <Gold.Chemscore.ZeroCoef>
-5.4800

> <Gold.Chemscore.Hbond>
2.5135

> <Gold.Chemscore.Metal>
0.0000

> <Gold.Chemscore.Lipo>
46.3503

> <Gold.Chemscore.Internal_Hbond>
0.0000

> <Gold.Chemscore.DEClash>
0.0276

> <Gold.Chemscore.DEInternal>
4.4664

> <Gold.Chemscore.Rot>
3.2669

> <Gold.Chemscore.Internal.Correction>
   9.000000E+99

> <Gold.Chemscore.Hbonds>
donor molecule, donor type, donor heavy atom, donor atom, acceptor molecule, acceptor atom, score
      P1  H  6896  6907       L1    24  0.95
      P1  H  7989  7998       L1    18  0.97
      P1  H  7997  8008       L1    16  0.20

> <Gold.Chemscore.Hbond.Weighted>
-8.3952

> <Gold.Chemscore.Metal.Weighted>
-0.0000

> <Gold.Chemscore.Lipo.Weighted>
-5.4230

> <Gold.Chemscore.Internal_Hbond.Weighted>
0.0000

> <Gold.Chemscore.DEClash.Weighted>
0.0276

> <Gold.Chemscore.DEInternal.Weighted>
4.4664

> <Gold.Chemscore.Rot.Weighted>
8.3634

> <Gold.Chemscore.Internal.Correction.Weighted>
   9.000000E+99

> <Gold.Protein.RotatedTorsions>
[ 6907 6896 6895 6894 ] final -100.56 input  -60.11 | X-H torsion
[ 7974 7965 7964 7962 ] final   93.01 input  175.53 | X-H torsion
[ 8008 7997 7996 7995 ] final  -45.75 input   59.86 | X-H torsion
[ 10167 10162 10161 10158 ] final -152.15 input  -65.29 | X-H torsion
[ 10718 10713 10712 10709 ] final   29.13 input   66.30 | X-H torsion
[ 10763 10752 10751 10750 ] final  -44.04 input  -60.55 | X-H torsion
[ 11005 11000 10999 10996 ] final   55.64 input  -57.11 | X-H torsion

> <Gold.Protein.ActiveResidues>
 VAL166  LYS551  ARG553  GLY616  TRP617  ASP618  TYR619  PRO620  LYS621  CYS622 
 ASP623  PHE694  ASN695  SER759  ASP760  ASP761  ALA762  ILE779  LEU786  VAL792 
 PHE793  MET794  SER795  GLU796  ALA797  LYS798  CYS799  TRP800  GLU811  SER814 

> <Gold.Protein.RotatedAtoms>
  150.7120  134.0869  159.3917 H   0  0  0  0  0  0  0  0  0  0  0  0  # atno 6907 bound_to 6896
  151.8854  135.0435  160.0502 H   0  0  0  0  0  0  0  0  0  0  0  0  # atno 6908 bound_to 6896
  152.2534  133.5199  159.5375 H   0  0  0  0  0  0  0  0  0  0  0  0  # atno 6909 bound_to 6896
  145.4846  139.2277  143.2863 H   0  0  0  0  0  0  0  0  0  0  0  0  # atno 7974 bound_to 7965
  154.4003  140.1389  156.3898 H   0  0  0  0  0  0  0  0  0  0  0  0  # atno 8008 bound_to 7997
  155.7925  140.3478  155.5337 H   0  0  0  0  0  0  0  0  0  0  0  0  # atno 8009 bound_to 7997
  155.8565  140.0949  157.1631 H   0  0  0  0  0  0  0  0  0  0  0  0  # atno 8010 bound_to 7997
  139.7206  143.8963  152.2502 H   0  0  0  0  0  0  0  0  0  0  0  0  # atno 10167 bound_to 10162
  157.2425  130.7076  149.6365 H   0  0  0  0  0  0  0  0  0  0  0  0  # atno 10718 bound_to 10713
  154.0054  135.6688  153.4762 H   0  0  0  0  0  0  0  0  0  0  0  0  # atno 10763 bound_to 10752
  153.0644  135.5009  154.8162 H   0  0  0  0  0  0  0  0  0  0  0  0  # atno 10764 bound_to 10752
  154.7027  135.3082  154.9280 H   0  0  0  0  0  0  0  0  0  0  0  0  # atno 10765 bound_to 10752
  140.0591  134.5628  155.9173 H   0  0  0  0  0  0  0  0  0  0  0  0  # atno 11005 bound_to 11000
  146.2320  140.5636  142.8971 LP  0  0  0  0  0  0  0  0  0  0  0  0  # atno 17320 bound_to 7965
  144.7869  140.5954  143.6568 LP  0  0  0  0  0  0  0  0  0  0  0  0  # atno 17321 bound_to 7965
  139.8858  144.6993  150.8826 LP  0  0  0  0  0  0  0  0  0  0  0  0  # atno 17342 bound_to 10162
  140.7753  143.3625  151.1801 LP  0  0  0  0  0  0  0  0  0  0  0  0  # atno 17343 bound_to 10162
  155.9669  130.4453  150.5497 LP  0  0  0  0  0  0  0  0  0  0  0  0  # atno 17370 bound_to 10713
  157.3364  131.0709  151.1822 LP  0  0  0  0  0  0  0  0  0  0  0  0  # atno 17371 bound_to 10713
  141.1965  133.6592  156.5696 LP  0  0  0  0  0  0  0  0  0  0  0  0  # atno 17394 bound_to 11000
  140.3798  134.7533  157.4653 LP  0  0  0  0  0  0  0  0  0  0  0  0  # atno 17395 bound_to 11000

$$$$
