#       Name:                AV-unprocessed.smi:630
#       Creating user name   scv26
#       Creation time:       Fri Mar 27 00:04:47 2020


#       File generated by GOLD software.
#

@<TRIPOS>MOLECULE
AV-unprocessed.smi:630
    42    43     1
SMALL
NO_CHARGES


@<TRIPOS>ATOM
      1 ****         0.7678  -0.2693   3.0689 N.am           1 S1                 0.0000
      2 ****        -0.3594   0.0264   2.4160 C.2            1 S1                 0.0000
      3 ****        -1.0043   1.0446   2.6603 O.2            1 S1                 0.0000
      4 ****        -0.8325  -0.9692   1.3383 C.3            1 S1                 0.0000
      5 ****        -2.2805  -1.4400   1.6267 C.3            1 S1                 0.0000
      6 ****        -3.4112  -0.5862   1.0272 C.3            1 S1                 0.0000
      7 ****        -3.7756  -1.0141  -0.4029 C.3            1 S1                 0.0000
      8 ****        -2.7448  -0.6183  -1.4687 C.3            1 S1                 0.0000
      9 ****        -1.3162  -1.1375  -1.2251 C.3            1 S1                 0.0000
     10 ****        -0.5817  -0.3963  -0.0867 C.3            1 S1                 0.0000
     11 ****         0.8598  -0.4186  -0.3567 N.am           1 S1                 0.0000
     12 ****         1.6371   0.6179  -0.7047 C.2            1 S1                 0.0000
     13 ****         1.1496   1.7415  -0.8466 O.2            1 S1                 0.0000
     14 ****         2.9389   0.2853  -0.8619 N.pl3          1 S1                -1.0000
     15 ****         3.8378   1.2276  -1.1899 C.2            1 S1                 0.0000
     16 ****         4.2866   1.4059  -2.4378 N.2            1 S1                 0.0000
     17 ****         5.2213   2.4370  -2.5495 C.2            1 S1                 0.0000
     18 ****         5.4977   3.0519  -1.3572 C.2            1 S1                 0.0000
     19 ****         4.5858   2.3509  -0.0509 S.3            1 S1                 0.0000
     20 ****         1.1286   0.3715   3.7604 H              1 S1                 0.0000
     21 ****         1.2709  -1.1162   2.8472 H              1 S1                 0.0000
     22 ****        -0.2161  -1.8644   1.4442 H              1 S1                 0.0000
     23 ****        -2.3943  -2.4725   1.2941 H              1 S1                 0.0000
     24 ****        -2.4285  -1.4904   2.7069 H              1 S1                 0.0000
     25 ****        -4.2982  -0.7203   1.6471 H              1 S1                 0.0000
     26 ****        -3.1765   0.4776   1.0719 H              1 S1                 0.0000
     27 ****        -3.9427  -2.0914  -0.4356 H              1 S1                 0.0000
     28 ****        -4.7310  -0.5607  -0.6687 H              1 S1                 0.0000
     29 ****        -3.0914  -0.9988  -2.4301 H              1 S1                 0.0000
     30 ****        -2.7264   0.4672  -1.5745 H              1 S1                 0.0000
     31 ****        -1.3136  -2.2149  -1.0556 H              1 S1                 0.0000
     32 ****        -0.7661  -0.9854  -2.1553 H              1 S1                 0.0000
     33 ****        -0.9271   0.6391  -0.1024 H              1 S1                 0.0000
     34 ****         1.3174  -1.3135  -0.2636 H              1 S1                 0.0000
     35 ****         5.6409   2.6641  -3.5181 H              1 S1                 0.0000
     36 ****         6.1775   3.8687  -1.1677 H              1 S1                 0.0000
     37 ****        -0.6884   1.6794   3.3655 LP             1 S1                 0.0000
     38 ****        -1.8446   1.2378   2.1538 LP             1 S1                 0.0000
     39 ****         0.1703   1.8835  -0.7022 LP             1 S1                 0.0000
     40 ****         1.7335   2.5107  -1.1061 LP             1 S1                 0.0000
     41 ****         3.2319  -0.6622  -0.7339 LP             1 S1                 0.0000
     42 ****         3.9823   0.8545  -3.2145 LP             1 S1                 0.0000
@<TRIPOS>BOND
    1    1    2 am    
    2    1   20 1     
    3    1   21 1     
    4    2    3 2     
    5    2    4 1     
    6    4   10 1     
    7    4    5 1     
    8    4   22 1     
    9    5    6 1     
   10    5   23 1     
   11    5   24 1     
   12    6    7 1     
   13    6   25 1     
   14    6   26 1     
   15    7    8 1     
   16    7   27 1     
   17    7   28 1     
   18    8    9 1     
   19    8   29 1     
   20    8   30 1     
   21    9   10 1     
   22    9   31 1     
   23    9   32 1     
   24   10   11 1     
   25   10   33 1     
   26   11   12 am    
   27   11   34 1     
   28   12   13 2     
   29   12   14 1     
   30   14   15 1     
   31   15   19 1     
   32   15   16 2     
   33   16   17 1     
   34   17   18 2     
   35   17   35 1     
   36   18   19 1     
   37   18   36 1     
   38    3   37 1     
   39    3   38 1     
   40   13   39 1     
   41   13   40 1     
   42   14   41 1     
   43   16   42 1     
@<TRIPOS>SUBSTRUCTURE
      1 S1             1
@<TRIPOS>SET
LONE_PAIRS      STATIC     ATOMS    <user>   **** ""
6 37 38 39 40 41 42
DONOR_HYDROGENS      STATIC     ATOMS    <user>   **** ""
3 20 21 34
ATOM$BLUE        STATIC     ATOMS    COLORGROUP SYSTEM
6 37 38 39 40 41 42
ATOM$RED        STATIC     ATOMS    COLORGROUP SYSTEM
3 20 21 34
