AV-unprocessed.smi:849|AV-procd|sdf|3943|dock10
  -GOLD-   22720 1413D 1   1.00000     0.00000
 Structure written by MMmdl.
 36 38  0  0  0  0  0  0  0  0  1 V2000
  153.4816  139.4805  154.8104 O   0  0  0  0  0  0  0  0  0  0  0  0
  152.5135  139.0379  155.7378 C   0  0  0  0  0  0  0  0  0  0  0  0
  151.2261  139.8078  155.6503 C   0  0  0  0  0  0  0  0  0  0  0  0
  150.6045  139.9704  154.4810 N   0  0  0  0  0  0  0  0  0  0  0  0
  149.4809  140.6925  154.8260 C   0  0  0  0  0  0  0  0  0  0  0  0
  148.4204  141.1761  154.0265 C   0  0  0  0  0  0  0  0  0  0  0  0
  147.3563  141.8941  154.6103 C   0  0  0  0  0  0  0  0  0  0  0  0
  147.3370  142.1363  155.9988 C   0  0  0  0  0  0  0  0  0  0  0  0
  148.3844  141.6629  156.8124 C   0  0  0  0  0  0  0  0  0  0  0  0
  149.4475  140.9501  156.2248 C   0  0  0  0  0  0  0  0  0  0  0  0
  150.6076  140.3644  156.7273 N   0  0  0  0  0  0  0  0  0  0  0  0
  151.0186  140.3607  158.1296 C   0  0  0  0  0  0  0  0  0  0  0  0
  152.3475  141.1068  158.3982 C   0  0  2  0  0  0  0  0  0  0  0  0
  153.3935  140.1733  158.5891 O   0  0  0  0  0  0  0  0  0  0  0  0
  152.2442  142.1286  159.5310 C   0  0  0  0  0  0  0  0  0  0  0  0
  152.5055  141.7348  160.8647 C   0  0  0  0  0  0  0  0  0  0  0  0
  152.4083  142.6610  161.9200 C   0  0  0  0  0  0  0  0  0  0  0  0
  152.0455  143.9933  161.6546 C   0  0  0  0  0  0  0  0  0  0  0  0
  151.7761  144.3956  160.3338 C   0  0  0  0  0  0  0  0  0  0  0  0
  151.8718  143.4725  159.2731 C   0  0  0  0  0  0  0  0  0  0  0  0
  151.5080  144.0188  157.6734 Cl  0  0  0  0  0  0  0  0  0  0  0  0
  153.0614  139.6039  153.9735 H   0  0  0  0  0  0  0  0  0  0  0  0
  152.3025  137.9858  155.5473 H   0  0  0  0  0  0  0  0  0  0  0  0
  152.9536  139.0952  156.7295 H   0  0  0  0  0  0  0  0  0  0  0  0
  148.4254  140.9925  152.9624 H   0  0  0  0  0  0  0  0  0  0  0  0
  146.5504  142.2588  153.9903 H   0  0  0  0  0  0  0  0  0  0  0  0
  146.5182  142.6862  156.4394 H   0  0  0  0  0  0  0  0  0  0  0  0
  148.3726  141.8494  157.8759 H   0  0  0  0  0  0  0  0  0  0  0  0
  150.2225  140.8292  158.7095 H   0  0  0  0  0  0  0  0  0  0  0  0
  151.0651  139.3371  158.4972 H   0  0  0  0  0  0  0  0  0  0  0  0
  152.6219  141.6400  157.4883 H   0  0  0  0  0  0  0  0  0  0  0  0
  153.3378  139.8372  159.4706 H   0  0  0  0  0  0  0  0  0  0  0  0
  152.7729  140.7132  161.0924 H   0  0  0  0  0  0  0  0  0  0  0  0
  152.6074  142.3467  162.9340 H   0  0  0  0  0  0  0  0  0  0  0  0
  151.9684  144.7046  162.4638 H   0  0  0  0  0  0  0  0  0  0  0  0
  151.4908  145.4181  160.1346 H   0  0  0  0  0  0  0  0  0  0  0  0
  1  2  1  0  0  0  0
  1 22  1  0  0  0  0
  2  3  1  0  0  0  0
  2 23  1  0  0  0  0
  2 24  1  0  0  0  0
  3 11  1  0  0  0  0
  3  4  2  0  0  0  0
  4  5  1  0  0  0  0
  5 10  2  0  0  0  0
  5  6  1  0  0  0  0
  6  7  2  0  0  0  0
  6 25  1  0  0  0  0
  7  8  1  0  0  0  0
  7 26  1  0  0  0  0
  8  9  2  0  0  0  0
  8 27  1  0  0  0  0
  9 10  1  0  0  0  0
  9 28  1  0  0  0  0
 10 11  1  0  0  0  0
 11 12  1  0  0  0  0
 12 13  1  0  0  0  0
 12 29  1  0  0  0  0
 12 30  1  0  0  0  0
 13 14  1  0  0  0  0
 13 15  1  0  0  0  0
 13 31  1  0  0  0  0
 14 32  1  0  0  0  0
 15 20  1  0  0  0  0
 15 16  2  0  0  0  0
 16 17  1  0  0  0  0
 16 33  1  0  0  0  0
 17 18  2  0  0  0  0
 17 34  1  0  0  0  0
 18 19  1  0  0  0  0
 18 35  1  0  0  0  0
 19 20  2  0  0  0  0
 19 36  1  0  0  0  0
 20 21  1  0  0  0  0
M  END
> <s_m_source_file>
AV-unprocessed.smi

> <i_m_source_file_index>
849

> <i_lp_mmshare_version>
43012

> <i_f3d_flags>
0

> <s_epik_input>
W2NIXTFbY0hdW2NIXVtjSF1jKGMxMiluKGMobjIpW0NIMl1bT0hdKVtDSDJdW0NASF0oW09IXSljM1tjSF1bY0hdW2NIXVtjSF1jM0Ns

> <s_epik_cmdline>
J2VwaWtfcHl0aG9uJywgJy1waCcsICc3LjAnLCAnLXRuJywgJzgnLCAnLW1hJywgJzIwMCcsICctbWV0YWxfYmluZGluZycsICctaW1hZScsICc8aW5maWxlLm1hZT4nLCAnLW9tYWUnLCAnPG91dGZpbGUubWFlPic=

> <r_epik_Ionization_Penalty>
0.0634742

> <r_epik_Ionization_Penalty_Charging>
0

> <r_epik_Ionization_Penalty_Neutral>
0.0634742

> <r_epik_State_Penalty>
0.0551572

> <r_epik_Charging_Adjusted_Penalty>
0.0551572

> <i_epik_Tot_Q>
0

> <i_epik_Tot_abs_Q>
0

> <r_epik_Metal_State_Penalty>
5.78034e-05

> <b_epik_Metal_Only>
0

> <s_lp_Force_Field>
OPLS_2005

> <r_lp_Energy>
13.6996

> <b_lp_Chiralities_Consistent>
1

> <s_lp_Variant>
AV-unprocessed.smi:849-1

> <Gold.Version>
5.8.1

> <Gold.Id.Protein>
6NUR|6NUR_protein|mol2

> <Gold.PLP.Fitness>
56.1675

> <Gold.PLP.PLP>
-50.7227

> <Gold.PLP.part.hbond>
-3.5272

> <Gold.PLP.part.metal>
0.0000

> <Gold.PLP.part.buried>
-2.9427

> <Gold.PLP.part.nonpolar>
-45.1238

> <Gold.PLP.part.repulsive>
0.1005

> <Gold.PLP.ligand.clash>
0.0000

> <Gold.PLP.ligand.torsion>
1.4669

> <Gold.PLP.Chemscore.Hbond>
2.7680

> <Gold.PLP.Chemscore.CHOScore>
0.0000

> <Gold.PLP.Chemscore.Metal>
0.0000

> <Gold.Chemscore.Hbonds>
donor molecule, donor type, donor heavy atom, donor atom, acceptor molecule, acceptor atom, score
      P1  H  7989  7998       L1     4  1.00
      P1  H  7997  8009       L1    14  0.77
      P1  H  7997  8010       L1     1  1.00

> <Gold.PLP.Chemscore.Internal.Correction>
0.0745

> <Gold.Rescore>
     Score         DG    S(hbond)    S(metal)    S(lipo)     H(rot)  DE(clash)    DE(int)     intcor
     19.73     -21.72       2.25        0.00     131.96       2.62       0.82       1.17       ----

> <Gold.Chemscore.Fitness>
19.7334

> <Gold.Chemscore.DG>
-21.7214

> <Gold.Chemscore.ZeroCoef>
-5.4800

> <Gold.Chemscore.Hbond>
2.2506

> <Gold.Chemscore.Metal>
0.0000

> <Gold.Chemscore.Lipo>
131.9649

> <Gold.Chemscore.Internal_Hbond>
0.0000

> <Gold.Chemscore.DEClash>
0.8177

> <Gold.Chemscore.DEInternal>
1.1702

> <Gold.Chemscore.Rot>
2.6232

> <Gold.Chemscore.Internal.Correction>
   9.000000E+99

> <Gold.Chemscore.Hbonds>
donor molecule, donor type, donor heavy atom, donor atom, acceptor molecule, acceptor atom, score
      P1  H  7989  7998       L1     4  0.51
      P1  H  7997  8009       L1    14  0.71
      P1  H  7997  8010       L1     1  0.77

> <Gold.Chemscore.Hbond.Weighted>
-7.5169

> <Gold.Chemscore.Metal.Weighted>
-0.0000

> <Gold.Chemscore.Lipo.Weighted>
-15.4399

> <Gold.Chemscore.Internal_Hbond.Weighted>
0.0000

> <Gold.Chemscore.DEClash.Weighted>
0.8177

> <Gold.Chemscore.DEInternal.Weighted>
1.1702

> <Gold.Chemscore.Rot.Weighted>
6.7154

> <Gold.Chemscore.Internal.Correction.Weighted>
   9.000000E+99

> <Gold.Protein.RotatedTorsions>
[ 6907 6896 6895 6894 ] final -155.85 input  -60.11 | X-H torsion
[ 7974 7965 7964 7962 ] final -151.62 input  175.53 | X-H torsion
[ 8008 7997 7996 7995 ] final  128.89 input   59.86 | X-H torsion
[ 10167 10162 10161 10158 ] final  152.93 input  -65.29 | X-H torsion
[ 10718 10713 10712 10709 ] final  173.10 input   66.30 | X-H torsion
[ 10763 10752 10751 10750 ] final   71.76 input  -60.55 | X-H torsion
[ 11005 11000 10999 10996 ] final  141.72 input  -57.11 | X-H torsion

> <Gold.Protein.ActiveResidues>
 VAL166  LYS551  ARG553  GLY616  TRP617  ASP618  TYR619  PRO620  LYS621  CYS622 
 ASP623  PHE694  ASN695  SER759  ASP760  ASP761  ALA762  ILE779  LEU786  VAL792 
 PHE793  MET794  SER795  GLU796  ALA797  LYS798  CYS799  TRP800  GLU811  SER814 

> <Gold.Protein.RotatedAtoms>
  151.2787  133.4220  159.2625 H   0  0  0  0  0  0  0  0  0  0  0  0  # atno 6907 bound_to 6896
  151.0380  134.9587  159.8157 H   0  0  0  0  0  0  0  0  0  0  0  0  # atno 6908 bound_to 6896
  152.5359  134.2746  159.9037 H   0  0  0  0  0  0  0  0  0  0  0  0  # atno 6909 bound_to 6896
  144.7840  140.4773  143.5819 H   0  0  0  0  0  0  0  0  0  0  0  0  # atno 7974 bound_to 7965
  156.2925  140.2634  156.2509 H   0  0  0  0  0  0  0  0  0  0  0  0  # atno 8008 bound_to 7997
  154.9884  140.0389  157.2327 H   0  0  0  0  0  0  0  0  0  0  0  0  # atno 8009 bound_to 7997
  154.7709  140.2778  155.6144 H   0  0  0  0  0  0  0  0  0  0  0  0  # atno 8010 bound_to 7997
  139.4830  144.5316  151.7713 H   0  0  0  0  0  0  0  0  0  0  0  0  # atno 10167 bound_to 10162
  156.9692  131.0085  151.2909 H   0  0  0  0  0  0  0  0  0  0  0  0  # atno 10718 bound_to 10713
  153.0418  135.5125  154.7642 H   0  0  0  0  0  0  0  0  0  0  0  0  # atno 10763 bound_to 10752
  154.6574  135.2933  154.9913 H   0  0  0  0  0  0  0  0  0  0  0  0  # atno 10764 bound_to 10752
  154.0776  135.6668  153.4885 H   0  0  0  0  0  0  0  0  0  0  0  0  # atno 10765 bound_to 10752
  140.0422  134.9299  157.0865 H   0  0  0  0  0  0  0  0  0  0  0  0  # atno 11005 bound_to 11000
  145.5973  139.1500  143.3149 LP  0  0  0  0  0  0  0  0  0  0  0  0  # atno 17320 bound_to 7965
  146.2062  140.6096  142.9080 LP  0  0  0  0  0  0  0  0  0  0  0  0  # atno 17321 bound_to 7965
  140.4843  144.1403  150.5938 LP  0  0  0  0  0  0  0  0  0  0  0  0  # atno 17342 bound_to 10162
  140.4242  143.2597  151.9677 LP  0  0  0  0  0  0  0  0  0  0  0  0  # atno 17343 bound_to 10162
  157.5604  130.8242  149.8258 LP  0  0  0  0  0  0  0  0  0  0  0  0  # atno 17370 bound_to 10713
  156.0289  130.3770  150.1742 LP  0  0  0  0  0  0  0  0  0  0  0  0  # atno 17371 bound_to 10713
  140.4050  134.2042  155.7163 LP  0  0  0  0  0  0  0  0  0  0  0  0  # atno 17394 bound_to 11000
  141.1889  133.8250  157.0977 LP  0  0  0  0  0  0  0  0  0  0  0  0  # atno 17395 bound_to 11000

$$$$
