#       Name:                AV-unprocessed.smi:1802
#       Creating user name   scv26
#       Creation time:       Fri Mar 27 08:53:16 2020


#       File generated by GOLD software.
#

@<TRIPOS>MOLECULE
AV-unprocessed.smi:1802
    45    46     1
SMALL
NO_CHARGES


@<TRIPOS>ATOM
      1 ****        -1.7163   3.8347  -2.3858 C.3            1 S1                 0.0000
      2 ****        -1.9557   2.9735  -1.1377 C.3            1 S1                 0.0000
      3 ****        -3.3909   3.1370  -0.6096 C.3            1 S1                 0.0000
      4 ****        -3.6104   2.2455   0.6189 C.3            1 S1                 0.0000
      5 ****        -3.2669   0.7810   0.3040 C.3            1 S1                 0.0000
      6 ****        -1.8733   0.6556  -0.1954 N.4            1 S1                 1.0000
      7 ****        -1.4630  -0.7603  -0.3723 C.3            1 S1                 0.0000
      8 ****         0.0616  -0.9422  -0.2819 C.3            1 S1                 0.0000
      9 ****         0.4767  -2.4213  -0.3522 C.3            1 S1                 0.0000
     10 ****         1.9202  -2.5839  -0.2191 N.am           1 S1                 0.0000
     11 ****         2.5877  -2.5624   0.9439 C.2            1 S1                 0.0000
     12 ****         2.0413  -2.3824   2.0327 O.2            1 S1                 0.0000
     13 ****         3.9045  -2.7607   0.7568 N.am           1 S1                 0.0000
     14 ****         4.9332  -2.8118   1.7349 C.2            1 S1                 0.0000
     15 ****         4.7202  -2.6355   3.0485 N.2            1 S1                 0.0000
     16 ****         5.8944  -2.7361   3.7836 N.2            1 S1                 0.0000
     17 ****         6.9455  -2.9833   2.9969 C.2            1 S1                 0.0000
     18 ****         6.6036  -3.1162   1.2803 S.3            1 S1                 0.0000
     19 ****        -1.6523   1.4862  -1.4097 C.3            1 S1                 0.0000
     20 ****        -2.3720   3.5384  -3.2053 H              1 S1                 0.0000
     21 ****        -0.6867   3.7449  -2.7335 H              1 S1                 0.0000
     22 ****        -1.9005   4.8887  -2.1762 H              1 S1                 0.0000
     23 ****        -1.2693   3.3207  -0.3639 H              1 S1                 0.0000
     24 ****        -3.5829   4.1787  -0.3507 H              1 S1                 0.0000
     25 ****        -4.1081   2.8718  -1.3877 H              1 S1                 0.0000
     26 ****        -2.9910   2.5982   1.4447 H              1 S1                 0.0000
     27 ****        -4.6452   2.3224   0.9541 H              1 S1                 0.0000
     28 ****        -3.3916   0.1848   1.2089 H              1 S1                 0.0000
     29 ****        -3.9594   0.3814  -0.4388 H              1 S1                 0.0000
     30 ****        -1.9170  -1.3643   0.4147 H              1 S1                 0.0000
     31 ****        -1.8481  -1.1478  -1.3168 H              1 S1                 0.0000
     32 ****         0.5600  -0.3977  -1.0837 H              1 S1                 0.0000
     33 ****         0.4158  -0.5066   0.6535 H              1 S1                 0.0000
     34 ****        -0.0331  -3.0000   0.4201 H              1 S1                 0.0000
     35 ****         0.1733  -2.8476  -1.3086 H              1 S1                 0.0000
     36 ****         2.4438  -2.7371  -1.0688 H              1 S1                 0.0000
     37 ****         4.2072  -2.8982  -0.1962 H              1 S1                 0.0000
     38 ****         7.9288  -3.0880   3.4311 H              1 S1                 0.0000
     39 ****        -2.2802   1.1153  -2.2220 H              1 S1                 0.0000
     40 ****        -0.6196   1.3910  -1.7438 H              1 S1                 0.0000
     41 ****        -1.2826   1.0332   0.5319 H              1 S1                 0.0000
     42 ****         1.0521  -2.2429   2.0788 LP             1 S1                 0.0000
     43 ****         2.5867  -2.3757   2.8708 LP             1 S1                 0.0000
     44 ****         3.8227  -2.4534   3.4501 LP             1 S1                 0.0000
     45 ****         5.9464  -2.6360   4.7772 LP             1 S1                 0.0000
@<TRIPOS>BOND
    1    1    2 1     
    2    1   20 1     
    3    1   21 1     
    4    1   22 1     
    5    2   19 1     
    6    2    3 1     
    7    2   23 1     
    8    3    4 1     
    9    3   24 1     
   10    3   25 1     
   11    4    5 1     
   12    4   26 1     
   13    4   27 1     
   14    5    6 1     
   15    5   28 1     
   16    5   29 1     
   17    6    7 1     
   18    6   19 1     
   19    6   41 1     
   20    7    8 1     
   21    7   30 1     
   22    7   31 1     
   23    8    9 1     
   24    8   32 1     
   25    8   33 1     
   26    9   10 1     
   27    9   34 1     
   28    9   35 1     
   29   10   11 am    
   30   10   36 1     
   31   11   12 2     
   32   11   13 am    
   33   13   14 1     
   34   13   37 1     
   35   14   18 1     
   36   14   15 2     
   37   15   16 1     
   38   16   17 2     
   39   17   18 1     
   40   17   38 1     
   41   19   39 1     
   42   19   40 1     
   43   12   42 1     
   44   12   43 1     
   45   15   44 1     
   46   16   45 1     
@<TRIPOS>SUBSTRUCTURE
      1 S1             1
@<TRIPOS>SET
LONE_PAIRS      STATIC     ATOMS    <user>   **** ""
4 42 43 44 45
DONOR_HYDROGENS      STATIC     ATOMS    <user>   **** ""
3 41 36 37
ATOM$BLUE        STATIC     ATOMS    COLORGROUP SYSTEM
4 42 43 44 45
ATOM$RED        STATIC     ATOMS    COLORGROUP SYSTEM
3 41 36 37
