AV-unprocessed.smi:2146|AV-procd|sdf|8739|dock3
  -GOLD-   2272011513D 1   1.00000     0.00000
 Structure written by MMmdl.
 44 45  0  0  0  0  0  0  0  0  1 V2000
  146.0183  143.4954  153.6179 C   0  0  0  0  0  0  0  0  0  0  0  0
  145.3640  142.6510  154.7422 C   0  0  1  0  0  0  0  0  0  0  0  0
  146.2109  142.7773  156.0414 C   0  0  0  0  0  0  0  0  0  0  0  0
  147.6216  142.4529  155.8420 N   0  0  0  0  0  0  0  0  0  0  0  0
  148.2979  141.4835  156.4778 C   0  0  0  0  0  0  0  0  0  0  0  0
  147.7802  140.7254  157.2989 O   0  0  0  0  0  0  0  0  0  0  0  0
  149.7873  141.3647  156.1260 C   0  0  0  0  0  0  0  0  0  0  0  0
  150.6623  141.4724  157.3048 N   0  0  0  0  0  0  0  0  0  0  0  0
  150.8177  142.7580  157.8588 C   0  0  0  0  0  0  0  0  0  0  0  0
  151.5787  143.0035  158.9420 C   0  0  0  0  0  0  0  0  0  0  0  0
  151.6674  144.3924  159.5545 C   0  0  0  0  0  0  0  0  0  0  0  0
  152.2982  144.3617  160.7286 F   0  0  0  0  0  0  0  0  0  0  0  0
  152.3417  145.2040  158.7412 F   0  0  0  0  0  0  0  0  0  0  0  0
  150.4536  144.9112  159.7445 F   0  0  0  0  0  0  0  0  0  0  0  0
  152.2271  141.8566  159.5472 C   0  0  0  0  0  0  0  0  0  0  0  0
  152.0777  140.6178  159.0383 C   0  0  0  0  0  0  0  0  0  0  0  0
  151.2565  140.3695  157.8511 C   0  0  0  0  0  0  0  0  0  0  0  0
  151.1102  139.2412  157.3809 O   0  0  0  0  0  0  0  0  0  0  0  0
  143.9338  142.9826  154.9473 N   0  0  0  0  0  0  0  0  0  0  0  0
  143.3046  142.1577  155.9858 C   0  0  0  0  0  0  0  0  0  0  0  0
  141.8270  142.5153  156.2216 C   0  0  0  0  0  0  0  0  0  0  0  0
  141.7149  143.8909  156.5578 O   0  0  0  0  0  0  0  0  0  0  0  0
  142.2387  144.7306  155.5387 C   0  0  0  0  0  0  0  0  0  0  0  0
  143.7200  144.3917  155.2977 C   0  0  0  0  0  0  0  0  0  0  0  0
  147.0694  143.2503  153.4723 H   0  0  0  0  0  0  0  0  0  0  0  0
  145.9570  144.5613  153.8391 H   0  0  0  0  0  0  0  0  0  0  0  0
  145.5591  143.3250  152.6455 H   0  0  0  0  0  0  0  0  0  0  0  0
  145.4237  141.6080  154.4267 H   0  0  0  0  0  0  0  0  0  0  0  0
  146.0866  143.7712  156.4744 H   0  0  0  0  0  0  0  0  0  0  0  0
  145.8740  142.0710  156.7980 H   0  0  0  0  0  0  0  0  0  0  0  0
  148.1273  143.0236  155.1800 H   0  0  0  0  0  0  0  0  0  0  0  0
  149.9450  140.4249  155.5947 H   0  0  0  0  0  0  0  0  0  0  0  0
  150.0498  142.1442  155.4083 H   0  0  0  0  0  0  0  0  0  0  0  0
  150.2619  143.5334  157.3510 H   0  0  0  0  0  0  0  0  0  0  0  0
  152.8451  141.9922  160.4224 H   0  0  0  0  0  0  0  0  0  0  0  0
  152.5752  139.7863  159.5156 H   0  0  0  0  0  0  0  0  0  0  0  0
  143.3334  141.1049  155.7116 H   0  0  0  0  0  0  0  0  0  0  0  0
  143.8553  142.2576  156.9224 H   0  0  0  0  0  0  0  0  0  0  0  0
  141.2307  142.2990  155.3338 H   0  0  0  0  0  0  0  0  0  0  0  0
  141.4175  141.9163  157.0352 H   0  0  0  0  0  0  0  0  0  0  0  0
  141.6598  144.6084  154.6219 H   0  0  0  0  0  0  0  0  0  0  0  0
  142.1338  145.7709  155.8466 H   0  0  0  0  0  0  0  0  0  0  0  0
  144.2987  144.6440  156.1875 H   0  0  0  0  0  0  0  0  0  0  0  0
  144.0651  145.0440  154.4979 H   0  0  0  0  0  0  0  0  0  0  0  0
  1  2  1  0  0  0  0
  1 25  1  0  0  0  0
  1 26  1  0  0  0  0
  1 27  1  0  0  0  0
  2  3  1  0  0  0  0
  2 19  1  0  0  0  0
  2 28  1  0  0  0  0
  3  4  1  0  0  0  0
  3 29  1  0  0  0  0
  3 30  1  0  0  0  0
  4  5  1  0  0  0  0
  4 31  1  0  0  0  0
  5  6  2  0  0  0  0
  5  7  1  0  0  0  0
  7  8  1  0  0  0  0
  7 32  1  0  0  0  0
  7 33  1  0  0  0  0
  8 17  1  0  0  0  0
  8  9  1  0  0  0  0
  9 10  2  0  0  0  0
  9 34  1  0  0  0  0
 10 11  1  0  0  0  0
 10 15  1  0  0  0  0
 11 12  1  0  0  0  0
 11 13  1  0  0  0  0
 11 14  1  0  0  0  0
 15 16  2  0  0  0  0
 15 35  1  0  0  0  0
 16 17  1  0  0  0  0
 16 36  1  0  0  0  0
 17 18  2  0  0  0  0
 19 24  1  0  0  0  0
 19 20  1  0  0  0  0
 20 21  1  0  0  0  0
 20 37  1  0  0  0  0
 20 38  1  0  0  0  0
 21 22  1  0  0  0  0
 21 39  1  0  0  0  0
 21 40  1  0  0  0  0
 22 23  1  0  0  0  0
 23 24  1  0  0  0  0
 23 41  1  0  0  0  0
 23 42  1  0  0  0  0
 24 43  1  0  0  0  0
 24 44  1  0  0  0  0
M  END
> <s_m_source_file>
AV-unprocessed.smi

> <i_m_source_file_index>
2146

> <i_lp_mmshare_version>
43012

> <i_f3d_flags>
0

> <s_epik_input>
W0NIMl0xW0NIMl1PW0NIMl1bQ0gyXU4xW0NASF0oW0NIM10pW0NIMl1bTkhdQyg9TylbQ0gyXW4yW2NIXWMoQyhGKShGKUYpW2NIXVtjSF1jMj1P

> <s_epik_cmdline>
J2VwaWtfcHl0aG9uJywgJy1waCcsICc3LjAnLCAnLXRuJywgJzgnLCAnLW1hJywgJzIwMCcsICctbWV0YWxfYmluZGluZycsICctaW1hZScsICc8aW5maWxlLm1hZT4nLCAnLW9tYWUnLCAnPG91dGZpbGUubWFlPic=

> <r_lp_tautomer_probability>
1

> <r_epik_Ionization_Penalty>
0.237382

> <r_epik_Ionization_Penalty_Charging>
1.80451e-08

> <r_epik_Ionization_Penalty_Neutral>
0.237382

> <r_epik_State_Penalty>
0.228245

> <r_epik_Charging_Adjusted_Penalty>
0.228245

> <i_epik_Tot_Q>
0

> <i_epik_Tot_abs_Q>
0

> <r_epik_Metal_State_Penalty>
0.22822

> <b_epik_Metal_Only>
0

> <s_lp_Force_Field>
OPLS_2005

> <r_lp_Energy>
40.9895

> <b_lp_Chiralities_Consistent>
1

> <s_lp_Variant>
AV-unprocessed.smi:2146-2

> <Gold.Version>
5.8.1

> <Gold.Id.Protein>
6NUR|6NUR_protein|mol2

> <Gold.PLP.Fitness>
45.1632

> <Gold.PLP.PLP>
-41.3582

> <Gold.PLP.part.hbond>
-1.0000

> <Gold.PLP.part.metal>
0.0000

> <Gold.PLP.part.buried>
-7.7719

> <Gold.PLP.part.nonpolar>
-33.6279

> <Gold.PLP.part.repulsive>
0.3647

> <Gold.PLP.ligand.clash>
0.0000

> <Gold.PLP.ligand.torsion>
0.4155

> <Gold.PLP.Chemscore.Hbond>
0.5120

> <Gold.PLP.Chemscore.CHOScore>
1.0000

> <Gold.PLP.Chemscore.Metal>
0.0000

> <Gold.Chemscore.Hbonds>
donor molecule, donor type, donor heavy atom, donor atom, acceptor molecule, acceptor atom, score
      L1  H     4    31       P1  8028  0.45
      L1  C     9    34       P1  8028  1.00

> <Gold.PLP.Chemscore.Internal.Correction>
0.1000

> <Gold.Rescore>
     Score         DG    S(hbond)    S(metal)    S(lipo)     H(rot)  DE(clash)    DE(int)     intcor
     10.48     -10.86       0.59        0.00      75.36       2.10       0.04       0.35       ----

> <Gold.Chemscore.Fitness>
10.4773

> <Gold.Chemscore.DG>
-10.8650

> <Gold.Chemscore.ZeroCoef>
-5.4800

> <Gold.Chemscore.Hbond>
0.5851

> <Gold.Chemscore.Metal>
0.0000

> <Gold.Chemscore.Lipo>
75.3565

> <Gold.Chemscore.Internal_Hbond>
0.0000

> <Gold.Chemscore.DEClash>
0.0390

> <Gold.Chemscore.DEInternal>
0.3486

> <Gold.Chemscore.Rot>
2.1039

> <Gold.Chemscore.Internal.Correction>
   9.000000E+99

> <Gold.Chemscore.Hbonds>
donor molecule, donor type, donor heavy atom, donor atom, acceptor molecule, acceptor atom, score
      L1  H     4    31       P1  8028  0.43

> <Gold.Chemscore.Hbond.Weighted>
-1.9542

> <Gold.Chemscore.Metal.Weighted>
-0.0000

> <Gold.Chemscore.Lipo.Weighted>
-8.8167

> <Gold.Chemscore.Internal_Hbond.Weighted>
0.0000

> <Gold.Chemscore.DEClash.Weighted>
0.0390

> <Gold.Chemscore.DEInternal.Weighted>
0.3486

> <Gold.Chemscore.Rot.Weighted>
5.3860

> <Gold.Chemscore.Internal.Correction.Weighted>
   9.000000E+99

> <Gold.Protein.RotatedTorsions>
[ 6907 6896 6895 6894 ] final -175.85 input  -60.11 | X-H torsion
[ 7974 7965 7964 7962 ] final  146.43 input  175.53 | X-H torsion
[ 8008 7997 7996 7995 ] final  -35.53 input   59.86 | X-H torsion
[ 10167 10162 10161 10158 ] final   43.79 input  -65.29 | X-H torsion
[ 10718 10713 10712 10709 ] final  141.25 input   66.30 | X-H torsion
[ 10763 10752 10751 10750 ] final  147.42 input  -60.55 | X-H torsion
[ 11005 11000 10999 10996 ] final -174.35 input  -57.11 | X-H torsion

> <Gold.Protein.ActiveResidues>
 VAL166  LYS551  ARG553  GLY616  TRP617  ASP618  TYR619  PRO620  LYS621  CYS622 
 ASP623  PHE694  ASN695  SER759  ASP760  ASP761  ALA762  ILE779  LEU786  VAL792 
 PHE793  MET794  SER795  GLU796  ALA797  LYS798  CYS799  TRP800  GLU811  SER814 

> <Gold.Protein.RotatedAtoms>
  151.5953  133.3362  159.3035 H   0  0  0  0  0  0  0  0  0  0  0  0  # atno 6907 bound_to 6896
  150.8237  134.7461  159.6806 H   0  0  0  0  0  0  0  0  0  0  0  0  # atno 6908 bound_to 6896
  152.4329  134.5749  159.9983 H   0  0  0  0  0  0  0  0  0  0  0  0  # atno 6909 bound_to 6896
  144.8671  139.5904  143.5904 H   0  0  0  0  0  0  0  0  0  0  0  0  # atno 7974 bound_to 7965
  154.4093  140.1655  156.2226 H   0  0  0  0  0  0  0  0  0  0  0  0  # atno 8008 bound_to 7997
  155.9351  140.3412  155.6257 H   0  0  0  0  0  0  0  0  0  0  0  0  # atno 8009 bound_to 7997
  155.7059  140.0750  157.2382 H   0  0  0  0  0  0  0  0  0  0  0  0  # atno 8010 bound_to 7997
  140.3409  144.2472  150.6156 H   0  0  0  0  0  0  0  0  0  0  0  0  # atno 10167 bound_to 10162
  157.3941  131.1008  151.0617 H   0  0  0  0  0  0  0  0  0  0  0  0  # atno 10718 bound_to 10713
  154.0380  135.2892  155.3359 H   0  0  0  0  0  0  0  0  0  0  0  0  # atno 10763 bound_to 10752
  154.6947  135.5212  153.8444 H   0  0  0  0  0  0  0  0  0  0  0  0  # atno 10764 bound_to 10752
  153.0612  135.6614  154.0586 H   0  0  0  0  0  0  0  0  0  0  0  0  # atno 10765 bound_to 10752
  140.4755  134.6125  157.4899 H   0  0  0  0  0  0  0  0  0  0  0  0  # atno 11005 bound_to 11000
  146.2904  139.7122  142.9165 LP  0  0  0  0  0  0  0  0  0  0  0  0  # atno 17320 bound_to 7965
  145.4200  141.0405  143.2969 LP  0  0  0  0  0  0  0  0  0  0  0  0  # atno 17321 bound_to 7965
  140.5310  143.2243  151.8239 LP  0  0  0  0  0  0  0  0  0  0  0  0  # atno 17342 bound_to 10162
  139.4841  144.4720  151.9413 LP  0  0  0  0  0  0  0  0  0  0  0  0  # atno 17343 bound_to 10162
  157.1641  130.6238  149.5620 LP  0  0  0  0  0  0  0  0  0  0  0  0  # atno 17370 bound_to 10713
  155.9806  130.4807  150.6780 LP  0  0  0  0  0  0  0  0  0  0  0  0  # atno 17371 bound_to 10713
  139.9859  134.7063  155.9775 LP  0  0  0  0  0  0  0  0  0  0  0  0  # atno 17394 bound_to 11000
  141.1557  133.6543  156.4153 LP  0  0  0  0  0  0  0  0  0  0  0  0  # atno 17395 bound_to 11000

$$$$
