#       Name:                AV-unprocessed.smi:3025
#       Creating user name   scv26
#       Creation time:       Fri Mar 27 16:44:44 2020


#       File generated by GOLD software.
#

@<TRIPOS>MOLECULE
AV-unprocessed.smi:3025
    44    45     1
SMALL
NO_CHARGES


@<TRIPOS>ATOM
      1 ****        -5.6954  -2.5068   1.1339 C.3            1 S1                 0.0000
      2 ****        -4.1899  -2.2257   1.1943 C.3            1 S1                 0.0000
      3 ****        -3.6289  -1.7403  -0.1532 C.3            1 S1                 0.0000
      4 ****        -2.0985  -1.5456  -0.1682 C.3            1 S1                 0.0000
      5 ****        -1.6397  -0.3738   0.7259 C.3            1 S1                 0.0000
      6 ****        -0.1156  -0.1766   0.6775 C.3            1 S1                 0.0000
      7 ****         0.3860   0.0306  -0.7665 C.3            1 S1                 0.0000
      8 ****         1.8595   0.1581  -0.8199 N.4            1 S1                 1.0000
      9 ****         2.3999   1.4484  -0.3433 C.3            1 S1                 0.0000
     10 ****         3.9229   1.5059  -0.5199 C.3            1 S1                 0.0000
     11 ****         4.5004   2.8040  -0.0594 C.2            1 S1                 0.0000
     12 ****         4.4617   3.9437  -0.7596 N.2            1 S1                 0.0000
     13 ****         5.0917   4.8894   0.0338 N.2            1 S1                 0.0000
     14 ****         5.4480   4.2282   1.1362 C.2            1 S1                 0.0000
     15 ****         5.1033   2.9350   1.1321 N.pl3          1 S1                 0.0000
     16 ****        -0.0658  -1.1430  -1.6535 C.3            1 S1                 0.0000
     17 ****        -1.5903  -1.3315  -1.6081 C.3            1 S1                 0.0000
     18 ****         5.2628   2.2378   1.8448 H              1 S1                 0.0000
     19 ****        -6.0650  -2.8515   2.1000 H              1 S1                 0.0000
     20 ****        -5.9233  -3.2775   0.3969 H              1 S1                 0.0000
     21 ****        -6.2534  -1.6095   0.8649 H              1 S1                 0.0000
     22 ****        -4.0043  -1.4828   1.9697 H              1 S1                 0.0000
     23 ****        -3.6704  -3.1336   1.5029 H              1 S1                 0.0000
     24 ****        -3.8964  -2.4734  -0.9155 H              1 S1                 0.0000
     25 ****        -4.1218  -0.8116  -0.4441 H              1 S1                 0.0000
     26 ****        -1.6414  -2.4615   0.2095 H              1 S1                 0.0000
     27 ****        -2.1351   0.5457   0.4111 H              1 S1                 0.0000
     28 ****        -1.9371  -0.5440   1.7602 H              1 S1                 0.0000
     29 ****         0.1468   0.6767   1.3025 H              1 S1                 0.0000
     30 ****         0.3754  -1.0452   1.1188 H              1 S1                 0.0000
     31 ****        -0.0510   0.9460  -1.1693 H              1 S1                 0.0000
     32 ****         2.2717  -0.5946  -0.2873 H              1 S1                 0.0000
     33 ****         1.9324   2.2612  -0.9010 H              1 S1                 0.0000
     34 ****         2.1490   1.5905   0.7079 H              1 S1                 0.0000
     35 ****         4.3966   0.6918   0.0310 H              1 S1                 0.0000
     36 ****         4.1849   1.3659  -1.5696 H              1 S1                 0.0000
     37 ****         5.9678   4.6961   1.9592 H              1 S1                 0.0000
     38 ****         0.2487  -0.9749  -2.6842 H              1 S1                 0.0000
     39 ****         0.4215  -2.0637  -1.3288 H              1 S1                 0.0000
     40 ****        -1.8663  -2.1829  -2.2312 H              1 S1                 0.0000
     41 ****        -2.0781  -0.4594  -2.0463 H              1 S1                 0.0000
     42 ****         2.1379   0.0560  -1.7856 H              1 S1                 0.0000
     43 ****         4.0619   4.0836  -1.6655 LP             1 S1                 0.0000
     44 ****         5.2454   5.8553  -0.1744 LP             1 S1                 0.0000
@<TRIPOS>BOND
    1    1    2 1     
    2    1   19 1     
    3    1   20 1     
    4    1   21 1     
    5    2    3 1     
    6    2   22 1     
    7    2   23 1     
    8    3    4 1     
    9    3   24 1     
   10    3   25 1     
   11    4   17 1     
   12    4    5 1     
   13    4   26 1     
   14    5    6 1     
   15    5   27 1     
   16    5   28 1     
   17    6    7 1     
   18    6   29 1     
   19    6   30 1     
   20    7    8 1     
   21    7   16 1     
   22    7   31 1     
   23    8    9 1     
   24    8   32 1     
   25    8   42 1     
   26    9   10 1     
   27    9   33 1     
   28    9   34 1     
   29   10   11 1     
   30   10   35 1     
   31   10   36 1     
   32   11   15 1     
   33   11   12 2     
   34   12   13 1     
   35   13   14 2     
   36   14   15 1     
   37   14   37 1     
   38   15   18 1     
   39   16   17 1     
   40   16   38 1     
   41   16   39 1     
   42   17   40 1     
   43   17   41 1     
   44   12   43 1     
   45   13   44 1     
@<TRIPOS>SUBSTRUCTURE
      1 S1             1
@<TRIPOS>SET
LONE_PAIRS      STATIC     ATOMS    <user>   **** ""
2 43 44
DONOR_HYDROGENS      STATIC     ATOMS    <user>   **** ""
3 32 42 18
ATOM$BLUE        STATIC     ATOMS    COLORGROUP SYSTEM
2 43 44
ATOM$RED        STATIC     ATOMS    COLORGROUP SYSTEM
3 32 42 18
