#       Name:                AV-unprocessed.smi:2146
#       Creating user name   scv26
#       Creation time:       Fri Mar 27 11:51:35 2020


#       File generated by GOLD software.
#

@<TRIPOS>MOLECULE
AV-unprocessed.smi:2146
    51    52     1
SMALL
NO_CHARGES


@<TRIPOS>ATOM
      1 ****        -1.1040  -0.1233   2.1270 C.3            1 S1                 0.0000
      2 ****        -1.6103  -0.4265   0.6974 C.3            1 S1                 0.0000
      3 ****        -1.0676  -1.8031   0.2144 C.3            1 S1                 0.0000
      4 ****         0.3877  -1.9059   0.2862 N.am           1 S1                 0.0000
      5 ****         1.2449  -1.2886  -0.5410 C.2            1 S1                 0.0000
      6 ****         0.8782  -0.5742  -1.4750 O.2            1 S1                 0.0000
      7 ****         2.7361  -1.5250  -0.2623 C.3            1 S1                 0.0000
      8 ****         3.6062  -0.4875  -0.8405 N.am           1 S1                 0.0000
      9 ****         3.8563   0.6455  -0.0421 C.2            1 S1                 0.0000
     10 ****         4.6385   1.6663  -0.4410 C.2            1 S1                 0.0000
     11 ****         4.8354   2.9011   0.4244 C.3            1 S1                 0.0000
     12 ****         5.1950   3.9544  -0.3095 F              1 S1                 0.0000
     13 ****         3.7143   3.2087   1.0778 F              1 S1                 0.0000
     14 ****         5.7902   2.6753   1.3257 F              1 S1                 0.0000
     15 ****         5.2070   1.5615  -1.7707 C.2            1 S1                 0.0000
     16 ****         4.9643   0.4922  -2.5540 C.2            1 S1                 0.0000
     17 ****         4.1181  -0.6145  -2.1014 C.2            1 S1                 0.0000
     18 ****         3.8828  -1.5923  -2.8115 O.2            1 S1                 0.0000
     19 ****        -3.1055  -0.3139   0.6394 N.4            1 S1                 1.0000
     20 ****        -3.5765   1.0971   0.7141 C.3            1 S1                 0.0000
     21 ****        -5.1117   1.1733   0.7283 C.3            1 S1                 0.0000
     22 ****        -5.6269   0.5440  -0.4346 O.3            1 S1                 0.0000
     23 ****        -5.2840  -0.8327  -0.4730 C.3            1 S1                 0.0000
     24 ****        -3.7541  -0.9928  -0.5168 C.3            1 S1                 0.0000
     25 ****        -0.0179  -0.1819   2.1952 H              1 S1                 0.0000
     26 ****        -1.5158  -0.8306   2.8470 H              1 S1                 0.0000
     27 ****        -1.3640   0.8794   2.4609 H              1 S1                 0.0000
     28 ****        -1.2061   0.3328   0.0259 H              1 S1                 0.0000
     29 ****        -1.4903  -2.6058   0.8198 H              1 S1                 0.0000
     30 ****        -1.3499  -2.0050  -0.8195 H              1 S1                 0.0000
     31 ****         0.7703  -2.4819   1.0226 H              1 S1                 0.0000
     32 ****         2.8938  -1.5726   0.8168 H              1 S1                 0.0000
     33 ****         3.0056  -2.5158  -0.6313 H              1 S1                 0.0000
     34 ****         3.3591   0.6363   0.9173 H              1 S1                 0.0000
     35 ****         5.8410   2.3513  -2.1459 H              1 S1                 0.0000
     36 ****         5.4049   0.4472  -3.5392 H              1 S1                 0.0000
     37 ****        -3.2042   1.5905   1.6097 H              1 S1                 0.0000
     38 ****        -3.1892   1.6564  -0.1391 H              1 S1                 0.0000
     39 ****        -5.5192   0.7064   1.6266 H              1 S1                 0.0000
     40 ****        -5.4350   2.2143   0.7361 H              1 S1                 0.0000
     41 ****        -5.7049  -1.3492   0.3914 H              1 S1                 0.0000
     42 ****        -5.7327  -1.2820  -1.3592 H              1 S1                 0.0000
     43 ****        -3.3601  -0.5853  -1.4495 H              1 S1                 0.0000
     44 ****        -3.5430  -2.0614  -0.5085 H              1 S1                 0.0000
     45 ****        -3.4555  -0.7828   1.4627 H              1 S1                 0.0000
     46 ****        -0.0974  -0.4333  -1.6437 LP             1 S1                 0.0000
     47 ****         1.5560  -0.1350  -2.0647 LP             1 S1                 0.0000
     48 ****         3.2989  -2.3290  -2.4705 LP             1 S1                 0.0000
     49 ****         4.2756  -1.6498  -3.7293 LP             1 S1                 0.0000
     50 ****        -5.2501   0.9959  -1.2432 LP             1 S1                 0.0000
     51 ****        -6.6231   0.6315  -0.4377 LP             1 S1                 0.0000
@<TRIPOS>BOND
    1    1    2 1     
    2    1   25 1     
    3    1   26 1     
    4    1   27 1     
    5    2    3 1     
    6    2   19 1     
    7    2   28 1     
    8    3    4 1     
    9    3   29 1     
   10    3   30 1     
   11    4    5 am    
   12    4   31 1     
   13    5    6 2     
   14    5    7 1     
   15    7    8 1     
   16    7   32 1     
   17    7   33 1     
   18    8   17 am    
   19    8    9 1     
   20    9   10 2     
   21    9   34 1     
   22   10   11 1     
   23   10   15 1     
   24   11   12 1     
   25   11   13 1     
   26   11   14 1     
   27   15   16 2     
   28   15   35 1     
   29   16   17 1     
   30   16   36 1     
   31   17   18 2     
   32   19   24 1     
   33   19   20 1     
   34   19   45 1     
   35   20   21 1     
   36   20   37 1     
   37   20   38 1     
   38   21   22 1     
   39   21   39 1     
   40   21   40 1     
   41   22   23 1     
   42   23   24 1     
   43   23   41 1     
   44   23   42 1     
   45   24   43 1     
   46   24   44 1     
   47    6   46 1     
   48    6   47 1     
   49   18   48 1     
   50   18   49 1     
   51   22   50 1     
   52   22   51 1     
@<TRIPOS>SUBSTRUCTURE
      1 S1             1
@<TRIPOS>SET
LONE_PAIRS      STATIC     ATOMS    <user>   **** ""
6 46 47 48 49 50 51
DONOR_HYDROGENS      STATIC     ATOMS    <user>   **** ""
2 31 45
ATOM$BLUE        STATIC     ATOMS    COLORGROUP SYSTEM
6 46 47 48 49 50 51
ATOM$RED        STATIC     ATOMS    COLORGROUP SYSTEM
2 31 45
