AV-unprocessed.smi:2496|AV-procd|sdf|9826|dock5
  -GOLD-   2272013453D 1   1.00000     0.00000
 Structure written by MMmdl.
 40 40  0  0  0  0  0  0  0  0  1 V2000
  151.0077  141.5430  156.2682 C   0  0  0  0  0  0  0  0  0  0  0  0
  151.3168  140.0930  156.0263 C   0  0  0  0  0  0  0  0  0  0  0  0
  151.4379  139.6577  154.7820 N   0  0  0  0  0  0  0  0  0  0  0  0
  151.7177  138.3517  154.9235 N   0  0  0  0  0  0  0  0  0  0  0  0
  151.7789  137.9496  156.2368 C   0  0  0  0  0  0  0  0  0  0  0  0
  152.0890  136.5364  156.6061 C   0  0  0  0  0  0  0  0  0  0  0  0
  151.5173  139.0624  156.9960 C   0  0  0  0  0  0  0  0  0  0  0  0
  151.4653  139.2150  158.5033 C   0  0  1  0  0  0  0  0  0  0  0  0
  151.7314  137.8810  159.2259 C   0  0  0  0  0  0  0  0  0  0  0  0
  152.4197  140.3397  158.9375 C   0  0  0  0  0  0  0  0  0  0  0  0
  153.6313  140.2575  158.7321 O   0  0  0  0  0  0  0  0  0  0  0  0
  151.8457  141.3965  159.5351 N   0  0  0  0  0  0  0  0  0  0  0  0
  152.5216  142.6266  159.9405 C   0  0  2  0  0  0  0  0  0  0  0  0
  152.6351  142.6450  161.4758 C   0  0  0  0  0  0  0  0  0  0  0  0
  151.7717  143.8550  159.3601 C   0  0  0  0  0  0  0  0  0  0  0  0
  152.2842  144.2443  157.9583 C   0  0  0  0  0  0  0  0  0  0  0  0
  151.8448  145.0781  160.2916 C   0  0  0  0  0  0  0  0  0  0  0  0
  151.8659  137.7521  154.1241 H   0  0  0  0  0  0  0  0  0  0  0  0
  151.7710  142.0031  156.8958 H   0  0  0  0  0  0  0  0  0  0  0  0
  150.0486  141.6568  156.7739 H   0  0  0  0  0  0  0  0  0  0  0  0
  150.9604  142.1093  155.3373 H   0  0  0  0  0  0  0  0  0  0  0  0
  152.7406  136.4938  157.4785 H   0  0  0  0  0  0  0  0  0  0  0  0
  152.5935  136.0178  155.7906 H   0  0  0  0  0  0  0  0  0  0  0  0
  151.1754  135.9896  156.8388 H   0  0  0  0  0  0  0  0  0  0  0  0
  150.4689  139.5378  158.8072 H   0  0  0  0  0  0  0  0  0  0  0  0
  152.7244  137.4879  159.0083 H   0  0  0  0  0  0  0  0  0  0  0  0
  151.0044  137.1265  158.9246 H   0  0  0  0  0  0  0  0  0  0  0  0
  151.6516  137.9948  160.3075 H   0  0  0  0  0  0  0  0  0  0  0  0
  150.8447  141.3704  159.6639 H   0  0  0  0  0  0  0  0  0  0  0  0
  153.5315  142.6291  159.5259 H   0  0  0  0  0  0  0  0  0  0  0  0
  153.2403  143.4804  161.8265 H   0  0  0  0  0  0  0  0  0  0  0  0
  153.1112  141.7357  161.8445 H   0  0  0  0  0  0  0  0  0  0  0  0
  151.6541  142.7191  161.9464 H   0  0  0  0  0  0  0  0  0  0  0  0
  150.7188  143.5895  159.2541 H   0  0  0  0  0  0  0  0  0  0  0  0
  153.3510  144.4691  157.9769 H   0  0  0  0  0  0  0  0  0  0  0  0
  151.7663  145.1265  157.5815 H   0  0  0  0  0  0  0  0  0  0  0  0
  152.1243  143.4501  157.2285 H   0  0  0  0  0  0  0  0  0  0  0  0
  152.8781  145.3635  160.4905 H   0  0  0  0  0  0  0  0  0  0  0  0
  151.3581  144.8897  161.2480 H   0  0  0  0  0  0  0  0  0  0  0  0
  151.3435  145.9388  159.8482 H   0  0  0  0  0  0  0  0  0  0  0  0
  1  2  1  0  0  0  0
  1 19  1  0  0  0  0
  1 20  1  0  0  0  0
  1 21  1  0  0  0  0
  2  7  1  0  0  0  0
  2  3  2  0  0  0  0
  3  4  1  0  0  0  0
  4 18  1  0  0  0  0
  4  5  1  0  0  0  0
  5  6  1  0  0  0  0
  5  7  2  0  0  0  0
  6 22  1  0  0  0  0
  6 23  1  0  0  0  0
  6 24  1  0  0  0  0
  7  8  1  0  0  0  0
  8  9  1  0  0  0  0
  8 10  1  0  0  0  0
  8 25  1  0  0  0  0
  9 26  1  0  0  0  0
  9 27  1  0  0  0  0
  9 28  1  0  0  0  0
 10 11  2  0  0  0  0
 10 12  1  0  0  0  0
 12 13  1  0  0  0  0
 12 29  1  0  0  0  0
 13 14  1  0  0  0  0
 13 15  1  0  0  0  0
 13 30  1  0  0  0  0
 14 31  1  0  0  0  0
 14 32  1  0  0  0  0
 14 33  1  0  0  0  0
 15 16  1  0  0  0  0
 15 17  1  0  0  0  0
 15 34  1  0  0  0  0
 16 35  1  0  0  0  0
 16 36  1  0  0  0  0
 16 37  1  0  0  0  0
 17 38  1  0  0  0  0
 17 39  1  0  0  0  0
 17 40  1  0  0  0  0
M  END
> <s_m_source_file>
AV-unprocessed.smi

> <i_m_source_file_index>
2496

> <i_lp_mmshare_version>
43012

> <i_f3d_flags>
0

> <s_epik_input>
W0NIM11jMW5bbkhdYyhbQ0gzXSljMVtDQEhdKFtDSDNdKUMoPU8pW05IXVtDQEhdKFtDSDNdKVtDSF0oW0NIM10pW0NIM10=

> <s_epik_cmdline>
J2VwaWtfcHl0aG9uJywgJy1waCcsICc3LjAnLCAnLXRuJywgJzgnLCAnLW1hJywgJzIwMCcsICctbWV0YWxfYmluZGluZycsICctaW1hZScsICc8aW5maWxlLm1hZT4nLCAnLW9tYWUnLCAnPG91dGZpbGUubWFlPic=

> <r_lp_tautomer_probability>
1

> <r_epik_Ionization_Penalty>
0.000456212

> <r_epik_Ionization_Penalty_Charging>
0

> <r_epik_Ionization_Penalty_Neutral>
0.000456212

> <r_epik_State_Penalty>
-0

> <r_epik_Charging_Adjusted_Penalty>
0

> <i_epik_Tot_Q>
0

> <i_epik_Tot_abs_Q>
0

> <r_epik_Metal_State_Penalty>
-0

> <b_epik_Metal_Only>
0

> <s_lp_Force_Field>
OPLS_2005

> <r_lp_Energy>
1.41326

> <b_lp_Chiralities_Consistent>
1

> <s_lp_Variant>
AV-unprocessed.smi:2496-2

> <Gold.Version>
5.8.1

> <Gold.Id.Protein>
6NUR|6NUR_protein|mol2

> <Gold.PLP.Fitness>
40.3404

> <Gold.PLP.PLP>
-37.6474

> <Gold.PLP.part.hbond>
-2.0000

> <Gold.PLP.part.metal>
0.0000

> <Gold.PLP.part.buried>
-5.6173

> <Gold.PLP.part.nonpolar>
-30.6285

> <Gold.PLP.part.repulsive>
0.3660

> <Gold.PLP.ligand.clash>
1.1134

> <Gold.PLP.ligand.torsion>
0.9722

> <Gold.PLP.Chemscore.Hbond>
1.8800

> <Gold.PLP.Chemscore.CHOScore>
0.0000

> <Gold.PLP.Chemscore.Metal>
0.0000

> <Gold.Chemscore.Hbonds>
donor molecule, donor type, donor heavy atom, donor atom, acceptor molecule, acceptor atom, score
      P1  H  7989  7998       L1     3  1.00
      P1  H  7997  8009       L1    11  0.90

> <Gold.PLP.Chemscore.Internal.Correction>
0.1108

> <Gold.Rescore>
     Score         DG    S(hbond)    S(metal)    S(lipo)     H(rot)  DE(clash)    DE(int)     intcor
     17.42     -19.20       1.88        0.00      95.75       1.47       0.03       1.75       ----

> <Gold.Chemscore.Fitness>
17.4174

> <Gold.Chemscore.DG>
-19.2006

> <Gold.Chemscore.ZeroCoef>
-5.4800

> <Gold.Chemscore.Hbond>
1.8777

> <Gold.Chemscore.Metal>
0.0000

> <Gold.Chemscore.Lipo>
95.7487

> <Gold.Chemscore.Internal_Hbond>
0.0000

> <Gold.Chemscore.DEClash>
0.0339

> <Gold.Chemscore.DEInternal>
1.7493

> <Gold.Chemscore.Rot>
1.4662

> <Gold.Chemscore.Internal.Correction>
   9.000000E+99

> <Gold.Chemscore.Hbonds>
donor molecule, donor type, donor heavy atom, donor atom, acceptor molecule, acceptor atom, score
      P1  H  7989  7998       L1     3  0.96
      P1  H  7997  8009       L1    11  0.88

> <Gold.Chemscore.Hbond.Weighted>
-6.2714

> <Gold.Chemscore.Metal.Weighted>
-0.0000

> <Gold.Chemscore.Lipo.Weighted>
-11.2026

> <Gold.Chemscore.Internal_Hbond.Weighted>
0.0000

> <Gold.Chemscore.DEClash.Weighted>
0.0339

> <Gold.Chemscore.DEInternal.Weighted>
1.7493

> <Gold.Chemscore.Rot.Weighted>
3.7534

> <Gold.Chemscore.Internal.Correction.Weighted>
   9.000000E+99

> <Gold.Protein.RotatedTorsions>
[ 6907 6896 6895 6894 ] final   96.65 input  -60.11 | X-H torsion
[ 7974 7965 7964 7962 ] final -102.63 input  175.53 | X-H torsion
[ 8008 7997 7996 7995 ] final  147.80 input   59.86 | X-H torsion
[ 10167 10162 10161 10158 ] final  152.28 input  -65.29 | X-H torsion
[ 10718 10713 10712 10709 ] final  108.33 input   66.30 | X-H torsion
[ 10763 10752 10751 10750 ] final -130.65 input  -60.55 | X-H torsion
[ 11005 11000 10999 10996 ] final   -3.60 input  -57.11 | X-H torsion

> <Gold.Protein.ActiveResidues>
 VAL166  LYS551  ARG553  GLY616  TRP617  ASP618  TYR619  PRO620  LYS621  CYS622 
 ASP623  PHE694  ASN695  SER759  ASP760  ASP761  ALA762  ILE779  LEU786  VAL792 
 PHE793  MET794  SER795  GLU796  ALA797  LYS798  CYS799  TRP800  GLU811  SER814 

> <Gold.Protein.RotatedAtoms>
  152.5432  134.0853  159.8253 H   0  0  0  0  0  0  0  0  0  0  0  0  # atno 6907 bound_to 6896
  151.0949  133.5280  159.2620 H   0  0  0  0  0  0  0  0  0  0  0  0  # atno 6908 bound_to 6896
  151.2057  135.0469  159.8944 H   0  0  0  0  0  0  0  0  0  0  0  0  # atno 6909 bound_to 6896
  145.2662  140.9285  143.3012 H   0  0  0  0  0  0  0  0  0  0  0  0  # atno 7974 bound_to 7965
  156.2813  140.2146  156.5595 H   0  0  0  0  0  0  0  0  0  0  0  0  # atno 8008 bound_to 7997
  154.7224  140.0502  157.0675 H   0  0  0  0  0  0  0  0  0  0  0  0  # atno 8009 bound_to 7997
  155.0460  140.3151  155.4711 H   0  0  0  0  0  0  0  0  0  0  0  0  # atno 8010 bound_to 7997
  139.4834  144.5371  151.7627 H   0  0  0  0  0  0  0  0  0  0  0  0  # atno 10167 bound_to 10162
  157.6591  131.0891  150.6289 H   0  0  0  0  0  0  0  0  0  0  0  0  # atno 10718 bound_to 10713
  154.8754  135.3856  154.4117 H   0  0  0  0  0  0  0  0  0  0  0  0  # atno 10763 bound_to 10752
  153.4830  135.7030  153.5932 H   0  0  0  0  0  0  0  0  0  0  0  0  # atno 10764 bound_to 10752
  153.4339  135.3872  155.2154 H   0  0  0  0  0  0  0  0  0  0  0  0  # atno 10765 bound_to 10752
  140.6711  133.9236  155.8495 H   0  0  0  0  0  0  0  0  0  0  0  0  # atno 11005 bound_to 11000
  144.9374  139.4228  143.6465 LP  0  0  0  0  0  0  0  0  0  0  0  0  # atno 17320 bound_to 7965
  146.3260  139.8317  142.8907 LP  0  0  0  0  0  0  0  0  0  0  0  0  # atno 17321 bound_to 7965
  140.4905  144.1317  150.5949 LP  0  0  0  0  0  0  0  0  0  0  0  0  # atno 17342 bound_to 10162
  140.4176  143.2627  151.9755 LP  0  0  0  0  0  0  0  0  0  0  0  0  # atno 17343 bound_to 10162
  156.6594  130.4508  149.5693 LP  0  0  0  0  0  0  0  0  0  0  0  0  # atno 17370 bound_to 10713
  156.2079  130.6660  151.1237 LP  0  0  0  0  0  0  0  0  0  0  0  0  # atno 17371 bound_to 10713
  141.0391  134.0647  157.3923 LP  0  0  0  0  0  0  0  0  0  0  0  0  # atno 17394 bound_to 11000
  139.8981  135.0153  156.7134 LP  0  0  0  0  0  0  0  0  0  0  0  0  # atno 17395 bound_to 11000

$$$$
