AV-unprocessed.smi:1936|AV-procd|sdf|7831|dock8
  -GOLD-   22720 9573D 1   1.00000     0.00000
 Structure written by MMmdl.
 39 40  0  0  0  0  0  0  0  0  2 V2000
  144.8409  137.9306  154.8043 C   0  0  0  0  0  0  0  0  0  0  0  0
  145.9119  137.2336  153.9543 C   0  0  2  0  0  0  0  0  0  0  0  0
  146.4456  135.9640  154.6552 C   0  0  0  0  0  0  0  0  0  0  0  0
  147.1621  135.0472  153.7325 N   0  3  0  0  0  0  0  0  0  0  0  0
  148.1183  134.1545  154.4277 C   0  0  0  0  0  0  0  0  0  0  0  0
  148.8777  133.2901  153.4065 C   0  0  0  0  0  0  0  0  0  0  0  0
  147.9508  132.5482  152.6231 O   0  0  0  0  0  0  0  0  0  0  0  0
  147.0757  133.3951  151.8876 C   0  0  0  0  0  0  0  0  0  0  0  0
  146.2569  134.2588  152.8614 C   0  0  0  0  0  0  0  0  0  0  0  0
  146.9897  138.1834  153.6771 N   0  0  0  0  0  0  0  0  0  0  0  0
  147.8766  138.6579  154.5681 C   0  0  0  0  0  0  0  0  0  0  0  0
  147.8415  138.3840  155.7673 O   0  0  0  0  0  0  0  0  0  0  0  0
  148.9552  139.6047  154.0336 C   0  0  0  0  0  0  0  0  0  0  0  0
  150.2946  139.1435  154.3586 N   0  0  0  0  0  0  0  0  0  0  0  0
  150.8787  137.9290  154.0629 C   0  0  0  0  0  0  0  0  0  0  0  0
  152.1449  137.9518  154.5733 C   0  0  0  0  0  0  0  0  0  0  0  0
  152.2465  139.2402  155.1687 C   0  0  0  0  0  0  0  0  0  0  0  0
  151.1384  139.9515  155.0371 N   0  0  0  0  0  0  0  0  0  0  0  0
  143.9989  137.2648  154.9965 H   0  0  0  0  0  0  0  0  0  0  0  0
  144.4510  138.8144  154.2982 H   0  0  0  0  0  0  0  0  0  0  0  0
  145.2401  138.2476  155.7685 H   0  0  0  0  0  0  0  0  0  0  0  0
  145.4328  136.9519  153.0156 H   0  0  0  0  0  0  0  0  0  0  0  0
  147.1264  136.2776  155.4484 H   0  0  0  0  0  0  0  0  0  0  0  0
  145.6352  135.4252  155.1488 H   0  0  0  0  0  0  0  0  0  0  0  0
  148.8292  134.7484  155.0034 H   0  0  0  0  0  0  0  0  0  0  0  0
  147.5809  133.5194  155.1340 H   0  0  0  0  0  0  0  0  0  0  0  0
  149.5039  133.9089  152.7615 H   0  0  0  0  0  0  0  0  0  0  0  0
  149.5407  132.5950  153.9217 H   0  0  0  0  0  0  0  0  0  0  0  0
  147.6460  134.0197  151.1980 H   0  0  0  0  0  0  0  0  0  0  0  0
  146.4112  132.7774  151.2832 H   0  0  0  0  0  0  0  0  0  0  0  0
  145.6168  133.6229  153.4751 H   0  0  0  0  0  0  0  0  0  0  0  0
  145.6014  134.9201  152.2956 H   0  0  0  0  0  0  0  0  0  0  0  0
  147.0989  138.4699  152.7146 H   0  0  0  0  0  0  0  0  0  0  0  0
  148.8610  139.6889  152.9504 H   0  0  0  0  0  0  0  0  0  0  0  0
  148.8165  140.6055  154.4460 H   0  0  0  0  0  0  0  0  0  0  0  0
  150.3505  137.1578  153.5214 H   0  0  0  0  0  0  0  0  0  0  0  0
  152.8866  137.1682  154.5282 H   0  0  0  0  0  0  0  0  0  0  0  0
  153.0864  139.6770  155.6892 H   0  0  0  0  0  0  0  0  0  0  0  0
  147.7158  135.6339  153.1241 H   0  0  0  0  0  0  0  0  0  0  0  0
  1  2  1  0  0  0  0
  1 19  1  0  0  0  0
  1 20  1  0  0  0  0
  1 21  1  0  0  0  0
  2  3  1  0  0  0  0
  2 10  1  0  0  0  0
  2 22  1  0  0  0  0
  3  4  1  0  0  0  0
  3 23  1  0  0  0  0
  3 24  1  0  0  0  0
  4  9  1  0  0  0  0
  4  5  1  0  0  0  0
  4 39  1  0  0  0  0
  5  6  1  0  0  0  0
  5 25  1  0  0  0  0
  5 26  1  0  0  0  0
  6  7  1  0  0  0  0
  6 27  1  0  0  0  0
  6 28  1  0  0  0  0
  7  8  1  0  0  0  0
  8  9  1  0  0  0  0
  8 29  1  0  0  0  0
  8 30  1  0  0  0  0
  9 31  1  0  0  0  0
  9 32  1  0  0  0  0
 10 11  1  0  0  0  0
 10 33  1  0  0  0  0
 11 12  2  0  0  0  0
 11 13  1  0  0  0  0
 13 14  1  0  0  0  0
 13 34  1  0  0  0  0
 13 35  1  0  0  0  0
 14 18  1  0  0  0  0
 14 15  1  0  0  0  0
 15 16  2  0  0  0  0
 15 36  1  0  0  0  0
 16 17  1  0  0  0  0
 16 37  1  0  0  0  0
 17 18  2  0  0  0  0
 17 38  1  0  0  0  0
M  CHG  1   4   1
M  END
> <s_m_source_file>
AV-unprocessed.smi

> <i_m_source_file_index>
1936

> <i_lp_mmshare_version>
43012

> <i_f3d_flags>
0

> <s_epik_input>
W0NIMl0xW0NIMl1PW0NIMl1bQ0gyXU4xW0NIMl1bQ0BASF0oW0NIM10pW05IXUMoPU8pW0NIMl1uMltjSF1bY0hdW2NIXW4y

> <s_epik_cmdline>
J2VwaWtfcHl0aG9uJywgJy1waCcsICc3LjAnLCAnLXRuJywgJzgnLCAnLW1hJywgJzIwMCcsICctbWV0YWxfYmluZGluZycsICctaW1hZScsICc8aW5maWxlLm1hZT4nLCAnLW9tYWUnLCAnPG91dGZpbGUubWFlPic=

> <r_lp_tautomer_probability>
1

> <r_epik_Ionization_Penalty>
0.748405

> <r_epik_Ionization_Penalty_Charging>
0.748396

> <r_epik_Ionization_Penalty_Neutral>
9.02181e-06

> <r_epik_State_Penalty>
0.775162

> <r_epik_Charging_Adjusted_Penalty>
1.52356

> <i_epik_Tot_Q>
1

> <i_epik_Tot_abs_Q>
1

> <r_epik_Metal_State_Penalty>
0.775167

> <b_epik_Metal_Only>
0

> <s_lp_Force_Field>
OPLS_2005

> <r_lp_Energy>
23.0503

> <b_lp_Chiralities_Consistent>
1

> <s_lp_Variant>
AV-unprocessed.smi:1936-3

> <Gold.Version>
5.8.1

> <Gold.Id.Protein>
6NUR|6NUR_protein|mol2

> <Gold.PLP.Fitness>
37.2800

> <Gold.PLP.PLP>
-27.1685

> <Gold.PLP.part.hbond>
-2.3518

> <Gold.PLP.part.metal>
0.0000

> <Gold.PLP.part.buried>
-1.4840

> <Gold.PLP.part.nonpolar>
-23.8924

> <Gold.PLP.part.repulsive>
0.3344

> <Gold.PLP.ligand.clash>
0.0000

> <Gold.PLP.ligand.torsion>
0.4274

> <Gold.PLP.Chemscore.Hbond>
2.4675

> <Gold.PLP.Chemscore.CHOScore>
1.1691

> <Gold.PLP.Chemscore.Metal>
0.0000

> <Gold.Chemscore.Hbonds>
donor molecule, donor type, donor heavy atom, donor atom, acceptor molecule, acceptor atom, score
      L1  H     4    39       P1  7948  2.00
      P1  H  7989  7998       L1    18  0.55
      L1  C    15    36       P1  7948  0.72
      L1  C    15    36       P1  7949  0.30

> <Gold.PLP.Chemscore.Internal.Correction>
0.0563

> <Gold.Rescore>
     Score         DG    S(hbond)    S(metal)    S(lipo)     H(rot)  DE(clash)    DE(int)     intcor
      9.33     -10.33       0.99        0.00      55.48       1.93       0.08       0.91       ----

> <Gold.Chemscore.Fitness>
9.3320

> <Gold.Chemscore.DG>
-10.3299

> <Gold.Chemscore.ZeroCoef>
-5.4800

> <Gold.Chemscore.Hbond>
0.9908

> <Gold.Chemscore.Metal>
0.0000

> <Gold.Chemscore.Lipo>
55.4842

> <Gold.Chemscore.Internal_Hbond>
0.0000

> <Gold.Chemscore.DEClash>
0.0831

> <Gold.Chemscore.DEInternal>
0.9148

> <Gold.Chemscore.Rot>
1.9340

> <Gold.Chemscore.Internal.Correction>
   9.000000E+99

> <Gold.Chemscore.Hbonds>
donor molecule, donor type, donor heavy atom, donor atom, acceptor molecule, acceptor atom, score
      L1  H     4    39       P1  7948  1.00
      P1  H  7989  7998       L1    18  0.01

> <Gold.Chemscore.Hbond.Weighted>
-3.3093

> <Gold.Chemscore.Metal.Weighted>
-0.0000

> <Gold.Chemscore.Lipo.Weighted>
-6.4917

> <Gold.Chemscore.Internal_Hbond.Weighted>
0.0000

> <Gold.Chemscore.DEClash.Weighted>
0.0831

> <Gold.Chemscore.DEInternal.Weighted>
0.9148

> <Gold.Chemscore.Rot.Weighted>
4.9510

> <Gold.Chemscore.Internal.Correction.Weighted>
   9.000000E+99

> <Gold.Protein.RotatedTorsions>
[ 6907 6896 6895 6894 ] final -124.40 input  -60.11 | X-H torsion
[ 7974 7965 7964 7962 ] final   62.95 input  175.53 | X-H torsion
[ 8008 7997 7996 7995 ] final  -25.13 input   59.86 | X-H torsion
[ 10167 10162 10161 10158 ] final  -20.58 input  -65.29 | X-H torsion
[ 10718 10713 10712 10709 ] final  156.23 input   66.30 | X-H torsion
[ 10763 10752 10751 10750 ] final  120.47 input  -60.55 | X-H torsion
[ 11005 11000 10999 10996 ] final -129.08 input  -57.11 | X-H torsion

> <Gold.Protein.ActiveResidues>
 VAL166  LYS551  ARG553  GLY616  TRP617  ASP618  TYR619  PRO620  LYS621  CYS622 
 ASP623  PHE694  ASN695  SER759  ASP760  ASP761  ALA762  ILE779  LEU786  VAL792 
 PHE793  MET794  SER795  GLU796  ALA797  LYS798  CYS799  TRP800  GLU811  SER814 

> <Gold.Protein.RotatedAtoms>
  150.8765  133.7432  159.2944 H   0  0  0  0  0  0  0  0  0  0  0  0  # atno 6907 bound_to 6896
  151.5027  135.1061  159.9843 H   0  0  0  0  0  0  0  0  0  0  0  0  # atno 6908 bound_to 6896
  152.4731  133.8029  159.7018 H   0  0  0  0  0  0  0  0  0  0  0  0  # atno 6909 bound_to 6896
  145.8674  139.3355  143.0783 H   0  0  0  0  0  0  0  0  0  0  0  0  # atno 7974 bound_to 7965
  154.4492  140.1935  156.0571 H   0  0  0  0  0  0  0  0  0  0  0  0  # atno 8008 bound_to 7997
  156.0610  140.3296  155.7435 H   0  0  0  0  0  0  0  0  0  0  0  0  # atno 8009 bound_to 7997
  155.5411  140.0586  157.2860 H   0  0  0  0  0  0  0  0  0  0  0  0  # atno 8010 bound_to 7997
  140.7277  143.4709  151.0248 H   0  0  0  0  0  0  0  0  0  0  0  0  # atno 10167 bound_to 10162
  157.2078  131.0690  151.1987 H   0  0  0  0  0  0  0  0  0  0  0  0  # atno 10718 bound_to 10713
  153.5989  135.3451  155.2938 H   0  0  0  0  0  0  0  0  0  0  0  0  # atno 10763 bound_to 10752
  154.8639  135.4223  154.2434 H   0  0  0  0  0  0  0  0  0  0  0  0  # atno 10764 bound_to 10752
  153.3258  135.7041  153.7062 H   0  0  0  0  0  0  0  0  0  0  0  0  # atno 10765 bound_to 10752
  140.9462  134.1127  157.4105 H   0  0  0  0  0  0  0  0  0  0  0  0  # atno 11005 bound_to 11000
  145.9177  140.9137  143.0421 LP  0  0  0  0  0  0  0  0  0  0  0  0  # atno 17320 bound_to 7965
  144.6726  140.1246  143.7447 LP  0  0  0  0  0  0  0  0  0  0  0  0  # atno 17321 bound_to 7965
  139.8401  143.7575  152.3180 LP  0  0  0  0  0  0  0  0  0  0  0  0  # atno 17342 bound_to 10162
  139.7721  144.7473  151.0210 LP  0  0  0  0  0  0  0  0  0  0  0  0  # atno 17343 bound_to 10162
  157.3703  130.7177  149.6560 LP  0  0  0  0  0  0  0  0  0  0  0  0  # atno 17370 bound_to 10713
  155.9694  130.4201  150.4405 LP  0  0  0  0  0  0  0  0  0  0  0  0  # atno 17371 bound_to 10713
  139.8834  135.0052  156.6297 LP  0  0  0  0  0  0  0  0  0  0  0  0  # atno 17394 bound_to 11000
  140.7666  133.8773  155.8459 LP  0  0  0  0  0  0  0  0  0  0  0  0  # atno 17395 bound_to 11000

$$$$
