#       Name:                AV-unprocessed.smi:2982
#       Creating user name   scv26
#       Creation time:       Fri Mar 27 16:29:39 2020


#       File generated by GOLD software.
#

@<TRIPOS>MOLECULE
AV-unprocessed.smi:2982
    42    43     1
SMALL
NO_CHARGES


@<TRIPOS>ATOM
      1 ****        -3.4592   0.8602  -2.2323 C.3            1 S1                 0.0000
      2 ****        -3.4020   0.5689  -0.7270 C.3            1 S1                 0.0000
      3 ****        -2.7931  -0.8005  -0.3631 C.3            1 S1                 0.0000
      4 ****        -1.3959  -0.9430  -0.7327 N.am           1 S1                 0.0000
      5 ****        -0.3470  -0.4301   0.0360 C.2            1 S1                 0.0000
      6 ****        -0.6626   0.2499   1.2015 N.pl3          1 S1                 0.0000
      7 ****         0.9581  -0.5790  -0.3321 C.2            1 S1                 0.0000
      8 ****         2.0291  -0.0830   0.4022 N.pl3          1 S1                 0.0000
      9 ****         2.4914   1.2953   0.3105 C.3            1 S1                 0.0000
     10 ****         2.3683   1.9957   1.6757 C.3            1 S1                 0.0000
     11 ****         3.0605   1.2414   2.6668 O.3            1 S1                 0.0000
     12 ****         2.5342  -0.0751   2.8075 C.3            1 S1                 0.0000
     13 ****         2.6727  -0.8301   1.4739 C.3            1 S1                 0.0000
     14 ****         1.3067  -1.2916  -1.5649 C.2            1 S1                 0.0000
     15 ****         2.4475  -1.4854  -1.9838 O.2            1 S1                 0.0000
     16 ****         0.2206  -1.7701  -2.2935 N.am           1 S1                 0.0000
     17 ****        -1.1168  -1.6272  -1.9416 C.2            1 S1                 0.0000
     18 ****        -1.9850  -2.0869  -2.6838 O.2            1 S1                 0.0000
     19 ****         0.4218  -2.2598  -3.1531 H              1 S1                 0.0000
     20 ****        -3.9635   1.8075  -2.4235 H              1 S1                 0.0000
     21 ****        -4.0043   0.0801  -2.7642 H              1 S1                 0.0000
     22 ****        -2.4602   0.9287  -2.6628 H              1 S1                 0.0000
     23 ****        -2.8474   1.3653  -0.2302 H              1 S1                 0.0000
     24 ****        -4.4146   0.6141  -0.3255 H              1 S1                 0.0000
     25 ****        -2.8343  -0.9687   0.7133 H              1 S1                 0.0000
     26 ****        -3.3638  -1.6243  -0.7936 H              1 S1                 0.0000
     27 ****        -1.6202   0.3768   1.4962 H              1 S1                 0.0000
     28 ****         0.0486   0.6438   1.8004 H              1 S1                 0.0000
     29 ****         3.5299   1.2972  -0.0230 H              1 S1                 0.0000
     30 ****         1.9168   1.8362  -0.4426 H              1 S1                 0.0000
     31 ****         2.8001   2.9953   1.6242 H              1 S1                 0.0000
     32 ****         1.3231   2.1172   1.9623 H              1 S1                 0.0000
     33 ****         3.0831  -0.5950   3.5927 H              1 S1                 0.0000
     34 ****         1.4918  -0.0293   3.1257 H              1 S1                 0.0000
     35 ****         2.2324  -1.8246   1.5572 H              1 S1                 0.0000
     36 ****         3.7253  -0.9701   1.2251 H              1 S1                 0.0000
     37 ****         2.9825   1.7147   3.5443 LP             1 S1                 0.0000
     38 ****         4.0241   1.1768   2.4074 LP             1 S1                 0.0000
     39 ****         3.2339  -1.1439  -1.4691 LP             1 S1                 0.0000
     40 ****         2.5881  -1.9845  -2.8389 LP             1 S1                 0.0000
     41 ****        -2.9510  -1.9867  -2.4453 LP             1 S1                 0.0000
     42 ****        -1.7242  -2.5605  -3.5250 LP             1 S1                 0.0000
@<TRIPOS>BOND
    1    1    2 1     
    2    1   20 1     
    3    1   21 1     
    4    1   22 1     
    5    2    3 1     
    6    2   23 1     
    7    2   24 1     
    8    3    4 1     
    9    3   25 1     
   10    3   26 1     
   11    4   17 1     
   12    4    5 1     
   13    5    6 1     
   14    5    7 2     
   15    6   27 1     
   16    6   28 1     
   17    7    8 1     
   18    7   14 1     
   19    8   13 1     
   20    8    9 1     
   21    9   10 1     
   22    9   29 1     
   23    9   30 1     
   24   10   11 1     
   25   10   31 1     
   26   10   32 1     
   27   11   12 1     
   28   12   13 1     
   29   12   33 1     
   30   12   34 1     
   31   13   35 1     
   32   13   36 1     
   33   14   15 2     
   34   14   16 1     
   35   16   19 1     
   36   16   17 1     
   37   17   18 2     
   38   11   37 1     
   39   11   38 1     
   40   15   39 1     
   41   15   40 1     
   42   18   41 1     
   43   18   42 1     
@<TRIPOS>SUBSTRUCTURE
      1 S1             1
@<TRIPOS>SET
LONE_PAIRS      STATIC     ATOMS    <user>   **** ""
6 37 38 39 40 41 42
DONOR_HYDROGENS      STATIC     ATOMS    <user>   **** ""
3 27 28 19
ATOM$BLUE        STATIC     ATOMS    COLORGROUP SYSTEM
6 37 38 39 40 41 42
ATOM$RED        STATIC     ATOMS    COLORGROUP SYSTEM
3 27 28 19
