#       Name:                AV-unprocessed.smi:1913
#       Creating user name   scv26
#       Creation time:       Fri Mar 27 09:49:34 2020


#       File generated by GOLD software.
#

@<TRIPOS>MOLECULE
AV-unprocessed.smi:1913
    47    49     1
SMALL
NO_CHARGES


@<TRIPOS>ATOM
      1 ****        -3.5985  -3.3328  -1.2968 C.3            1 S1                 0.0000
      2 ****        -2.1800  -3.2847  -1.2530 O.3            1 S1                 0.0000
      3 ****        -1.5704  -2.0519  -1.3423 C.ar           1 S1                 0.0000
      4 ****        -2.2646  -0.8285  -1.4902 C.ar           1 S1                 0.0000
      5 ****        -1.5599   0.3869  -1.5625 C.ar           1 S1                 0.0000
      6 ****        -0.1451   0.4127  -1.4900 C.ar           1 S1                 0.0000
      7 ****         0.5931   1.5783  -1.5311 O.3            1 S1                 0.0000
      8 ****        -0.0987   2.8177  -1.5098 C.3            1 S1                 0.0000
      9 ****         0.5538  -0.8120  -1.3507 C.ar           1 S1                 0.0000
     10 ****         2.0776  -0.8293  -1.2337 C.3            1 S1                 0.0000
     11 ****         2.6590  -1.9403  -1.8856 O.3            1 S1                 0.0000
     12 ****         2.5556  -0.8366   0.2336 C.3            1 S1                 0.0000
     13 ****         2.2313   0.4116   0.9386 N.pl3          1 S1                 0.0000
     14 ****         2.8999   1.5963   0.9518 C.2            1 S1                 0.0000
     15 ****         2.1882   2.4626   1.7243 N.pl3          1 S1                 1.0000
     16 ****         1.0484   1.8222   2.2144 C.ar           1 S1                 0.0000
     17 ****         0.0221   2.2886   3.0299 C.ar           1 S1                 0.0000
     18 ****        -1.0037   1.3730   3.3429 C.ar           1 S1                 0.0000
     19 ****        -0.9835   0.0514   2.8519 C.ar           1 S1                 0.0000
     20 ****         0.0631  -0.4112   2.0278 C.ar           1 S1                 0.0000
     21 ****         1.0726   0.5008   1.7199 C.ar           1 S1                 0.0000
     22 ****        -0.1649  -2.0261  -1.2757 C.ar           1 S1                 0.0000
     23 ****        -3.9262  -4.3688  -1.2117 H              1 S1                 0.0000
     24 ****        -3.9824  -2.9423  -2.2402 H              1 S1                 0.0000
     25 ****        -4.0411  -2.7777  -0.4686 H              1 S1                 0.0000
     26 ****        -3.3418  -0.7941  -1.5482 H              1 S1                 0.0000
     27 ****        -2.1361   1.2929  -1.6716 H              1 S1                 0.0000
     28 ****         0.6257   3.6312  -1.4765 H              1 S1                 0.0000
     29 ****        -0.7312   2.9053  -0.6251 H              1 S1                 0.0000
     30 ****        -0.7050   2.9521  -2.4065 H              1 S1                 0.0000
     31 ****         2.4884   0.0466  -1.7361 H              1 S1                 0.0000
     32 ****         2.4509  -1.8898  -2.8062 H              1 S1                 0.0000
     33 ****         2.1545  -1.6873   0.7851 H              1 S1                 0.0000
     34 ****         3.6416  -0.9358   0.2675 H              1 S1                 0.0000
     35 ****         3.8225   1.8131   0.4330 H              1 S1                 0.0000
     36 ****         0.0035   3.3009   3.4063 H              1 S1                 0.0000
     37 ****        -1.8225   1.6905   3.9720 H              1 S1                 0.0000
     38 ****        -1.7876  -0.6219   3.1113 H              1 S1                 0.0000
     39 ****         0.0632  -1.4239   1.6530 H              1 S1                 0.0000
     40 ****         0.3660  -2.9588  -1.1515 H              1 S1                 0.0000
     41 ****         2.4619   3.4208   1.8998 H              1 S1                 0.0000
     42 ****        -1.8402  -3.8399  -2.0121 LP             1 S1                 0.0000
     43 ****        -1.8954  -3.6949  -0.3865 LP             1 S1                 0.0000
     44 ****         1.1338   1.5561  -2.3720 LP             1 S1                 0.0000
     45 ****         1.2056   1.5681  -0.7407 LP             1 S1                 0.0000
     46 ****         2.2906  -2.7873  -1.5023 LP             1 S1                 0.0000
     47 ****         3.6512  -1.9226  -1.7624 LP             1 S1                 0.0000
@<TRIPOS>BOND
    1    1    2 1     
    2    1   23 1     
    3    1   24 1     
    4    1   25 1     
    5    2    3 1     
    6    3   22 ar    
    7    3    4 ar    
    8    4    5 ar    
    9    4   26 1     
   10    5    6 ar    
   11    5   27 1     
   12    6    7 1     
   13    6    9 ar    
   14    7    8 1     
   15    8   28 1     
   16    8   29 1     
   17    8   30 1     
   18    9   10 1     
   19    9   22 ar    
   20   10   11 1     
   21   10   12 1     
   22   10   31 1     
   23   11   32 1     
   24   12   13 1     
   25   12   33 1     
   26   12   34 1     
   27   13   21 1     
   28   13   14 1     
   29   14   15 2     
   30   14   35 1     
   31   15   16 1     
   32   15   41 1     
   33   16   21 ar    
   34   16   17 ar    
   35   17   18 ar    
   36   17   36 1     
   37   18   19 ar    
   38   18   37 1     
   39   19   20 ar    
   40   19   38 1     
   41   20   21 ar    
   42   20   39 1     
   43   22   40 1     
   44    2   42 1     
   45    2   43 1     
   46    7   44 1     
   47    7   45 1     
   48   11   46 1     
   49   11   47 1     
@<TRIPOS>SUBSTRUCTURE
      1 S1             1
@<TRIPOS>SET
LONE_PAIRS      STATIC     ATOMS    <user>   **** ""
6 42 43 44 45 46 47
DONOR_HYDROGENS      STATIC     ATOMS    <user>   **** ""
2 32 41
ATOM$BLUE        STATIC     ATOMS    COLORGROUP SYSTEM
6 42 43 44 45 46 47
ATOM$RED        STATIC     ATOMS    COLORGROUP SYSTEM
2 32 41
