AV-unprocessed.smi:2638|AV-procd|sdf|10262|dock3
  -GOLD-   2272014273D 1   1.00000     0.00000
 Structure written by MMmdl.
 43 44  0  0  0  0  0  0  0  0  1 V2000
  149.3157  140.6544  157.4283 O   0  0  0  0  0  0  0  0  0  0  0  0
  149.2799  141.7589  156.8846 C   0  0  0  0  0  0  0  0  0  0  0  0
  150.0737  142.8004  157.1889 N   0  0  0  0  0  0  0  0  0  0  0  0
  151.1107  142.8611  158.1572 C   0  0  0  0  0  0  0  0  0  0  0  0
  151.6474  141.6105  158.5381 C   0  0  0  0  0  0  0  0  0  0  0  0
  152.6789  141.5618  159.4956 C   0  0  0  0  0  0  0  0  0  0  0  0
  153.1488  142.7667  160.0477 C   0  0  0  0  0  0  0  0  0  0  0  0
  152.5613  143.9689  159.6127 C   0  0  0  0  0  0  0  0  0  0  0  0
  151.5720  144.0177  158.6958 N   0  0  0  0  0  0  0  0  0  0  0  0
  148.4303  142.0751  155.8952 N   0  0  0  0  0  0  0  0  0  0  0  0
  147.4456  141.1798  155.2822 C   0  0  2  0  0  0  0  0  0  0  0  0
  147.9429  140.7540  153.8764 C   0  0  0  0  0  0  0  0  0  0  0  0
  147.1100  139.6564  153.1842 C   0  0  0  0  0  0  0  0  0  0  0  0
  147.8458  139.0016  152.1712 O   0  0  0  0  0  0  0  0  0  0  0  0
  146.0463  141.8628  155.2659 C   0  0  0  0  0  0  0  0  0  0  0  0
  145.9880  143.0583  154.2795 C   0  0  0  0  0  0  0  0  0  0  0  0
  144.6085  143.7348  154.2575 C   0  0  0  0  0  0  0  0  0  0  0  0
  144.1949  144.1980  155.6594 C   0  0  0  0  0  0  0  0  0  0  0  0
  144.2213  143.0239  156.6455 C   0  0  0  0  0  0  0  0  0  0  0  0
  145.5990  142.3417  156.6697 C   0  0  0  0  0  0  0  0  0  0  0  0
  149.9280  143.6446  156.6552 H   0  0  0  0  0  0  0  0  0  0  0  0
  151.2740  140.6942  158.1040 H   0  0  0  0  0  0  0  0  0  0  0  0
  153.1013  140.6157  159.8003 H   0  0  0  0  0  0  0  0  0  0  0  0
  153.9380  142.7700  160.7849 H   0  0  0  0  0  0  0  0  0  0  0  0
  152.8928  144.9164  160.0110 H   0  0  0  0  0  0  0  0  0  0  0  0
  148.4814  143.0087  155.5149 H   0  0  0  0  0  0  0  0  0  0  0  0
  147.3572  140.2717  155.8813 H   0  0  0  0  0  0  0  0  0  0  0  0
  147.9066  141.6201  153.2180 H   0  0  0  0  0  0  0  0  0  0  0  0
  148.9916  140.4554  153.9161 H   0  0  0  0  0  0  0  0  0  0  0  0
  146.7467  138.9270  153.9086 H   0  0  0  0  0  0  0  0  0  0  0  0
  146.2324  140.1017  152.7150 H   0  0  0  0  0  0  0  0  0  0  0  0
  148.6631  139.4606  152.0495 H   0  0  0  0  0  0  0  0  0  0  0  0
  145.3215  141.1219  154.9243 H   0  0  0  0  0  0  0  0  0  0  0  0
  146.7484  143.7922  154.5501 H   0  0  0  0  0  0  0  0  0  0  0  0
  146.2209  142.7377  153.2646 H   0  0  0  0  0  0  0  0  0  0  0  0
  144.6232  144.5851  153.5751 H   0  0  0  0  0  0  0  0  0  0  0  0
  143.8656  143.0384  153.8667 H   0  0  0  0  0  0  0  0  0  0  0  0
  144.8708  144.9824  156.0022 H   0  0  0  0  0  0  0  0  0  0  0  0
  143.1977  144.6377  155.6285 H   0  0  0  0  0  0  0  0  0  0  0  0
  143.9636  143.3749  157.6451 H   0  0  0  0  0  0  0  0  0  0  0  0
  143.4582  142.2957  156.3681 H   0  0  0  0  0  0  0  0  0  0  0  0
  145.5416  141.5067  157.3659 H   0  0  0  0  0  0  0  0  0  0  0  0
  146.3395  143.0326  157.0750 H   0  0  0  0  0  0  0  0  0  0  0  0
  1  2  2  0  0  0  0
  2  3  1  0  0  0  0
  2 10  1  0  0  0  0
  3  4  1  0  0  0  0
  3 21  1  0  0  0  0
  4  9  1  0  0  0  0
  4  5  2  0  0  0  0
  5  6  1  0  0  0  0
  5 22  1  0  0  0  0
  6  7  2  0  0  0  0
  6 23  1  0  0  0  0
  7  8  1  0  0  0  0
  7 24  1  0  0  0  0
  8  9  2  0  0  0  0
  8 25  1  0  0  0  0
 10 11  1  0  0  0  0
 10 26  1  0  0  0  0
 11 12  1  0  0  0  0
 11 15  1  0  0  0  0
 11 27  1  0  0  0  0
 12 13  1  0  0  0  0
 12 28  1  0  0  0  0
 12 29  1  0  0  0  0
 13 14  1  0  0  0  0
 13 30  1  0  0  0  0
 13 31  1  0  0  0  0
 14 32  1  0  0  0  0
 15 20  1  0  0  0  0
 15 16  1  0  0  0  0
 15 33  1  0  0  0  0
 16 17  1  0  0  0  0
 16 34  1  0  0  0  0
 16 35  1  0  0  0  0
 17 18  1  0  0  0  0
 17 36  1  0  0  0  0
 17 37  1  0  0  0  0
 18 19  1  0  0  0  0
 18 38  1  0  0  0  0
 18 39  1  0  0  0  0
 19 20  1  0  0  0  0
 19 40  1  0  0  0  0
 19 41  1  0  0  0  0
 20 42  1  0  0  0  0
 20 43  1  0  0  0  0
M  END
> <s_m_source_file>
AV-unprocessed.smi

> <i_m_source_file_index>
2638

> <i_lp_mmshare_version>
43012

> <i_f3d_flags>
0

> <s_epik_input>
bjFbY0hdW2NIXVtjSF1bY0hdYzFbTkhdQyg9TylbTkhdW0NASF0oW0NIMl1bQ0gyXVtPSF0pW0NIXTJbQ0gyXVtDSDJdW0NIMl1bQ0gyXVtDSDJdMg==

> <s_epik_cmdline>
J2VwaWtfcHl0aG9uJywgJy1waCcsICc3LjAnLCAnLXRuJywgJzgnLCAnLW1hJywgJzIwMCcsICctbWV0YWxfYmluZGluZycsICctaW1hZScsICc8aW5maWxlLm1hZT4nLCAnLW9tYWUnLCAnPG91dGZpbGUubWFlPic=

> <r_lp_tautomer_probability>
1

> <r_epik_Ionization_Penalty>
5.22449e-05

> <r_epik_Ionization_Penalty_Charging>
0

> <r_epik_Ionization_Penalty_Neutral>
5.22449e-05

> <r_epik_State_Penalty>
-0

> <r_epik_Charging_Adjusted_Penalty>
0

> <i_epik_Tot_Q>
0

> <i_epik_Tot_abs_Q>
0

> <r_epik_Metal_State_Penalty>
-0

> <b_epik_Metal_Only>
0

> <s_lp_Force_Field>
OPLS_2005

> <r_lp_Energy>
19.3621

> <b_lp_Chiralities_Consistent>
1

> <s_lp_Variant>
AV-unprocessed.smi:2638-1

> <Gold.Version>
5.8.1

> <Gold.Id.Protein>
6NUR|6NUR_protein|mol2

> <Gold.PLP.Fitness>
47.3956

> <Gold.PLP.PLP>
-39.6648

> <Gold.PLP.part.hbond>
-3.5930

> <Gold.PLP.part.metal>
0.0000

> <Gold.PLP.part.buried>
-6.2740

> <Gold.PLP.part.nonpolar>
-30.5171

> <Gold.PLP.part.repulsive>
0.1960

> <Gold.PLP.ligand.clash>
0.0000

> <Gold.PLP.ligand.torsion>
0.3934

> <Gold.PLP.Chemscore.Hbond>
2.8240

> <Gold.PLP.Chemscore.CHOScore>
0.0000

> <Gold.PLP.Chemscore.Metal>
0.0000

> <Gold.Chemscore.Hbonds>
donor molecule, donor type, donor heavy atom, donor atom, acceptor molecule, acceptor atom, score
      L1  H     3    21       P1  8028  1.00
      L1  H    10    26       P1  8028  1.00
      L1  H    14    32       P1  7957  0.64

> <Gold.PLP.Chemscore.Internal.Correction>
0.0456

> <Gold.Rescore>
     Score         DG    S(hbond)    S(metal)    S(lipo)     H(rot)  DE(clash)    DE(int)     intcor
     17.32     -19.20       2.84        0.00      86.56       2.30       0.03       1.86       ----

> <Gold.Chemscore.Fitness>
17.3181

> <Gold.Chemscore.DG>
-19.2042

> <Gold.Chemscore.ZeroCoef>
-5.4800

> <Gold.Chemscore.Hbond>
2.8375

> <Gold.Chemscore.Metal>
0.0000

> <Gold.Chemscore.Lipo>
86.5609

> <Gold.Chemscore.Internal_Hbond>
0.0000

> <Gold.Chemscore.DEClash>
0.0255

> <Gold.Chemscore.DEInternal>
1.8605

> <Gold.Chemscore.Rot>
2.2972

> <Gold.Chemscore.Internal.Correction>
   9.000000E+99

> <Gold.Chemscore.Hbonds>
donor molecule, donor type, donor heavy atom, donor atom, acceptor molecule, acceptor atom, score
      L1  H     3    21       P1  8028  0.96
      L1  H    10    26       P1  8028  0.96
      L1  H    14    32       P1  7957  0.63

> <Gold.Chemscore.Hbond.Weighted>
-9.4773

> <Gold.Chemscore.Metal.Weighted>
-0.0000

> <Gold.Chemscore.Lipo.Weighted>
-10.1276

> <Gold.Chemscore.Internal_Hbond.Weighted>
0.0000

> <Gold.Chemscore.DEClash.Weighted>
0.0255

> <Gold.Chemscore.DEInternal.Weighted>
1.8605

> <Gold.Chemscore.Rot.Weighted>
5.8807

> <Gold.Chemscore.Internal.Correction.Weighted>
   9.000000E+99

> <Gold.Protein.RotatedTorsions>
[ 6907 6896 6895 6894 ] final   -3.06 input  -60.11 | X-H torsion
[ 7974 7965 7964 7962 ] final -110.23 input  175.53 | X-H torsion
[ 8008 7997 7996 7995 ] final -142.86 input   59.86 | X-H torsion
[ 10167 10162 10161 10158 ] final -151.85 input  -65.29 | X-H torsion
[ 10718 10713 10712 10709 ] final -137.99 input   66.30 | X-H torsion
[ 10763 10752 10751 10750 ] final   81.96 input  -60.55 | X-H torsion
[ 11005 11000 10999 10996 ] final  150.77 input  -57.11 | X-H torsion

> <Gold.Protein.ActiveResidues>
 VAL166  LYS551  ARG553  GLY616  TRP617  ASP618  TYR619  PRO620  LYS621  CYS622 
 ASP623  PHE694  ASN695  SER759  ASP760  ASP761  ALA762  ILE779  LEU786  VAL792 
 PHE793  MET794  SER795  GLU796  ALA797  LYS798  CYS799  TRP800  GLU811  SER814 

> <Gold.Protein.RotatedAtoms>
  151.5199  135.1067  159.9875 H   0  0  0  0  0  0  0  0  0  0  0  0  # atno 6907 bound_to 6896
  152.4625  133.7848  159.6881 H   0  0  0  0  0  0  0  0  0  0  0  0  # atno 6908 bound_to 6896
  150.8593  133.7603  159.3023 H   0  0  0  0  0  0  0  0  0  0  0  0  # atno 6909 bound_to 6896
  145.1708  140.8924  143.3536 H   0  0  0  0  0  0  0  0  0  0  0  0  # atno 7974 bound_to 7965
  155.5012  140.0575  157.2939 H   0  0  0  0  0  0  0  0  0  0  0  0  # atno 8008 bound_to 7997
  154.4586  140.1985  156.0257 H   0  0  0  0  0  0  0  0  0  0  0  0  # atno 8009 bound_to 7997
  156.0848  140.3242  155.7743 H   0  0  0  0  0  0  0  0  0  0  0  0  # atno 8010 bound_to 7997
  139.7232  143.8925  152.2510 H   0  0  0  0  0  0  0  0  0  0  0  0  # atno 10167 bound_to 10162
  156.2943  130.7393  151.1427 H   0  0  0  0  0  0  0  0  0  0  0  0  # atno 10718 bound_to 10713
  153.1161  135.4746  154.9118 H   0  0  0  0  0  0  0  0  0  0  0  0  # atno 10763 bound_to 10752
  154.7530  135.3111  154.8525 H   0  0  0  0  0  0  0  0  0  0  0  0  # atno 10764 bound_to 10752
  153.9101  135.6866  153.4805 H   0  0  0  0  0  0  0  0  0  0  0  0  # atno 10765 bound_to 10752
  140.1160  134.8894  157.2004 H   0  0  0  0  0  0  0  0  0  0  0  0  # atno 11005 bound_to 11000
  145.0235  139.3403  143.6060 LP  0  0  0  0  0  0  0  0  0  0  0  0  # atno 17320 bound_to 7965
  146.3469  139.9545  142.8725 LP  0  0  0  0  0  0  0  0  0  0  0  0  # atno 17321 bound_to 7965
  139.8826  144.7009  150.8860 LP  0  0  0  0  0  0  0  0  0  0  0  0  # atno 17342 bound_to 10162
  140.7757  143.3649  151.1758 LP  0  0  0  0  0  0  0  0  0  0  0  0  # atno 17343 bound_to 10162
  157.7351  131.0575  150.5488 LP  0  0  0  0  0  0  0  0  0  0  0  0  # atno 17370 bound_to 10713
  156.5608  130.4255  149.6064 LP  0  0  0  0  0  0  0  0  0  0  0  0  # atno 17371 bound_to 10713
  140.3028  134.3112  155.7285 LP  0  0  0  0  0  0  0  0  0  0  0  0  # atno 17394 bound_to 11000
  141.2141  133.7602  156.9665 LP  0  0  0  0  0  0  0  0  0  0  0  0  # atno 17395 bound_to 11000

$$$$
