AV-unprocessed.smi:2004|AV-procd|sdf|8123|dock10
  -GOLD-   2272010363D 1   1.00000     0.00000
 Structure written by MMmdl.
 40 42  0  0  0  0  0  0  0  0  2 V2000
  153.0875  136.6869  160.0565 O   0  0  0  0  0  0  0  0  0  0  0  0
  153.7789  137.7311  160.7081 C   0  0  2  0  0  0  0  0  0  0  0  0
  154.0990  138.8370  159.6834 C   0  0  0  0  0  0  0  0  0  0  0  0
  152.9571  139.6675  159.5656 O   0  0  0  0  0  0  0  0  0  0  0  0
  153.2038  140.9294  158.9765 C   0  0  0  0  0  0  0  0  0  0  0  0
  152.9135  142.0366  159.9697 C   0  0  0  0  0  0  0  0  0  0  0  0
  152.2702  143.2153  159.5376 C   0  0  0  0  0  0  0  0  0  0  0  0
  151.9738  144.2387  160.4584 C   0  0  0  0  0  0  0  0  0  0  0  0
  152.3217  144.0882  161.8146 C   0  0  0  0  0  0  0  0  0  0  0  0
  152.9688  142.9151  162.2490 C   0  0  0  0  0  0  0  0  0  0  0  0
  153.2667  141.8917  161.3280 C   0  0  0  0  0  0  0  0  0  0  0  0
  155.0102  137.1289  161.4303 C   0  0  0  0  0  0  0  0  0  0  0  0
  154.7071  136.5289  162.7378 N   0  0  0  0  0  0  0  0  0  0  0  0
  154.4151  137.1268  163.9252 C   0  0  0  0  0  0  0  0  0  0  0  0
  154.1600  136.1422  164.8306 N   0  3  0  0  0  0  0  0  0  0  0  0
  154.2962  134.8964  164.2153 C   0  0  0  0  0  0  0  0  0  0  0  0
  154.1256  133.6097  164.7161 C   0  0  0  0  0  0  0  0  0  0  0  0
  154.3375  132.5470  163.8136 C   0  0  0  0  0  0  0  0  0  0  0  0
  154.7101  132.7837  162.4742 C   0  0  0  0  0  0  0  0  0  0  0  0
  154.8836  134.0927  161.9780 C   0  0  0  0  0  0  0  0  0  0  0  0
  154.6632  135.1370  162.8743 C   0  0  0  0  0  0  0  0  0  0  0  0
  153.1508  136.8192  159.1230 H   0  0  0  0  0  0  0  0  0  0  0  0
  153.0922  138.1423  161.4485 H   0  0  0  0  0  0  0  0  0  0  0  0
  154.9766  139.4037  159.9988 H   0  0  0  0  0  0  0  0  0  0  0  0
  154.3167  138.4088  158.7037 H   0  0  0  0  0  0  0  0  0  0  0  0
  154.2440  140.9954  158.6533 H   0  0  0  0  0  0  0  0  0  0  0  0
  152.5765  141.0575  158.0933 H   0  0  0  0  0  0  0  0  0  0  0  0
  151.9961  143.3332  158.4994 H   0  0  0  0  0  0  0  0  0  0  0  0
  151.4791  145.1387  160.1243 H   0  0  0  0  0  0  0  0  0  0  0  0
  152.0941  144.8728  162.5211 H   0  0  0  0  0  0  0  0  0  0  0  0
  153.2366  142.8007  163.2891 H   0  0  0  0  0  0  0  0  0  0  0  0
  153.7586  140.9934  161.6708 H   0  0  0  0  0  0  0  0  0  0  0  0
  155.5026  136.3797  160.8090 H   0  0  0  0  0  0  0  0  0  0  0  0
  155.7482  137.9110  161.6157 H   0  0  0  0  0  0  0  0  0  0  0  0
  154.3738  138.1903  164.1105 H   0  0  0  0  0  0  0  0  0  0  0  0
  153.8383  133.4261  165.7410 H   0  0  0  0  0  0  0  0  0  0  0  0
  154.2112  131.5301  164.1559 H   0  0  0  0  0  0  0  0  0  0  0  0
  154.8638  131.9437  161.8125 H   0  0  0  0  0  0  0  0  0  0  0  0
  155.1649  134.2647  160.9499 H   0  0  0  0  0  0  0  0  0  0  0  0
  153.9059  136.3107  165.7954 H   0  0  0  0  0  0  0  0  0  0  0  0
  1  2  1  0  0  0  0
  1 22  1  0  0  0  0
  2  3  1  0  0  0  0
  2 12  1  0  0  0  0
  2 23  1  0  0  0  0
  3  4  1  0  0  0  0
  3 24  1  0  0  0  0
  3 25  1  0  0  0  0
  4  5  1  0  0  0  0
  5  6  1  0  0  0  0
  5 26  1  0  0  0  0
  5 27  1  0  0  0  0
  6 11  1  0  0  0  0
  6  7  2  0  0  0  0
  7  8  1  0  0  0  0
  7 28  1  0  0  0  0
  8  9  2  0  0  0  0
  8 29  1  0  0  0  0
  9 10  1  0  0  0  0
  9 30  1  0  0  0  0
 10 11  2  0  0  0  0
 10 31  1  0  0  0  0
 11 32  1  0  0  0  0
 12 13  1  0  0  0  0
 12 33  1  0  0  0  0
 12 34  1  0  0  0  0
 13 21  1  0  0  0  0
 13 14  1  0  0  0  0
 14 15  2  0  0  0  0
 14 35  1  0  0  0  0
 15 16  1  0  0  0  0
 15 40  1  0  0  0  0
 16 21  2  0  0  0  0
 16 17  1  0  0  0  0
 17 18  2  0  0  0  0
 17 36  1  0  0  0  0
 18 19  1  0  0  0  0
 18 37  1  0  0  0  0
 19 20  2  0  0  0  0
 19 38  1  0  0  0  0
 20 21  1  0  0  0  0
 20 39  1  0  0  0  0
M  CHG  1  15   1
M  END
> <s_m_source_file>
AV-unprocessed.smi

> <i_m_source_file_index>
2004

> <i_lp_mmshare_version>
43012

> <i_f3d_flags>
0

> <s_epik_input>
W2NIXTFbY0hdW2NIXVtjSF1jKGMxMiluKFtjSF1uMilbQ0gyXVtDQEhdKFtPSF0pW0NIMl1PW0NIMl1jM1tjSF1bY0hdW2NIXVtjSF1bY0hdMw==

> <s_epik_cmdline>
J2VwaWtfcHl0aG9uJywgJy1waCcsICc3LjAnLCAnLXRuJywgJzgnLCAnLW1hJywgJzIwMCcsICctbWV0YWxfYmluZGluZycsICctaW1hZScsICc8aW5maWxlLm1hZT4nLCAnLW9tYWUnLCAnPG91dGZpbGUubWFlPic=

> <r_epik_Ionization_Penalty>
1.28975

> <r_epik_Ionization_Penalty_Charging>
1.28975

> <r_epik_Ionization_Penalty_Neutral>
1.07667e-06

> <r_epik_State_Penalty>
1.36276

> <r_epik_Charging_Adjusted_Penalty>
2.65251

> <i_epik_Tot_Q>
1

> <i_epik_Tot_abs_Q>
1

> <r_epik_Metal_State_Penalty>
5.39298

> <b_epik_Metal_Only>
0

> <s_lp_Force_Field>
OPLS_2005

> <r_lp_Energy>
17.8954

> <b_lp_Chiralities_Consistent>
1

> <s_lp_Variant>
AV-unprocessed.smi:2004-3

> <Gold.Version>
5.8.1

> <Gold.Id.Protein>
6NUR|6NUR_protein|mol2

> <Gold.PLP.Fitness>
51.3337

> <Gold.PLP.PLP>
-51.0341

> <Gold.PLP.part.hbond>
-2.0000

> <Gold.PLP.part.metal>
0.0000

> <Gold.PLP.part.buried>
-5.2278

> <Gold.PLP.part.nonpolar>
-42.0934

> <Gold.PLP.part.repulsive>
0.1544

> <Gold.PLP.ligand.clash>
0.0000

> <Gold.PLP.ligand.torsion>
1.4216

> <Gold.PLP.Chemscore.Hbond>
1.0000

> <Gold.PLP.Chemscore.CHOScore>
0.0000

> <Gold.PLP.Chemscore.Metal>
0.0000

> <Gold.Chemscore.Hbonds>
donor molecule, donor type, donor heavy atom, donor atom, acceptor molecule, acceptor atom, score
      P1  H  6896  6907       L1     1  0.95

> <Gold.PLP.Chemscore.Internal.Correction>
0.1429

> <Gold.Rescore>
     Score         DG    S(hbond)    S(metal)    S(lipo)     H(rot)  DE(clash)    DE(int)     intcor
     15.93     -17.32       0.92        0.00     128.08       2.43       0.05       1.34       ----

> <Gold.Chemscore.Fitness>
15.9321

> <Gold.Chemscore.DG>
-17.3189

> <Gold.Chemscore.ZeroCoef>
-5.4800

> <Gold.Chemscore.Hbond>
0.9181

> <Gold.Chemscore.Metal>
0.0000

> <Gold.Chemscore.Lipo>
128.0797

> <Gold.Chemscore.Internal_Hbond>
0.0000

> <Gold.Chemscore.DEClash>
0.0494

> <Gold.Chemscore.DEInternal>
1.3374

> <Gold.Chemscore.Rot>
2.4269

> <Gold.Chemscore.Internal.Correction>
   9.000000E+99

> <Gold.Chemscore.Hbonds>
donor molecule, donor type, donor heavy atom, donor atom, acceptor molecule, acceptor atom, score
      P1  H  6896  6907       L1     1  0.21

> <Gold.Chemscore.Hbond.Weighted>
-3.0663

> <Gold.Chemscore.Metal.Weighted>
-0.0000

> <Gold.Chemscore.Lipo.Weighted>
-14.9853

> <Gold.Chemscore.Internal_Hbond.Weighted>
0.0000

> <Gold.Chemscore.DEClash.Weighted>
0.0494

> <Gold.Chemscore.DEInternal.Weighted>
1.3374

> <Gold.Chemscore.Rot.Weighted>
6.2127

> <Gold.Chemscore.Internal.Correction.Weighted>
   9.000000E+99

> <Gold.Protein.RotatedTorsions>
[ 6907 6896 6895 6894 ] final   37.18 input  -60.11 | X-H torsion
[ 7974 7965 7964 7962 ] final  -11.79 input  175.53 | X-H torsion
[ 8008 7997 7996 7995 ] final  -78.44 input   59.86 | X-H torsion
[ 10167 10162 10161 10158 ] final -122.07 input  -65.29 | X-H torsion
[ 10718 10713 10712 10709 ] final   32.87 input   66.30 | X-H torsion
[ 10763 10752 10751 10750 ] final   -9.88 input  -60.55 | X-H torsion
[ 11005 11000 10999 10996 ] final   14.62 input  -57.11 | X-H torsion

> <Gold.Protein.ActiveResidues>
 VAL166  LYS551  ARG553  GLY616  TRP617  ASP618  TYR619  PRO620  LYS621  CYS622 
 ASP623  PHE694  ASN695  SER759  ASP760  ASP761  ALA762  ILE779  LEU786  VAL792 
 PHE793  MET794  SER795  GLU796  ALA797  LYS798  CYS799  TRP800  GLU811  SER814 

> <Gold.Protein.RotatedAtoms>
  152.1397  134.9072  160.0554 H   0  0  0  0  0  0  0  0  0  0  0  0  # atno 6907 bound_to 6896
  152.0145  133.3869  159.4241 H   0  0  0  0  0  0  0  0  0  0  0  0  # atno 6908 bound_to 6896
  150.6864  134.3615  159.4996 H   0  0  0  0  0  0  0  0  0  0  0  0  # atno 6909 bound_to 6896
  146.2175  140.2963  142.8372 H   0  0  0  0  0  0  0  0  0  0  0  0  # atno 7974 bound_to 7965
  154.5690  140.0694  156.8935 H   0  0  0  0  0  0  0  0  0  0  0  0  # atno 8008 bound_to 7997
  155.2670  140.3362  155.4250 H   0  0  0  0  0  0  0  0  0  0  0  0  # atno 8009 bound_to 7997
  156.2103  140.1756  156.7695 H   0  0  0  0  0  0  0  0  0  0  0  0  # atno 8010 bound_to 7997
  140.0183  143.5371  152.2232 H   0  0  0  0  0  0  0  0  0  0  0  0  # atno 10167 bound_to 10162
  157.2907  130.7301  149.6609 H   0  0  0  0  0  0  0  0  0  0  0  0  # atno 10718 bound_to 10713
  153.4612  135.7016  153.6049 H   0  0  0  0  0  0  0  0  0  0  0  0  # atno 10763 bound_to 10752
  153.4343  135.3795  155.2190 H   0  0  0  0  0  0  0  0  0  0  0  0  # atno 10764 bound_to 10752
  154.8727  135.3958  154.4037 H   0  0  0  0  0  0  0  0  0  0  0  0  # atno 10765 bound_to 10752
  140.4674  134.1065  155.7726 H   0  0  0  0  0  0  0  0  0  0  0  0  # atno 11005 bound_to 11000
  144.9090  140.7734  143.5819 LP  0  0  0  0  0  0  0  0  0  0  0  0  # atno 17320 bound_to 7965
  145.2893  139.1889  143.4749 LP  0  0  0  0  0  0  0  0  0  0  0  0  # atno 17321 bound_to 7965
  139.6158  144.7619  151.2851 LP  0  0  0  0  0  0  0  0  0  0  0  0  # atno 17342 bound_to 10162
  140.7353  143.6740  150.8057 LP  0  0  0  0  0  0  0  0  0  0  0  0  # atno 17343 bound_to 10162
  155.9667  130.4310  150.4900 LP  0  0  0  0  0  0  0  0  0  0  0  0  # atno 17370 bound_to 10713
  157.2862  131.0617  151.2165 LP  0  0  0  0  0  0  0  0  0  0  0  0  # atno 17371 bound_to 10713
  141.1593  133.8823  157.1892 LP  0  0  0  0  0  0  0  0  0  0  0  0  # atno 17394 bound_to 11000
  139.9906  135.0066  156.9967 LP  0  0  0  0  0  0  0  0  0  0  0  0  # atno 17395 bound_to 11000

$$$$
