AV-unprocessed.smi:2260|AV-procd|sdf|9133|dock1
  -GOLD-   2272012343D 1   1.00000     0.00000
 Structure written by MMmdl.
 43 44  0  0  0  0  0  0  0  0  2 V2000
  148.8999  129.9595  153.1739 C   0  0  0  0  0  0  0  0  0  0  0  0
  150.0367  130.4852  154.0338 C   0  0  0  0  0  0  0  0  0  0  0  0
  151.1392  129.8053  154.3668 C   0  0  0  0  0  0  0  0  0  0  0  0
  152.2468  130.7459  155.3379 S   0  0  0  0  0  0  0  0  0  0  0  0
  151.1258  132.1529  155.2708 C   0  0  0  0  0  0  0  0  0  0  0  0
  151.3708  133.2309  155.8098 O   0  0  0  0  0  0  0  0  0  0  0  0
  150.0002  131.7938  154.5318 N   0  0  0  0  0  0  0  0  0  0  0  0
  148.8914  132.7273  154.3147 C   0  0  0  0  0  0  0  0  0  0  0  0
  148.7005  133.0265  152.8200 C   0  0  0  0  0  0  0  0  0  0  0  0
  147.5447  133.9218  152.6068 N   0  3  0  0  0  0  0  0  0  0  0  0
  146.6325  133.5393  151.5020 C   0  0  1  0  0  0  0  0  0  0  0  0
  146.2485  132.0430  151.5883 C   0  0  0  0  0  0  0  0  0  0  0  0
  145.3084  131.6311  150.4475 C   0  0  0  0  0  0  0  0  0  0  0  0
  144.0583  132.5171  150.4100 C   0  0  0  0  0  0  0  0  0  0  0  0
  144.4401  134.0039  150.3178 C   0  0  0  0  0  0  0  0  0  0  0  0
  145.3828  134.4739  151.4562 C   0  0  0  0  0  0  0  0  0  0  0  0
  144.6163  134.4922  152.8010 C   0  0  0  0  0  0  0  0  0  0  0  0
  145.8225  135.9183  151.1319 C   0  0  0  0  0  0  0  0  0  0  0  0
  149.2477  129.1299  152.5577 H   0  0  0  0  0  0  0  0  0  0  0  0
  148.5070  130.7201  152.5001 H   0  0  0  0  0  0  0  0  0  0  0  0
  148.0881  129.5950  153.8035 H   0  0  0  0  0  0  0  0  0  0  0  0
  151.3752  128.7897  154.0844 H   0  0  0  0  0  0  0  0  0  0  0  0
  147.9708  132.3390  154.7507 H   0  0  0  0  0  0  0  0  0  0  0  0
  149.0890  133.6570  154.8514 H   0  0  0  0  0  0  0  0  0  0  0  0
  149.5980  133.4992  152.4187 H   0  0  0  0  0  0  0  0  0  0  0  0
  148.5554  132.0957  152.2725 H   0  0  0  0  0  0  0  0  0  0  0  0
  147.0107  133.9908  153.4612 H   0  0  0  0  0  0  0  0  0  0  0  0
  147.1782  133.6842  150.5676 H   0  0  0  0  0  0  0  0  0  0  0  0
  147.1384  131.4163  151.5401 H   0  0  0  0  0  0  0  0  0  0  0  0
  145.7791  131.8251  152.5480 H   0  0  0  0  0  0  0  0  0  0  0  0
  145.8358  131.7062  149.4955 H   0  0  0  0  0  0  0  0  0  0  0  0
  145.0214  130.5851  150.5598 H   0  0  0  0  0  0  0  0  0  0  0  0
  143.4394  132.2428  149.5551 H   0  0  0  0  0  0  0  0  0  0  0  0
  143.4470  132.3355  151.2943 H   0  0  0  0  0  0  0  0  0  0  0  0
  144.9235  134.1723  149.3541 H   0  0  0  0  0  0  0  0  0  0  0  0
  143.5334  134.6101  150.3042 H   0  0  0  0  0  0  0  0  0  0  0  0
  143.7252  135.1173  152.7348 H   0  0  0  0  0  0  0  0  0  0  0  0
  145.2259  134.8968  153.6094 H   0  0  0  0  0  0  0  0  0  0  0  0
  144.2886  133.5006  153.1102 H   0  0  0  0  0  0  0  0  0  0  0  0
  144.9612  136.5802  151.0337 H   0  0  0  0  0  0  0  0  0  0  0  0
  146.3775  135.9671  150.1943 H   0  0  0  0  0  0  0  0  0  0  0  0
  146.4605  136.3356  151.9114 H   0  0  0  0  0  0  0  0  0  0  0  0
  147.9135  134.8363  152.3874 H   0  0  0  0  0  0  0  0  0  0  0  0
  1  2  1  0  0  0  0
  1 19  1  0  0  0  0
  1 20  1  0  0  0  0
  1 21  1  0  0  0  0
  2  7  1  0  0  0  0
  2  3  2  0  0  0  0
  3  4  1  0  0  0  0
  3 22  1  0  0  0  0
  4  5  1  0  0  0  0
  5  6  2  0  0  0  0
  5  7  1  0  0  0  0
  7  8  1  0  0  0  0
  8  9  1  0  0  0  0
  8 23  1  0  0  0  0
  8 24  1  0  0  0  0
  9 10  1  0  0  0  0
  9 25  1  0  0  0  0
  9 26  1  0  0  0  0
 10 11  1  0  0  0  0
 10 27  1  0  0  0  0
 10 43  1  0  0  0  0
 11 16  1  0  0  0  0
 11 12  1  0  0  0  0
 11 28  1  0  0  0  0
 12 13  1  0  0  0  0
 12 29  1  0  0  0  0
 12 30  1  0  0  0  0
 13 14  1  0  0  0  0
 13 31  1  0  0  0  0
 13 32  1  0  0  0  0
 14 15  1  0  0  0  0
 14 33  1  0  0  0  0
 14 34  1  0  0  0  0
 15 16  1  0  0  0  0
 15 35  1  0  0  0  0
 15 36  1  0  0  0  0
 16 17  1  0  0  0  0
 16 18  1  0  0  0  0
 17 37  1  0  0  0  0
 17 38  1  0  0  0  0
 17 39  1  0  0  0  0
 18 40  1  0  0  0  0
 18 41  1  0  0  0  0
 18 42  1  0  0  0  0
M  CHG  1  10   1
M  END
> <s_m_source_file>
AV-unprocessed.smi

> <i_m_source_file_index>
2260

> <i_lp_mmshare_version>
43012

> <i_f3d_flags>
0

> <s_epik_input>
W0NIM11jMVtjSF1zYyg9TyluMVtDSDJdW0NIMl1bTkhdW0NAQEhdKEMyKFtDSDNdKVtDSDNdKVtDSDJdW0NIMl1bQ0gyXVtDSDJdMg==

> <s_epik_cmdline>
J2VwaWtfcHl0aG9uJywgJy1waCcsICc3LjAnLCAnLXRuJywgJzgnLCAnLW1hJywgJzIwMCcsICctbWV0YWxfYmluZGluZycsICctaW1hZScsICc8aW5maWxlLm1hZT4nLCAnLW9tYWUnLCAnPG91dGZpbGUubWFlPic=

> <r_epik_Ionization_Penalty>
0.0114277

> <r_epik_Ionization_Penalty_Charging>
0.0114277

> <r_epik_Ionization_Penalty_Neutral>
2.57259e-08

> <r_epik_State_Penalty>
0.0087935

> <r_epik_Charging_Adjusted_Penalty>
0.0202212

> <i_epik_Tot_Q>
1

> <i_epik_Tot_abs_Q>
1

> <r_epik_Metal_State_Penalty>
0.0087935

> <b_epik_Metal_Only>
0

> <s_lp_Force_Field>
OPLS_2005

> <r_lp_Energy>
26.3159

> <b_lp_Chiralities_Consistent>
1

> <s_lp_Variant>
AV-unprocessed.smi:2260-2

> <Gold.Version>
5.8.1

> <Gold.Id.Protein>
6NUR|6NUR_protein|mol2

> <Gold.PLP.Fitness>
43.8584

> <Gold.PLP.PLP>
-38.4974

> <Gold.PLP.part.hbond>
-1.0000

> <Gold.PLP.part.metal>
0.0000

> <Gold.PLP.part.buried>
-3.8941

> <Gold.PLP.part.nonpolar>
-32.7400

> <Gold.PLP.part.repulsive>
0.0000

> <Gold.PLP.ligand.clash>
0.0000

> <Gold.PLP.ligand.torsion>
0.3634

> <Gold.PLP.Chemscore.Hbond>
2.0000

> <Gold.PLP.Chemscore.CHOScore>
0.0000

> <Gold.PLP.Chemscore.Metal>
0.0000

> <Gold.Chemscore.Hbonds>
donor molecule, donor type, donor heavy atom, donor atom, acceptor molecule, acceptor atom, score
      L1  H    10    43       P1  7948  2.00
      L1  C     3    22       P1 10737  0.67

> <Gold.PLP.Chemscore.Internal.Correction>
0.0877

> <Gold.Rescore>
     Score         DG    S(hbond)    S(metal)    S(lipo)     H(rot)  DE(clash)    DE(int)     intcor
     14.87     -15.55       0.95        0.00      91.25       1.48       0.14       0.54       ----

> <Gold.Chemscore.Fitness>
14.8693

> <Gold.Chemscore.DG>
-15.5505

> <Gold.Chemscore.ZeroCoef>
-5.4800

> <Gold.Chemscore.Hbond>
0.9518

> <Gold.Chemscore.Metal>
0.0000

> <Gold.Chemscore.Lipo>
91.2518

> <Gold.Chemscore.Internal_Hbond>
0.0000

> <Gold.Chemscore.DEClash>
0.1363

> <Gold.Chemscore.DEInternal>
0.5449

> <Gold.Chemscore.Rot>
1.4785

> <Gold.Chemscore.Internal.Correction>
   9.000000E+99

> <Gold.Chemscore.Hbonds>
donor molecule, donor type, donor heavy atom, donor atom, acceptor molecule, acceptor atom, score
      L1  H    10    43       P1  7948  0.74

> <Gold.Chemscore.Hbond.Weighted>
-3.1791

> <Gold.Chemscore.Metal.Weighted>
-0.0000

> <Gold.Chemscore.Lipo.Weighted>
-10.6765

> <Gold.Chemscore.Internal_Hbond.Weighted>
0.0000

> <Gold.Chemscore.DEClash.Weighted>
0.1363

> <Gold.Chemscore.DEInternal.Weighted>
0.5449

> <Gold.Chemscore.Rot.Weighted>
3.7850

> <Gold.Chemscore.Internal.Correction.Weighted>
   9.000000E+99

> <Gold.Protein.RotatedTorsions>
[ 6907 6896 6895 6894 ] final -140.03 input  -60.11 | X-H torsion
[ 7974 7965 7964 7962 ] final  156.27 input  175.53 | X-H torsion
[ 8008 7997 7996 7995 ] final  -19.53 input   59.86 | X-H torsion
[ 10167 10162 10161 10158 ] final  131.16 input  -65.29 | X-H torsion
[ 10718 10713 10712 10709 ] final  -73.20 input   66.30 | X-H torsion
[ 10763 10752 10751 10750 ] final  148.36 input  -60.55 | X-H torsion
[ 11005 11000 10999 10996 ] final  -80.27 input  -57.11 | X-H torsion

> <Gold.Protein.ActiveResidues>
 VAL166  LYS551  ARG553  GLY616  TRP617  ASP618  TYR619  PRO620  LYS621  CYS622 
 ASP623  PHE694  ASN695  SER759  ASP760  ASP761  ALA762  ILE779  LEU786  VAL792 
 PHE793  MET794  SER795  GLU796  ALA797  LYS798  CYS799  TRP800  GLU811  SER814 

> <Gold.Protein.RotatedAtoms>
  151.0554  133.5589  159.2638 H   0  0  0  0  0  0  0  0  0  0  0  0  # atno 6907 bound_to 6896
  151.2584  135.0645  159.9098 H   0  0  0  0  0  0  0  0  0  0  0  0  # atno 6908 bound_to 6896
  152.5389  134.0304  159.8076 H   0  0  0  0  0  0  0  0  0  0  0  0  # atno 6909 bound_to 6896
  144.7973  139.7181  143.6196 H   0  0  0  0  0  0  0  0  0  0  0  0  # atno 7974 bound_to 7965
  154.4830  140.2086  155.9719 H   0  0  0  0  0  0  0  0  0  0  0  0  # atno 8008 bound_to 7997
  156.1194  140.3216  155.8155 H   0  0  0  0  0  0  0  0  0  0  0  0  # atno 8009 bound_to 7997
  155.4495  140.0516  157.2993 H   0  0  0  0  0  0  0  0  0  0  0  0  # atno 8010 bound_to 7997
  139.5397  144.6718  151.4667 H   0  0  0  0  0  0  0  0  0  0  0  0  # atno 10167 bound_to 10162
  156.0290  130.4389  150.2706 H   0  0  0  0  0  0  0  0  0  0  0  0  # atno 10718 bound_to 10713
  154.0535  135.2880  155.3336 H   0  0  0  0  0  0  0  0  0  0  0  0  # atno 10763 bound_to 10752
  154.6854  135.5247  153.8323 H   0  0  0  0  0  0  0  0  0  0  0  0  # atno 10764 bound_to 10752
  153.0551  135.6592  154.0729 H   0  0  0  0  0  0  0  0  0  0  0  0  # atno 10765 bound_to 10752
  141.1668  133.7143  156.8247 H   0  0  0  0  0  0  0  0  0  0  0  0  # atno 11005 bound_to 11000
  146.2245  139.5697  142.9596 LP  0  0  0  0  0  0  0  0  0  0  0  0  # atno 17320 bound_to 7965
  145.5641  141.0401  143.2210 LP  0  0  0  0  0  0  0  0  0  0  0  0  # atno 17321 bound_to 7965
  140.6621  143.8477  150.6899 LP  0  0  0  0  0  0  0  0  0  0  0  0  # atno 17342 bound_to 10162
  140.1875  143.4064  152.1888 LP  0  0  0  0  0  0  0  0  0  0  0  0  # atno 17343 bound_to 10162
  157.0809  131.0143  151.3157 LP  0  0  0  0  0  0  0  0  0  0  0  0  # atno 17370 bound_to 10713
  157.4928  130.7832  149.7524 LP  0  0  0  0  0  0  0  0  0  0  0  0  # atno 17371 bound_to 10713
  140.2094  134.8839  157.3257 LP  0  0  0  0  0  0  0  0  0  0  0  0  # atno 17394 bound_to 11000
  140.2103  134.4147  155.7616 LP  0  0  0  0  0  0  0  0  0  0  0  0  # atno 17395 bound_to 11000

$$$$
