AV-unprocessed.smi:3056|AV-procd|sdf|11651|dock10
  -GOLD-   2272017 53D 1   1.00000     0.00000
 Structure written by MMmdl.
 48 49  0  0  0  0  0  0  0  0  2 V2000
  144.3049  131.2287  150.9577 C   0  0  0  0  0  0  0  0  0  0  0  0
  144.9756  132.5388  151.2559 C   0  0  0  0  0  0  0  0  0  0  0  0
  146.3643  132.7869  151.4443 C   0  0  0  0  0  0  0  0  0  0  0  0
  146.6288  134.0593  151.6905 N   0  0  0  0  0  0  0  0  0  0  0  0
  145.4242  134.6698  151.6808 N   0  0  0  0  0  0  0  0  0  0  0  0
  145.3452  136.1104  151.9043 C   0  0  2  0  0  0  0  0  0  0  0  0
  146.0380  136.8891  150.7718 C   0  0  0  0  0  0  0  0  0  0  0  0
  145.8089  136.5266  153.3268 C   0  0  1  0  0  0  0  0  0  0  0  0
  144.8964  135.9661  154.4300 C   0  0  0  0  0  0  0  0  0  0  0  0
  147.2044  136.1111  153.5953 N   0  3  0  0  0  0  0  0  0  0  0  0
  147.8833  136.8454  154.6851 C   0  0  0  0  0  0  0  0  0  0  0  0
  147.7429  138.3678  154.5416 C   0  0  0  0  0  0  0  0  0  0  0  0
  146.6562  138.8900  154.7962 O   0  0  0  0  0  0  0  0  0  0  0  0
  148.8174  139.0902  154.1440 N   0  0  0  0  0  0  0  0  0  0  0  0
  148.8751  140.5489  154.0066 C   0  0  0  0  0  0  0  0  0  0  0  0
  149.8830  141.0895  155.0359 C   0  0  0  0  0  0  0  0  0  0  0  0
  151.1549  140.4802  154.8273 O   0  0  0  0  0  0  0  0  0  0  0  0
  151.1283  139.0568  154.9258 C   0  0  2  0  0  0  0  0  0  0  0  0
  152.5516  138.5341  154.7047 C   0  0  0  0  0  0  0  0  0  0  0  0
  150.1335  138.4990  153.8880 C   0  0  0  0  0  0  0  0  0  0  0  0
  144.4090  133.7714  151.4132 C   0  0  0  0  0  0  0  0  0  0  0  0
  145.0134  130.4834  150.5959 H   0  0  0  0  0  0  0  0  0  0  0  0
  143.5342  131.3350  150.1941 H   0  0  0  0  0  0  0  0  0  0  0  0
  143.8255  130.8125  151.8439 H   0  0  0  0  0  0  0  0  0  0  0  0
  147.1837  132.0841  151.4064 H   0  0  0  0  0  0  0  0  0  0  0  0
  144.2896  136.3808  151.8363 H   0  0  0  0  0  0  0  0  0  0  0  0
  145.9300  137.9648  150.9128 H   0  0  0  0  0  0  0  0  0  0  0  0
  145.5980  136.6409  149.8054 H   0  0  0  0  0  0  0  0  0  0  0  0
  147.1032  136.6659  150.7127 H   0  0  0  0  0  0  0  0  0  0  0  0
  145.7486  137.6141  153.3970 H   0  0  0  0  0  0  0  0  0  0  0  0
  143.8579  136.2537  154.2634 H   0  0  0  0  0  0  0  0  0  0  0  0
  145.1875  136.3475  155.4092 H   0  0  0  0  0  0  0  0  0  0  0  0
  144.9365  134.8775  154.4768 H   0  0  0  0  0  0  0  0  0  0  0  0
  147.2007  135.1328  153.8466 H   0  0  0  0  0  0  0  0  0  0  0  0
  147.4666  136.5418  155.6452 H   0  0  0  0  0  0  0  0  0  0  0  0
  148.9403  136.5755  154.6771 H   0  0  0  0  0  0  0  0  0  0  0  0
  149.2021  140.8008  152.9967 H   0  0  0  0  0  0  0  0  0  0  0  0
  147.9155  141.0454  154.1385 H   0  0  0  0  0  0  0  0  0  0  0  0
  149.9886  142.1692  154.9303 H   0  0  0  0  0  0  0  0  0  0  0  0
  149.5403  140.8993  156.0542 H   0  0  0  0  0  0  0  0  0  0  0  0
  150.8064  138.7767  155.9306 H   0  0  0  0  0  0  0  0  0  0  0  0
  152.5877  137.4475  154.7863 H   0  0  0  0  0  0  0  0  0  0  0  0
  153.2376  138.9454  155.4457 H   0  0  0  0  0  0  0  0  0  0  0  0
  152.9239  138.8087  153.7174 H   0  0  0  0  0  0  0  0  0  0  0  0
  150.1237  137.4090  153.9314 H   0  0  0  0  0  0  0  0  0  0  0  0
  150.4538  138.7571  152.8773 H   0  0  0  0  0  0  0  0  0  0  0  0
  143.3744  134.0767  151.3571 H   0  0  0  0  0  0  0  0  0  0  0  0
  147.7400  136.2144  152.7452 H   0  0  0  0  0  0  0  0  0  0  0  0
  1  2  1  0  0  0  0
  1 22  1  0  0  0  0
  1 23  1  0  0  0  0
  1 24  1  0  0  0  0
  2 21  2  0  0  0  0
  2  3  1  0  0  0  0
  3  4  2  0  0  0  0
  3 25  1  0  0  0  0
  4  5  1  0  0  0  0
  5  6  1  0  0  0  0
  5 21  1  0  0  0  0
  6  7  1  0  0  0  0
  6  8  1  0  0  0  0
  6 26  1  0  0  0  0
  7 27  1  0  0  0  0
  7 28  1  0  0  0  0
  7 29  1  0  0  0  0
  8  9  1  0  0  0  0
  8 10  1  0  0  0  0
  8 30  1  0  0  0  0
  9 31  1  0  0  0  0
  9 32  1  0  0  0  0
  9 33  1  0  0  0  0
 10 11  1  0  0  0  0
 10 34  1  0  0  0  0
 10 48  1  0  0  0  0
 11 12  1  0  0  0  0
 11 35  1  0  0  0  0
 11 36  1  0  0  0  0
 12 13  2  0  0  0  0
 12 14  1  0  0  0  0
 14 20  1  0  0  0  0
 14 15  1  0  0  0  0
 15 16  1  0  0  0  0
 15 37  1  0  0  0  0
 15 38  1  0  0  0  0
 16 17  1  0  0  0  0
 16 39  1  0  0  0  0
 16 40  1  0  0  0  0
 17 18  1  0  0  0  0
 18 19  1  0  0  0  0
 18 20  1  0  0  0  0
 18 41  1  0  0  0  0
 19 42  1  0  0  0  0
 19 43  1  0  0  0  0
 19 44  1  0  0  0  0
 20 45  1  0  0  0  0
 20 46  1  0  0  0  0
 21 47  1  0  0  0  0
M  CHG  1  10   1
M  END
> <s_m_source_file>
AV-unprocessed.smi

> <i_m_source_file_index>
3056

> <i_lp_mmshare_version>
43012

> <i_f3d_flags>
0

> <s_epik_input>
W0NIM11jMVtjSF1ubihbY0hdMSlbQ0BIXShbQ0gzXSlbQ0BIXShbQ0gzXSlbTkhdW0NIMl1DKD1PKU4yW0NIMl1bQ0gyXU9bQ0BASF0oW0NIM10pW0NIMl0y

> <s_epik_cmdline>
J2VwaWtfcHl0aG9uJywgJy1waCcsICc3LjAnLCAnLXRuJywgJzgnLCAnLW1hJywgJzIwMCcsICctbWV0YWxfYmluZGluZycsICctaW1hZScsICc8aW5maWxlLm1hZT4nLCAnLW9tYWUnLCAnPG91dGZpbGUubWFlPic=

> <r_lp_tautomer_probability>
1

> <r_epik_Ionization_Penalty>
0.233715

> <r_epik_Ionization_Penalty_Charging>
0.233698

> <r_epik_Ionization_Penalty_Neutral>
1.68157e-05

> <r_epik_State_Penalty>
0.225221

> <r_epik_Charging_Adjusted_Penalty>
0.458919

> <i_epik_Tot_Q>
1

> <i_epik_Tot_abs_Q>
1

> <r_epik_Metal_State_Penalty>
0.225535

> <b_epik_Metal_Only>
0

> <s_lp_Force_Field>
OPLS_2005

> <r_lp_Energy>
29.3518

> <b_lp_Chiralities_Consistent>
1

> <s_lp_Variant>
AV-unprocessed.smi:3056-7

> <Gold.Version>
5.8.1

> <Gold.Id.Protein>
6NUR|6NUR_protein|mol2

> <Gold.PLP.Fitness>
46.9176

> <Gold.PLP.PLP>
-33.8663

> <Gold.PLP.part.hbond>
-1.8568

> <Gold.PLP.part.metal>
0.0000

> <Gold.PLP.part.buried>
2.3969

> <Gold.PLP.part.nonpolar>
-34.8600

> <Gold.PLP.part.repulsive>
0.4926

> <Gold.PLP.ligand.clash>
0.0000

> <Gold.PLP.ligand.torsion>
0.4604

> <Gold.PLP.Chemscore.Hbond>
3.0000

> <Gold.PLP.Chemscore.CHOScore>
1.6037

> <Gold.PLP.Chemscore.Metal>
0.0000

> <Gold.Chemscore.Hbonds>
donor molecule, donor type, donor heavy atom, donor atom, acceptor molecule, acceptor atom, score
      L1  H    10    48       P1  7948  1.82
      P1  H  7989  7998       L1    17  0.83
      L1  C     3    25       P1 10747  1.00

> <Gold.PLP.Chemscore.Internal.Correction>
0.1611

> <Gold.Rescore>
     Score         DG    S(hbond)    S(metal)    S(lipo)     H(rot)  DE(clash)    DE(int)     intcor
     14.54     -17.37       1.70        0.00      91.06       1.74       1.37       1.46       ----

> <Gold.Chemscore.Fitness>
14.5444

> <Gold.Chemscore.DG>
-17.3726

> <Gold.Chemscore.ZeroCoef>
-5.4800

> <Gold.Chemscore.Hbond>
1.7009

> <Gold.Chemscore.Metal>
0.0000

> <Gold.Chemscore.Lipo>
91.0620

> <Gold.Chemscore.Internal_Hbond>
0.0000

> <Gold.Chemscore.DEClash>
1.3732

> <Gold.Chemscore.DEInternal>
1.4550

> <Gold.Chemscore.Rot>
1.7354

> <Gold.Chemscore.Internal.Correction>
   9.000000E+99

> <Gold.Chemscore.Hbonds>
donor molecule, donor type, donor heavy atom, donor atom, acceptor molecule, acceptor atom, score
      L1  H    10    48       P1  7948  0.88
      P1  H  7989  7998       L1    17  0.38

> <Gold.Chemscore.Hbond.Weighted>
-5.6810

> <Gold.Chemscore.Metal.Weighted>
-0.0000

> <Gold.Chemscore.Lipo.Weighted>
-10.6543

> <Gold.Chemscore.Internal_Hbond.Weighted>
0.0000

> <Gold.Chemscore.DEClash.Weighted>
1.3732

> <Gold.Chemscore.DEInternal.Weighted>
1.4550

> <Gold.Chemscore.Rot.Weighted>
4.4426

> <Gold.Chemscore.Internal.Correction.Weighted>
   9.000000E+99

> <Gold.Protein.RotatedTorsions>
[ 6907 6896 6895 6894 ] final -153.49 input  -60.11 | X-H torsion
[ 7974 7965 7964 7962 ] final  159.25 input  175.53 | X-H torsion
[ 8008 7997 7996 7995 ] final -115.92 input   59.86 | X-H torsion
[ 10167 10162 10161 10158 ] final  -31.72 input  -65.29 | X-H torsion
[ 10718 10713 10712 10709 ] final  -70.73 input   66.30 | X-H torsion
[ 10763 10752 10751 10750 ] final  124.40 input  -60.55 | X-H torsion
[ 11005 11000 10999 10996 ] final   33.96 input  -57.11 | X-H torsion

> <Gold.Protein.ActiveResidues>
 VAL166  LYS551  ARG553  GLY616  TRP617  ASP618  TYR619  PRO620  LYS621  CYS622 
 ASP623  PHE694  ASN695  SER759  ASP760  ASP761  ALA762  ILE779  LEU786  VAL792 
 PHE793  MET794  SER795  GLU796  ALA797  LYS798  CYS799  TRP800  GLU811  SER814 

> <Gold.Protein.RotatedAtoms>
  151.2433  133.4388  159.2608 H   0  0  0  0  0  0  0  0  0  0  0  0  # atno 6907 bound_to 6896
  151.0685  134.9783  159.8307 H   0  0  0  0  0  0  0  0  0  0  0  0  # atno 6908 bound_to 6896
  152.5409  134.2379  159.8903 H   0  0  0  0  0  0  0  0  0  0  0  0  # atno 6909 bound_to 6896
  144.7801  139.7591  143.6263 H   0  0  0  0  0  0  0  0  0  0  0  0  # atno 7974 bound_to 7965
  155.0597  140.0393  157.2572 H   0  0  0  0  0  0  0  0  0  0  0  0  # atno 8008 bound_to 7997
  154.7070  140.2685  155.6641 H   0  0  0  0  0  0  0  0  0  0  0  0  # atno 8009 bound_to 7997
  156.2778  140.2729  156.1699 H   0  0  0  0  0  0  0  0  0  0  0  0  # atno 8010 bound_to 7997
  140.7232  143.3749  151.1709 H   0  0  0  0  0  0  0  0  0  0  0  0  # atno 10167 bound_to 10162
  156.0394  130.4337  150.2339 H   0  0  0  0  0  0  0  0  0  0  0  0  # atno 10718 bound_to 10713
  153.6608  135.3347  155.3126 H   0  0  0  0  0  0  0  0  0  0  0  0  # atno 10763 bound_to 10752
  154.8515  135.4363  154.1807 H   0  0  0  0  0  0  0  0  0  0  0  0  # atno 10764 bound_to 10752
  153.2773  135.7006  153.7496 H   0  0  0  0  0  0  0  0  0  0  0  0  # atno 10765 bound_to 10752
  140.2578  134.3228  155.7868 H   0  0  0  0  0  0  0  0  0  0  0  0  # atno 11005 bound_to 11000
  146.2003  139.5294  142.9747 LP  0  0  0  0  0  0  0  0  0  0  0  0  # atno 17320 bound_to 7965
  145.6075  141.0345  143.1984 LP  0  0  0  0  0  0  0  0  0  0  0  0  # atno 17321 bound_to 7965
  139.7327  143.9047  152.3025 LP  0  0  0  0  0  0  0  0  0  0  0  0  # atno 17342 bound_to 10162
  139.8842  144.7001  150.8843 LP  0  0  0  0  0  0  0  0  0  0  0  0  # atno 17343 bound_to 10162
  157.0435  131.0042  151.3276 LP  0  0  0  0  0  0  0  0  0  0  0  0  # atno 17370 bound_to 10713
  157.5192  130.7987  149.7790 LP  0  0  0  0  0  0  0  0  0  0  0  0  # atno 17371 bound_to 10713
  141.2194  133.7391  156.9139 LP  0  0  0  0  0  0  0  0  0  0  0  0  # atno 17394 bound_to 11000
  140.1495  134.9240  157.2573 LP  0  0  0  0  0  0  0  0  0  0  0  0  # atno 17395 bound_to 11000

$$$$
