AV-unprocessed.smi:2880|AV-procd|sdf|11051|dock5
  -GOLD-   2272015523D 1   1.00000     0.00000
 Structure written by MMmdl.
 47 48  0  0  0  0  0  0  0  0  1 V2000
  143.2704  131.8022  150.2004 C   0  0  0  0  0  0  0  0  0  0  0  0
  144.7232  132.0688  150.6444 C   0  0  0  0  0  0  0  0  0  0  0  0
  145.1269  130.9628  151.6484 C   0  0  0  0  0  0  0  0  0  0  0  0
  145.6587  132.0035  149.4231 C   0  0  0  0  0  0  0  0  0  0  0  0
  144.8189  133.4088  151.2393 N   0  0  0  0  0  0  0  0  0  0  0  0
  143.8044  134.3311  151.4404 C   0  0  0  0  0  0  0  0  0  0  0  0
  144.3586  135.4667  151.9589 C   0  0  0  0  0  0  0  0  0  0  0  0
  145.7420  135.1521  152.0222 C   0  0  0  0  0  0  0  0  0  0  0  0
  146.6807  136.0962  152.5110 N   0  0  0  0  0  0  0  0  0  0  0  0
  146.4274  137.2186  153.2058 C   0  0  0  0  0  0  0  0  0  0  0  0
  145.3067  137.6176  153.5240 O   0  0  0  0  0  0  0  0  0  0  0  0
  147.5619  137.8656  153.5108 N   0  0  0  0  0  0  0  0  0  0  0  0
  147.6563  139.1311  154.2378 C   0  0  2  0  0  0  0  0  0  0  0  0
  146.5951  140.1015  153.6801 C   0  0  0  0  0  0  0  0  0  0  0  0
  146.6772  141.4825  154.3438 C   0  0  0  0  0  0  0  0  0  0  0  0
  148.0853  142.0724  154.2001 C   0  0  0  0  0  0  0  0  0  0  0  0
  149.1413  141.1200  154.7800 C   0  0  0  0  0  0  0  0  0  0  0  0
  149.0872  139.7198  154.1261 C   0  0  1  0  0  0  0  0  0  0  0  0
  150.1502  138.7797  154.7380 C   0  0  0  0  0  0  0  0  0  0  0  0
  151.4293  139.3780  154.7104 O   0  0  0  0  0  0  0  0  0  0  0  0
  146.0204  133.9371  151.5756 N   0  0  0  0  0  0  0  0  0  0  0  0
  143.1606  130.7968  149.7924 H   0  0  0  0  0  0  0  0  0  0  0  0
  142.9441  132.4970  149.4265 H   0  0  0  0  0  0  0  0  0  0  0  0
  142.5788  131.8925  151.0390 H   0  0  0  0  0  0  0  0  0  0  0  0
  144.5083  130.9941  152.5462 H   0  0  0  0  0  0  0  0  0  0  0  0
  146.1689  131.0541  151.9579 H   0  0  0  0  0  0  0  0  0  0  0  0
  145.0124  129.9710  151.2098 H   0  0  0  0  0  0  0  0  0  0  0  0
  145.6180  131.0249  148.9434 H   0  0  0  0  0  0  0  0  0  0  0  0
  146.6952  132.1873  149.7087 H   0  0  0  0  0  0  0  0  0  0  0  0
  145.3889  132.7470  148.6722 H   0  0  0  0  0  0  0  0  0  0  0  0
  142.7758  134.1093  151.1979 H   0  0  0  0  0  0  0  0  0  0  0  0
  143.8525  136.3783  152.2402 H   0  0  0  0  0  0  0  0  0  0  0  0
  147.6483  135.9006  152.3018 H   0  0  0  0  0  0  0  0  0  0  0  0
  148.4334  137.4582  153.2051 H   0  0  0  0  0  0  0  0  0  0  0  0
  147.4461  138.9701  155.2969 H   0  0  0  0  0  0  0  0  0  0  0  0
  146.7278  140.2135  152.6029 H   0  0  0  0  0  0  0  0  0  0  0  0
  145.5970  139.6861  153.8255 H   0  0  0  0  0  0  0  0  0  0  0  0
  145.9441  142.1544  153.8967 H   0  0  0  0  0  0  0  0  0  0  0  0
  146.4186  141.3989  155.4002 H   0  0  0  0  0  0  0  0  0  0  0  0
  148.2997  142.2618  153.1475 H   0  0  0  0  0  0  0  0  0  0  0  0
  148.1372  143.0374  154.7048 H   0  0  0  0  0  0  0  0  0  0  0  0
  150.1288  141.5622  154.6459 H   0  0  0  0  0  0  0  0  0  0  0  0
  148.9917  141.0282  155.8566 H   0  0  0  0  0  0  0  0  0  0  0  0
  149.3152  139.8375  153.0650 H   0  0  0  0  0  0  0  0  0  0  0  0
  149.8938  138.5225  155.7662 H   0  0  0  0  0  0  0  0  0  0  0  0
  150.2173  137.8437  154.1836 H   0  0  0  0  0  0  0  0  0  0  0  0
  152.0806  138.6933  154.7222 H   0  0  0  0  0  0  0  0  0  0  0  0
  1  2  1  0  0  0  0
  1 22  1  0  0  0  0
  1 23  1  0  0  0  0
  1 24  1  0  0  0  0
  2  3  1  0  0  0  0
  2  4  1  0  0  0  0
  2  5  1  0  0  0  0
  3 25  1  0  0  0  0
  3 26  1  0  0  0  0
  3 27  1  0  0  0  0
  4 28  1  0  0  0  0
  4 29  1  0  0  0  0
  4 30  1  0  0  0  0
  5 21  1  0  0  0  0
  5  6  1  0  0  0  0
  6  7  2  0  0  0  0
  6 31  1  0  0  0  0
  7  8  1  0  0  0  0
  7 32  1  0  0  0  0
  8  9  1  0  0  0  0
  8 21  2  0  0  0  0
  9 10  1  0  0  0  0
  9 33  1  0  0  0  0
 10 11  2  0  0  0  0
 10 12  1  0  0  0  0
 12 13  1  0  0  0  0
 12 34  1  0  0  0  0
 13 18  1  0  0  0  0
 13 14  1  0  0  0  0
 13 35  1  0  0  0  0
 14 15  1  0  0  0  0
 14 36  1  0  0  0  0
 14 37  1  0  0  0  0
 15 16  1  0  0  0  0
 15 38  1  0  0  0  0
 15 39  1  0  0  0  0
 16 17  1  0  0  0  0
 16 40  1  0  0  0  0
 16 41  1  0  0  0  0
 17 18  1  0  0  0  0
 17 42  1  0  0  0  0
 17 43  1  0  0  0  0
 18 19  1  0  0  0  0
 18 44  1  0  0  0  0
 19 20  1  0  0  0  0
 19 45  1  0  0  0  0
 19 46  1  0  0  0  0
 20 47  1  0  0  0  0
M  END
> <s_m_source_file>
AV-unprocessed.smi

> <i_m_source_file_index>
2880

> <i_lp_mmshare_version>
43012

> <i_f3d_flags>
0

> <s_epik_input>
W0NIM11DKFtDSDNdKShbQ0gzXSluMVtjSF1bY0hdYyhuMSlbTkhdQyg9TylbTkhdW0NAQEhdMltDSDJdW0NIMl1bQ0gyXVtDSDJdW0NASF0yW0NIMl1bT0hd

> <s_epik_cmdline>
J2VwaWtfcHl0aG9uJywgJy1waCcsICc3LjAnLCAnLXRuJywgJzgnLCAnLW1hJywgJzIwMCcsICctbWV0YWxfYmluZGluZycsICctaW1hZScsICc8aW5maWxlLm1hZT4nLCAnLW9tYWUnLCAnPG91dGZpbGUubWFlPic=

> <r_lp_tautomer_probability>
1

> <r_epik_Ionization_Penalty>
3.89283e-05

> <r_epik_Ionization_Penalty_Charging>
0

> <r_epik_Ionization_Penalty_Neutral>
3.89283e-05

> <r_epik_State_Penalty>
-0

> <r_epik_Charging_Adjusted_Penalty>
0

> <i_epik_Tot_Q>
0

> <i_epik_Tot_abs_Q>
0

> <r_epik_Metal_State_Penalty>
-0

> <b_epik_Metal_Only>
0

> <s_lp_Force_Field>
OPLS_2005

> <r_lp_Energy>
21.5121

> <b_lp_Chiralities_Consistent>
1

> <s_lp_Variant>
AV-unprocessed.smi:2880-1

> <Gold.Version>
5.8.1

> <Gold.Id.Protein>
6NUR|6NUR_protein|mol2

> <Gold.PLP.Fitness>
42.8205

> <Gold.PLP.PLP>
-33.1410

> <Gold.PLP.part.hbond>
-2.4311

> <Gold.PLP.part.metal>
0.0000

> <Gold.PLP.part.buried>
0.4227

> <Gold.PLP.part.nonpolar>
-32.3189

> <Gold.PLP.part.repulsive>
0.3477

> <Gold.PLP.ligand.clash>
0.0000

> <Gold.PLP.ligand.torsion>
0.3191

> <Gold.PLP.Chemscore.Hbond>
2.4183

> <Gold.PLP.Chemscore.CHOScore>
1.0000

> <Gold.PLP.Chemscore.Metal>
0.0000

> <Gold.Chemscore.Hbonds>
donor molecule, donor type, donor heavy atom, donor atom, acceptor molecule, acceptor atom, score
      L1  H     9    33       P1  7948  0.67
      L1  H    12    34       P1  7948  0.72
      P1  H  7989  7998       L1    20  1.00
      L1  C     6    31       P1 10186  1.00

> <Gold.PLP.Chemscore.Internal.Correction>
0.0629

> <Gold.Rescore>
     Score         DG    S(hbond)    S(metal)    S(lipo)     H(rot)  DE(clash)    DE(int)     intcor
     14.89     -18.51       2.05        0.00      95.83       1.97       0.73       2.89       ----

> <Gold.Chemscore.Fitness>
14.8875

> <Gold.Chemscore.DG>
-18.5140

> <Gold.Chemscore.ZeroCoef>
-5.4800

> <Gold.Chemscore.Hbond>
2.0534

> <Gold.Chemscore.Metal>
0.0000

> <Gold.Chemscore.Lipo>
95.8267

> <Gold.Chemscore.Internal_Hbond>
0.0000

> <Gold.Chemscore.DEClash>
0.7329

> <Gold.Chemscore.DEInternal>
2.8936

> <Gold.Chemscore.Rot>
1.9672

> <Gold.Chemscore.Internal.Correction>
   9.000000E+99

> <Gold.Chemscore.Hbonds>
donor molecule, donor type, donor heavy atom, donor atom, acceptor molecule, acceptor atom, score
      L1  H     9    33       P1  7948  0.65
      L1  H    12    34       P1  7948  0.72
      P1  H  7989  7998       L1    20  0.89

> <Gold.Chemscore.Hbond.Weighted>
-6.8583

> <Gold.Chemscore.Metal.Weighted>
-0.0000

> <Gold.Chemscore.Lipo.Weighted>
-11.2117

> <Gold.Chemscore.Internal_Hbond.Weighted>
0.0000

> <Gold.Chemscore.DEClash.Weighted>
0.7329

> <Gold.Chemscore.DEInternal.Weighted>
2.8936

> <Gold.Chemscore.Rot.Weighted>
5.0360

> <Gold.Chemscore.Internal.Correction.Weighted>
   9.000000E+99

> <Gold.Protein.RotatedTorsions>
[ 6907 6896 6895 6894 ] final   72.74 input  -60.11 | X-H torsion
[ 7974 7965 7964 7962 ] final  143.44 input  175.53 | X-H torsion
[ 8008 7997 7996 7995 ] final -117.15 input   59.86 | X-H torsion
[ 10167 10162 10161 10158 ] final -138.31 input  -65.29 | X-H torsion
[ 10718 10713 10712 10709 ] final  114.53 input   66.30 | X-H torsion
[ 10763 10752 10751 10750 ] final  -74.05 input  -60.55 | X-H torsion
[ 11005 11000 10999 10996 ] final   25.58 input  -57.11 | X-H torsion

> <Gold.Protein.ActiveResidues>
 VAL166  LYS551  ARG553  GLY616  TRP617  ASP618  TYR619  PRO620  LYS621  CYS622 
 ASP623  PHE694  ASN695  SER759  ASP760  ASP761  ALA762  ILE779  LEU786  VAL792 
 PHE793  MET794  SER795  GLU796  ALA797  LYS798  CYS799  TRP800  GLU811  SER814 

> <Gold.Protein.RotatedAtoms>
  152.4884  134.4527  159.9579 H   0  0  0  0  0  0  0  0  0  0  0  0  # atno 6907 bound_to 6896
  151.4518  133.3609  159.2804 H   0  0  0  0  0  0  0  0  0  0  0  0  # atno 6908 bound_to 6896
  150.9016  134.8453  159.7424 H   0  0  0  0  0  0  0  0  0  0  0  0  # atno 6909 bound_to 6896
  144.8921  139.5544  143.5794 H   0  0  0  0  0  0  0  0  0  0  0  0  # atno 7974 bound_to 7965
  155.0792  140.0394  157.2634 H   0  0  0  0  0  0  0  0  0  0  0  0  # atno 8008 bound_to 7997
  154.6920  140.2655  155.6778 H   0  0  0  0  0  0  0  0  0  0  0  0  # atno 8009 bound_to 7997
  156.2732  140.2757  156.1502 H   0  0  0  0  0  0  0  0  0  0  0  0  # atno 8010 bound_to 7997
  139.8491  143.7222  152.2659 H   0  0  0  0  0  0  0  0  0  0  0  0  # atno 10167 bound_to 10162
  157.6275  131.1000  150.7200 H   0  0  0  0  0  0  0  0  0  0  0  0  # atno 10718 bound_to 10713
  154.4679  135.5877  153.6301 H   0  0  0  0  0  0  0  0  0  0  0  0  # atno 10763 bound_to 10752
  152.9831  135.6059  154.3404 H   0  0  0  0  0  0  0  0  0  0  0  0  # atno 10764 bound_to 10752
  154.3283  135.2843  155.2464 H   0  0  0  0  0  0  0  0  0  0  0  0  # atno 10765 bound_to 10752
  140.3462  134.2278  155.7684 H   0  0  0  0  0  0  0  0  0  0  0  0  # atno 11005 bound_to 11000
  146.3059  139.7580  142.9056 LP  0  0  0  0  0  0  0  0  0  0  0  0  # atno 17320 bound_to 7965
  145.3765  141.0351  143.3201 LP  0  0  0  0  0  0  0  0  0  0  0  0  # atno 17321 bound_to 7965
  139.7483  144.7541  151.0545 LP  0  0  0  0  0  0  0  0  0  0  0  0  # atno 17342 bound_to 10162
  140.7789  143.4890  150.9918 LP  0  0  0  0  0  0  0  0  0  0  0  0  # atno 17343 bound_to 10162
  156.7545  130.4779  149.5449 LP  0  0  0  0  0  0  0  0  0  0  0  0  # atno 17370 bound_to 10713
  156.1457  130.6275  151.0528 LP  0  0  0  0  0  0  0  0  0  0  0  0  # atno 17371 bound_to 10713
  141.2025  133.7937  157.0389 LP  0  0  0  0  0  0  0  0  0  0  0  0  # atno 17394 bound_to 11000
  140.0740  134.9686  157.1515 LP  0  0  0  0  0  0  0  0  0  0  0  0  # atno 17395 bound_to 11000

$$$$
