#       Name:                AV-unprocessed.smi:2148
#       Creating user name   scv26
#       Creation time:       Fri Mar 27 11:52:52 2020


#       File generated by GOLD software.
#

@<TRIPOS>MOLECULE
AV-unprocessed.smi:2148
    50    51     1
SMALL
NO_CHARGES


@<TRIPOS>ATOM
      1 ****        -6.5908  -0.7037  -1.5376 C.3            1 S1                 0.0000
      2 ****        -5.8230  -2.1744  -0.8087 S.3            1 S1                 0.0000
      3 ****        -5.2153  -1.4876   0.7600 C.3            1 S1                 0.0000
      4 ****        -5.9050  -2.1723   1.9518 C.3            1 S1                 0.0000
      5 ****        -3.6855  -1.5650   0.8436 C.2            1 S1                 0.0000
      6 ****        -3.1468  -2.5218   1.4002 O.2            1 S1                 0.0000
      7 ****        -3.0220  -0.5509   0.2570 N.am           1 S1                 0.0000
      8 ****        -1.6200  -0.3305   0.1726 C.ar           1 S1                 0.0000
      9 ****        -0.6618  -0.9260   1.0275 C.ar           1 S1                 0.0000
     10 ****         0.6983  -0.6067   0.8531 C.ar           1 S1                 0.0000
     11 ****         1.0594   0.3041  -0.1660 C.ar           1 S1                 0.0000
     12 ****         2.3945   0.6658  -0.3888 N.3            1 S1                 0.0000
     13 ****         3.2048  -0.4194  -0.9253 C.3            1 S1                 0.0000
     14 ****         4.6184   0.0816  -1.2840 C.3            1 S1                 0.0000
     15 ****         4.6615   0.9333  -2.5654 C.3            1 S1                 0.0000
     16 ****         5.1965   0.7618  -0.1661 O.3            1 S1                 0.0000
     17 ****         4.4168   1.8427   0.3472 C.3            1 S1                 0.0000
     18 ****         5.1667   2.4475   1.5383 C.3            1 S1                 0.0000
     19 ****         3.0242   1.3234   0.7473 C.3            1 S1                 0.0000
     20 ****         0.1492   0.8814  -0.9792 N.ar           1 S1                 0.0000
     21 ****        -1.1531   0.5719  -0.8055 C.ar           1 S1                 0.0000
     22 ****        -7.0152  -0.9455  -2.5120 H              1 S1                 0.0000
     23 ****        -5.8519   0.0872  -1.6691 H              1 S1                 0.0000
     24 ****        -7.3896  -0.3333  -0.8949 H              1 S1                 0.0000
     25 ****        -5.4886  -0.4319   0.7940 H              1 S1                 0.0000
     26 ****        -5.5379  -1.7817   2.9016 H              1 S1                 0.0000
     27 ****        -5.7398  -3.2504   1.9468 H              1 S1                 0.0000
     28 ****        -6.9820  -2.0053   1.9240 H              1 S1                 0.0000
     29 ****        -3.5939   0.1208  -0.2340 H              1 S1                 0.0000
     30 ****        -0.9371  -1.6050   1.8188 H              1 S1                 0.0000
     31 ****         1.4443  -1.0524   1.4944 H              1 S1                 0.0000
     32 ****         3.2799  -1.2115  -0.1790 H              1 S1                 0.0000
     33 ****         2.7207  -0.8526  -1.8016 H              1 S1                 0.0000
     34 ****         5.2445  -0.7924  -1.4653 H              1 S1                 0.0000
     35 ****         4.3385   0.3491  -3.4271 H              1 S1                 0.0000
     36 ****         5.6738   1.2847  -2.7656 H              1 S1                 0.0000
     37 ****         4.0101   1.8049  -2.5050 H              1 S1                 0.0000
     38 ****         4.3142   2.6158  -0.4145 H              1 S1                 0.0000
     39 ****         4.6190   3.2917   1.9576 H              1 S1                 0.0000
     40 ****         6.1510   2.8064   1.2368 H              1 S1                 0.0000
     41 ****         5.3081   1.7124   2.3311 H              1 S1                 0.0000
     42 ****         2.3985   2.1497   1.0871 H              1 S1                 0.0000
     43 ****         3.1135   0.6222   1.5781 H              1 S1                 0.0000
     44 ****        -1.8462   1.0625  -1.4733 H              1 S1                 0.0000
     45 ****        -3.7065  -3.2488   1.7980 LP             1 S1                 0.0000
     46 ****        -2.1496  -2.5720   1.4545 LP             1 S1                 0.0000
     47 ****         2.3494   1.3597  -1.1074 LP             1 S1                 0.0000
     48 ****         6.0842   1.1255  -0.4486 LP             1 S1                 0.0000
     49 ****         5.3274   0.0964   0.5688 LP             1 S1                 0.0000
     50 ****         0.4328   1.5223  -1.6925 LP             1 S1                 0.0000
@<TRIPOS>BOND
    1    1    2 1     
    2    1   22 1     
    3    1   23 1     
    4    1   24 1     
    5    2    3 1     
    6    3    4 1     
    7    3    5 1     
    8    3   25 1     
    9    4   26 1     
   10    4   27 1     
   11    4   28 1     
   12    5    6 2     
   13    5    7 am    
   14    7    8 1     
   15    7   29 1     
   16    8   21 ar    
   17    8    9 ar    
   18    9   10 ar    
   19    9   30 1     
   20   10   11 ar    
   21   10   31 1     
   22   11   12 1     
   23   11   20 ar    
   24   12   19 1     
   25   12   13 1     
   26   13   14 1     
   27   13   32 1     
   28   13   33 1     
   29   14   15 1     
   30   14   16 1     
   31   14   34 1     
   32   15   35 1     
   33   15   36 1     
   34   15   37 1     
   35   16   17 1     
   36   17   18 1     
   37   17   19 1     
   38   17   38 1     
   39   18   39 1     
   40   18   40 1     
   41   18   41 1     
   42   19   42 1     
   43   19   43 1     
   44   20   21 ar    
   45   21   44 1     
   46    6   45 1     
   47    6   46 1     
   48   12   47 1     
   49   16   48 1     
   50   16   49 1     
   51   20   50 1     
@<TRIPOS>SUBSTRUCTURE
      1 S1             1
@<TRIPOS>SET
LONE_PAIRS      STATIC     ATOMS    <user>   **** ""
6 45 46 47 48 49 50
DONOR_HYDROGENS      STATIC     ATOMS    <user>   **** ""
1 29
ATOM$BLUE        STATIC     ATOMS    COLORGROUP SYSTEM
6 45 46 47 48 49 50
ATOM$RED        STATIC     ATOMS    COLORGROUP SYSTEM
1 29
