AV-unprocessed.smi:101|AV-procd|sdf|937|dock9
  -GOLD-   2262017453D 1   1.00000     0.00000
 Structure written by MMmdl.
 43 45  0  0  0  0  0  0  0  0  2 V2000
  146.9711  144.0334  159.8508 C   0  0  0  0  0  0  0  0  0  0  0  0
  146.4223  143.2126  158.6967 C   0  0  0  0  0  0  0  0  0  0  0  0
  147.2190  142.4615  157.9045 C   0  0  0  0  0  0  0  0  0  0  0  0
  146.7149  141.7104  156.8552 N   0  0  0  0  0  0  0  0  0  0  0  0
  147.6139  140.8522  155.9810 C   0  0  2  0  0  0  0  0  0  0  0  0
  148.8680  140.7206  156.5842 O   0  0  0  0  0  0  0  0  0  0  0  0
  149.8127  141.5442  155.9111 C   0  0  1  0  0  0  0  0  0  0  0  0
  151.2496  141.1028  156.2183 C   0  0  0  0  0  0  0  0  0  0  0  0
  151.6262  141.6595  157.4666 O   0  0  0  0  0  0  0  0  0  0  0  0
  152.4681  140.9986  158.2821 C   0  0  0  0  0  0  0  0  0  0  0  0
  153.0083  139.9306  157.9871 O   0  0  0  0  0  0  0  0  0  0  0  0
  152.6757  141.6977  159.5833 C   0  0  0  0  0  0  0  0  0  0  0  0
  153.5402  141.1282  160.5472 C   0  0  0  0  0  0  0  0  0  0  0  0
  153.7545  141.7662  161.7846 C   0  0  0  0  0  0  0  0  0  0  0  0
  153.1076  142.9819  162.0729 C   0  0  0  0  0  0  0  0  0  0  0  0
  152.2450  143.5588  161.1227 C   0  0  0  0  0  0  0  0  0  0  0  0
  152.0284  142.9219  159.8853 C   0  0  0  0  0  0  0  0  0  0  0  0
  149.3706  141.4380  154.4503 C   0  0  1  0  0  0  0  0  0  0  0  0
  149.8271  140.2274  153.8753 O   0  0  0  0  0  0  0  0  0  0  0  0
  147.8504  141.4428  154.5654 C   0  0  2  0  0  0  0  0  0  0  0  0
  147.3723  142.7674  154.4064 O   0  0  0  0  0  0  0  0  0  0  0  0
  145.3183  141.7128  156.6020 C   0  0  0  0  0  0  0  0  0  0  0  0
  144.9027  141.0327  155.6634 O   0  0  0  0  0  0  0  0  0  0  0  0
  144.5069  142.4687  157.3944 N   0  5  0  0  0  0  0  0  0  0  0  0
  144.9792  143.2227  158.4283 C   0  0  0  0  0  0  0  0  0  0  0  0
  144.2357  143.9033  159.1343 O   0  0  0  0  0  0  0  0  0  0  0  0
  148.0557  143.9458  159.9197 H   0  0  0  0  0  0  0  0  0  0  0  0
  146.5441  143.6944  160.7953 H   0  0  0  0  0  0  0  0  0  0  0  0
  146.7257  145.0877  159.7196 H   0  0  0  0  0  0  0  0  0  0  0  0
  148.2776  142.4543  158.1121 H   0  0  0  0  0  0  0  0  0  0  0  0
  147.1455  139.8665  155.9668 H   0  0  0  0  0  0  0  0  0  0  0  0
  149.6759  142.5788  156.2308 H   0  0  0  0  0  0  0  0  0  0  0  0
  151.3234  140.0145  156.2377 H   0  0  0  0  0  0  0  0  0  0  0  0
  151.9288  141.4702  155.4481 H   0  0  0  0  0  0  0  0  0  0  0  0
  154.0478  140.1953  160.3480 H   0  0  0  0  0  0  0  0  0  0  0  0
  154.4160  141.3213  162.5133 H   0  0  0  0  0  0  0  0  0  0  0  0
  153.2723  143.4713  163.0215 H   0  0  0  0  0  0  0  0  0  0  0  0
  151.7473  144.4921  161.3422 H   0  0  0  0  0  0  0  0  0  0  0  0
  151.3592  143.3923  159.1794 H   0  0  0  0  0  0  0  0  0  0  0  0
  149.7520  142.2636  153.8474 H   0  0  0  0  0  0  0  0  0  0  0  0
  149.5893  140.2254  152.9606 H   0  0  0  0  0  0  0  0  0  0  0  0
  147.3721  140.8102  153.8164 H   0  0  0  0  0  0  0  0  0  0  0  0
  146.4888  142.7236  154.0716 H   0  0  0  0  0  0  0  0  0  0  0  0
  1  2  1  0  0  0  0
  1 27  1  0  0  0  0
  1 28  1  0  0  0  0
  1 29  1  0  0  0  0
  2 25  1  0  0  0  0
  2  3  2  0  0  0  0
  3  4  1  0  0  0  0
  3 30  1  0  0  0  0
  4  5  1  0  0  0  0
  4 22  1  0  0  0  0
  5 20  1  0  0  0  0
  5  6  1  0  0  0  0
  5 31  1  0  0  0  0
  6  7  1  0  0  0  0
  7  8  1  0  0  0  0
  7 18  1  0  0  0  0
  7 32  1  0  0  0  0
  8  9  1  0  0  0  0
  8 33  1  0  0  0  0
  8 34  1  0  0  0  0
  9 10  1  0  0  0  0
 10 11  2  0  0  0  0
 10 12  1  0  0  0  0
 12 17  1  0  0  0  0
 12 13  2  0  0  0  0
 13 14  1  0  0  0  0
 13 35  1  0  0  0  0
 14 15  2  0  0  0  0
 14 36  1  0  0  0  0
 15 16  1  0  0  0  0
 15 37  1  0  0  0  0
 16 17  2  0  0  0  0
 16 38  1  0  0  0  0
 17 39  1  0  0  0  0
 18 19  1  0  0  0  0
 18 20  1  0  0  0  0
 18 40  1  0  0  0  0
 19 41  1  0  0  0  0
 20 21  1  0  0  0  0
 20 42  1  0  0  0  0
 21 43  1  0  0  0  0
 22 23  2  0  0  0  0
 22 24  1  0  0  0  0
 24 25  1  0  0  0  0
 25 26  2  0  0  0  0
M  CHG  1  24  -1
M  END
> <s_m_source_file>
AV-unprocessed.smi

> <i_m_source_file_index>
101

> <i_lp_mmshare_version>
43012

> <i_f3d_flags>
0

> <s_epik_input>
Tz1jMVtuSF1jKD1PKW4oW2NIXWMxW0NIM10pW0NAQEhdMk9bQ0BIXShbQ0BASF0oW09IXSlbQ0BIXTJbT0hdKVtDSDJdT0MoPU8pYzNbY0hdW2NIXVtjSF1bY0hdW2NIXTM=

> <s_epik_cmdline>
J2VwaWtfcHl0aG9uJywgJy1waCcsICc3LjAnLCAnLXRuJywgJzgnLCAnLW1hJywgJzIwMCcsICctbWV0YWxfYmluZGluZycsICctaW1hZScsICc8aW5maWxlLm1hZT4nLCAnLW9tYWUnLCAnPG91dGZpbGUubWFlPic=

> <r_lp_tautomer_probability>
0.999537

> <r_epik_Ionization_Penalty>
3.21006

> <r_epik_Ionization_Penalty_Charging>
5.75142e-08

> <r_epik_Ionization_Penalty_Neutral>
3.21006

> <r_epik_State_Penalty>
3.20925

> <r_epik_Charging_Adjusted_Penalty>
3.20925

> <i_epik_Tot_Q>
-1

> <i_epik_Tot_abs_Q>
1

> <r_epik_Metal_State_Penalty>
0.119957

> <b_epik_Metal_Only>
1

> <s_epik_Chemistry_Notes>
This compound has an ester and may undergo hydrolysis at high or low pH. This compound contains an acetal/aminal-like group ( X-CH(R)-Y where X, Y are N, S, or O) that may be acid/base labile, releasing an aldehyde.

> <s_lp_Force_Field>
OPLS_2005

> <r_lp_Energy>
45.504

> <b_lp_Chiralities_Consistent>
1

> <s_lp_Variant>
AV-unprocessed.smi:101-25

> <Gold.Version>
5.8.1

> <Gold.Id.Protein>
6NUR|6NUR_protein|mol2

> <Gold.PLP.Fitness>
50.3325

> <Gold.PLP.PLP>
-44.7992

> <Gold.PLP.part.hbond>
-4.0000

> <Gold.PLP.part.metal>
0.0000

> <Gold.PLP.part.buried>
-5.6381

> <Gold.PLP.part.nonpolar>
-34.2448

> <Gold.PLP.part.repulsive>
0.1980

> <Gold.PLP.ligand.clash>
0.0000

> <Gold.PLP.ligand.torsion>
0.7701

> <Gold.PLP.Chemscore.Hbond>
2.3309

> <Gold.PLP.Chemscore.CHOScore>
0.0000

> <Gold.PLP.Chemscore.Metal>
0.0000

> <Gold.Chemscore.Hbonds>
donor molecule, donor type, donor heavy atom, donor atom, acceptor molecule, acceptor atom, score
      L1  H    19    41       P1  7957  1.00
      P1  H  7989  7998       L1    19  0.30
      P1  H  7997  8009       L1    11  1.00

> <Gold.PLP.Chemscore.Internal.Correction>
0.0808

> <Gold.Rescore>
     Score         DG    S(hbond)    S(metal)    S(lipo)     H(rot)  DE(clash)    DE(int)     intcor
     14.44     -15.08       1.98        0.00      96.94       3.27       0.05       0.59       ----

> <Gold.Chemscore.Fitness>
14.4381

> <Gold.Chemscore.DG>
-15.0760

> <Gold.Chemscore.ZeroCoef>
-5.4800

> <Gold.Chemscore.Hbond>
1.9803

> <Gold.Chemscore.Metal>
0.0000

> <Gold.Chemscore.Lipo>
96.9364

> <Gold.Chemscore.Internal_Hbond>
0.0000

> <Gold.Chemscore.DEClash>
0.0456

> <Gold.Chemscore.DEInternal>
0.5923

> <Gold.Chemscore.Rot>
3.2656

> <Gold.Chemscore.Internal.Correction>
   9.000000E+99

> <Gold.Chemscore.Hbonds>
donor molecule, donor type, donor heavy atom, donor atom, acceptor molecule, acceptor atom, score
      L1  H    19    41       P1  7957  1.00
      P1  H  7997  8009       L1    11  0.88
      P1  H  8022  8030       L1    21  0.03

> <Gold.Chemscore.Hbond.Weighted>
-6.6143

> <Gold.Chemscore.Metal.Weighted>
-0.0000

> <Gold.Chemscore.Lipo.Weighted>
-11.3416

> <Gold.Chemscore.Internal_Hbond.Weighted>
0.0000

> <Gold.Chemscore.DEClash.Weighted>
0.0456

> <Gold.Chemscore.DEInternal.Weighted>
0.5923

> <Gold.Chemscore.Rot.Weighted>
8.3598

> <Gold.Chemscore.Internal.Correction.Weighted>
   9.000000E+99

> <Gold.Protein.RotatedTorsions>
[ 6907 6896 6895 6894 ] final  -36.40 input  -60.11 | X-H torsion
[ 7974 7965 7964 7962 ] final  158.96 input  175.53 | X-H torsion
[ 8008 7997 7996 7995 ] final  169.67 input   59.86 | X-H torsion
[ 10167 10162 10161 10158 ] final  -71.36 input  -65.29 | X-H torsion
[ 10718 10713 10712 10709 ] final -134.74 input   66.30 | X-H torsion
[ 10763 10752 10751 10750 ] final  -77.40 input  -60.55 | X-H torsion
[ 11005 11000 10999 10996 ] final   15.70 input  -57.11 | X-H torsion

> <Gold.Protein.ActiveResidues>
 VAL166  LYS551  ARG553  GLY616  TRP617  ASP618  TYR619  PRO620  LYS621  CYS622 
 ASP623  PHE694  ASN695  SER759  ASP760  ASP761  ALA762  ILE779  LEU786  VAL792 
 PHE793  MET794  SER795  GLU796  ALA797  LYS798  CYS799  TRP800  GLU811  SER814 

> <Gold.Protein.RotatedAtoms>
  151.0276  134.9515  159.8093 H   0  0  0  0  0  0  0  0  0  0  0  0  # atno 6907 bound_to 6896
  152.5339  134.2822  159.9021 H   0  0  0  0  0  0  0  0  0  0  0  0  # atno 6908 bound_to 6896
  151.2831  133.4158  159.2662 H   0  0  0  0  0  0  0  0  0  0  0  0  # atno 6909 bound_to 6896
  144.7817  139.7550  143.6257 H   0  0  0  0  0  0  0  0  0  0  0  0  # atno 7974 bound_to 7965
  156.1436  140.1558  156.8882 H   0  0  0  0  0  0  0  0  0  0  0  0  # atno 8008 bound_to 7997
  154.5008  140.0826  156.7832 H   0  0  0  0  0  0  0  0  0  0  0  0  # atno 8009 bound_to 7997
  155.4032  140.3415  155.4260 H   0  0  0  0  0  0  0  0  0  0  0  0  # atno 8010 bound_to 7997
  140.5279  143.2324  151.7314 H   0  0  0  0  0  0  0  0  0  0  0  0  # atno 10167 bound_to 10162
  156.2587  130.7196  151.1122 H   0  0  0  0  0  0  0  0  0  0  0  0  # atno 10718 bound_to 10713
  154.5125  135.5765  153.6616 H   0  0  0  0  0  0  0  0  0  0  0  0  # atno 10763 bound_to 10752
  152.9900  135.6162  154.2860 H   0  0  0  0  0  0  0  0  0  0  0  0  # atno 10764 bound_to 10752
  154.2776  135.2851  155.2691 H   0  0  0  0  0  0  0  0  0  0  0  0  # atno 10765 bound_to 10752
  140.4554  134.1182  155.7708 H   0  0  0  0  0  0  0  0  0  0  0  0  # atno 11005 bound_to 11000
  146.2028  139.5333  142.9732 LP  0  0  0  0  0  0  0  0  0  0  0  0  # atno 17320 bound_to 7965
  145.6033  141.0352  143.2006 LP  0  0  0  0  0  0  0  0  0  0  0  0  # atno 17321 bound_to 7965
  139.4944  144.4158  152.0032 LP  0  0  0  0  0  0  0  0  0  0  0  0  # atno 17342 bound_to 10162
  140.3258  144.3374  150.5998 LP  0  0  0  0  0  0  0  0  0  0  0  0  # atno 17343 bound_to 10162
  157.7242  131.0661  150.6004 LP  0  0  0  0  0  0  0  0  0  0  0  0  # atno 17370 bound_to 10713
  156.6090  130.4375  149.5866 LP  0  0  0  0  0  0  0  0  0  0  0  0  # atno 17371 bound_to 10713
  141.1645  133.8729  157.1753 LP  0  0  0  0  0  0  0  0  0  0  0  0  # atno 17394 bound_to 11000
  139.9980  135.0039  157.0126 LP  0  0  0  0  0  0  0  0  0  0  0  0  # atno 17395 bound_to 11000

$$$$
