#       Name:                AV-unprocessed.smi:568
#       Creating user name   scv26
#       Creation time:       Thu Mar 26 23:46:07 2020


#       File generated by GOLD software.
#

@<TRIPOS>MOLECULE
AV-unprocessed.smi:568
    42    43     1
SMALL
NO_CHARGES


@<TRIPOS>ATOM
      1 ****        -1.2280   3.8866  -1.6884 C.3            1 S1                 0.0000
      2 ****        -1.6002   2.4375  -1.8186 C.2            1 S1                 0.0000
      3 ****        -2.8723   2.0845  -1.7423 N.2            1 S1                 0.0000
      4 ****        -2.8947   0.6955  -1.8988 O.3            1 S1                 0.0000
      5 ****        -1.6201   0.2611  -2.0668 C.2            1 S1                 0.0000
      6 ****        -1.4355  -1.2074  -2.2512 C.3            1 S1                 0.0000
      7 ****        -0.7480   1.3149  -2.0277 C.2            1 S1                 0.0000
      8 ****         0.7536   1.3036  -2.1665 C.3            1 S1                 0.0000
      9 ****         1.3998   1.2381  -0.7824 C.2            1 S1                 0.0000
     10 ****         1.9720   2.2242  -0.3192 O.2            1 S1                 0.0000
     11 ****         1.2936   0.0709  -0.1319 N.am           1 S1                 0.0000
     12 ****         1.7859  -0.1817   1.2148 C.3            1 S1                 0.0000
     13 ****         1.2315  -1.5110   1.7524 C.3            1 S1                 0.0000
     14 ****        -0.2785  -1.5597   1.8876 C.3            1 S1                 0.0000
     15 ****        -0.4704  -2.7259   2.8523 C.3            1 S1                 0.0000
     16 ****         0.6864  -2.7403   3.6847 O.3            1 S1                 0.0000
     17 ****         1.6645  -1.8349   3.1814 C.3            1 S1                 0.0000
     18 ****        -0.2160   4.0021  -1.3005 H              1 S1                 0.0000
     19 ****        -1.8998   4.4118  -1.0088 H              1 S1                 0.0000
     20 ****        -1.2724   4.3881  -2.6552 H              1 S1                 0.0000
     21 ****        -0.4703  -1.5325  -1.8632 H              1 S1                 0.0000
     22 ****        -1.4811  -1.4703  -3.3079 H              1 S1                 0.0000
     23 ****        -2.2114  -1.7667  -1.7281 H              1 S1                 0.0000
     24 ****         1.0945   0.4526  -2.7571 H              1 S1                 0.0000
     25 ****         1.1095   2.1937  -2.6867 H              1 S1                 0.0000
     26 ****         0.8081  -0.6859  -0.5910 H              1 S1                 0.0000
     27 ****         2.8762  -0.2094   1.1967 H              1 S1                 0.0000
     28 ****         1.4961   0.6394   1.8731 H              1 S1                 0.0000
     29 ****         1.5497  -2.3273   1.1013 H              1 S1                 0.0000
     30 ****        -0.6507  -0.6373   2.3359 H              1 S1                 0.0000
     31 ****        -0.7930  -1.7084   0.9377 H              1 S1                 0.0000
     32 ****        -1.3840  -2.6335   3.4398 H              1 S1                 0.0000
     33 ****        -0.5141  -3.6680   2.3046 H              1 S1                 0.0000
     34 ****         2.6655  -2.2647   3.2273 H              1 S1                 0.0000
     35 ****         1.6534  -0.9382   3.8028 H              1 S1                 0.0000
     36 ****        -3.6574   2.6876  -1.6015 LP             1 S1                 0.0000
     37 ****        -3.4416   0.4550  -2.7007 LP             1 S1                 0.0000
     38 ****        -3.2915   0.2706  -1.0852 LP             1 S1                 0.0000
     39 ****         2.0153   3.0716  -0.8484 LP             1 S1                 0.0000
     40 ****         2.3937   2.1781   0.5864 LP             1 S1                 0.0000
     41 ****         1.0692  -3.6640   3.7027 LP             1 S1                 0.0000
     42 ****         0.4298  -2.4678   4.6120 LP             1 S1                 0.0000
@<TRIPOS>BOND
    1    1    2 1     
    2    1   18 1     
    3    1   19 1     
    4    1   20 1     
    5    2    7 1     
    6    2    3 2     
    7    3    4 1     
    8    4    5 1     
    9    5    6 1     
   10    5    7 2     
   11    6   21 1     
   12    6   22 1     
   13    6   23 1     
   14    7    8 1     
   15    8    9 1     
   16    8   24 1     
   17    8   25 1     
   18    9   10 2     
   19    9   11 am    
   20   11   12 1     
   21   11   26 1     
   22   12   13 1     
   23   12   27 1     
   24   12   28 1     
   25   13   17 1     
   26   13   14 1     
   27   13   29 1     
   28   14   15 1     
   29   14   30 1     
   30   14   31 1     
   31   15   16 1     
   32   15   32 1     
   33   15   33 1     
   34   16   17 1     
   35   17   34 1     
   36   17   35 1     
   37    3   36 1     
   38    4   37 1     
   39    4   38 1     
   40   10   39 1     
   41   10   40 1     
   42   16   41 1     
   43   16   42 1     
@<TRIPOS>SUBSTRUCTURE
      1 S1             1
@<TRIPOS>SET
LONE_PAIRS      STATIC     ATOMS    <user>   **** ""
7 36 37 38 39 40 41 42
DONOR_HYDROGENS      STATIC     ATOMS    <user>   **** ""
1 26
ATOM$BLUE        STATIC     ATOMS    COLORGROUP SYSTEM
7 36 37 38 39 40 41 42
ATOM$RED        STATIC     ATOMS    COLORGROUP SYSTEM
1 26
