#       Name:                AV-unprocessed.smi:1434
#       Creating user name   scv26
#       Creation time:       Fri Mar 27 05:52:34 2020


#       File generated by GOLD software.
#

@<TRIPOS>MOLECULE
AV-unprocessed.smi:1434
    47    48     1
SMALL
NO_CHARGES


@<TRIPOS>ATOM
      1 ****        -1.4404   3.4928   1.4758 C.3            1 S1                 0.0000
      2 ****        -2.9865   2.5955   1.0238 S.o2           1 S1                 0.0000
      3 ****        -3.1670   1.5457   2.0414 O.2            1 S1                 0.0000
      4 ****        -4.0234   3.6361   0.9546 O.2            1 S1                 0.0000
      5 ****        -2.6281   2.0259  -0.4576 N.pl3          1 S1                -1.0000
      6 ****        -1.7835   0.8513  -0.6272 C.3            1 S1                 0.0000
      7 ****        -2.6464  -0.4169  -0.8592 C.3            1 S1                 0.0000
      8 ****        -1.8191  -1.6603  -1.2895 C.3            1 S1                 0.0000
      9 ****        -0.8505  -1.3554  -2.4567 C.3            1 S1                 0.0000
     10 ****        -0.0273  -0.1970  -2.0459 N.am           1 S1                 0.0000
     11 ****         1.3033  -0.2306  -1.7707 C.2            1 S1                 0.0000
     12 ****         1.9723   0.7799  -1.5496 O.2            1 S1                 0.0000
     13 ****         1.8144  -1.4686  -1.6464 N.am           1 S1                 0.0000
     14 ****         3.1304  -1.7945  -1.1015 C.3            1 S1                 0.0000
     15 ****         3.0492  -2.2277   0.3769 C.3            1 S1                 0.0000
     16 ****         2.3500  -1.2189   1.2747 C.ar           1 S1                 0.0000
     17 ****         1.0131  -1.4211   1.6817 C.ar           1 S1                 0.0000
     18 ****         0.3952  -0.4340   2.4735 C.ar           1 S1                 0.0000
     19 ****         1.1349   0.7096   2.8289 C.ar           1 S1                 0.0000
     20 ****         2.4654   0.8146   2.3770 C.ar           1 S1                 0.0000
     21 ****         3.0686  -0.1269   1.6192 N.ar           1 S1                 0.0000
     22 ****        -0.8339   1.0283  -1.8440 C.3            1 S1                 0.0000
     23 ****        -1.5826   3.9918   2.4336 H              1 S1                 0.0000
     24 ****        -1.2154   4.2358   0.7112 H              1 S1                 0.0000
     25 ****        -0.6109   2.7915   1.5568 H              1 S1                 0.0000
     26 ****        -1.1573   0.6803   0.2488 H              1 S1                 0.0000
     27 ****        -3.2178  -0.6495   0.0400 H              1 S1                 0.0000
     28 ****        -3.3803  -0.2116  -1.6402 H              1 S1                 0.0000
     29 ****        -1.2490  -2.0372  -0.4383 H              1 S1                 0.0000
     30 ****        -2.4952  -2.4664  -1.5750 H              1 S1                 0.0000
     31 ****        -0.2777  -2.2436  -2.7236 H              1 S1                 0.0000
     32 ****        -1.4158  -1.0902  -3.3514 H              1 S1                 0.0000
     33 ****         1.1988  -2.2459  -1.8360 H              1 S1                 0.0000
     34 ****         3.5595  -2.6005  -1.6968 H              1 S1                 0.0000
     35 ****         3.8115  -0.9481  -1.2032 H              1 S1                 0.0000
     36 ****         2.5248  -3.1817   0.4464 H              1 S1                 0.0000
     37 ****         4.0534  -2.4091   0.7624 H              1 S1                 0.0000
     38 ****         0.4659  -2.3017   1.3797 H              1 S1                 0.0000
     39 ****        -0.6302  -0.5470   2.7933 H              1 S1                 0.0000
     40 ****         0.6904   1.4899   3.4289 H              1 S1                 0.0000
     41 ****         3.0609   1.6789   2.6305 H              1 S1                 0.0000
     42 ****        -1.4117   1.2222  -2.7493 H              1 S1                 0.0000
     43 ****        -0.2130   1.9136  -1.6980 H              1 S1                 0.0000
     44 ****        -2.9935   2.4897  -1.2646 LP             1 S1                 0.0000
     45 ****         1.5384   1.6807  -1.5677 LP             1 S1                 0.0000
     46 ****         2.9493   0.6994  -1.3520 LP             1 S1                 0.0000
     47 ****         4.0174  -0.0194   1.3222 LP             1 S1                 0.0000
@<TRIPOS>BOND
    1    1    2 1     
    2    1   23 1     
    3    1   24 1     
    4    1   25 1     
    5    2    3 2     
    6    2    4 2     
    7    2    5 1     
    8    5    6 1     
    9    6   22 1     
   10    6    7 1     
   11    6   26 1     
   12    7    8 1     
   13    7   27 1     
   14    7   28 1     
   15    8    9 1     
   16    8   29 1     
   17    8   30 1     
   18    9   10 1     
   19    9   31 1     
   20    9   32 1     
   21   10   11 am    
   22   10   22 1     
   23   11   12 2     
   24   11   13 am    
   25   13   14 1     
   26   13   33 1     
   27   14   15 1     
   28   14   34 1     
   29   14   35 1     
   30   15   16 1     
   31   15   36 1     
   32   15   37 1     
   33   16   21 ar    
   34   16   17 ar    
   35   17   18 ar    
   36   17   38 1     
   37   18   19 ar    
   38   18   39 1     
   39   19   20 ar    
   40   19   40 1     
   41   20   21 ar    
   42   20   41 1     
   43   22   42 1     
   44   22   43 1     
   45    5   44 1     
   46   12   45 1     
   47   12   46 1     
   48   21   47 1     
@<TRIPOS>SUBSTRUCTURE
      1 S1             1
@<TRIPOS>SET
LONE_PAIRS      STATIC     ATOMS    <user>   **** ""
6 3 4 44 45 46 47
DONOR_HYDROGENS      STATIC     ATOMS    <user>   **** ""
1 33
ATOM$BLUE        STATIC     ATOMS    COLORGROUP SYSTEM
6 3 4 44 45 46 47
ATOM$RED        STATIC     ATOMS    COLORGROUP SYSTEM
1 33
