AV-unprocessed.smi:1196|AV-procd|sdf|4996|dock2
  -GOLD-   22720 4 03D 1   1.00000     0.00000
 Structure written by MMmdl.
 37 38  0  0  0  0  0  0  0  0  1 V2000
  152.1944  138.3906  158.6505 C   0  0  0  0  0  0  0  0  0  0  0  0
  152.0721  139.8259  158.1151 C   0  0  2  0  0  0  0  0  0  0  0  0
  151.6603  140.8089  159.2285 C   0  0  0  0  0  0  0  0  0  0  0  0
  151.6530  142.1893  158.7772 N   0  0  0  0  0  0  0  0  0  0  0  0
  152.3664  143.2585  159.2772 C   0  0  0  0  0  0  0  0  0  0  0  0
  152.0295  144.3543  158.5356 C   0  0  0  0  0  0  0  0  0  0  0  0
  151.0936  143.8479  157.5908 C   0  0  0  0  0  0  0  0  0  0  0  0
  150.8721  142.5515  157.7364 N   0  0  0  0  0  0  0  0  0  0  0  0
  151.1006  139.8686  157.0232 N   0  0  0  0  0  0  0  0  0  0  0  0
  151.3930  140.0609  155.7277 C   0  0  0  0  0  0  0  0  0  0  0  0
  152.5413  140.2101  155.3094 O   0  0  0  0  0  0  0  0  0  0  0  0
  150.2017  140.0949  154.7652 C   0  0  0  0  0  0  0  0  0  0  0  0
  149.1644  141.1768  155.1245 C   0  0  0  0  0  0  0  0  0  0  0  0
  148.2434  141.5459  153.9449 C   0  0  2  0  0  0  0  0  0  0  0  0
  147.2766  142.5759  154.2852 N   0  0  0  0  0  0  0  0  0  0  0  0
  146.0113  142.1627  154.1298 C   0  0  0  0  0  0  0  0  0  0  0  0
  145.0028  142.8320  154.3414 O   0  0  0  0  0  0  0  0  0  0  0  0
  146.0403  140.8949  153.7056 N   0  0  0  0  0  0  0  0  0  0  0  0
  147.2818  140.4305  153.5743 C   0  0  0  0  0  0  0  0  0  0  0  0
  147.6162  139.3024  153.2183 O   0  0  0  0  0  0  0  0  0  0  0  0
  152.9268  138.3352  159.4563 H   0  0  0  0  0  0  0  0  0  0  0  0
  152.5167  137.7027  157.8682 H   0  0  0  0  0  0  0  0  0  0  0  0
  151.2421  138.0294  159.0406 H   0  0  0  0  0  0  0  0  0  0  0  0
  153.0511  140.1301  157.7402 H   0  0  0  0  0  0  0  0  0  0  0  0
  150.6701  140.5610  159.6132 H   0  0  0  0  0  0  0  0  0  0  0  0
  152.3486  140.7326  160.0715 H   0  0  0  0  0  0  0  0  0  0  0  0
  153.0442  143.1523  160.1115 H   0  0  0  0  0  0  0  0  0  0  0  0
  152.3957  145.3637  158.6502 H   0  0  0  0  0  0  0  0  0  0  0  0
  150.5728  144.3802  156.8084 H   0  0  0  0  0  0  0  0  0  0  0  0
  150.1298  139.7554  157.2754 H   0  0  0  0  0  0  0  0  0  0  0  0
  150.5697  140.2571  153.7511 H   0  0  0  0  0  0  0  0  0  0  0  0
  149.7292  139.1121  154.7729 H   0  0  0  0  0  0  0  0  0  0  0  0
  148.5468  140.8238  155.9522 H   0  0  0  0  0  0  0  0  0  0  0  0
  149.6781  142.0693  155.4873 H   0  0  0  0  0  0  0  0  0  0  0  0
  148.8194  141.8472  153.0690 H   0  0  0  0  0  0  0  0  0  0  0  0
  147.5423  143.4985  154.5971 H   0  0  0  0  0  0  0  0  0  0  0  0
  145.2133  140.3480  153.5157 H   0  0  0  0  0  0  0  0  0  0  0  0
  1  2  1  0  0  0  0
  1 21  1  0  0  0  0
  1 22  1  0  0  0  0
  1 23  1  0  0  0  0
  2  3  1  0  0  0  0
  2  9  1  0  0  0  0
  2 24  1  0  0  0  0
  3  4  1  0  0  0  0
  3 25  1  0  0  0  0
  3 26  1  0  0  0  0
  4  8  1  0  0  0  0
  4  5  1  0  0  0  0
  5  6  2  0  0  0  0
  5 27  1  0  0  0  0
  6  7  1  0  0  0  0
  6 28  1  0  0  0  0
  7  8  2  0  0  0  0
  7 29  1  0  0  0  0
  9 10  1  0  0  0  0
  9 30  1  0  0  0  0
 10 11  2  0  0  0  0
 10 12  1  0  0  0  0
 12 13  1  0  0  0  0
 12 31  1  0  0  0  0
 12 32  1  0  0  0  0
 13 14  1  0  0  0  0
 13 33  1  0  0  0  0
 13 34  1  0  0  0  0
 14 19  1  0  0  0  0
 14 15  1  0  0  0  0
 14 35  1  0  0  0  0
 15 16  1  0  0  0  0
 15 36  1  0  0  0  0
 16 17  2  0  0  0  0
 16 18  1  0  0  0  0
 18 19  1  0  0  0  0
 18 37  1  0  0  0  0
 19 20  2  0  0  0  0
M  END
> <s_m_source_file>
AV-unprocessed.smi

> <i_m_source_file_index>
1196

> <i_lp_mmshare_version>
43012

> <i_f3d_flags>
0

> <s_epik_input>
bjFbY0hdW2NIXVtjSF1uMVtDSDJdW0NAQEhdKFtDSDNdKVtOSF1DKD1PKVtDSDJdW0NIMl1bQ0BASF0yW05IXUMoPU8pW05IXUMyPU8=

> <s_epik_cmdline>
J2VwaWtfcHl0aG9uJywgJy1waCcsICc3LjAnLCAnLXRuJywgJzgnLCAnLW1hJywgJzIwMCcsICctbWV0YWxfYmluZGluZycsICctaW1hZScsICc8aW5maWxlLm1hZT4nLCAnLW9tYWUnLCAnPG91dGZpbGUubWFlPic=

> <r_lp_tautomer_probability>
1

> <r_epik_Ionization_Penalty>
0.00815973

> <r_epik_Ionization_Penalty_Charging>
0

> <r_epik_Ionization_Penalty_Neutral>
0.00815973

> <r_epik_State_Penalty>
0.00583796

> <r_epik_Charging_Adjusted_Penalty>
0.00583796

> <i_epik_Tot_Q>
0

> <i_epik_Tot_abs_Q>
0

> <r_epik_Metal_State_Penalty>
0.409204

> <b_epik_Metal_Only>
0

> <s_lp_Force_Field>
OPLS_2005

> <r_lp_Energy>
19.6523

> <b_lp_Chiralities_Consistent>
1

> <s_lp_Variant>
AV-unprocessed.smi:1196-1

> <Gold.Version>
5.8.1

> <Gold.Id.Protein>
6NUR|6NUR_protein|mol2

> <Gold.PLP.Fitness>
52.9233

> <Gold.PLP.PLP>
-41.0060

> <Gold.PLP.part.hbond>
-4.0000

> <Gold.PLP.part.metal>
0.0000

> <Gold.PLP.part.buried>
-3.3625

> <Gold.PLP.part.nonpolar>
-34.6773

> <Gold.PLP.part.repulsive>
1.2182

> <Gold.PLP.ligand.clash>
0.0000

> <Gold.PLP.ligand.torsion>
0.2098

> <Gold.PLP.Chemscore.Hbond>
3.0774

> <Gold.PLP.Chemscore.CHOScore>
1.0000

> <Gold.PLP.Chemscore.Metal>
0.0000

> <Gold.Chemscore.Hbonds>
donor molecule, donor type, donor heavy atom, donor atom, acceptor molecule, acceptor atom, score
      L1  H    15    36       P1  8028  0.96
      L1  H    18    37       P1 10175  0.75
      P1  H  7989  7998       L1    11  0.15
      P1  H  7997  8009       L1    11  1.00
      L1  C     7    29       P1  8028  1.00

> <Gold.PLP.Chemscore.Internal.Correction>
0.1047

> <Gold.Rescore>
     Score         DG    S(hbond)    S(metal)    S(lipo)     H(rot)  DE(clash)    DE(int)     intcor
     13.07     -13.93       2.19        0.00      74.40       2.96       0.02       0.84       ----

> <Gold.Chemscore.Fitness>
13.0653

> <Gold.Chemscore.DG>
-13.9310

> <Gold.Chemscore.ZeroCoef>
-5.4800

> <Gold.Chemscore.Hbond>
2.1910

> <Gold.Chemscore.Metal>
0.0000

> <Gold.Chemscore.Lipo>
74.3971

> <Gold.Chemscore.Internal_Hbond>
0.0000

> <Gold.Chemscore.DEClash>
0.0237

> <Gold.Chemscore.DEInternal>
0.8419

> <Gold.Chemscore.Rot>
2.9575

> <Gold.Chemscore.Internal.Correction>
   9.000000E+99

> <Gold.Chemscore.Hbonds>
donor molecule, donor type, donor heavy atom, donor atom, acceptor molecule, acceptor atom, score
      L1  H    15    36       P1  8028  0.22
      L1  H    18    37       P1 10175  0.76
      P1  H  7997  8009       L1    11  0.94

> <Gold.Chemscore.Hbond.Weighted>
-7.3178

> <Gold.Chemscore.Metal.Weighted>
-0.0000

> <Gold.Chemscore.Lipo.Weighted>
-8.7045

> <Gold.Chemscore.Internal_Hbond.Weighted>
0.0000

> <Gold.Chemscore.DEClash.Weighted>
0.0237

> <Gold.Chemscore.DEInternal.Weighted>
0.8419

> <Gold.Chemscore.Rot.Weighted>
7.5713

> <Gold.Chemscore.Internal.Correction.Weighted>
   9.000000E+99

> <Gold.Protein.RotatedTorsions>
[ 6907 6896 6895 6894 ] final  -71.76 input  -60.11 | X-H torsion
[ 7974 7965 7964 7962 ] final  154.61 input  175.53 | X-H torsion
[ 8008 7997 7996 7995 ] final -131.49 input   59.86 | X-H torsion
[ 10167 10162 10161 10158 ] final  -99.94 input  -65.29 | X-H torsion
[ 10718 10713 10712 10709 ] final   -9.11 input   66.30 | X-H torsion
[ 10763 10752 10751 10750 ] final  -45.71 input  -60.55 | X-H torsion
[ 11005 11000 10999 10996 ] final  101.12 input  -57.11 | X-H torsion

> <Gold.Protein.ActiveResidues>
 VAL166  LYS551  ARG553  GLY616  TRP617  ASP618  TYR619  PRO620  LYS621  CYS622 
 ASP623  PHE694  ASN695  SER759  ASP760  ASP761  ALA762  ILE779  LEU786  VAL792 
 PHE793  MET794  SER795  GLU796  ALA797  LYS798  CYS799  TRP800  GLU811  SER814 

> <Gold.Protein.RotatedAtoms>
  150.7198  134.5261  159.5677 H   0  0  0  0  0  0  0  0  0  0  0  0  # atno 6907 bound_to 6896
  152.2805  134.7831  160.0406 H   0  0  0  0  0  0  0  0  0  0  0  0  # atno 6908 bound_to 6896
  151.8479  133.3399  159.3700 H   0  0  0  0  0  0  0  0  0  0  0  0  # atno 6909 bound_to 6896
  144.8078  139.6956  143.6154 H   0  0  0  0  0  0  0  0  0  0  0  0  # atno 7974 bound_to 7965
  155.3132  140.0458  157.3036 H   0  0  0  0  0  0  0  0  0  0  0  0  # atno 8008 bound_to 7997
  154.5421  140.2291  155.8590 H   0  0  0  0  0  0  0  0  0  0  0  0  # atno 8009 bound_to 7997
  156.1891  140.3055  155.9303 H   0  0  0  0  0  0  0  0  0  0  0  0  # atno 8010 bound_to 7997
  140.2572  143.3432  152.0660 H   0  0  0  0  0  0  0  0  0  0  0  0  # atno 10167 bound_to 10162
  156.6928  130.5070  149.5939 H   0  0  0  0  0  0  0  0  0  0  0  0  # atno 10718 bound_to 10713
  154.0330  135.6654  153.4782 H   0  0  0  0  0  0  0  0  0  0  0  0  # atno 10763 bound_to 10752
  153.0532  135.5071  154.7915 H   0  0  0  0  0  0  0  0  0  0  0  0  # atno 10764 bound_to 10752
  154.6866  135.3054  154.9504 H   0  0  0  0  0  0  0  0  0  0  0  0  # atno 10765 bound_to 10752
  139.8772  134.9169  156.4858 H   0  0  0  0  0  0  0  0  0  0  0  0  # atno 11005 bound_to 11000
  146.2372  139.5928  142.9516 LP  0  0  0  0  0  0  0  0  0  0  0  0  # atno 17320 bound_to 7965
  145.5397  141.0421  143.2337 LP  0  0  0  0  0  0  0  0  0  0  0  0  # atno 17321 bound_to 7965
  139.5028  144.6742  151.6170 LP  0  0  0  0  0  0  0  0  0  0  0  0  # atno 17342 bound_to 10162
  140.5994  143.9637  150.6376 LP  0  0  0  0  0  0  0  0  0  0  0  0  # atno 17343 bound_to 10162
  156.1785  130.6483  151.0923 LP  0  0  0  0  0  0  0  0  0  0  0  0  # atno 17370 bound_to 10713
  157.7002  131.0778  150.6843 LP  0  0  0  0  0  0  0  0  0  0  0  0  # atno 17371 bound_to 10713
  140.8694  133.8000  155.9348 LP  0  0  0  0  0  0  0  0  0  0  0  0  # atno 17394 bound_to 11000
  140.8968  134.2427  157.5064 LP  0  0  0  0  0  0  0  0  0  0  0  0  # atno 17395 bound_to 11000

$$$$
