AV-unprocessed.smi:2095|AV-procd|sdf|8558|dock9
  -GOLD-   2272011283D 1   1.00000     0.00000
 Structure written by MMmdl.
 42 43  0  0  0  0  0  0  0  0  2 V2000
  144.4826  144.9705  154.7385 C   0  0  0  0  0  0  0  0  0  0  0  0
  144.5963  143.4437  154.6245 C   0  0  2  0  0  0  0  0  0  0  0  0
  144.2394  142.7570  155.9507 C   0  0  0  0  0  0  0  0  0  0  0  0
  144.3800  141.2389  155.8071 C   0  0  0  0  0  0  0  0  0  0  0  0
  145.7836  140.8518  155.3126 C   0  0  0  0  0  0  0  0  0  0  0  0
  146.1170  141.5323  154.0271 N   0  3  2  0  0  0  0  0  0  0  0  0
  147.4082  141.1280  153.3778 C   0  0  1  0  0  0  0  0  0  0  0  0
  148.6717  141.6855  154.0786 C   0  0  0  0  0  0  0  0  0  0  0  0
  147.4812  139.5846  153.2846 C   0  0  0  0  0  0  0  0  0  0  0  0
  148.8346  139.1122  153.0178 N   0  0  0  0  0  0  0  0  0  0  0  0
  149.5658  138.3815  153.8720 C   0  0  0  0  0  0  0  0  0  0  0  0
  149.1617  138.0305  154.9800 O   0  0  0  0  0  0  0  0  0  0  0  0
  150.9657  137.9826  153.4053 C   0  0  0  0  0  0  0  0  0  0  0  0
  151.9295  138.1287  154.4790 N   0  0  0  0  0  0  0  0  0  0  0  0
  152.3684  139.2122  155.1228 C   0  0  0  0  0  0  0  0  0  0  0  0
  153.2499  138.8993  156.0604 N   0  0  0  0  0  0  0  0  0  0  0  0
  153.3387  137.5207  155.9622 N   0  0  0  0  0  0  0  0  0  0  0  0
  152.5568  137.0574  155.0261 N   0  0  0  0  0  0  0  0  0  0  0  0
  146.0048  143.0127  154.1702 C   0  0  0  0  0  0  0  0  0  0  0  0
  145.1753  145.3660  155.4820 H   0  0  0  0  0  0  0  0  0  0  0  0
  143.4753  145.2677  155.0316 H   0  0  0  0  0  0  0  0  0  0  0  0
  144.7038  145.4541  153.7867 H   0  0  0  0  0  0  0  0  0  0  0  0
  143.8812  143.1172  153.8678 H   0  0  0  0  0  0  0  0  0  0  0  0
  144.8954  143.1135  156.7463 H   0  0  0  0  0  0  0  0  0  0  0  0
  143.2208  143.0098  156.2478 H   0  0  0  0  0  0  0  0  0  0  0  0
  144.1756  140.7552  156.7629 H   0  0  0  0  0  0  0  0  0  0  0  0
  143.6301  140.8671  155.1074 H   0  0  0  0  0  0  0  0  0  0  0  0
  146.5329  141.1006  156.0659 H   0  0  0  0  0  0  0  0  0  0  0  0
  145.7877  139.7690  155.1933 H   0  0  0  0  0  0  0  0  0  0  0  0
  147.4134  141.5368  152.3658 H   0  0  0  0  0  0  0  0  0  0  0  0
  149.5851  141.3666  153.5769 H   0  0  0  0  0  0  0  0  0  0  0  0
  148.7369  141.3481  155.1137 H   0  0  0  0  0  0  0  0  0  0  0  0
  148.6970  142.7754  154.0695 H   0  0  0  0  0  0  0  0  0  0  0  0
  147.1232  139.1453  154.2176 H   0  0  0  0  0  0  0  0  0  0  0  0
  146.8369  139.2020  152.4935 H   0  0  0  0  0  0  0  0  0  0  0  0
  149.2413  139.3522  152.1251 H   0  0  0  0  0  0  0  0  0  0  0  0
  150.9698  136.9505  153.0511 H   0  0  0  0  0  0  0  0  0  0  0  0
  151.2733  138.6117  152.5691 H   0  0  0  0  0  0  0  0  0  0  0  0
  152.0417  140.2192  154.9094 H   0  0  0  0  0  0  0  0  0  0  0  0
  146.2320  143.5051  153.2257 H   0  0  0  0  0  0  0  0  0  0  0  0
  146.7509  143.3622  154.8862 H   0  0  0  0  0  0  0  0  0  0  0  0
  145.3917  141.2495  153.3837 H   0  0  0  0  0  0  0  0  0  0  0  0
  1  2  1  0  0  0  0
  1 20  1  0  0  0  0
  1 21  1  0  0  0  0
  1 22  1  0  0  0  0
  2 19  1  0  0  0  0
  2  3  1  0  0  0  0
  2 23  1  0  0  0  0
  3  4  1  0  0  0  0
  3 24  1  0  0  0  0
  3 25  1  0  0  0  0
  4  5  1  0  0  0  0
  4 26  1  0  0  0  0
  4 27  1  0  0  0  0
  5  6  1  0  0  0  0
  5 28  1  0  0  0  0
  5 29  1  0  0  0  0
  6  7  1  0  0  0  0
  6 19  1  0  0  0  0
  6 42  1  0  0  0  0
  7  8  1  0  0  0  0
  7  9  1  0  0  0  0
  7 30  1  0  0  0  0
  8 31  1  0  0  0  0
  8 32  1  0  0  0  0
  8 33  1  0  0  0  0
  9 10  1  0  0  0  0
  9 34  1  0  0  0  0
  9 35  1  0  0  0  0
 10 11  1  0  0  0  0
 10 36  1  0  0  0  0
 11 12  2  0  0  0  0
 11 13  1  0  0  0  0
 13 14  1  0  0  0  0
 13 37  1  0  0  0  0
 13 38  1  0  0  0  0
 14 18  1  0  0  0  0
 14 15  1  0  0  0  0
 15 16  2  0  0  0  0
 15 39  1  0  0  0  0
 16 17  1  0  0  0  0
 17 18  2  0  0  0  0
 19 40  1  0  0  0  0
 19 41  1  0  0  0  0
M  CHG  1   6   1
M  END
> <s_m_source_file>
AV-unprocessed.smi

> <i_m_source_file_index>
2095

> <i_lp_mmshare_version>
43012

> <i_f3d_flags>
0

> <s_epik_input>
W0NIM11bQ0BASF0xW0NIMl1bQ0gyXVtDSDJdTihbQ0gyXTEpW0NASF0oW0NIM10pW0NIMl1bTkhdQyg9TylbQ0gyXW4yW2NIXW5ubjI=

> <s_epik_cmdline>
J2VwaWtfcHl0aG9uJywgJy1waCcsICc3LjAnLCAnLXRuJywgJzgnLCAnLW1hJywgJzIwMCcsICctbWV0YWxfYmluZGluZycsICctaW1hZScsICc8aW5maWxlLm1hZT4nLCAnLW9tYWUnLCAnPG91dGZpbGUubWFlPic=

> <r_lp_tautomer_probability>
1

> <r_epik_Ionization_Penalty>
0.00268321

> <r_epik_Ionization_Penalty_Charging>
0.00267875

> <r_epik_Ionization_Penalty_Neutral>
4.46125e-06

> <r_epik_State_Penalty>
0.00186642

> <r_epik_Charging_Adjusted_Penalty>
0.00454517

> <i_epik_Tot_Q>
1

> <i_epik_Tot_abs_Q>
1

> <r_epik_Metal_State_Penalty>
-0

> <b_epik_Metal_Only>
0

> <s_lp_Force_Field>
OPLS_2005

> <r_lp_Energy>
25.5327

> <b_lp_Chiralities_Consistent>
1

> <s_lp_Variant>
AV-unprocessed.smi:2095-5

> <Gold.Version>
5.8.1

> <Gold.Id.Protein>
6NUR|6NUR_protein|mol2

> <Gold.PLP.Fitness>
44.8274

> <Gold.PLP.PLP>
-31.6051

> <Gold.PLP.part.hbond>
-4.3858

> <Gold.PLP.part.metal>
0.0000

> <Gold.PLP.part.buried>
-3.7077

> <Gold.PLP.part.nonpolar>
-25.2929

> <Gold.PLP.part.repulsive>
0.1629

> <Gold.PLP.ligand.clash>
0.0000

> <Gold.PLP.ligand.torsion>
0.5486

> <Gold.PLP.Chemscore.Hbond>
4.7520

> <Gold.PLP.Chemscore.CHOScore>
0.0000

> <Gold.PLP.Chemscore.Metal>
0.0000

> <Gold.Chemscore.Hbonds>
donor molecule, donor type, donor heavy atom, donor atom, acceptor molecule, acceptor atom, score
      L1  H     6    42       P1 10175  1.82
      L1  H    10    36       P1  7957  0.24
      P1  H  7997  8010       L1    16  1.00
      P1  H 10752 10765       L1    18  0.62

> <Gold.PLP.Chemscore.Internal.Correction>
0.0635

> <Gold.Rescore>
     Score         DG    S(hbond)    S(metal)    S(lipo)     H(rot)  DE(clash)    DE(int)     intcor
     15.08     -15.60       3.41        0.00      46.99       2.64       0.02       0.50       ----

> <Gold.Chemscore.Fitness>
15.0835

> <Gold.Chemscore.DG>
-15.6009

> <Gold.Chemscore.ZeroCoef>
-5.4800

> <Gold.Chemscore.Hbond>
3.4108

> <Gold.Chemscore.Metal>
0.0000

> <Gold.Chemscore.Lipo>
46.9867

> <Gold.Chemscore.Internal_Hbond>
0.0000

> <Gold.Chemscore.DEClash>
0.0197

> <Gold.Chemscore.DEInternal>
0.4978

> <Gold.Chemscore.Rot>
2.6439

> <Gold.Chemscore.Internal.Correction>
   9.000000E+99

> <Gold.Chemscore.Hbonds>
donor molecule, donor type, donor heavy atom, donor atom, acceptor molecule, acceptor atom, score
      L1  H     6    42       P1 10175  0.22
      L1  H    10    36       P1  7957  0.25
      P1  H  7997  8010       L1    16  0.83
      P1  H 10752 10765       L1    18  0.39

> <Gold.Chemscore.Hbond.Weighted>
-11.3919

> <Gold.Chemscore.Metal.Weighted>
-0.0000

> <Gold.Chemscore.Lipo.Weighted>
-5.4974

> <Gold.Chemscore.Internal_Hbond.Weighted>
0.0000

> <Gold.Chemscore.DEClash.Weighted>
0.0197

> <Gold.Chemscore.DEInternal.Weighted>
0.4978

> <Gold.Chemscore.Rot.Weighted>
6.7685

> <Gold.Chemscore.Internal.Correction.Weighted>
   9.000000E+99

> <Gold.Protein.RotatedTorsions>
[ 6907 6896 6895 6894 ] final -117.31 input  -60.11 | X-H torsion
[ 7974 7965 7964 7962 ] final  -95.64 input  175.53 | X-H torsion
[ 8008 7997 7996 7995 ] final   77.16 input   59.86 | X-H torsion
[ 10167 10162 10161 10158 ] final -146.71 input  -65.29 | X-H torsion
[ 10718 10713 10712 10709 ] final   67.43 input   66.30 | X-H torsion
[ 10763 10752 10751 10750 ] final -171.94 input  -60.55 | X-H torsion
[ 11005 11000 10999 10996 ] final   55.84 input  -57.11 | X-H torsion

> <Gold.Protein.ActiveResidues>
 VAL166  LYS551  ARG553  GLY616  TRP617  ASP618  TYR619  PRO620  LYS621  CYS622 
 ASP623  PHE694  ASN695  SER759  ASP760  ASP761  ALA762  ILE779  LEU786  VAL792 
 PHE793  MET794  SER795  GLU796  ALA797  LYS798  CYS799  TRP800  GLU811  SER814 

> <Gold.Protein.RotatedAtoms>
  150.8126  133.8395  159.3175 H   0  0  0  0  0  0  0  0  0  0  0  0  # atno 6907 bound_to 6896
  151.6176  135.1033  160.0104 H   0  0  0  0  0  0  0  0  0  0  0  0  # atno 6908 bound_to 6896
  152.4218  133.7088  159.6523 H   0  0  0  0  0  0  0  0  0  0  0  0  # atno 6909 bound_to 6896
  145.3574  140.9486  143.2520 H   0  0  0  0  0  0  0  0  0  0  0  0  # atno 7974 bound_to 7965
  155.8377  140.3463  155.5612 H   0  0  0  0  0  0  0  0  0  0  0  0  # atno 8008 bound_to 7997
  155.8174  140.0908  157.1888 H   0  0  0  0  0  0  0  0  0  0  0  0  # atno 8009 bound_to 7997
  154.4004  140.1436  156.3447 H   0  0  0  0  0  0  0  0  0  0  0  0  # atno 8010 bound_to 7997
  139.7688  143.8268  152.2621 H   0  0  0  0  0  0  0  0  0  0  0  0  # atno 10167 bound_to 10162
  157.6230  130.9320  150.0241 H   0  0  0  0  0  0  0  0  0  0  0  0  # atno 10718 bound_to 10713
  154.6249  135.2879  155.0283 H   0  0  0  0  0  0  0  0  0  0  0  0  # atno 10763 bound_to 10752
  154.1465  135.6510  153.4957 H   0  0  0  0  0  0  0  0  0  0  0  0  # atno 10764 bound_to 10752
  153.0253  135.5345  154.7053 H   0  0  0  0  0  0  0  0  0  0  0  0  # atno 10765 bound_to 10752
  140.0575  134.5649  155.9190 H   0  0  0  0  0  0  0  0  0  0  0  0  # atno 11005 bound_to 11000
  144.8672  139.5091  143.6785 LP  0  0  0  0  0  0  0  0  0  0  0  0  # atno 17320 bound_to 7965
  146.2942  139.7228  142.9139 LP  0  0  0  0  0  0  0  0  0  0  0  0  # atno 17321 bound_to 7965
  139.8296  144.7259  150.9467 LP  0  0  0  0  0  0  0  0  0  0  0  0  # atno 17342 bound_to 10162
  140.7812  143.4082  151.1036 LP  0  0  0  0  0  0  0  0  0  0  0  0  # atno 17343 bound_to 10162
  156.1385  130.3642  149.9619 LP  0  0  0  0  0  0  0  0  0  0  0  0  # atno 17370 bound_to 10713
  156.7665  130.9170  151.3643 LP  0  0  0  0  0  0  0  0  0  0  0  0  # atno 17371 bound_to 10713
  141.1959  133.6589  156.5664 LP  0  0  0  0  0  0  0  0  0  0  0  0  # atno 17394 bound_to 11000
  140.3821  134.7514  157.4667 LP  0  0  0  0  0  0  0  0  0  0  0  0  # atno 17395 bound_to 11000

$$$$
