AV-unprocessed.smi:2991|AV-procd|sdf|11399|dock3
  -GOLD-   2272016323D 1   1.00000     0.00000
 Structure written by MMmdl.
 38 39  0  0  0  0  0  0  0  0  2 V2000
  150.3249  141.7383  155.5195 C   0  0  0  0  0  0  0  0  0  0  0  0
  149.0456  141.1828  154.9237 C   0  0  0  0  0  0  0  0  0  0  0  0
  147.9568  141.9830  154.9153 N   0  3  0  0  0  0  0  0  0  0  0  0
  146.7636  141.5961  154.4184 C   0  0  0  0  0  0  0  0  0  0  0  0
  146.6154  140.3071  153.8708 C   0  0  0  0  0  0  0  0  0  0  0  0
  147.7302  139.4313  153.8377 C   0  0  0  0  0  0  0  0  0  0  0  0
  147.6602  138.1081  153.3191 N   0  0  0  0  0  0  0  0  0  0  0  0
  146.5705  137.3526  153.1018 C   0  0  0  0  0  0  0  0  0  0  0  0
  145.4108  137.6980  153.3279 O   0  0  0  0  0  0  0  0  0  0  0  0
  146.9023  136.1619  152.5829 N   0  0  0  0  0  0  0  0  0  0  0  0
  145.9650  135.1116  152.1851 C   0  0  2  0  0  0  0  0  0  0  0  0
  145.1173  135.5655  150.9687 C   0  0  0  0  0  0  0  0  0  0  0  0
  143.7480  134.8743  150.8003 C   0  0  0  0  0  0  0  0  0  0  0  0
  143.7798  133.3325  150.7811 C   0  0  0  0  0  0  0  0  0  0  0  0
  144.4456  132.6351  151.9918 C   0  0  0  0  0  0  0  0  0  0  0  0
  144.4673  133.4366  153.2149 N   0  0  0  0  0  0  0  0  0  0  0  0
  145.1623  134.5744  153.3858 C   0  0  0  0  0  0  0  0  0  0  0  0
  145.1458  135.1829  154.4551 O   0  0  0  0  0  0  0  0  0  0  0  0
  148.9584  139.8762  154.3873 C   0  0  0  0  0  0  0  0  0  0  0  0
  150.3454  138.8391  154.3974 Cl  0  0  0  0  0  0  0  0  0  0  0  0
  150.6512  141.1236  156.3592 H   0  0  0  0  0  0  0  0  0  0  0  0
  150.1871  142.7585  155.8798 H   0  0  0  0  0  0  0  0  0  0  0  0
  151.1179  141.7481  154.7714 H   0  0  0  0  0  0  0  0  0  0  0  0
  145.9663  142.3226  154.4790 H   0  0  0  0  0  0  0  0  0  0  0  0
  145.6470  140.0103  153.4979 H   0  0  0  0  0  0  0  0  0  0  0  0
  148.5368  137.7227  152.9985 H   0  0  0  0  0  0  0  0  0  0  0  0
  147.8803  135.9674  152.4227 H   0  0  0  0  0  0  0  0  0  0  0  0
  146.5789  134.2712  151.8580 H   0  0  0  0  0  0  0  0  0  0  0  0
  144.9342  136.6389  151.0365 H   0  0  0  0  0  0  0  0  0  0  0  0
  145.7032  135.4257  150.0593 H   0  0  0  0  0  0  0  0  0  0  0  0
  143.0733  135.2102  151.5890 H   0  0  0  0  0  0  0  0  0  0  0  0
  143.2931  135.2251  149.8735 H   0  0  0  0  0  0  0  0  0  0  0  0
  142.7486  132.9849  150.7104 H   0  0  0  0  0  0  0  0  0  0  0  0
  144.2647  132.9894  149.8665 H   0  0  0  0  0  0  0  0  0  0  0  0
  143.9257  131.7004  152.2035 H   0  0  0  0  0  0  0  0  0  0  0  0
  145.4658  132.3432  151.7399 H   0  0  0  0  0  0  0  0  0  0  0  0
  143.9287  133.0916  153.9964 H   0  0  0  0  0  0  0  0  0  0  0  0
  148.0393  142.9215  155.3071 H   0  0  0  0  0  0  0  0  0  0  0  0
  1  2  1  0  0  0  0
  1 21  1  0  0  0  0
  1 22  1  0  0  0  0
  1 23  1  0  0  0  0
  2 19  1  0  0  0  0
  2  3  2  0  0  0  0
  3  4  1  0  0  0  0
  3 38  1  0  0  0  0
  4  5  2  0  0  0  0
  4 24  1  0  0  0  0
  5  6  1  0  0  0  0
  5 25  1  0  0  0  0
  6  7  1  0  0  0  0
  6 19  2  0  0  0  0
  7  8  1  0  0  0  0
  7 26  1  0  0  0  0
  8  9  2  0  0  0  0
  8 10  1  0  0  0  0
 10 11  1  0  0  0  0
 10 27  1  0  0  0  0
 11 17  1  0  0  0  0
 11 12  1  0  0  0  0
 11 28  1  0  0  0  0
 12 13  1  0  0  0  0
 12 29  1  0  0  0  0
 12 30  1  0  0  0  0
 13 14  1  0  0  0  0
 13 31  1  0  0  0  0
 13 32  1  0  0  0  0
 14 15  1  0  0  0  0
 14 33  1  0  0  0  0
 14 34  1  0  0  0  0
 15 16  1  0  0  0  0
 15 35  1  0  0  0  0
 15 36  1  0  0  0  0
 16 17  1  0  0  0  0
 16 37  1  0  0  0  0
 17 18  2  0  0  0  0
 19 20  1  0  0  0  0
M  CHG  1   3   1
M  END
> <s_m_source_file>
AV-unprocessed.smi

> <i_m_source_file_index>
2991

> <i_lp_mmshare_version>
43012

> <i_f3d_flags>
0

> <s_epik_input>
W0NIM11jMW5bY0hdW2NIXWMoYzFDbClbTkhdQyg9TylbTkhdW0NAQEhdMltDSDJdW0NIMl1bQ0gyXVtDSDJdW05IXUMyPU8=

> <s_epik_cmdline>
J2VwaWtfcHl0aG9uJywgJy1waCcsICc3LjAnLCAnLXRuJywgJzgnLCAnLW1hJywgJzIwMCcsICctbWV0YWxfYmluZGluZycsICctaW1hZScsICc8aW5maWxlLm1hZT4nLCAnLW9tYWUnLCAnPG91dGZpbGUubWFlPic=

> <r_epik_Ionization_Penalty>
2.55031

> <r_epik_Ionization_Penalty_Charging>
2.55029

> <r_epik_Ionization_Penalty_Neutral>
1.86001e-05

> <r_epik_State_Penalty>
2.71882

> <r_epik_Charging_Adjusted_Penalty>
5.26911

> <i_epik_Tot_Q>
1

> <i_epik_Tot_abs_Q>
1

> <r_epik_Metal_State_Penalty>
2.7268

> <b_epik_Metal_Only>
0

> <s_lp_Force_Field>
OPLS_2005

> <r_lp_Energy>
25.1386

> <b_lp_Chiralities_Consistent>
1

> <s_lp_Variant>
AV-unprocessed.smi:2991-3

> <Gold.Version>
5.8.1

> <Gold.Id.Protein>
6NUR|6NUR_protein|mol2

> <Gold.PLP.Fitness>
38.7853

> <Gold.PLP.PLP>
-27.0676

> <Gold.PLP.part.hbond>
-2.5024

> <Gold.PLP.part.metal>
0.0000

> <Gold.PLP.part.buried>
-0.3025

> <Gold.PLP.part.nonpolar>
-26.0669

> <Gold.PLP.part.repulsive>
0.4567

> <Gold.PLP.ligand.clash>
0.0000

> <Gold.PLP.ligand.torsion>
0.1087

> <Gold.PLP.Chemscore.Hbond>
3.9609

> <Gold.PLP.Chemscore.CHOScore>
0.0000

> <Gold.PLP.Chemscore.Metal>
0.0000

> <Gold.Chemscore.Hbonds>
donor molecule, donor type, donor heavy atom, donor atom, acceptor molecule, acceptor atom, score
      L1  H     3    38       P1  8028  2.00
      L1  H     7    26       P1  7948  0.67
      L1  H    10    27       P1  7948  0.24
      L1  H    16    37       P1 10957  1.00

> <Gold.PLP.Chemscore.Internal.Correction>
0.0525

> <Gold.Rescore>
     Score         DG    S(hbond)    S(metal)    S(lipo)     H(rot)  DE(clash)    DE(int)     intcor
     16.89     -22.26       3.15        0.00      75.38       1.00       1.76       3.61       ----

> <Gold.Chemscore.Fitness>
16.8911

> <Gold.Chemscore.DG>
-22.2557

> <Gold.Chemscore.ZeroCoef>
-5.4800

> <Gold.Chemscore.Hbond>
3.1486

> <Gold.Chemscore.Metal>
0.0000

> <Gold.Chemscore.Lipo>
75.3778

> <Gold.Chemscore.Internal_Hbond>
0.0000

> <Gold.Chemscore.DEClash>
1.7550

> <Gold.Chemscore.DEInternal>
3.6096

> <Gold.Chemscore.Rot>
1.0000

> <Gold.Chemscore.Internal.Correction>
   9.000000E+99

> <Gold.Chemscore.Hbonds>
donor molecule, donor type, donor heavy atom, donor atom, acceptor molecule, acceptor atom, score
      L1  H     3    38       P1  8028  0.87
      L1  H     7    26       P1  7948  0.66
      L1  H    10    27       P1  7948  0.24
      L1  H    16    37       P1 10957  0.90

> <Gold.Chemscore.Hbond.Weighted>
-10.5165

> <Gold.Chemscore.Metal.Weighted>
-0.0000

> <Gold.Chemscore.Lipo.Weighted>
-8.8192

> <Gold.Chemscore.Internal_Hbond.Weighted>
0.0000

> <Gold.Chemscore.DEClash.Weighted>
1.7550

> <Gold.Chemscore.DEInternal.Weighted>
3.6096

> <Gold.Chemscore.Rot.Weighted>
2.5600

> <Gold.Chemscore.Internal.Correction.Weighted>
   9.000000E+99

> <Gold.Protein.RotatedTorsions>
[ 6907 6896 6895 6894 ] final -132.55 input  -60.11 | X-H torsion
[ 7974 7965 7964 7962 ] final  -95.11 input  175.53 | X-H torsion
[ 8008 7997 7996 7995 ] final   14.51 input   59.86 | X-H torsion
[ 10167 10162 10161 10158 ] final  129.37 input  -65.29 | X-H torsion
[ 10718 10713 10712 10709 ] final  -37.87 input   66.30 | X-H torsion
[ 10763 10752 10751 10750 ] final -156.98 input  -60.55 | X-H torsion
[ 11005 11000 10999 10996 ] final  140.50 input  -57.11 | X-H torsion

> <Gold.Protein.ActiveResidues>
 VAL166  LYS551  ARG553  GLY616  TRP617  ASP618  TYR619  PRO620  LYS621  CYS622 
 ASP623  PHE694  ASN695  SER759  ASP760  ASP761  ALA762  ILE779  LEU786  VAL792 
 PHE793  MET794  SER795  GLU796  ALA797  LYS798  CYS799  TRP800  GLU811  SER814 

> <Gold.Protein.RotatedAtoms>
  150.9637  133.6417  159.2749 H   0  0  0  0  0  0  0  0  0  0  0  0  # atno 6907 bound_to 6896
  151.3730  135.0925  159.9481 H   0  0  0  0  0  0  0  0  0  0  0  0  # atno 6908 bound_to 6896
  152.5157  133.9188  159.7578 H   0  0  0  0  0  0  0  0  0  0  0  0  # atno 6909 bound_to 6896
  145.3644  140.9496  143.2482 H   0  0  0  0  0  0  0  0  0  0  0  0  # atno 7974 bound_to 7965
  154.8495  140.2927  155.5607 H   0  0  0  0  0  0  0  0  0  0  0  0  # atno 8008 bound_to 7997
  156.3016  140.2498  156.3383 H   0  0  0  0  0  0  0  0  0  0  0  0  # atno 8009 bound_to 7997
  154.9037  140.0390  157.1896 H   0  0  0  0  0  0  0  0  0  0  0  0  # atno 8010 bound_to 7997
  139.5481  144.6790  151.4409 H   0  0  0  0  0  0  0  0  0  0  0  0  # atno 10167 bound_to 10162
  156.3103  130.4251  149.8057 H   0  0  0  0  0  0  0  0  0  0  0  0  # atno 10718 bound_to 10713
  154.7671  135.3134  154.8263 H   0  0  0  0  0  0  0  0  0  0  0  0  # atno 10763 bound_to 10752
  153.9008  135.6816  153.4759 H   0  0  0  0  0  0  0  0  0  0  0  0  # atno 10764 bound_to 10752
  153.1279  135.4793  154.9235 H   0  0  0  0  0  0  0  0  0  0  0  0  # atno 10765 bound_to 10752
  140.0332  134.9342  157.0702 H   0  0  0  0  0  0  0  0  0  0  0  0  # atno 11005 bound_to 11000
  144.8622  139.5160  143.6807 LP  0  0  0  0  0  0  0  0  0  0  0  0  # atno 17320 bound_to 7965
  146.2913  139.7148  142.9159 LP  0  0  0  0  0  0  0  0  0  0  0  0  # atno 17321 bound_to 7965
  140.6736  143.8240  150.7030 LP  0  0  0  0  0  0  0  0  0  0  0  0  # atno 17342 bound_to 10162
  140.1672  143.4225  152.2026 LP  0  0  0  0  0  0  0  0  0  0  0  0  # atno 17343 bound_to 10162
  156.5403  130.8297  151.3266 LP  0  0  0  0  0  0  0  0  0  0  0  0  # atno 17370 bound_to 10713
  157.7389  130.9822  150.2282 LP  0  0  0  0  0  0  0  0  0  0  0  0  # atno 17371 bound_to 10713
  140.4191  134.1900  155.7164 LP  0  0  0  0  0  0  0  0  0  0  0  0  # atno 17394 bound_to 11000
  141.1843  133.8347  157.1146 LP  0  0  0  0  0  0  0  0  0  0  0  0  # atno 17395 bound_to 11000

$$$$
