AV-unprocessed.smi:2886|AV-procd|sdf|11087|dock6
  -GOLD-   2272015563D 1   1.00000     0.00000
 Structure written by MMmdl.
 28 30  0  0  0  0  0  0  0  0  1 V2000
  151.0420  138.1637  154.0441 O   0  0  0  0  0  0  0  0  0  0  0  0
  150.7819  139.2785  154.4928 C   0  0  0  0  0  0  0  0  0  0  0  0
  150.0096  140.1537  153.8068 N   0  0  0  0  0  0  0  0  0  0  0  0
  149.6610  141.4220  154.2024 N   0  0  0  0  0  0  0  0  0  0  0  0
  150.0913  141.8501  155.3398 C   0  0  0  0  0  0  0  0  0  0  0  0
  150.9253  141.0438  156.2251 C   0  0  0  0  0  0  0  0  0  0  0  0
  151.3895  141.5057  157.4506 N   0  0  0  0  0  0  0  0  0  0  0  0
  151.1685  142.7982  158.0840 C   0  0  2  0  0  0  0  0  0  0  0  0
  151.7611  143.9557  157.2763 C   0  0  0  0  0  0  0  0  0  0  0  0
  152.6904  144.6120  158.3054 C   0  0  1  0  0  0  0  0  0  0  0  0
  151.9137  145.3003  159.4365 C   0  0  0  0  0  0  0  0  0  0  0  0
  151.4062  144.1037  160.2411 C   0  0  0  0  0  0  0  0  0  0  0  0
  151.9302  142.9221  159.4140 C   0  0  2  0  0  0  0  0  0  0  0  0
  153.1684  143.4607  158.9785 O   0  0  0  0  0  0  0  0  0  0  0  0
  151.2529  139.7972  155.7845 C   0  0  0  0  0  0  0  0  0  0  0  0
  152.2473  138.7573  156.7488 Cl  0  0  0  0  0  0  0  0  0  0  0  0
  149.6387  139.8838  152.9072 H   0  0  0  0  0  0  0  0  0  0  0  0
  149.8483  142.8532  155.6882 H   0  0  0  0  0  0  0  0  0  0  0  0
  151.8405  140.8244  158.0451 H   0  0  0  0  0  0  0  0  0  0  0  0
  150.1051  142.9474  158.2685 H   0  0  0  0  0  0  0  0  0  0  0  0
  152.3371  143.5954  156.4225 H   0  0  0  0  0  0  0  0  0  0  0  0
  150.9993  144.6417  156.9047 H   0  0  0  0  0  0  0  0  0  0  0  0
  153.4719  145.2309  157.8638 H   0  0  0  0  0  0  0  0  0  0  0  0
  152.5757  145.9169  160.0454 H   0  0  0  0  0  0  0  0  0  0  0  0
  151.1078  145.9313  159.0602 H   0  0  0  0  0  0  0  0  0  0  0  0
  151.8459  144.1011  161.2392 H   0  0  0  0  0  0  0  0  0  0  0  0
  150.3210  144.0917  160.3470 H   0  0  0  0  0  0  0  0  0  0  0  0
  152.0099  141.9933  159.9800 H   0  0  0  0  0  0  0  0  0  0  0  0
  1  2  2  0  0  0  0
  2 15  1  0  0  0  0
  2  3  1  0  0  0  0
  3 17  1  0  0  0  0
  3  4  1  0  0  0  0
  4  5  2  0  0  0  0
  5  6  1  0  0  0  0
  5 18  1  0  0  0  0
  6  7  1  0  0  0  0
  6 15  2  0  0  0  0
  7  8  1  0  0  0  0
  7 19  1  0  0  0  0
  8 13  1  0  0  0  0
  8  9  1  0  0  0  0
  8 20  1  0  0  0  0
  9 10  1  0  0  0  0
  9 21  1  0  0  0  0
  9 22  1  0  0  0  0
 10 14  1  0  0  0  0
 10 11  1  0  0  0  0
 10 23  1  0  0  0  0
 11 12  1  0  0  0  0
 11 24  1  0  0  0  0
 11 25  1  0  0  0  0
 12 13  1  0  0  0  0
 12 26  1  0  0  0  0
 12 27  1  0  0  0  0
 13 14  1  0  0  0  0
 13 28  1  0  0  0  0
 15 16  1  0  0  0  0
M  END
> <s_m_source_file>
AV-unprocessed.smi

> <i_m_source_file_index>
2886

> <i_lp_mmshare_version>
43012

> <i_f3d_flags>
0

> <s_epik_input>
Tz1jMVtuSF1uW2NIXWMoYzFDbClbTkhdW0NASF0oW0NIMl1bQ0BASF0yMylbQ0BASF0oTzMpW0NIMl1bQ0gyXTI=

> <s_epik_cmdline>
J2VwaWtfcHl0aG9uJywgJy1waCcsICc3LjAnLCAnLXRuJywgJzgnLCAnLW1hJywgJzIwMCcsICctbWV0YWxfYmluZGluZycsICctaW1hZScsICc8aW5maWxlLm1hZT4nLCAnLW9tYWUnLCAnPG91dGZpbGUubWFlPic=

> <r_lp_tautomer_probability>
0.986175

> <r_epik_Ionization_Penalty>
0.000975594

> <r_epik_Ionization_Penalty_Charging>
0.000940184

> <r_epik_Ionization_Penalty_Neutral>
3.54099e-05

> <r_epik_State_Penalty>
0.00620319

> <r_epik_Charging_Adjusted_Penalty>
0.00714337

> <i_epik_Tot_Q>
0

> <i_epik_Tot_abs_Q>
0

> <r_epik_Metal_State_Penalty>
0.287699

> <b_epik_Metal_Only>
0

> <s_lp_Force_Field>
OPLS_2005

> <r_lp_Energy>
54.6963

> <b_lp_Chiralities_Consistent>
1

> <s_lp_Variant>
AV-unprocessed.smi:2886-1

> <Gold.Version>
5.8.1

> <Gold.Id.Protein>
6NUR|6NUR_protein|mol2

> <Gold.PLP.Fitness>
42.6329

> <Gold.PLP.PLP>
-36.1384

> <Gold.PLP.part.hbond>
-3.0000

> <Gold.PLP.part.metal>
0.0000

> <Gold.PLP.part.buried>
-3.6668

> <Gold.PLP.part.nonpolar>
-31.4330

> <Gold.PLP.part.repulsive>
2.6971

> <Gold.PLP.ligand.clash>
0.0000

> <Gold.PLP.ligand.torsion>
0.0098

> <Gold.PLP.Chemscore.Hbond>
1.1648

> <Gold.PLP.Chemscore.CHOScore>
1.0000

> <Gold.PLP.Chemscore.Metal>
0.0000

> <Gold.Chemscore.Hbonds>
donor molecule, donor type, donor heavy atom, donor atom, acceptor molecule, acceptor atom, score
      L1  H     3    17       P1  7957  1.00
      P1  H  8011  8017       L1     4  0.50
      L1  C     5    18       P1  8028  1.00

> <Gold.PLP.Chemscore.Internal.Correction>
0.0196

> <Gold.Rescore>
     Score         DG    S(hbond)    S(metal)    S(lipo)     H(rot)  DE(clash)    DE(int)     intcor
     17.08     -17.53       1.04        0.00      95.16       1.00       0.43       0.02       ----

> <Gold.Chemscore.Fitness>
17.0795

> <Gold.Chemscore.DG>
-17.5262

> <Gold.Chemscore.ZeroCoef>
-5.4800

> <Gold.Chemscore.Hbond>
1.0397

> <Gold.Chemscore.Metal>
0.0000

> <Gold.Chemscore.Lipo>
95.1595

> <Gold.Chemscore.Internal_Hbond>
0.0000

> <Gold.Chemscore.DEClash>
0.4317

> <Gold.Chemscore.DEInternal>
0.0151

> <Gold.Chemscore.Rot>
1.0000

> <Gold.Chemscore.Internal.Correction>
   9.000000E+99

> <Gold.Chemscore.Hbonds>
donor molecule, donor type, donor heavy atom, donor atom, acceptor molecule, acceptor atom, score
      L1  H     3    17       P1  7957  0.94
      P1  H  8011  8017       L1     4  0.13

> <Gold.Chemscore.Hbond.Weighted>
-3.4726

> <Gold.Chemscore.Metal.Weighted>
-0.0000

> <Gold.Chemscore.Lipo.Weighted>
-11.1337

> <Gold.Chemscore.Internal_Hbond.Weighted>
0.0000

> <Gold.Chemscore.DEClash.Weighted>
0.4317

> <Gold.Chemscore.DEInternal.Weighted>
0.0151

> <Gold.Chemscore.Rot.Weighted>
2.5600

> <Gold.Chemscore.Internal.Correction.Weighted>
   9.000000E+99

> <Gold.Protein.RotatedTorsions>
[ 6907 6896 6895 6894 ] final    2.25 input  -60.11 | X-H torsion
[ 7974 7965 7964 7962 ] final  -37.81 input  175.53 | X-H torsion
[ 8008 7997 7996 7995 ] final  -99.71 input   59.86 | X-H torsion
[ 10167 10162 10161 10158 ] final -100.13 input  -65.29 | X-H torsion
[ 10718 10713 10712 10709 ] final  177.84 input   66.30 | X-H torsion
[ 10763 10752 10751 10750 ] final  170.37 input  -60.55 | X-H torsion
[ 11005 11000 10999 10996 ] final  -82.02 input  -57.11 | X-H torsion

> <Gold.Protein.ActiveResidues>
 VAL166  LYS551  ARG553  GLY616  TRP617  ASP618  TYR619  PRO620  LYS621  CYS622 
 ASP623  PHE694  ASN695  SER759  ASP760  ASP761  ALA762  ILE779  LEU786  VAL792 
 PHE793  MET794  SER795  GLU796  ALA797  LYS798  CYS799  TRP800  GLU811  SER814 

> <Gold.Protein.RotatedAtoms>
  151.6057  135.1044  160.0069 H   0  0  0  0  0  0  0  0  0  0  0  0  # atno 6907 bound_to 6896
  152.4234  133.7151  159.6511 H   0  0  0  0  0  0  0  0  0  0  0  0  # atno 6908 bound_to 6896
  150.8122  133.8328  159.3199 H   0  0  0  0  0  0  0  0  0  0  0  0  # atno 6909 bound_to 6896
  146.0542  140.6439  142.9027 H   0  0  0  0  0  0  0  0  0  0  0  0  # atno 7974 bound_to 7965
  154.8186  140.0446  157.1395 H   0  0  0  0  0  0  0  0  0  0  0  0  # atno 8008 bound_to 7997
  154.9285  140.3036  155.5159 H   0  0  0  0  0  0  0  0  0  0  0  0  # atno 8009 bound_to 7997
  156.2978  140.2327  156.4343 H   0  0  0  0  0  0  0  0  0  0  0  0  # atno 8010 bound_to 7997
  140.2552  143.3445  152.0677 H   0  0  0  0  0  0  0  0  0  0  0  0  # atno 10167 bound_to 10162
  156.8995  130.9874  151.3038 H   0  0  0  0  0  0  0  0  0  0  0  0  # atno 10718 bound_to 10713
  154.3966  135.2754  155.2122 H   0  0  0  0  0  0  0  0  0  0  0  0  # atno 10763 bound_to 10752
  154.4166  135.6010  153.5988 H   0  0  0  0  0  0  0  0  0  0  0  0  # atno 10764 bound_to 10752
  152.9831  135.5962  154.4228 H   0  0  0  0  0  0  0  0  0  0  0  0  # atno 10765 bound_to 10752
  141.1664  133.7224  156.8509 H   0  0  0  0  0  0  0  0  0  0  0  0  # atno 11005 bound_to 11000
  144.7139  140.4139  143.7059 LP  0  0  0  0  0  0  0  0  0  0  0  0  # atno 17320 bound_to 7965
  145.6672  139.1592  143.2775 LP  0  0  0  0  0  0  0  0  0  0  0  0  # atno 17321 bound_to 7965
  139.5034  144.6754  151.6141 LP  0  0  0  0  0  0  0  0  0  0  0  0  # atno 17342 bound_to 10162
  140.6009  143.9611  150.6386 LP  0  0  0  0  0  0  0  0  0  0  0  0  # atno 17343 bound_to 10162
  157.6035  130.8530  149.8839 LP  0  0  0  0  0  0  0  0  0  0  0  0  # atno 17370 bound_to 10713
  156.0589  130.3703  150.1027 LP  0  0  0  0  0  0  0  0  0  0  0  0  # atno 17371 bound_to 10713
  140.1916  134.8961  157.3067 LP  0  0  0  0  0  0  0  0  0  0  0  0  # atno 17394 bound_to 11000
  140.2284  134.3939  155.7533 LP  0  0  0  0  0  0  0  0  0  0  0  0  # atno 17395 bound_to 11000

$$$$
