AV-unprocessed.smi:1256|AV-procd|sdf|5283|dock3
  -GOLD-   22720 4403D 1   1.00000     0.00000
 Structure written by MMmdl.
 41 42  0  0  0  0  0  0  0  0  1 V2000
  153.9174  141.6775  160.5864 C   0  0  0  0  0  0  0  0  0  0  0  0
  152.9230  142.3353  159.6759 C   0  0  0  0  0  0  0  0  0  0  0  0
  152.2015  141.7507  158.5947 C   0  0  0  0  0  0  0  0  0  0  0  0
  151.4548  142.7984  158.1294 C   0  0  0  0  0  0  0  0  0  0  0  0
  150.5735  142.8276  157.0945 N   0  0  0  0  0  0  0  0  0  0  0  0
  150.1785  141.8193  156.2977 C   0  0  0  0  0  0  0  0  0  0  0  0
  150.5661  140.6531  156.3750 O   0  0  0  0  0  0  0  0  0  0  0  0
  149.2883  142.2422  155.3887 N   0  0  0  0  0  0  0  0  0  0  0  0
  148.6578  141.3986  154.3804 C   0  0  0  0  0  0  0  0  0  0  0  0
  147.2128  141.0404  154.7699 C   0  0  0  0  0  0  0  0  0  0  0  0
  146.2940  142.2503  154.8034 C   0  0  0  0  0  0  0  0  0  0  0  0
  145.7280  142.6813  155.9476 C   0  0  0  0  0  0  0  0  0  0  0  0
  144.7683  143.8547  156.0365 C   0  0  0  0  0  0  0  0  0  0  0  0
  144.2221  144.2694  154.6602 C   0  0  0  0  0  0  0  0  0  0  0  0
  145.3371  144.2963  153.6076 C   0  0  0  0  0  0  0  0  0  0  0  0
  146.0103  142.9194  153.4623 C   0  0  0  0  0  0  0  0  0  0  0  0
  151.7266  143.9122  158.8926 N   0  0  0  0  0  0  0  0  0  0  0  0
  151.1882  145.2546  158.7890 C   0  0  0  0  0  0  0  0  0  0  0  0
  152.6364  143.6211  159.8474 N   0  0  0  0  0  0  0  0  0  0  0  0
  154.0555  140.6278  160.3262 H   0  0  0  0  0  0  0  0  0  0  0  0
  153.5878  141.7213  161.6246 H   0  0  0  0  0  0  0  0  0  0  0  0
  154.8907  142.1652  160.5232 H   0  0  0  0  0  0  0  0  0  0  0  0
  152.2421  140.7327  158.2378 H   0  0  0  0  0  0  0  0  0  0  0  0
  150.1584  143.7287  156.9094 H   0  0  0  0  0  0  0  0  0  0  0  0
  149.0247  143.2168  155.3953 H   0  0  0  0  0  0  0  0  0  0  0  0
  148.6612  141.9444  153.4366 H   0  0  0  0  0  0  0  0  0  0  0  0
  149.2587  140.5021  154.2220 H   0  0  0  0  0  0  0  0  0  0  0  0
  146.7977  140.3085  154.0759 H   0  0  0  0  0  0  0  0  0  0  0  0
  147.2129  140.5642  155.7516 H   0  0  0  0  0  0  0  0  0  0  0  0
  145.9570  142.1860  156.8802 H   0  0  0  0  0  0  0  0  0  0  0  0
  143.9426  143.5938  156.6990 H   0  0  0  0  0  0  0  0  0  0  0  0
  145.2965  144.6884  156.4999 H   0  0  0  0  0  0  0  0  0  0  0  0
  143.4504  143.5653  154.3462 H   0  0  0  0  0  0  0  0  0  0  0  0
  143.7404  145.2452  154.7290 H   0  0  0  0  0  0  0  0  0  0  0  0
  144.9417  144.6194  152.6444 H   0  0  0  0  0  0  0  0  0  0  0  0
  146.0836  145.0365  153.8984 H   0  0  0  0  0  0  0  0  0  0  0  0
  146.9329  143.0325  152.8941 H   0  0  0  0  0  0  0  0  0  0  0  0
  145.3691  142.2515  152.8862 H   0  0  0  0  0  0  0  0  0  0  0  0
  150.0997  145.2120  158.7485 H   0  0  0  0  0  0  0  0  0  0  0  0
  151.5616  145.7290  157.8813 H   0  0  0  0  0  0  0  0  0  0  0  0
  151.4843  145.8545  159.6504 H   0  0  0  0  0  0  0  0  0  0  0  0
  1  2  1  0  0  0  0
  1 20  1  0  0  0  0
  1 21  1  0  0  0  0
  1 22  1  0  0  0  0
  2 19  2  0  0  0  0
  2  3  1  0  0  0  0
  3  4  2  0  0  0  0
  3 23  1  0  0  0  0
  4  5  1  0  0  0  0
  4 17  1  0  0  0  0
  5  6  1  0  0  0  0
  5 24  1  0  0  0  0
  6  7  2  0  0  0  0
  6  8  1  0  0  0  0
  8  9  1  0  0  0  0
  8 25  1  0  0  0  0
  9 10  1  0  0  0  0
  9 26  1  0  0  0  0
  9 27  1  0  0  0  0
 10 11  1  0  0  0  0
 10 28  1  0  0  0  0
 10 29  1  0  0  0  0
 11 16  1  0  0  0  0
 11 12  2  0  0  0  0
 12 13  1  0  0  0  0
 12 30  1  0  0  0  0
 13 14  1  0  0  0  0
 13 31  1  0  0  0  0
 13 32  1  0  0  0  0
 14 15  1  0  0  0  0
 14 33  1  0  0  0  0
 14 34  1  0  0  0  0
 15 16  1  0  0  0  0
 15 35  1  0  0  0  0
 15 36  1  0  0  0  0
 16 37  1  0  0  0  0
 16 38  1  0  0  0  0
 17 18  1  0  0  0  0
 17 19  1  0  0  0  0
 18 39  1  0  0  0  0
 18 40  1  0  0  0  0
 18 41  1  0  0  0  0
M  END
> <s_m_source_file>
AV-unprocessed.smi

> <i_m_source_file_index>
1256

> <i_lp_mmshare_version>
43012

> <i_f3d_flags>
0

> <s_epik_input>
W0NIM11jMVtjSF1jKG4objEpW0NIM10pW05IXUMoPU8pW05IXVtDSDJdW0NIMl1DMj1bQ0hdW0NIMl1bQ0gyXVtDSDJdW0NIMl0y

> <s_epik_cmdline>
J2VwaWtfcHl0aG9uJywgJy1waCcsICc3LjAnLCAnLXRuJywgJzgnLCAnLW1hJywgJzIwMCcsICctbWV0YWxfYmluZGluZycsICctaW1hZScsICc8aW5maWxlLm1hZT4nLCAnLW9tYWUnLCAnPG91dGZpbGUubWFlPic=

> <r_lp_tautomer_probability>
1

> <r_epik_Ionization_Penalty>
9.50632e-05

> <r_epik_Ionization_Penalty_Charging>
0

> <r_epik_Ionization_Penalty_Neutral>
9.50632e-05

> <r_epik_State_Penalty>
-0

> <r_epik_Charging_Adjusted_Penalty>
0

> <i_epik_Tot_Q>
0

> <i_epik_Tot_abs_Q>
0

> <r_epik_Metal_State_Penalty>
-0

> <b_epik_Metal_Only>
0

> <s_lp_Force_Field>
OPLS_2005

> <r_lp_Energy>
8.63058

> <b_lp_Chiralities_Consistent>
1

> <s_lp_Variant>
AV-unprocessed.smi:1256-1

> <Gold.Version>
5.8.1

> <Gold.Id.Protein>
6NUR|6NUR_protein|mol2

> <Gold.PLP.Fitness>
48.3956

> <Gold.PLP.PLP>
-43.0397

> <Gold.PLP.part.hbond>
-1.9701

> <Gold.PLP.part.metal>
0.0000

> <Gold.PLP.part.buried>
-8.1741

> <Gold.PLP.part.nonpolar>
-33.3426

> <Gold.PLP.part.repulsive>
0.2280

> <Gold.PLP.ligand.clash>
0.0000

> <Gold.PLP.ligand.torsion>
0.1616

> <Gold.PLP.Chemscore.Hbond>
1.8873

> <Gold.PLP.Chemscore.CHOScore>
0.0000

> <Gold.PLP.Chemscore.Metal>
0.0000

> <Gold.Chemscore.Hbonds>
donor molecule, donor type, donor heavy atom, donor atom, acceptor molecule, acceptor atom, score
      L1  H     5    24       P1  8028  0.90
      L1  H     8    25       P1  8028  0.99

> <Gold.PLP.Chemscore.Internal.Correction>
0.0172

> <Gold.Rescore>
     Score         DG    S(hbond)    S(metal)    S(lipo)     H(rot)  DE(clash)    DE(int)     intcor
     16.43     -17.72       1.81        0.00      83.48       1.40       0.01       1.28       ----

> <Gold.Chemscore.Fitness>
16.4340

> <Gold.Chemscore.DG>
-17.7207

> <Gold.Chemscore.ZeroCoef>
-5.4800

> <Gold.Chemscore.Hbond>
1.8103

> <Gold.Chemscore.Metal>
0.0000

> <Gold.Chemscore.Lipo>
83.4834

> <Gold.Chemscore.Internal_Hbond>
0.0000

> <Gold.Chemscore.DEClash>
0.0089

> <Gold.Chemscore.DEInternal>
1.2778

> <Gold.Chemscore.Rot>
1.3958

> <Gold.Chemscore.Internal.Correction>
   9.000000E+99

> <Gold.Chemscore.Hbonds>
donor molecule, donor type, donor heavy atom, donor atom, acceptor molecule, acceptor atom, score
      L1  H     5    24       P1  8028  0.82
      L1  H     8    25       P1  8028  0.92

> <Gold.Chemscore.Hbond.Weighted>
-6.0464

> <Gold.Chemscore.Metal.Weighted>
-0.0000

> <Gold.Chemscore.Lipo.Weighted>
-9.7676

> <Gold.Chemscore.Internal_Hbond.Weighted>
0.0000

> <Gold.Chemscore.DEClash.Weighted>
0.0089

> <Gold.Chemscore.DEInternal.Weighted>
1.2778

> <Gold.Chemscore.Rot.Weighted>
3.5733

> <Gold.Chemscore.Internal.Correction.Weighted>
   9.000000E+99

> <Gold.Protein.RotatedTorsions>
[ 6907 6896 6895 6894 ] final   76.16 input  -60.11 | X-H torsion
[ 7974 7965 7964 7962 ] final  -67.97 input  175.53 | X-H torsion
[ 8008 7997 7996 7995 ] final  108.14 input   59.86 | X-H torsion
[ 10167 10162 10161 10158 ] final  173.53 input  -65.29 | X-H torsion
[ 10718 10713 10712 10709 ] final  -45.53 input   66.30 | X-H torsion
[ 10763 10752 10751 10750 ] final  135.26 input  -60.55 | X-H torsion
[ 11005 11000 10999 10996 ] final -116.91 input  -57.11 | X-H torsion

> <Gold.Protein.ActiveResidues>
 VAL166  LYS551  ARG553  GLY616  TRP617  ASP618  TYR619  PRO620  LYS621  CYS622 
 ASP623  PHE694  ASN695  SER759  ASP760  ASP761  ALA762  ILE779  LEU786  VAL792 
 PHE793  MET794  SER795  GLU796  ALA797  LYS798  CYS799  TRP800  GLU811  SER814 

> <Gold.Protein.RotatedAtoms>
  152.5060  134.4011  159.9416 H   0  0  0  0  0  0  0  0  0  0  0  0  # atno 6907 bound_to 6896
  151.3975  133.3762  159.2736 H   0  0  0  0  0  0  0  0  0  0  0  0  # atno 6908 bound_to 6896
  150.9386  134.8818  159.7657 H   0  0  0  0  0  0  0  0  0  0  0  0  # atno 6909 bound_to 6896
  145.7224  140.9033  143.0623 H   0  0  0  0  0  0  0  0  0  0  0  0  # atno 7974 bound_to 7965
  156.1880  140.3082  155.9276 H   0  0  0  0  0  0  0  0  0  0  0  0  # atno 8008 bound_to 7997
  155.3238  140.0457  157.3057 H   0  0  0  0  0  0  0  0  0  0  0  0  # atno 8009 bound_to 7997
  154.5418  140.2264  155.8638 H   0  0  0  0  0  0  0  0  0  0  0  0  # atno 8010 bound_to 7997
  139.5111  144.3251  152.0166 H   0  0  0  0  0  0  0  0  0  0  0  0  # atno 10167 bound_to 10162
  156.2274  130.4170  149.8917 H   0  0  0  0  0  0  0  0  0  0  0  0  # atno 10718 bound_to 10713
  153.8370  135.3096  155.3423 H   0  0  0  0  0  0  0  0  0  0  0  0  # atno 10763 bound_to 10752
  154.7949  135.4761  154.0140 H   0  0  0  0  0  0  0  0  0  0  0  0  # atno 10764 bound_to 10752
  153.1599  135.6859  153.8850 H   0  0  0  0  0  0  0  0  0  0  0  0  # atno 10765 bound_to 10752
  141.0390  133.9864  157.3024 H   0  0  0  0  0  0  0  0  0  0  0  0  # atno 11005 bound_to 11000
  144.6913  139.9220  143.7468 LP  0  0  0  0  0  0  0  0  0  0  0  0  # atno 17320 bound_to 7965
  146.0613  139.3607  143.0579 LP  0  0  0  0  0  0  0  0  0  0  0  0  # atno 17321 bound_to 7965
  140.2692  144.3983  150.6157 LP  0  0  0  0  0  0  0  0  0  0  0  0  # atno 17342 bound_to 10162
  140.6101  143.2169  151.6903 LP  0  0  0  0  0  0  0  0  0  0  0  0  # atno 17343 bound_to 10162
  156.6543  130.8756  151.3536 LP  0  0  0  0  0  0  0  0  0  0  0  0  # atno 17370 bound_to 10713
  157.7117  130.9448  150.1111 LP  0  0  0  0  0  0  0  0  0  0  0  0  # atno 17371 bound_to 10713
  139.9262  135.0201  156.8242 LP  0  0  0  0  0  0  0  0  0  0  0  0  # atno 17394 bound_to 11000
  140.6269  133.9942  155.7644 LP  0  0  0  0  0  0  0  0  0  0  0  0  # atno 17395 bound_to 11000

$$$$
