AV-unprocessed.smi:2061|AV-procd|sdf|8395|dock4
  -GOLD-   2272011 83D 1   1.00000     0.00000
 Structure written by MMmdl.
 45 46  0  0  0  0  0  0  0  0  3 V2000
  144.8797  134.9617  162.7898 C   0  0  0  0  0  0  0  0  0  0  0  0
  145.9637  135.5479  161.9519 C   0  0  0  0  0  0  0  0  0  0  0  0
  146.6768  135.0729  160.8878 C   0  0  0  0  0  0  0  0  0  0  0  0
  147.5492  136.1503  160.5784 C   0  0  0  0  0  0  0  0  0  0  0  0
  148.4774  136.0450  159.5089 N   0  0  0  0  0  0  0  0  0  0  0  0
  149.0998  137.0275  158.8324 C   0  0  0  0  0  0  0  0  0  0  0  0
  148.8721  138.2130  159.1016 O   0  0  0  0  0  0  0  0  0  0  0  0
  149.9477  136.5409  157.8854 N   0  5  0  0  0  0  0  0  0  0  0  0
  150.3991  137.2876  156.7116 C   0  0  0  0  0  0  0  0  0  0  0  0
  149.9248  136.5849  155.4052 C   0  0  1  0  0  0  0  0  0  0  0  0
  148.4109  136.2334  155.4909 C   0  0  0  0  0  0  0  0  0  0  0  0
  150.3001  137.4195  154.2079 N   0  3  1  0  0  0  0  0  0  0  0  0
  149.5310  138.6915  154.0657 C   0  0  0  0  0  0  0  0  0  0  0  0
  150.0933  139.8038  154.9762 C   0  0  2  0  0  0  0  0  0  0  0  0
  149.3659  141.1368  154.7703 C   0  0  0  0  0  0  0  0  0  0  0  0
  151.4694  140.0007  154.6739 O   0  0  0  0  0  0  0  0  0  0  0  0
  152.2516  138.8346  154.9027 C   0  0  2  0  0  0  0  0  0  0  0  0
  153.7175  139.1858  154.6282 C   0  0  0  0  0  0  0  0  0  0  0  0
  151.7442  137.7051  153.9807 C   0  0  0  0  0  0  0  0  0  0  0  0
  147.3816  137.1901  161.3821 N   0  0  0  0  0  0  0  0  0  0  0  0
  146.3646  136.8097  162.2657 O   0  0  0  0  0  0  0  0  0  0  0  0
  144.6721  133.9331  162.4946 H   0  0  0  0  0  0  0  0  0  0  0  0
  143.9589  135.5359  162.6864 H   0  0  0  0  0  0  0  0  0  0  0  0
  145.1630  134.9605  163.8424 H   0  0  0  0  0  0  0  0  0  0  0  0
  146.5887  134.1088  160.4094 H   0  0  0  0  0  0  0  0  0  0  0  0
  148.7090  135.1049  159.2248 H   0  0  0  0  0  0  0  0  0  0  0  0
  150.0375  138.3165  156.7161 H   0  0  0  0  0  0  0  0  0  0  0  0
  151.4867  137.3659  156.6969 H   0  0  0  0  0  0  0  0  0  0  0  0
  150.4549  135.6362  155.3152 H   0  0  0  0  0  0  0  0  0  0  0  0
  148.1771  135.6115  156.3575 H   0  0  0  0  0  0  0  0  0  0  0  0
  148.0768  135.6538  154.6323 H   0  0  0  0  0  0  0  0  0  0  0  0
  147.7794  137.1219  155.5536 H   0  0  0  0  0  0  0  0  0  0  0  0
  149.5975  139.0098  153.0244 H   0  0  0  0  0  0  0  0  0  0  0  0
  148.4691  138.5465  154.2638 H   0  0  0  0  0  0  0  0  0  0  0  0
  149.9936  139.5218  156.0252 H   0  0  0  0  0  0  0  0  0  0  0  0
  148.3043  141.0431  155.0005 H   0  0  0  0  0  0  0  0  0  0  0  0
  149.4566  141.4828  153.7404 H   0  0  0  0  0  0  0  0  0  0  0  0
  149.7782  141.9100  155.4191 H   0  0  0  0  0  0  0  0  0  0  0  0
  152.1579  138.5479  155.9505 H   0  0  0  0  0  0  0  0  0  0  0  0
  154.3651  138.3253  154.7981 H   0  0  0  0  0  0  0  0  0  0  0  0
  154.0549  139.9897  155.2830 H   0  0  0  0  0  0  0  0  0  0  0  0
  153.8593  139.5141  153.5981 H   0  0  0  0  0  0  0  0  0  0  0  0
  152.3614  136.8112  154.0573 H   0  0  0  0  0  0  0  0  0  0  0  0
  151.8528  138.0271  152.9439 H   0  0  0  0  0  0  0  0  0  0  0  0
  150.0261  136.8403  153.4267 H   0  0  0  0  0  0  0  0  0  0  0  0
  1  2  1  0  0  0  0
  1 22  1  0  0  0  0
  1 23  1  0  0  0  0
  1 24  1  0  0  0  0
  2 21  1  0  0  0  0
  2  3  2  0  0  0  0
  3  4  1  0  0  0  0
  3 25  1  0  0  0  0
  4  5  1  0  0  0  0
  4 20  2  0  0  0  0
  5  6  1  0  0  0  0
  5 26  1  0  0  0  0
  6  7  2  0  0  0  0
  6  8  1  0  0  0  0
  8  9  1  0  0  0  0
  9 10  1  0  0  0  0
  9 27  1  0  0  0  0
  9 28  1  0  0  0  0
 10 11  1  0  0  0  0
 10 12  1  0  0  0  0
 10 29  1  0  0  0  0
 11 30  1  0  0  0  0
 11 31  1  0  0  0  0
 11 32  1  0  0  0  0
 12 19  1  0  0  0  0
 12 13  1  0  0  0  0
 12 45  1  0  0  0  0
 13 14  1  0  0  0  0
 13 33  1  0  0  0  0
 13 34  1  0  0  0  0
 14 15  1  0  0  0  0
 14 16  1  0  0  0  0
 14 35  1  0  0  0  0
 15 36  1  0  0  0  0
 15 37  1  0  0  0  0
 15 38  1  0  0  0  0
 16 17  1  0  0  0  0
 17 18  1  0  0  0  0
 17 19  1  0  0  0  0
 17 39  1  0  0  0  0
 18 40  1  0  0  0  0
 18 41  1  0  0  0  0
 18 42  1  0  0  0  0
 19 43  1  0  0  0  0
 19 44  1  0  0  0  0
 20 21  1  0  0  0  0
M  CHG  1   8  -1
M  CHG  1  12   1
M  END
> <s_m_source_file>
AV-unprocessed.smi

> <i_m_source_file_index>
2061

> <i_lp_mmshare_version>
43012

> <i_f3d_flags>
0

> <s_epik_input>
W0NIM11jMVtjSF1jKG5vMSlbTkhdQyg9TylbTkhdW0NIMl1bQ0BIXShbQ0gzXSlOMltDSDJdW0NAQEhdKFtDSDNdKU9bQ0BASF0oW0NIM10pW0NIMl0y

> <s_epik_cmdline>
J2VwaWtfcHl0aG9uJywgJy1waCcsICc3LjAnLCAnLXRuJywgJzgnLCAnLW1hJywgJzIwMCcsICctbWV0YWxfYmluZGluZycsICctaW1hZScsICc8aW5maWxlLm1hZT4nLCAnLW9tYWUnLCAnPG91dGZpbGUubWFlPic=

> <r_epik_Ionization_Penalty>
6.8073

> <r_epik_Ionization_Penalty_Charging>
6.80729

> <r_epik_Ionization_Penalty_Neutral>
5.65391e-06

> <r_epik_State_Penalty>
7.47323

> <r_epik_Charging_Adjusted_Penalty>
14.2805

> <i_epik_Tot_Q>
0

> <i_epik_Tot_abs_Q>
2

> <r_epik_Metal_State_Penalty>
3.40035

> <b_epik_Metal_Only>
1

> <s_lp_Force_Field>
OPLS_2005

> <r_lp_Energy>
21.1883

> <b_lp_Chiralities_Consistent>
1

> <s_lp_Variant>
AV-unprocessed.smi:2061-36

> <Gold.Version>
5.8.1

> <Gold.Id.Protein>
6NUR|6NUR_protein|mol2

> <Gold.PLP.Fitness>
45.5465

> <Gold.PLP.PLP>
-31.3603

> <Gold.PLP.part.hbond>
-6.3131

> <Gold.PLP.part.metal>
0.0000

> <Gold.PLP.part.buried>
-0.3063

> <Gold.PLP.part.nonpolar>
-25.7419

> <Gold.PLP.part.repulsive>
0.2752

> <Gold.PLP.ligand.clash>
0.0000

> <Gold.PLP.ligand.torsion>
0.2809

> <Gold.PLP.Chemscore.Hbond>
4.8580

> <Gold.PLP.Chemscore.CHOScore>
0.0000

> <Gold.PLP.Chemscore.Metal>
0.0000

> <Gold.Chemscore.Hbonds>
donor molecule, donor type, donor heavy atom, donor atom, acceptor molecule, acceptor atom, score
      L1  H    12    45       P1  7948  1.80
      P1  H  6931  6943       L1    20  0.90
      P1  H  6934  6947       L1    20  0.94
      P1  H  7989  7998       L1    16  0.84

> <Gold.PLP.Chemscore.Internal.Correction>
0.1740

> <Gold.Rescore>
     Score         DG    S(hbond)    S(metal)    S(lipo)     H(rot)  DE(clash)    DE(int)     intcor
     16.81     -20.82       3.24        0.00      72.63       1.56       1.35       2.67       ----

> <Gold.Chemscore.Fitness>
16.8051

> <Gold.Chemscore.DG>
-20.8209

> <Gold.Chemscore.ZeroCoef>
-5.4800

> <Gold.Chemscore.Hbond>
3.2406

> <Gold.Chemscore.Metal>
0.0000

> <Gold.Chemscore.Lipo>
72.6346

> <Gold.Chemscore.Internal_Hbond>
0.0000

> <Gold.Chemscore.DEClash>
1.3471

> <Gold.Chemscore.DEInternal>
2.6686

> <Gold.Chemscore.Rot>
1.5550

> <Gold.Chemscore.Internal.Correction>
   9.000000E+99

> <Gold.Chemscore.Hbonds>
donor molecule, donor type, donor heavy atom, donor atom, acceptor molecule, acceptor atom, score
      L1  H    12    45       P1  7948  0.18
      P1  H  6931  6943       L1    20  0.78
      P1  H  6934  6947       L1    20  0.64
      P1  H  7989  7998       L1    16  0.67

> <Gold.Chemscore.Hbond.Weighted>
-10.8235

> <Gold.Chemscore.Metal.Weighted>
-0.0000

> <Gold.Chemscore.Lipo.Weighted>
-8.4983

> <Gold.Chemscore.Internal_Hbond.Weighted>
0.0000

> <Gold.Chemscore.DEClash.Weighted>
1.3471

> <Gold.Chemscore.DEInternal.Weighted>
2.6686

> <Gold.Chemscore.Rot.Weighted>
3.9809

> <Gold.Chemscore.Internal.Correction.Weighted>
   9.000000E+99

> <Gold.Protein.RotatedTorsions>
[ 6907 6896 6895 6894 ] final   43.67 input  -60.11 | X-H torsion
[ 7974 7965 7964 7962 ] final  -97.86 input  175.53 | X-H torsion
[ 8008 7997 7996 7995 ] final  111.48 input   59.86 | X-H torsion
[ 10167 10162 10161 10158 ] final  162.06 input  -65.29 | X-H torsion
[ 10718 10713 10712 10709 ] final -130.87 input   66.30 | X-H torsion
[ 10763 10752 10751 10750 ] final  -43.99 input  -60.55 | X-H torsion
[ 11005 11000 10999 10996 ] final  -25.25 input  -57.11 | X-H torsion

> <Gold.Protein.ActiveResidues>
 VAL166  LYS551  ARG553  GLY616  TRP617  ASP618  TYR619  PRO620  LYS621  CYS622 
 ASP623  PHE694  ASN695  SER759  ASP760  ASP761  ALA762  ILE779  LEU786  VAL792 
 PHE793  MET794  SER795  GLU796  ALA797  LYS798  CYS799  TRP800  GLU811  SER814 

> <Gold.Protein.RotatedAtoms>
  152.2231  134.8394  160.0483 H   0  0  0  0  0  0  0  0  0  0  0  0  # atno 6907 bound_to 6896
  151.9170  133.3570  159.3891 H   0  0  0  0  0  0  0  0  0  0  0  0  # atno 6908 bound_to 6896
  150.7005  134.4599  159.5420 H   0  0  0  0  0  0  0  0  0  0  0  0  # atno 6909 bound_to 6896
  145.3282  140.9436  143.2677 H   0  0  0  0  0  0  0  0  0  0  0  0  # atno 7974 bound_to 7965
  156.2127  140.3018  155.9768 H   0  0  0  0  0  0  0  0  0  0  0  0  # atno 8008 bound_to 7997
  155.2684  140.0432  157.3021 H   0  0  0  0  0  0  0  0  0  0  0  0  # atno 8009 bound_to 7997
  154.5722  140.2351  155.8183 H   0  0  0  0  0  0  0  0  0  0  0  0  # atno 8010 bound_to 7997
  139.4856  144.4474  151.8873 H   0  0  0  0  0  0  0  0  0  0  0  0  # atno 10167 bound_to 10162
  156.2187  130.6965  151.0732 H   0  0  0  0  0  0  0  0  0  0  0  0  # atno 10718 bound_to 10713
  154.0047  135.6689  153.4761 H   0  0  0  0  0  0  0  0  0  0  0  0  # atno 10763 bound_to 10752
  153.0647  135.5008  154.8169 H   0  0  0  0  0  0  0  0  0  0  0  0  # atno 10764 bound_to 10752
  154.7032  135.3083  154.9274 H   0  0  0  0  0  0  0  0  0  0  0  0  # atno 10765 bound_to 10752
  140.8920  133.7582  156.0433 H   0  0  0  0  0  0  0  0  0  0  0  0  # atno 11005 bound_to 11000
  144.8885  139.4806  143.6689 LP  0  0  0  0  0  0  0  0  0  0  0  0  # atno 17320 bound_to 7965
  146.3056  139.7569  142.9059 LP  0  0  0  0  0  0  0  0  0  0  0  0  # atno 17321 bound_to 7965
  140.3929  144.2592  150.5898 LP  0  0  0  0  0  0  0  0  0  0  0  0  # atno 17342 bound_to 10162
  140.5129  143.2286  151.8508 LP  0  0  0  0  0  0  0  0  0  0  0  0  # atno 17343 bound_to 10162
  157.7076  131.0749  150.6612 LP  0  0  0  0  0  0  0  0  0  0  0  0  # atno 17370 bound_to 10713
  156.6674  130.4529  149.5668 LP  0  0  0  0  0  0  0  0  0  0  0  0  # atno 17371 bound_to 10713
  140.8335  134.3151  157.5340 LP  0  0  0  0  0  0  0  0  0  0  0  0  # atno 17394 bound_to 11000
  139.8731  134.9376  156.3693 LP  0  0  0  0  0  0  0  0  0  0  0  0  # atno 17395 bound_to 11000

$$$$
