AV-unprocessed.smi:1971|AV-procd|sdf|7967|dock7
  -GOLD-   2272010143D 1   1.00000     0.00000
 Structure written by MMmdl.
 43 44  0  0  0  0  0  0  0  0  1 V2000
  151.1400  144.3785  158.7369 C   0  0  0  0  0  0  0  0  0  0  0  0
  151.7555  142.9730  158.7883 C   0  0  0  0  0  0  0  0  0  0  0  0
  151.1237  141.9903  157.9094 N   0  0  0  0  0  0  0  0  0  0  0  0
  150.9500  142.5322  156.5639 C   0  0  0  0  0  0  0  0  0  0  0  0
  150.2754  141.5189  155.6217 C   0  0  0  0  0  0  0  0  0  0  0  0
  151.0499  140.2766  155.5030 N   0  0  0  0  0  0  0  0  0  0  0  0
  150.4268  139.3017  154.5822 C   0  0  1  0  0  0  0  0  0  0  0  0
  151.2880  138.0397  154.3499 C   0  0  0  0  0  0  0  0  0  0  0  0
  149.0134  138.8426  155.0185 C   0  0  0  0  0  0  0  0  0  0  0  0
  148.3528  138.0707  153.9721 N   0  0  0  0  0  0  0  0  0  0  0  0
  147.0876  137.6378  154.0311 C   0  0  0  0  0  0  0  0  0  0  0  0
  146.3347  137.8720  154.9770 O   0  0  0  0  0  0  0  0  0  0  0  0
  146.7679  136.9222  152.9388 N   0  0  0  0  0  0  0  0  0  0  0  0
  145.5337  136.2922  152.6315 C   0  0  0  0  0  0  0  0  0  0  0  0
  144.5032  136.1961  153.4798 N   0  0  0  0  0  0  0  0  0  0  0  0
  143.4163  135.5273  152.9107 C   0  0  0  0  0  0  0  0  0  0  0  0
  143.6389  135.1173  151.6196 C   0  0  0  0  0  0  0  0  0  0  0  0
  145.2303  135.5609  151.0626 S   0  0  0  0  0  0  0  0  0  0  0  0
  151.2276  139.7399  156.8595 C   0  0  0  0  0  0  0  0  0  0  0  0
  151.9006  140.7552  157.8015 C   0  0  0  0  0  0  0  0  0  0  0  0
  151.7232  145.0734  159.3412 H   0  0  0  0  0  0  0  0  0  0  0  0
  150.1208  144.3926  159.1225 H   0  0  0  0  0  0  0  0  0  0  0  0
  151.1217  144.7629  157.7169 H   0  0  0  0  0  0  0  0  0  0  0  0
  152.8066  143.0668  158.5121 H   0  0  0  0  0  0  0  0  0  0  0  0
  151.7479  142.6101  159.8172 H   0  0  0  0  0  0  0  0  0  0  0  0
  150.3425  143.4366  156.6075 H   0  0  0  0  0  0  0  0  0  0  0  0
  151.9163  142.8266  156.1509 H   0  0  0  0  0  0  0  0  0  0  0  0
  149.2663  141.3001  155.9747 H   0  0  0  0  0  0  0  0  0  0  0  0
  150.1724  141.9991  154.6502 H   0  0  0  0  0  0  0  0  0  0  0  0
  150.3097  139.7828  153.6099 H   0  0  0  0  0  0  0  0  0  0  0  0
  150.7521  137.2995  153.7553 H   0  0  0  0  0  0  0  0  0  0  0  0
  151.5661  137.5655  155.2918 H   0  0  0  0  0  0  0  0  0  0  0  0
  152.2026  138.2619  153.8013 H   0  0  0  0  0  0  0  0  0  0  0  0
  149.0569  138.2522  155.9340 H   0  0  0  0  0  0  0  0  0  0  0  0
  148.3988  139.7098  155.2656 H   0  0  0  0  0  0  0  0  0  0  0  0
  148.9083  137.8333  153.1631 H   0  0  0  0  0  0  0  0  0  0  0  0
  147.4966  136.8063  152.2502 H   0  0  0  0  0  0  0  0  0  0  0  0
  142.5208  135.3869  153.4975 H   0  0  0  0  0  0  0  0  0  0  0  0
  142.9656  134.5845  150.9650 H   0  0  0  0  0  0  0  0  0  0  0  0
  150.2641  139.4358  157.2716 H   0  0  0  0  0  0  0  0  0  0  0  0
  151.8556  138.8508  156.8399 H   0  0  0  0  0  0  0  0  0  0  0  0
  152.9076  140.9748  157.4435 H   0  0  0  0  0  0  0  0  0  0  0  0
  152.0115  140.2940  158.7824 H   0  0  0  0  0  0  0  0  0  0  0  0
  1  2  1  0  0  0  0
  1 21  1  0  0  0  0
  1 22  1  0  0  0  0
  1 23  1  0  0  0  0
  2  3  1  0  0  0  0
  2 24  1  0  0  0  0
  2 25  1  0  0  0  0
  3 20  1  0  0  0  0
  3  4  1  0  0  0  0
  4  5  1  0  0  0  0
  4 26  1  0  0  0  0
  4 27  1  0  0  0  0
  5  6  1  0  0  0  0
  5 28  1  0  0  0  0
  5 29  1  0  0  0  0
  6  7  1  0  0  0  0
  6 19  1  0  0  0  0
  7  8  1  0  0  0  0
  7  9  1  0  0  0  0
  7 30  1  0  0  0  0
  8 31  1  0  0  0  0
  8 32  1  0  0  0  0
  8 33  1  0  0  0  0
  9 10  1  0  0  0  0
  9 34  1  0  0  0  0
  9 35  1  0  0  0  0
 10 11  1  0  0  0  0
 10 36  1  0  0  0  0
 11 12  2  0  0  0  0
 11 13  1  0  0  0  0
 13 14  1  0  0  0  0
 13 37  1  0  0  0  0
 14 18  1  0  0  0  0
 14 15  2  0  0  0  0
 15 16  1  0  0  0  0
 16 17  2  0  0  0  0
 16 38  1  0  0  0  0
 17 18  1  0  0  0  0
 17 39  1  0  0  0  0
 19 20  1  0  0  0  0
 19 40  1  0  0  0  0
 19 41  1  0  0  0  0
 20 42  1  0  0  0  0
 20 43  1  0  0  0  0
M  END
> <s_m_source_file>
AV-unprocessed.smi

> <i_m_source_file_index>
1971

> <i_lp_mmshare_version>
43012

> <i_f3d_flags>
0

> <s_epik_input>
W0NIM11bQ0gyXU4xW0NIMl1bQ0gyXU4oW0NIMl1bQ0gyXTEpW0NASF0oW0NIM10pW0NIMl1bTkhdQyg9TylbTkhdYzJuW2NIXVtjSF1zMg==

> <s_epik_cmdline>
J2VwaWtfcHl0aG9uJywgJy1waCcsICc3LjAnLCAnLXRuJywgJzgnLCAnLW1hJywgJzIwMCcsICctbWV0YWxfYmluZGluZycsICctaW1hZScsICc8aW5maWxlLm1hZT4nLCAnLW9tYWUnLCAnPG91dGZpbGUubWFlPic=

> <r_lp_tautomer_probability>
0.999

> <r_epik_Ionization_Penalty>
2.43994

> <r_epik_Ionization_Penalty_Charging>
0

> <r_epik_Ionization_Penalty_Neutral>
2.43994

> <r_epik_State_Penalty>
1.7682

> <r_epik_Charging_Adjusted_Penalty>
1.7682

> <i_epik_Tot_Q>
0

> <i_epik_Tot_abs_Q>
0

> <r_epik_Metal_State_Penalty>
1.80147

> <b_epik_Metal_Only>
0

> <s_lp_Force_Field>
OPLS_2005

> <r_lp_Energy>
42.8393

> <b_lp_Chiralities_Consistent>
1

> <s_lp_Variant>
AV-unprocessed.smi:1971-6

> <Gold.Version>
5.8.1

> <Gold.Id.Protein>
6NUR|6NUR_protein|mol2

> <Gold.PLP.Fitness>
40.2163

> <Gold.PLP.PLP>
-32.3683

> <Gold.PLP.part.hbond>
-2.7311

> <Gold.PLP.part.metal>
0.0000

> <Gold.PLP.part.buried>
-4.2132

> <Gold.PLP.part.nonpolar>
-25.3279

> <Gold.PLP.part.repulsive>
0.1956

> <Gold.PLP.ligand.clash>
0.0000

> <Gold.PLP.ligand.torsion>
0.1320

> <Gold.PLP.Chemscore.Hbond>
1.7360

> <Gold.PLP.Chemscore.CHOScore>
0.9501

> <Gold.PLP.Chemscore.Metal>
0.0000

> <Gold.Chemscore.Hbonds>
donor molecule, donor type, donor heavy atom, donor atom, acceptor molecule, acceptor atom, score
      L1  H    10    36       P1  7948  0.70
      L1  H    13    37       P1  7948  1.00
      L1  C    17    39       P1 10186  0.90

> <Gold.PLP.Chemscore.Internal.Correction>
0.0537

> <Gold.Rescore>
     Score         DG    S(hbond)    S(metal)    S(lipo)     H(rot)  DE(clash)    DE(int)     intcor
     15.84     -17.26       1.96        0.00      82.89       1.75       0.05       1.38       ----

> <Gold.Chemscore.Fitness>
15.8373

> <Gold.Chemscore.DG>
-17.2643

> <Gold.Chemscore.ZeroCoef>
-5.4800

> <Gold.Chemscore.Hbond>
1.9639

> <Gold.Chemscore.Metal>
0.0000

> <Gold.Chemscore.Lipo>
82.8874

> <Gold.Chemscore.Internal_Hbond>
0.0000

> <Gold.Chemscore.DEClash>
0.0455

> <Gold.Chemscore.DEInternal>
1.3815

> <Gold.Chemscore.Rot>
1.7473

> <Gold.Chemscore.Internal.Correction>
   9.000000E+99

> <Gold.Chemscore.Hbonds>
donor molecule, donor type, donor heavy atom, donor atom, acceptor molecule, acceptor atom, score
      L1  H    10    36       P1  7948  0.66
      L1  H    13    37       P1  7948  0.93

> <Gold.Chemscore.Hbond.Weighted>
-6.5596

> <Gold.Chemscore.Metal.Weighted>
-0.0000

> <Gold.Chemscore.Lipo.Weighted>
-9.6978

> <Gold.Chemscore.Internal_Hbond.Weighted>
0.0000

> <Gold.Chemscore.DEClash.Weighted>
0.0455

> <Gold.Chemscore.DEInternal.Weighted>
1.3815

> <Gold.Chemscore.Rot.Weighted>
4.4731

> <Gold.Chemscore.Internal.Correction.Weighted>
   9.000000E+99

> <Gold.Protein.RotatedTorsions>
[ 6907 6896 6895 6894 ] final   98.42 input  -60.11 | X-H torsion
[ 7974 7965 7964 7962 ] final -140.33 input  175.53 | X-H torsion
[ 8008 7997 7996 7995 ] final  -40.79 input   59.86 | X-H torsion
[ 10167 10162 10161 10158 ] final  158.35 input  -65.29 | X-H torsion
[ 10718 10713 10712 10709 ] final  145.82 input   66.30 | X-H torsion
[ 10763 10752 10751 10750 ] final -130.88 input  -60.55 | X-H torsion
[ 11005 11000 10999 10996 ] final  156.11 input  -57.11 | X-H torsion

> <Gold.Protein.ActiveResidues>
 VAL166  LYS551  ARG553  GLY616  TRP617  ASP618  TYR619  PRO620  LYS621  CYS622 
 ASP623  PHE694  ASN695  SER759  ASP760  ASP761  ALA762  ILE779  LEU786  VAL792 
 PHE793  MET794  SER795  GLU796  ALA797  LYS798  CYS799  TRP800  GLU811  SER814 

> <Gold.Protein.RotatedAtoms>
  152.5409  134.0583  159.8140 H   0  0  0  0  0  0  0  0  0  0  0  0  # atno 6907 bound_to 6896
  151.0714  133.5455  159.2634 H   0  0  0  0  0  0  0  0  0  0  0  0  # atno 6908 bound_to 6896
  151.2317  135.0565  159.9044 H   0  0  0  0  0  0  0  0  0  0  0  0  # atno 6909 bound_to 6896
  144.8605  140.6212  143.5331 H   0  0  0  0  0  0  0  0  0  0  0  0  # atno 7974 bound_to 7965
  154.4009  140.1516  156.3085 H   0  0  0  0  0  0  0  0  0  0  0  0  # atno 8008 bound_to 7997
  155.8637  140.3452  155.5752 H   0  0  0  0  0  0  0  0  0  0  0  0  # atno 8009 bound_to 7997
  155.7852  140.0849  157.2029 H   0  0  0  0  0  0  0  0  0  0  0  0  # atno 8010 bound_to 7997
  139.4826  144.4832  151.8414 H   0  0  0  0  0  0  0  0  0  0  0  0  # atno 10167 bound_to 10162
  157.3406  131.0935  151.1085 H   0  0  0  0  0  0  0  0  0  0  0  0  # atno 10718 bound_to 10713
  154.8753  135.3848  154.4155 H   0  0  0  0  0  0  0  0  0  0  0  0  # atno 10763 bound_to 10752
  153.4864  135.7030  153.5914 H   0  0  0  0  0  0  0  0  0  0  0  0  # atno 10764 bound_to 10752
  153.4307  135.3879  155.2135 H   0  0  0  0  0  0  0  0  0  0  0  0  # atno 10765 bound_to 10752
  140.1644  134.8587  157.2614 H   0  0  0  0  0  0  0  0  0  0  0  0  # atno 11005 bound_to 11000
  145.4321  139.1547  143.4016 LP  0  0  0  0  0  0  0  0  0  0  0  0  # atno 17320 bound_to 7965
  146.2857  140.4438  142.8759 LP  0  0  0  0  0  0  0  0  0  0  0  0  # atno 17321 bound_to 7965
  140.4310  144.2115  150.5888 LP  0  0  0  0  0  0  0  0  0  0  0  0  # atno 17342 bound_to 10162
  140.4779  143.2389  151.8997 LP  0  0  0  0  0  0  0  0  0  0  0  0  # atno 17343 bound_to 10162
  157.2299  130.6520  149.5845 LP  0  0  0  0  0  0  0  0  0  0  0  0  # atno 17370 bound_to 10713
  155.9707  130.4602  150.6064 LP  0  0  0  0  0  0  0  0  0  0  0  0  # atno 17371 bound_to 10713
  140.2451  134.3749  155.7464 LP  0  0  0  0  0  0  0  0  0  0  0  0  # atno 17394 bound_to 11000
  141.2212  133.7286  156.8849 LP  0  0  0  0  0  0  0  0  0  0  0  0  # atno 17395 bound_to 11000

$$$$
