AV-unprocessed.smi:148|AV-procd|sdf|1231|dock3
  -GOLD-   2262018433D 1   1.00000     0.00000
 Structure written by MMmdl.
 63 67  0  0  0  0  0  0  0  0  1 V2000
  144.8977  141.5934  155.0200 O   0  0  0  0  0  0  0  0  0  0  0  0
  146.2552  141.9724  155.1218 C   0  0  0  0  0  0  0  0  0  0  0  0
  147.1988  140.7491  154.9745 C   0  0  1  0  0  0  0  0  0  0  0  0
  147.4454  140.3885  153.4840 C   0  0  0  0  0  0  0  0  0  0  0  0
  146.8812  139.1088  153.0925 N   0  0  0  0  0  0  0  0  0  0  0  0
  146.3964  138.7652  151.8512 C   0  0  0  0  0  0  0  0  0  0  0  0
  145.9385  137.5473  151.7527 N   0  0  0  0  0  0  0  0  0  0  0  0
  146.1217  137.0106  153.0219 C   0  0  0  0  0  0  0  0  0  0  0  0
  145.8403  135.7504  153.6239 C   0  0  0  0  0  0  0  0  0  0  0  0
  145.2660  134.6968  152.9968 N   0  0  0  0  0  0  0  0  0  0  0  0
  146.2320  134.1005  152.0723 C   0  0  0  0  0  0  0  0  0  0  0  0
  145.7339  132.7598  151.5171 C   0  0  0  0  0  0  0  0  0  0  0  0
  144.3522  132.9284  150.8780 C   0  0  0  0  0  0  0  0  0  0  0  0
  143.3811  133.5266  151.9031 C   0  0  0  0  0  0  0  0  0  0  0  0
  143.9016  134.8764  152.4635 C   0  0  1  0  0  0  0  0  0  0  0  0
  142.9113  135.5415  153.4749 C   0  0  1  0  0  0  0  0  0  0  0  0
  142.8572  137.0793  153.3965 C   0  0  0  0  0  0  0  0  0  0  0  0
  141.4413  137.4913  153.8315 C   0  0  0  0  0  0  0  0  0  0  0  0
  140.7130  136.1967  154.2035 C   0  0  0  0  0  0  0  0  0  0  0  0
  141.4363  135.1090  153.4102 C   0  0  2  0  0  0  0  0  0  0  0  0
  141.2132  133.8381  153.9832 O   0  0  0  0  0  0  0  0  0  0  0  0
  146.1928  135.5744  154.9216 N   0  0  0  0  0  0  0  0  0  0  0  0
  146.7610  136.5739  155.6027 C   0  0  0  0  0  0  0  0  0  0  0  0
  147.0661  137.8033  155.1821 N   0  0  0  0  0  0  0  0  0  0  0  0
  146.7271  137.9773  153.8728 C   0  0  0  0  0  0  0  0  0  0  0  0
  148.5352  140.9148  155.7627 C   0  0  1  0  0  0  0  0  0  0  0  0
  149.2433  139.6073  156.1038 C   0  0  0  0  0  0  0  0  0  0  0  0
  150.0372  139.2885  154.8368 C   0  0  0  0  0  0  0  0  0  0  0  0
  150.2280  140.5340  154.1742 O   0  0  0  0  0  0  0  0  0  0  0  0
  149.6654  141.5759  154.9604 C   0  0  0  0  0  0  0  0  0  0  0  0
  144.7203  141.3523  154.1233 H   0  0  0  0  0  0  0  0  0  0  0  0
  146.4632  142.7348  154.3741 H   0  0  0  0  0  0  0  0  0  0  0  0
  146.4044  142.4733  156.0783 H   0  0  0  0  0  0  0  0  0  0  0  0
  146.6663  139.9046  155.4140 H   0  0  0  0  0  0  0  0  0  0  0  0
  147.0253  141.1608  152.8384 H   0  0  0  0  0  0  0  0  0  0  0  0
  148.5098  140.3434  153.2602 H   0  0  0  0  0  0  0  0  0  0  0  0
  146.3866  139.4528  151.0180 H   0  0  0  0  0  0  0  0  0  0  0  0
  146.4141  134.7941  151.2498 H   0  0  0  0  0  0  0  0  0  0  0  0
  147.1892  133.9470  152.5737 H   0  0  0  0  0  0  0  0  0  0  0  0
  146.4425  132.3714  150.7852 H   0  0  0  0  0  0  0  0  0  0  0  0
  145.6815  132.0253  152.3219 H   0  0  0  0  0  0  0  0  0  0  0  0
  144.4210  133.5800  150.0061 H   0  0  0  0  0  0  0  0  0  0  0  0
  143.9819  131.9659  150.5242 H   0  0  0  0  0  0  0  0  0  0  0  0
  142.4043  133.6428  151.4367 H   0  0  0  0  0  0  0  0  0  0  0  0
  143.2549  132.8037  152.7087 H   0  0  0  0  0  0  0  0  0  0  0  0
  143.9875  135.5511  151.6118 H   0  0  0  0  0  0  0  0  0  0  0  0
  143.2487  135.3420  154.4922 H   0  0  0  0  0  0  0  0  0  0  0  0
  143.6172  137.5248  154.0397 H   0  0  0  0  0  0  0  0  0  0  0  0
  143.0455  137.4488  152.3897 H   0  0  0  0  0  0  0  0  0  0  0  0
  141.4556  138.1965  154.6630 H   0  0  0  0  0  0  0  0  0  0  0  0
  140.9306  137.9784  152.9999 H   0  0  0  0  0  0  0  0  0  0  0  0
  140.8258  136.0163  155.2739 H   0  0  0  0  0  0  0  0  0  0  0  0
  139.6452  136.2370  153.9858 H   0  0  0  0  0  0  0  0  0  0  0  0
  141.0617  135.1171  152.3876 H   0  0  0  0  0  0  0  0  0  0  0  0
  142.0402  133.3824  154.0346 H   0  0  0  0  0  0  0  0  0  0  0  0
  147.0044  136.3586  156.6325 H   0  0  0  0  0  0  0  0  0  0  0  0
  148.3391  141.4872  156.6704 H   0  0  0  0  0  0  0  0  0  0  0  0
  149.9397  139.7847  156.9250 H   0  0  0  0  0  0  0  0  0  0  0  0
  148.5985  138.7889  156.4162 H   0  0  0  0  0  0  0  0  0  0  0  0
  150.9910  138.8110  155.0629 H   0  0  0  0  0  0  0  0  0  0  0  0
  149.4732  138.6260  154.1794 H   0  0  0  0  0  0  0  0  0  0  0  0
  149.3659  142.4225  154.3466 H   0  0  0  0  0  0  0  0  0  0  0  0
  150.4368  141.9401  155.6411 H   0  0  0  0  0  0  0  0  0  0  0  0
  1  2  1  0  0  0  0
  1 31  1  0  0  0  0
  2  3  1  0  0  0  0
  2 32  1  0  0  0  0
  2 33  1  0  0  0  0
  3  4  1  0  0  0  0
  3 26  1  0  0  0  0
  3 34  1  0  0  0  0
  4  5  1  0  0  0  0
  4 35  1  0  0  0  0
  4 36  1  0  0  0  0
  5 25  1  0  0  0  0
  5  6  1  0  0  0  0
  6  7  2  0  0  0  0
  6 37  1  0  0  0  0
  7  8  1  0  0  0  0
  8 25  2  0  0  0  0
  8  9  1  0  0  0  0
  9 10  1  0  0  0  0
  9 22  2  0  0  0  0
 10 15  1  0  0  0  0
 10 11  1  0  0  0  0
 11 12  1  0  0  0  0
 11 38  1  0  0  0  0
 11 39  1  0  0  0  0
 12 13  1  0  0  0  0
 12 40  1  0  0  0  0
 12 41  1  0  0  0  0
 13 14  1  0  0  0  0
 13 42  1  0  0  0  0
 13 43  1  0  0  0  0
 14 15  1  0  0  0  0
 14 44  1  0  0  0  0
 14 45  1  0  0  0  0
 15 16  1  0  0  0  0
 15 46  1  0  0  0  0
 16 20  1  0  0  0  0
 16 17  1  0  0  0  0
 16 47  1  0  0  0  0
 17 18  1  0  0  0  0
 17 48  1  0  0  0  0
 17 49  1  0  0  0  0
 18 19  1  0  0  0  0
 18 50  1  0  0  0  0
 18 51  1  0  0  0  0
 19 20  1  0  0  0  0
 19 52  1  0  0  0  0
 19 53  1  0  0  0  0
 20 21  1  0  0  0  0
 20 54  1  0  0  0  0
 21 55  1  0  0  0  0
 22 23  1  0  0  0  0
 23 24  2  0  0  0  0
 23 56  1  0  0  0  0
 24 25  1  0  0  0  0
 26 30  1  0  0  0  0
 26 27  1  0  0  0  0
 26 57  1  0  0  0  0
 27 28  1  0  0  0  0
 27 58  1  0  0  0  0
 27 59  1  0  0  0  0
 28 29  1  0  0  0  0
 28 60  1  0  0  0  0
 28 61  1  0  0  0  0
 29 30  1  0  0  0  0
 30 62  1  0  0  0  0
 30 63  1  0  0  0  0
M  END
> <s_m_source_file>
AV-unprocessed.smi

> <i_m_source_file_index>
148

> <i_lp_mmshare_version>
43012

> <i_f3d_flags>
0

> <s_epik_input>
W0NIMl0xT1tDSDJdW0NIMl1bQ0BIXTFbQ0BIXShbQ0gyXVtPSF0pW0NIMl1uKFtjSF1uMiljKGMyMyluW2NIXW5jM040W0NIMl1bQ0gyXVtDSDJdW0NIMl1bQ0BIXTRbQ0BASF01W0NIMl1bQ0gyXVtDSDJdW0NASF01W09IXQ==

> <s_epik_cmdline>
J2VwaWtfcHl0aG9uJywgJy1waCcsICc3LjAnLCAnLXRuJywgJzgnLCAnLW1hJywgJzIwMCcsICctbWV0YWxfYmluZGluZycsICctaW1hZScsICc8aW5maWxlLm1hZT4nLCAnLW9tYWUnLCAnPG91dGZpbGUubWFlPic=

> <r_lp_tautomer_probability>
1

> <r_epik_Ionization_Penalty>
0.00556303

> <r_epik_Ionization_Penalty_Charging>
0

> <r_epik_Ionization_Penalty_Neutral>
0.00556303

> <r_epik_State_Penalty>
0.00401767

> <r_epik_Charging_Adjusted_Penalty>
0.00401767

> <i_epik_Tot_Q>
0

> <i_epik_Tot_abs_Q>
0

> <r_epik_Metal_State_Penalty>
-0

> <b_epik_Metal_Only>
0

> <s_lp_Force_Field>
OPLS_2005

> <r_lp_Energy>
69.9352

> <b_lp_Chiralities_Consistent>
1

> <s_lp_Variant>
AV-unprocessed.smi:148-30

> <Gold.Version>
5.8.1

> <Gold.Id.Protein>
6NUR|6NUR_protein|mol2

> <Gold.PLP.Fitness>
50.8215

> <Gold.PLP.PLP>
-44.7771

> <Gold.PLP.part.hbond>
-5.0000

> <Gold.PLP.part.metal>
0.0000

> <Gold.PLP.part.buried>
-7.5967

> <Gold.PLP.part.nonpolar>
-36.1316

> <Gold.PLP.part.repulsive>
0.7985

> <Gold.PLP.ligand.clash>
0.0000

> <Gold.PLP.ligand.torsion>
2.9688

> <Gold.PLP.Chemscore.Hbond>
3.8376

> <Gold.PLP.Chemscore.CHOScore>
0.0000

> <Gold.PLP.Chemscore.Metal>
0.0000

> <Gold.Chemscore.Hbonds>
donor molecule, donor type, donor heavy atom, donor atom, acceptor molecule, acceptor atom, score
      L1  H     1    31       P1 10175  0.80
      L1  H    21    55       P1 10957  0.70
      P1  H  7989  7998       L1    29  0.83
      P1  H 10995 11001       L1    21  0.06
      P1  H 11000 11005       L1    21  1.00
      L1  C     6    37       P1 10171  0.04

> <Gold.PLP.Chemscore.Internal.Correction>
0.4693

> <Gold.Rescore>
     Score         DG    S(hbond)    S(metal)    S(lipo)     H(rot)  DE(clash)    DE(int)     intcor
     11.54     -18.04       3.04        0.00      93.10       3.32       0.10       6.40       ----

> <Gold.Chemscore.Fitness>
11.5364

> <Gold.Chemscore.DG>
-18.0398

> <Gold.Chemscore.ZeroCoef>
-5.4800

> <Gold.Chemscore.Hbond>
3.0442

> <Gold.Chemscore.Metal>
0.0000

> <Gold.Chemscore.Lipo>
93.0956

> <Gold.Chemscore.Internal_Hbond>
0.0000

> <Gold.Chemscore.DEClash>
0.0986

> <Gold.Chemscore.DEInternal>
6.4049

> <Gold.Chemscore.Rot>
3.3203

> <Gold.Chemscore.Internal.Correction>
   9.000000E+99

> <Gold.Chemscore.Hbonds>
donor molecule, donor type, donor heavy atom, donor atom, acceptor molecule, acceptor atom, score
      L1  H     1    31       P1 10175  0.39
      L1  H    21    55       P1 10957  0.70
      P1  H  7989  7998       L1    29  0.71
      P1  H 10995 11001       L1    21  0.06
      P1  H 11000 11005       L1    21  0.49

> <Gold.Chemscore.Hbond.Weighted>
-10.1677

> <Gold.Chemscore.Metal.Weighted>
-0.0000

> <Gold.Chemscore.Lipo.Weighted>
-10.8922

> <Gold.Chemscore.Internal_Hbond.Weighted>
0.0000

> <Gold.Chemscore.DEClash.Weighted>
0.0986

> <Gold.Chemscore.DEInternal.Weighted>
6.4049

> <Gold.Chemscore.Rot.Weighted>
8.5000

> <Gold.Chemscore.Internal.Correction.Weighted>
   9.000000E+99

> <Gold.Protein.RotatedTorsions>
[ 6907 6896 6895 6894 ] final    1.49 input  -60.11 | X-H torsion
[ 7974 7965 7964 7962 ] final   96.03 input  175.53 | X-H torsion
[ 8008 7997 7996 7995 ] final -178.80 input   59.86 | X-H torsion
[ 10167 10162 10161 10158 ] final   45.99 input  -65.29 | X-H torsion
[ 10718 10713 10712 10709 ] final  131.65 input   66.30 | X-H torsion
[ 10763 10752 10751 10750 ] final  -25.22 input  -60.55 | X-H torsion
[ 11005 11000 10999 10996 ] final   13.35 input  -57.11 | X-H torsion

> <Gold.Protein.ActiveResidues>
 VAL166  LYS551  ARG553  GLY616  TRP617  ASP618  TYR619  PRO620  LYS621  CYS622 
 ASP623  PHE694  ASN695  SER759  ASP760  ASP761  ALA762  ILE779  LEU786  VAL792 
 PHE793  MET794  SER795  GLU796  ALA797  LYS798  CYS799  TRP800  GLU811  SER814 

> <Gold.Protein.RotatedAtoms>
  151.5935  135.1052  160.0044 H   0  0  0  0  0  0  0  0  0  0  0  0  # atno 6907 bound_to 6896
  152.4294  133.7247  159.6564 H   0  0  0  0  0  0  0  0  0  0  0  0  # atno 6908 bound_to 6896
  150.8185  133.8223  159.3172 H   0  0  0  0  0  0  0  0  0  0  0  0  # atno 6909 bound_to 6896
  145.4443  139.2298  143.3075 H   0  0  0  0  0  0  0  0  0  0  0  0  # atno 7974 bound_to 7965
  156.0230  140.1265  157.0337 H   0  0  0  0  0  0  0  0  0  0  0  0  # atno 8008 bound_to 7997
  154.4319  140.1065  156.6061 H   0  0  0  0  0  0  0  0  0  0  0  0  # atno 8009 bound_to 7997
  155.5917  140.3469  155.4570 H   0  0  0  0  0  0  0  0  0  0  0  0  # atno 8010 bound_to 7997
  140.3185  144.2734  150.6187 H   0  0  0  0  0  0  0  0  0  0  0  0  # atno 10167 bound_to 10162
  157.4947  131.1092  150.9508 H   0  0  0  0  0  0  0  0  0  0  0  0  # atno 10718 bound_to 10713
  153.6963  135.6959  153.5075 H   0  0  0  0  0  0  0  0  0  0  0  0  # atno 10763 bound_to 10752
  153.2375  135.4317  155.0661 H   0  0  0  0  0  0  0  0  0  0  0  0  # atno 10764 bound_to 10752
  154.8357  135.3499  154.6504 H   0  0  0  0  0  0  0  0  0  0  0  0  # atno 10765 bound_to 10752
  140.4817  134.0928  155.7752 H   0  0  0  0  0  0  0  0  0  0  0  0  # atno 11005 bound_to 11000
  146.2539  140.5194  142.8881 LP  0  0  0  0  0  0  0  0  0  0  0  0  # atno 17320 bound_to 7965
  144.8102  140.6371  143.6420 LP  0  0  0  0  0  0  0  0  0  0  0  0  # atno 17321 bound_to 7965
  140.5504  143.2207  151.7936 LP  0  0  0  0  0  0  0  0  0  0  0  0  # atno 17342 bound_to 10162
  139.4879  144.4483  151.9684 LP  0  0  0  0  0  0  0  0  0  0  0  0  # atno 17343 bound_to 10162
  157.0199  130.5669  149.5330 LP  0  0  0  0  0  0  0  0  0  0  0  0  # atno 17370 bound_to 10713
  156.0194  130.5288  150.8230 LP  0  0  0  0  0  0  0  0  0  0  0  0  # atno 17371 bound_to 10713
  141.1528  133.8938  157.2055 LP  0  0  0  0  0  0  0  0  0  0  0  0  # atno 17394 bound_to 11000
  139.9822  135.0094  156.9777 LP  0  0  0  0  0  0  0  0  0  0  0  0  # atno 17395 bound_to 11000

$$$$
