AV-unprocessed.smi:1126|AV-procd|sdf|4838|dock4
  -GOLD-   22720 3403D 1   1.00000     0.00000
 Structure written by MMmdl.
 48 49  0  0  0  0  0  0  0  0  2 V2000
  149.7173  132.8434  154.4917 C   0  0  0  0  0  0  0  0  0  0  0  0
  149.3362  134.0979  155.0289 O   0  0  0  0  0  0  0  0  0  0  0  0
  148.1798  134.6300  154.4035 C   0  0  0  0  0  0  0  0  0  0  0  0
  147.8853  136.0138  155.0025 C   0  0  0  0  0  0  0  0  0  0  0  0
  148.8900  137.0304  154.5991 N   0  3  2  0  0  0  0  0  0  0  0  0
  150.2496  136.7086  155.1030 C   0  0  0  0  0  0  0  0  0  0  0  0
  151.2963  137.6965  154.5562 C   0  0  0  0  0  0  0  0  0  0  0  0
  150.9414  139.1604  154.8772 C   0  0  2  0  0  0  0  0  0  0  0  0
  151.1804  139.5013  156.3666 C   0  0  0  0  0  0  0  0  0  0  0  0
  151.5880  140.8889  156.5610 N   0  0  0  0  0  0  0  0  0  0  0  0
  150.8688  141.8385  157.1804 C   0  0  0  0  0  0  0  0  0  0  0  0
  149.7406  141.6489  157.6344 O   0  0  0  0  0  0  0  0  0  0  0  0
  151.5186  143.2185  157.2967 C   0  0  0  0  0  0  0  0  0  0  0  0
  151.7309  143.5862  158.6857 N   0  0  0  0  0  0  0  0  0  0  0  0
  152.2912  142.8322  159.6953 C   0  0  0  0  0  0  0  0  0  0  0  0
  152.2926  143.5968  160.8276 C   0  0  0  0  0  0  0  0  0  0  0  0
  152.7957  143.2440  162.1976 C   0  0  0  0  0  0  0  0  0  0  0  0
  151.7019  144.8203  160.4013 C   0  0  0  0  0  0  0  0  0  0  0  0
  151.3672  144.8120  159.1211 N   0  0  0  0  0  0  0  0  0  0  0  0
  149.5064  139.4373  154.3820 C   0  0  0  0  0  0  0  0  0  0  0  0
  148.4937  138.4221  154.9409 C   0  0  0  0  0  0  0  0  0  0  0  0
  150.6082  132.4806  155.0048 H   0  0  0  0  0  0  0  0  0  0  0  0
  149.9506  132.9239  153.4292 H   0  0  0  0  0  0  0  0  0  0  0  0
  148.9283  132.1018  154.6224 H   0  0  0  0  0  0  0  0  0  0  0  0
  148.3135  134.6807  153.3229 H   0  0  0  0  0  0  0  0  0  0  0  0
  147.3321  133.9684  154.5877 H   0  0  0  0  0  0  0  0  0  0  0  0
  146.8874  136.3504  154.7177 H   0  0  0  0  0  0  0  0  0  0  0  0
  147.8762  135.9140  156.0889 H   0  0  0  0  0  0  0  0  0  0  0  0
  150.2476  136.7129  156.1937 H   0  0  0  0  0  0  0  0  0  0  0  0
  150.5239  135.6990  154.7947 H   0  0  0  0  0  0  0  0  0  0  0  0
  152.2838  137.4512  154.9486 H   0  0  0  0  0  0  0  0  0  0  0  0
  151.3651  137.5746  153.4742 H   0  0  0  0  0  0  0  0  0  0  0  0
  151.6170  139.7926  154.2990 H   0  0  0  0  0  0  0  0  0  0  0  0
  150.3054  139.2659  156.9735 H   0  0  0  0  0  0  0  0  0  0  0  0
  151.9858  138.8775  156.7554 H   0  0  0  0  0  0  0  0  0  0  0  0
  152.5049  141.1442  156.2219 H   0  0  0  0  0  0  0  0  0  0  0  0
  152.4718  143.2267  156.7655 H   0  0  0  0  0  0  0  0  0  0  0  0
  150.8839  143.9726  156.8295 H   0  0  0  0  0  0  0  0  0  0  0  0
  152.6414  141.8246  159.5241 H   0  0  0  0  0  0  0  0  0  0  0  0
  152.2930  143.8209  162.9740 H   0  0  0  0  0  0  0  0  0  0  0  0
  153.8641  143.4363  162.2943 H   0  0  0  0  0  0  0  0  0  0  0  0
  152.6361  142.1903  162.4275 H   0  0  0  0  0  0  0  0  0  0  0  0
  151.5087  145.7106  160.9818 H   0  0  0  0  0  0  0  0  0  0  0  0
  149.1952  140.4523  154.6270 H   0  0  0  0  0  0  0  0  0  0  0  0
  149.4913  139.3825  153.2926 H   0  0  0  0  0  0  0  0  0  0  0  0
  147.5116  138.6479  154.5273 H   0  0  0  0  0  0  0  0  0  0  0  0
  148.4057  138.5248  156.0231 H   0  0  0  0  0  0  0  0  0  0  0  0
  148.9487  136.9815  153.5916 H   0  0  0  0  0  0  0  0  0  0  0  0
  1  2  1  0  0  0  0
  1 22  1  0  0  0  0
  1 23  1  0  0  0  0
  1 24  1  0  0  0  0
  2  3  1  0  0  0  0
  3  4  1  0  0  0  0
  3 25  1  0  0  0  0
  3 26  1  0  0  0  0
  4  5  1  0  0  0  0
  4 27  1  0  0  0  0
  4 28  1  0  0  0  0
  5 21  1  0  0  0  0
  5  6  1  0  0  0  0
  5 48  1  0  0  0  0
  6  7  1  0  0  0  0
  6 29  1  0  0  0  0
  6 30  1  0  0  0  0
  7  8  1  0  0  0  0
  7 31  1  0  0  0  0
  7 32  1  0  0  0  0
  8  9  1  0  0  0  0
  8 20  1  0  0  0  0
  8 33  1  0  0  0  0
  9 10  1  0  0  0  0
  9 34  1  0  0  0  0
  9 35  1  0  0  0  0
 10 11  1  0  0  0  0
 10 36  1  0  0  0  0
 11 12  2  0  0  0  0
 11 13  1  0  0  0  0
 13 14  1  0  0  0  0
 13 37  1  0  0  0  0
 13 38  1  0  0  0  0
 14 19  1  0  0  0  0
 14 15  1  0  0  0  0
 15 16  2  0  0  0  0
 15 39  1  0  0  0  0
 16 17  1  0  0  0  0
 16 18  1  0  0  0  0
 17 40  1  0  0  0  0
 17 41  1  0  0  0  0
 17 42  1  0  0  0  0
 18 19  2  0  0  0  0
 18 43  1  0  0  0  0
 20 21  1  0  0  0  0
 20 44  1  0  0  0  0
 20 45  1  0  0  0  0
 21 46  1  0  0  0  0
 21 47  1  0  0  0  0
M  CHG  1   5   1
M  END
> <s_m_source_file>
AV-unprocessed.smi

> <i_m_source_file_index>
1126

> <i_lp_mmshare_version>
43012

> <i_f3d_flags>
0

> <s_epik_input>
W0NIM11PW0NIMl1bQ0gyXU4xW0NIMl1bQ0gyXVtDSF0oW0NIMl1bQ0gyXTEpW0NIMl1bTkhdQyg9TylbQ0gyXW4yW2NIXWMoW0NIM10pW2NIXW4y

> <s_epik_cmdline>
J2VwaWtfcHl0aG9uJywgJy1waCcsICc3LjAnLCAnLXRuJywgJzgnLCAnLW1hJywgJzIwMCcsICctbWV0YWxfYmluZGluZycsICctaW1hZScsICc8aW5maWxlLm1hZT4nLCAnLW9tYWUnLCAnPG91dGZpbGUubWFlPic=

> <r_lp_tautomer_probability>
1

> <r_epik_Ionization_Penalty>
0.00992859

> <r_epik_Ionization_Penalty_Charging>
0.00990284

> <r_epik_Ionization_Penalty_Neutral>
2.57527e-05

> <r_epik_State_Penalty>
0.00754525

> <r_epik_Charging_Adjusted_Penalty>
0.0174481

> <i_epik_Tot_Q>
1

> <i_epik_Tot_abs_Q>
1

> <r_epik_Metal_State_Penalty>
0.00754529

> <b_epik_Metal_Only>
0

> <s_lp_Force_Field>
OPLS_2005

> <r_lp_Energy>
20.6922

> <b_lp_Chiralities_Consistent>
1

> <s_lp_Variant>
AV-unprocessed.smi:1126-2

> <Gold.Version>
5.8.1

> <Gold.Id.Protein>
6NUR|6NUR_protein|mol2

> <Gold.PLP.Fitness>
46.3935

> <Gold.PLP.PLP>
-41.5247

> <Gold.PLP.part.hbond>
-1.0000

> <Gold.PLP.part.metal>
0.0000

> <Gold.PLP.part.buried>
-4.7360

> <Gold.PLP.part.nonpolar>
-35.7703

> <Gold.PLP.part.repulsive>
0.4154

> <Gold.PLP.ligand.clash>
0.0000

> <Gold.PLP.ligand.torsion>
0.6157

> <Gold.PLP.Chemscore.Hbond>
2.0000

> <Gold.PLP.Chemscore.CHOScore>
0.0000

> <Gold.PLP.Chemscore.Metal>
0.0000

> <Gold.Chemscore.Hbonds>
donor molecule, donor type, donor heavy atom, donor atom, acceptor molecule, acceptor atom, score
      L1  H     5    48       P1  7948  2.00

> <Gold.PLP.Chemscore.Internal.Correction>
0.1001

> <Gold.Rescore>
     Score         DG    S(hbond)    S(metal)    S(lipo)     H(rot)  DE(clash)    DE(int)     intcor
     13.67     -15.61       1.00        0.00     104.09       2.10       0.05       1.89       ----

> <Gold.Chemscore.Fitness>
13.6727

> <Gold.Chemscore.DG>
-15.6098

> <Gold.Chemscore.ZeroCoef>
-5.4800

> <Gold.Chemscore.Hbond>
0.9968

> <Gold.Chemscore.Metal>
0.0000

> <Gold.Chemscore.Lipo>
104.0865

> <Gold.Chemscore.Internal_Hbond>
0.0000

> <Gold.Chemscore.DEClash>
0.0465

> <Gold.Chemscore.DEInternal>
1.8906

> <Gold.Chemscore.Rot>
2.1006

> <Gold.Chemscore.Internal.Correction>
   9.000000E+99

> <Gold.Chemscore.Hbonds>
donor molecule, donor type, donor heavy atom, donor atom, acceptor molecule, acceptor atom, score
      L1  H     5    48       P1  7948  0.99

> <Gold.Chemscore.Hbond.Weighted>
-3.3292

> <Gold.Chemscore.Metal.Weighted>
-0.0000

> <Gold.Chemscore.Lipo.Weighted>
-12.1781

> <Gold.Chemscore.Internal_Hbond.Weighted>
0.0000

> <Gold.Chemscore.DEClash.Weighted>
0.0465

> <Gold.Chemscore.DEInternal.Weighted>
1.8906

> <Gold.Chemscore.Rot.Weighted>
5.3775

> <Gold.Chemscore.Internal.Correction.Weighted>
   9.000000E+99

> <Gold.Protein.RotatedTorsions>
[ 6907 6896 6895 6894 ] final   68.82 input  -60.11 | X-H torsion
[ 7974 7965 7964 7962 ] final    9.92 input  175.53 | X-H torsion
[ 8008 7997 7996 7995 ] final -149.61 input   59.86 | X-H torsion
[ 10167 10162 10161 10158 ] final  131.57 input  -65.29 | X-H torsion
[ 10718 10713 10712 10709 ] final  -87.19 input   66.30 | X-H torsion
[ 10763 10752 10751 10750 ] final  -41.09 input  -60.55 | X-H torsion
[ 11005 11000 10999 10996 ] final    0.15 input  -57.11 | X-H torsion

> <Gold.Protein.ActiveResidues>
 VAL166  LYS551  ARG553  GLY616  TRP617  ASP618  TYR619  PRO620  LYS621  CYS622 
 ASP623  PHE694  ASN695  SER759  ASP760  ASP761  ALA762  ILE779  LEU786  VAL792 
 PHE793  MET794  SER795  GLU796  ALA797  LYS798  CYS799  TRP800  GLU811  SER814 

> <Gold.Protein.RotatedAtoms>
  152.4646  134.5106  159.9752 H   0  0  0  0  0  0  0  0  0  0  0  0  # atno 6907 bound_to 6896
  151.5147  133.3472  159.2899 H   0  0  0  0  0  0  0  0  0  0  0  0  # atno 6908 bound_to 6896
  150.8624  134.8008  159.7155 H   0  0  0  0  0  0  0  0  0  0  0  0  # atno 6909 bound_to 6896
  146.2396  139.9711  142.8447 H   0  0  0  0  0  0  0  0  0  0  0  0  # atno 7974 bound_to 7965
  155.6104  140.0671  157.2707 H   0  0  0  0  0  0  0  0  0  0  0  0  # atno 8008 bound_to 7997
  154.4255  140.1802  156.1314 H   0  0  0  0  0  0  0  0  0  0  0  0  # atno 8009 bound_to 7997
  156.0089  140.3328  155.6924 H   0  0  0  0  0  0  0  0  0  0  0  0  # atno 8010 bound_to 7997
  139.5378  144.6700  151.4726 H   0  0  0  0  0  0  0  0  0  0  0  0  # atno 10167 bound_to 10162
  155.9986  130.4791  150.4829 H   0  0  0  0  0  0  0  0  0  0  0  0  # atno 10718 bound_to 10713
  153.9568  135.6744  153.4744 H   0  0  0  0  0  0  0  0  0  0  0  0  # atno 10763 bound_to 10752
  153.0857  135.4900  154.8589 H   0  0  0  0  0  0  0  0  0  0  0  0  # atno 10764 bound_to 10752
  154.7295  135.3135  154.8875 H   0  0  0  0  0  0  0  0  0  0  0  0  # atno 10765 bound_to 10752
  140.6298  133.9585  155.8268 H   0  0  0  0  0  0  0  0  0  0  0  0  # atno 11005 bound_to 11000
  145.1680  140.9707  143.4338 LP  0  0  0  0  0  0  0  0  0  0  0  0  # atno 17320 bound_to 7965
  145.0054  139.3559  143.6146 LP  0  0  0  0  0  0  0  0  0  0  0  0  # atno 17321 bound_to 7965
  140.6593  143.8532  150.6870 LP  0  0  0  0  0  0  0  0  0  0  0  0  # atno 17342 bound_to 10162
  140.1921  143.4028  152.1855 LP  0  0  0  0  0  0  0  0  0  0  0  0  # atno 17343 bound_to 10162
  157.2832  131.0611  151.2183 LP  0  0  0  0  0  0  0  0  0  0  0  0  # atno 17370 bound_to 10713
  157.3222  130.6943  149.6276 LP  0  0  0  0  0  0  0  0  0  0  0  0  # atno 17371 bound_to 10713
  141.0683  134.0243  157.3562 LP  0  0  0  0  0  0  0  0  0  0  0  0  # atno 17394 bound_to 11000
  139.9120  135.0191  156.7732 LP  0  0  0  0  0  0  0  0  0  0  0  0  # atno 17395 bound_to 11000

$$$$
