AV-unprocessed.smi:1844|AV-procd|sdf|7508|dock5
  -GOLD-   22720 9213D 1   1.00000     0.00000
 Structure written by MMmdl.
 45 46  0  0  0  0  0  0  0  0  1 V2000
  148.6920  133.6273  154.0061 C   0  0  0  0  0  0  0  0  0  0  0  0
  149.4065  134.8810  154.1926 N   0  0  0  0  0  0  0  0  0  0  0  0
  150.1131  135.1988  155.2898 C   0  0  0  0  0  0  0  0  0  0  0  0
  150.2116  134.4230  156.2420 O   0  0  0  0  0  0  0  0  0  0  0  0
  150.7348  136.5241  155.2310 C   0  0  0  0  0  0  0  0  0  0  0  0
  150.4378  137.4985  154.1912 C   0  0  0  0  0  0  0  0  0  0  0  0
  151.0338  138.7071  154.1936 C   0  0  0  0  0  0  0  0  0  0  0  0
  151.9984  139.0904  155.2284 C   0  0  0  0  0  0  0  0  0  0  0  0
  152.5426  140.1949  155.2377 O   0  0  0  0  0  0  0  0  0  0  0  0
  152.2552  138.1432  156.1808 N   0  0  0  0  0  0  0  0  0  0  0  0
  153.2092  138.4087  157.2709 C   0  0  0  0  0  0  0  0  0  0  0  0
  152.7157  139.4574  158.2779 C   0  0  0  0  0  0  0  0  0  0  0  0
  152.6287  139.1955  159.4786 O   0  0  0  0  0  0  0  0  0  0  0  0
  152.4033  140.6559  157.7624 N   0  0  0  0  0  0  0  0  0  0  0  0
  151.9148  141.8054  158.5212 C   0  0  2  0  0  0  0  0  0  0  0  0
  151.1909  142.7826  157.5709 C   0  0  0  0  0  0  0  0  0  0  0  0
  150.7169  144.0449  158.3051 C   0  0  0  0  0  0  0  0  0  0  0  0
  151.8863  144.7393  159.0154 C   0  0  0  0  0  0  0  0  0  0  0  0
  152.5953  143.7751  159.9780 C   0  0  0  0  0  0  0  0  0  0  0  0
  153.0856  142.5012  159.2598 C   0  0  1  0  0  0  0  0  0  0  0  0
  153.7967  141.5631  160.2519 C   0  0  0  0  0  0  0  0  0  0  0  0
  151.6243  136.8836  156.1771 C   0  0  0  0  0  0  0  0  0  0  0  0
  148.2526  133.5951  153.0094 H   0  0  0  0  0  0  0  0  0  0  0  0
  147.8886  133.5279  154.7367 H   0  0  0  0  0  0  0  0  0  0  0  0
  149.3643  132.7748  154.1093 H   0  0  0  0  0  0  0  0  0  0  0  0
  149.3609  135.5541  153.4416 H   0  0  0  0  0  0  0  0  0  0  0  0
  149.7359  137.2801  153.3999 H   0  0  0  0  0  0  0  0  0  0  0  0
  150.7956  139.4144  153.4126 H   0  0  0  0  0  0  0  0  0  0  0  0
  153.4290  137.4897  157.8163 H   0  0  0  0  0  0  0  0  0  0  0  0
  154.1684  138.7312  156.8615 H   0  0  0  0  0  0  0  0  0  0  0  0
  152.5097  140.7831  156.7664 H   0  0  0  0  0  0  0  0  0  0  0  0
  151.2019  141.4606  159.2728 H   0  0  0  0  0  0  0  0  0  0  0  0
  151.8591  143.0693  156.7576 H   0  0  0  0  0  0  0  0  0  0  0  0
  150.3353  142.2910  157.1063 H   0  0  0  0  0  0  0  0  0  0  0  0
  150.2491  144.7317  157.5994 H   0  0  0  0  0  0  0  0  0  0  0  0
  149.9503  143.7788  159.0338 H   0  0  0  0  0  0  0  0  0  0  0  0
  152.5974  145.1097  158.2760 H   0  0  0  0  0  0  0  0  0  0  0  0
  151.5247  145.6111  159.5616 H   0  0  0  0  0  0  0  0  0  0  0  0
  153.4366  144.2863  160.4474 H   0  0  0  0  0  0  0  0  0  0  0  0
  151.9129  143.5028  160.7844 H   0  0  0  0  0  0  0  0  0  0  0  0
  153.8215  142.8070  158.5144 H   0  0  0  0  0  0  0  0  0  0  0  0
  153.1067  141.1978  161.0131 H   0  0  0  0  0  0  0  0  0  0  0  0
  154.6108  142.0783  160.7624 H   0  0  0  0  0  0  0  0  0  0  0  0
  154.2282  140.6962  159.7512 H   0  0  0  0  0  0  0  0  0  0  0  0
  151.9111  136.2407  156.9976 H   0  0  0  0  0  0  0  0  0  0  0  0
  1  2  1  0  0  0  0
  1 23  1  0  0  0  0
  1 24  1  0  0  0  0
  1 25  1  0  0  0  0
  2  3  1  0  0  0  0
  2 26  1  0  0  0  0
  3  4  2  0  0  0  0
  3  5  1  0  0  0  0
  5 22  2  0  0  0  0
  5  6  1  0  0  0  0
  6  7  2  0  0  0  0
  6 27  1  0  0  0  0
  7  8  1  0  0  0  0
  7 28  1  0  0  0  0
  8  9  2  0  0  0  0
  8 10  1  0  0  0  0
 10 11  1  0  0  0  0
 10 22  1  0  0  0  0
 11 12  1  0  0  0  0
 11 29  1  0  0  0  0
 11 30  1  0  0  0  0
 12 13  2  0  0  0  0
 12 14  1  0  0  0  0
 14 15  1  0  0  0  0
 14 31  1  0  0  0  0
 15 20  1  0  0  0  0
 15 16  1  0  0  0  0
 15 32  1  0  0  0  0
 16 17  1  0  0  0  0
 16 33  1  0  0  0  0
 16 34  1  0  0  0  0
 17 18  1  0  0  0  0
 17 35  1  0  0  0  0
 17 36  1  0  0  0  0
 18 19  1  0  0  0  0
 18 37  1  0  0  0  0
 18 38  1  0  0  0  0
 19 20  1  0  0  0  0
 19 39  1  0  0  0  0
 19 40  1  0  0  0  0
 20 21  1  0  0  0  0
 20 41  1  0  0  0  0
 21 42  1  0  0  0  0
 21 43  1  0  0  0  0
 21 44  1  0  0  0  0
 22 45  1  0  0  0  0
M  END
> <s_m_source_file>
AV-unprocessed.smi

> <i_m_source_file_index>
1844

> <i_lp_mmshare_version>
43012

> <i_f3d_flags>
0

> <s_epik_input>
W0NIM11bTkhdQyg9TyljMVtjSF1bY0hdYyg9TyluKFtjSF0xKVtDSDJdQyg9TylbTkhdW0NAQEhdMltDSDJdW0NIMl1bQ0gyXVtDSDJdW0NASF0yW0NIM10=

> <s_epik_cmdline>
J2VwaWtfcHl0aG9uJywgJy1waCcsICc3LjAnLCAnLXRuJywgJzgnLCAnLW1hJywgJzIwMCcsICctbWV0YWxfYmluZGluZycsICctaW1hZScsICc8aW5maWxlLm1hZT4nLCAnLW9tYWUnLCAnPG91dGZpbGUubWFlPic=

> <r_lp_tautomer_probability>
1

> <r_epik_Ionization_Penalty>
3.66612e-07

> <r_epik_Ionization_Penalty_Charging>
5.18929e-08

> <r_epik_Ionization_Penalty_Neutral>
3.14719e-07

> <r_epik_State_Penalty>
-0

> <r_epik_Charging_Adjusted_Penalty>
5.18929e-08

> <i_epik_Tot_Q>
0

> <i_epik_Tot_abs_Q>
0

> <r_epik_Metal_State_Penalty>
-0

> <b_epik_Metal_Only>
0

> <s_lp_Force_Field>
OPLS_2005

> <r_lp_Energy>
22.707

> <b_lp_Chiralities_Consistent>
1

> <s_lp_Variant>
AV-unprocessed.smi:1844-1

> <Gold.Version>
5.8.1

> <Gold.Id.Protein>
6NUR|6NUR_protein|mol2

> <Gold.PLP.Fitness>
48.1919

> <Gold.PLP.PLP>
-41.6134

> <Gold.PLP.part.hbond>
-3.0000

> <Gold.PLP.part.metal>
0.0000

> <Gold.PLP.part.buried>
-1.5835

> <Gold.PLP.part.nonpolar>
-36.8842

> <Gold.PLP.part.repulsive>
0.1274

> <Gold.PLP.ligand.clash>
0.0000

> <Gold.PLP.ligand.torsion>
0.4020

> <Gold.PLP.Chemscore.Hbond>
2.4586

> <Gold.PLP.Chemscore.CHOScore>
0.0000

> <Gold.PLP.Chemscore.Metal>
0.0000

> <Gold.Chemscore.Hbonds>
donor molecule, donor type, donor heavy atom, donor atom, acceptor molecule, acceptor atom, score
      L1  H     2    26       P1  7948  1.00
      P1  H  7989  7998       L1     9  0.39
      P1  H  7997  8010       L1     9  1.00

> <Gold.PLP.Chemscore.Internal.Correction>
0.0066

> <Gold.Rescore>
     Score         DG    S(hbond)    S(metal)    S(lipo)     H(rot)  DE(clash)    DE(int)     intcor
     17.91     -21.00       1.91        0.00     110.81       1.49       0.36       2.74       ----

> <Gold.Chemscore.Fitness>
17.9073

> <Gold.Chemscore.DG>
-21.0008

> <Gold.Chemscore.ZeroCoef>
-5.4800

> <Gold.Chemscore.Hbond>
1.9091

> <Gold.Chemscore.Metal>
0.0000

> <Gold.Chemscore.Lipo>
110.8111

> <Gold.Chemscore.Internal_Hbond>
0.0000

> <Gold.Chemscore.DEClash>
0.3567

> <Gold.Chemscore.DEInternal>
2.7368

> <Gold.Chemscore.Rot>
1.4923

> <Gold.Chemscore.Internal.Correction>
   9.000000E+99

> <Gold.Chemscore.Hbonds>
donor molecule, donor type, donor heavy atom, donor atom, acceptor molecule, acceptor atom, score
      L1  H     2    26       P1  7948  0.25
      P1  H  7989  7998       L1     9  0.06
      P1  H  7997  8010       L1     9  0.87

> <Gold.Chemscore.Hbond.Weighted>
-6.3763

> <Gold.Chemscore.Metal.Weighted>
-0.0000

> <Gold.Chemscore.Lipo.Weighted>
-12.9649

> <Gold.Chemscore.Internal_Hbond.Weighted>
0.0000

> <Gold.Chemscore.DEClash.Weighted>
0.3567

> <Gold.Chemscore.DEInternal.Weighted>
2.7368

> <Gold.Chemscore.Rot.Weighted>
3.8204

> <Gold.Chemscore.Internal.Correction.Weighted>
   9.000000E+99

> <Gold.Protein.RotatedTorsions>
[ 6907 6896 6895 6894 ] final  -17.90 input  -60.11 | X-H torsion
[ 7974 7965 7964 7962 ] final  114.32 input  175.53 | X-H torsion
[ 8008 7997 7996 7995 ] final  100.31 input   59.86 | X-H torsion
[ 10167 10162 10161 10158 ] final  -32.70 input  -65.29 | X-H torsion
[ 10718 10713 10712 10709 ] final   25.50 input   66.30 | X-H torsion
[ 10763 10752 10751 10750 ] final   86.95 input  -60.55 | X-H torsion
[ 11005 11000 10999 10996 ] final  -51.49 input  -57.11 | X-H torsion

> <Gold.Protein.ActiveResidues>
 VAL166  LYS551  ARG553  GLY616  TRP617  ASP618  TYR619  PRO620  LYS621  CYS622 
 ASP623  PHE694  ASN695  SER759  ASP760  ASP761  ALA762  ILE779  LEU786  VAL792 
 PHE793  MET794  SER795  GLU796  ALA797  LYS798  CYS799  TRP800  GLU811  SER814 

> <Gold.Protein.RotatedAtoms>
  151.2863  135.0729  159.9187 H   0  0  0  0  0  0  0  0  0  0  0  0  # atno 6907 bound_to 6896
  152.5325  133.9978  159.7891 H   0  0  0  0  0  0  0  0  0  0  0  0  # atno 6908 bound_to 6896
  151.0240  133.5799  159.2698 H   0  0  0  0  0  0  0  0  0  0  0  0  # atno 6909 bound_to 6896
  145.2058  139.2930  143.4294 H   0  0  0  0  0  0  0  0  0  0  0  0  # atno 7974 bound_to 7965
  156.1190  140.3215  155.8181 H   0  0  0  0  0  0  0  0  0  0  0  0  # atno 8008 bound_to 7997
  155.4538  140.0534  157.3015 H   0  0  0  0  0  0  0  0  0  0  0  0  # atno 8009 bound_to 7997
  154.4814  140.2054  155.9769 H   0  0  0  0  0  0  0  0  0  0  0  0  # atno 8010 bound_to 7997
  140.7217  143.3675  151.1842 H   0  0  0  0  0  0  0  0  0  0  0  0  # atno 10167 bound_to 10162
  157.1942  130.6860  149.6162 H   0  0  0  0  0  0  0  0  0  0  0  0  # atno 10718 bound_to 10713
  153.1620  135.4561  154.9785 H   0  0  0  0  0  0  0  0  0  0  0  0  # atno 10763 bound_to 10752
  154.7904  135.3219  154.7792 H   0  0  0  0  0  0  0  0  0  0  0  0  # atno 10764 bound_to 10752
  153.8280  135.6941  153.4873 H   0  0  0  0  0  0  0  0  0  0  0  0  # atno 10765 bound_to 10752
  141.0874  133.6639  156.3886 H   0  0  0  0  0  0  0  0  0  0  0  0  # atno 11005 bound_to 11000
  146.3408  140.2318  142.8593 LP  0  0  0  0  0  0  0  0  0  0  0  0  # atno 17320 bound_to 7965
  144.9903  140.8541  143.5343 LP  0  0  0  0  0  0  0  0  0  0  0  0  # atno 17321 bound_to 7965
  139.7239  143.9179  152.2996 LP  0  0  0  0  0  0  0  0  0  0  0  0  # atno 17342 bound_to 10162
  139.8945  144.6947  150.8733 LP  0  0  0  0  0  0  0  0  0  0  0  0  # atno 17343 bound_to 10162
  155.9708  130.4604  150.6073 LP  0  0  0  0  0  0  0  0  0  0  0  0  # atno 17370 bound_to 10713
  157.3831  131.0784  151.1460 LP  0  0  0  0  0  0  0  0  0  0  0  0  # atno 17371 bound_to 10713
  140.5331  134.6193  157.5356 LP  0  0  0  0  0  0  0  0  0  0  0  0  # atno 17394 bound_to 11000
  139.9694  134.7318  156.0072 LP  0  0  0  0  0  0  0  0  0  0  0  0  # atno 17395 bound_to 11000

$$$$
