#       Name:                AV-unprocessed.smi:2528
#       Creating user name   scv26
#       Creation time:       Fri Mar 27 13:59:13 2020


#       File generated by GOLD software.
#

@<TRIPOS>MOLECULE
AV-unprocessed.smi:2528
    49    51     1
SMALL
NO_CHARGES


@<TRIPOS>ATOM
      1 ****        -0.6377   1.8216   1.8048 O.2            1 S1                 0.0000
      2 ****        -1.1679   0.7693   2.1620 C.2            1 S1                 0.0000
      3 ****        -0.4794  -0.3533   2.4143 N.am           1 S1                 0.0000
      4 ****         0.9713  -0.4874   2.3189 C.3            1 S1                 0.0000
      5 ****         1.4849  -0.4514   0.8659 C.3            1 S1                 0.0000
      6 ****         0.8697  -1.5580  -0.0238 C.3            1 S1                 0.0000
      7 ****         1.4737  -1.5646  -1.3781 N.4            1 S1                 1.0000
      8 ****         0.9600  -0.4801  -2.2592 C.3            1 S1                 0.0000
      9 ****         1.5667  -0.5678  -3.6674 C.3            1 S1                 0.0000
     10 ****         3.0975  -0.5313  -3.6021 C.3            1 S1                 0.0000
     11 ****         3.6066  -1.6595  -2.6951 C.3            1 S1                 0.0000
     12 ****         2.9591  -1.6282  -1.2944 C.3            1 S1                 0.0000
     13 ****         3.5021  -0.5102  -0.3794 C.3            1 S1                 0.0000
     14 ****         2.8984  -0.6193   0.9046 O.3            1 S1                 0.0000
     15 ****        -2.4866   0.5852   2.3480 N.am           1 S1                 0.0000
     16 ****        -3.5373   1.5231   2.1639 C.ar           1 S1                 0.0000
     17 ****        -4.8276   1.0487   2.4912 C.ar           1 S1                 0.0000
     18 ****        -5.9376   1.9030   2.3448 C.ar           1 S1                 0.0000
     19 ****        -5.7286   3.2106   1.8718 C.ar           1 S1                 0.0000
     20 ****        -4.4125   3.6026   1.5653 C.ar           1 S1                 0.0000
     21 ****        -3.3473   2.7854   1.7050 N.ar           1 S1                 0.0000
     22 ****        -0.9932  -1.1712   2.7080 H              1 S1                 0.0000
     23 ****         1.4468   0.3008   2.9049 H              1 S1                 0.0000
     24 ****         1.2527  -1.4309   2.7876 H              1 S1                 0.0000
     25 ****         1.2675   0.5310   0.4455 H              1 S1                 0.0000
     26 ****         1.0450  -2.5325   0.4340 H              1 S1                 0.0000
     27 ****        -0.2121  -1.4453  -0.1039 H              1 S1                 0.0000
     28 ****        -0.1257  -0.5564  -2.3275 H              1 S1                 0.0000
     29 ****         1.1765   0.4986  -1.8314 H              1 S1                 0.0000
     30 ****         1.2396  -1.4878  -4.1536 H              1 S1                 0.0000
     31 ****         1.2009   0.2552  -4.2822 H              1 S1                 0.0000
     32 ****         3.5182  -0.6363  -4.6026 H              1 S1                 0.0000
     33 ****         3.4321   0.4357  -3.2251 H              1 S1                 0.0000
     34 ****         3.3824  -2.6168  -3.1676 H              1 S1                 0.0000
     35 ****         4.6929  -1.6131  -2.6110 H              1 S1                 0.0000
     36 ****         3.2060  -2.5757  -0.8125 H              1 S1                 0.0000
     37 ****         4.5811  -0.6122  -0.2622 H              1 S1                 0.0000
     38 ****         3.3239   0.4820  -0.7955 H              1 S1                 0.0000
     39 ****        -2.7737  -0.3309   2.6590 H              1 S1                 0.0000
     40 ****        -4.9708   0.0411   2.8537 H              1 S1                 0.0000
     41 ****        -6.9314   1.5598   2.5915 H              1 S1                 0.0000
     42 ****        -6.5546   3.8951   1.7471 H              1 S1                 0.0000
     43 ****        -4.2094   4.5974   1.1976 H              1 S1                 0.0000
     44 ****         1.1785  -2.4253  -1.8168 H              1 S1                 0.0000
     45 ****         0.3546   1.8676   1.6897 LP             1 S1                 0.0000
     46 ****        -1.1994   2.6302   1.6299 LP             1 S1                 0.0000
     47 ****         3.1025  -1.5243   1.2778 LP             1 S1                 0.0000
     48 ****         3.2873   0.0827   1.5012 LP             1 S1                 0.0000
     49 ****        -2.4292   3.1066   1.4730 LP             1 S1                 0.0000
@<TRIPOS>BOND
    1    1    2 2     
    2    2    3 am    
    3    2   15 am    
    4    3    4 1     
    5    3   22 1     
    6    4    5 1     
    7    4   23 1     
    8    4   24 1     
    9    5   14 1     
   10    5    6 1     
   11    5   25 1     
   12    6    7 1     
   13    6   26 1     
   14    6   27 1     
   15    7   12 1     
   16    7    8 1     
   17    7   44 1     
   18    8    9 1     
   19    8   28 1     
   20    8   29 1     
   21    9   10 1     
   22    9   30 1     
   23    9   31 1     
   24   10   11 1     
   25   10   32 1     
   26   10   33 1     
   27   11   12 1     
   28   11   34 1     
   29   11   35 1     
   30   12   13 1     
   31   12   36 1     
   32   13   14 1     
   33   13   37 1     
   34   13   38 1     
   35   15   16 1     
   36   15   39 1     
   37   16   21 ar    
   38   16   17 ar    
   39   17   18 ar    
   40   17   40 1     
   41   18   19 ar    
   42   18   41 1     
   43   19   20 ar    
   44   19   42 1     
   45   20   21 ar    
   46   20   43 1     
   47    1   45 1     
   48    1   46 1     
   49   14   47 1     
   50   14   48 1     
   51   21   49 1     
@<TRIPOS>SUBSTRUCTURE
      1 S1             1
@<TRIPOS>SET
LONE_PAIRS      STATIC     ATOMS    <user>   **** ""
5 45 46 47 48 49
DONOR_HYDROGENS      STATIC     ATOMS    <user>   **** ""
3 22 44 39
ATOM$BLUE        STATIC     ATOMS    COLORGROUP SYSTEM
5 45 46 47 48 49
ATOM$RED        STATIC     ATOMS    COLORGROUP SYSTEM
3 22 44 39
