AV-unprocessed.smi:1406|AV-procd|sdf|5709|dock8
  -GOLD-   22720 5343D 1   1.00000     0.00000
 Structure written by MMmdl.
 41 43  0  0  0  0  0  0  0  0  2 V2000
  149.9230  129.4088  154.8282 C   0  0  0  0  0  0  0  0  0  0  0  0
  149.2224  129.6004  153.4677 C   0  0  2  0  0  0  0  0  0  0  0  0
  148.0106  130.5414  153.5519 C   0  0  0  0  0  0  0  0  0  0  0  0
  147.0062  130.2190  154.1870 O   0  0  0  0  0  0  0  0  0  0  0  0
  148.1203  131.7089  152.8982 N   0  0  0  0  0  0  0  0  0  0  0  0
  147.0855  132.7358  152.8235 C   0  0  2  0  0  0  0  0  0  0  0  0
  146.7571  133.3505  154.1791 C   0  0  0  0  0  0  0  0  0  0  0  0
  145.3822  133.9705  153.9271 C   0  0  0  0  0  0  0  0  0  0  0  0
  144.7019  133.0701  152.9688 N   0  3  1  0  0  0  0  0  0  0  0  0
  143.7912  133.7526  152.0173 C   0  0  0  0  0  0  0  0  0  0  0  0
  143.1317  132.7308  151.0736 C   0  0  0  0  0  0  0  0  0  0  0  0
  144.1509  131.7982  150.3864 C   0  0  0  0  0  0  0  0  0  0  0  0
  145.5978  132.0868  150.8164 C   0  0  0  0  0  0  0  0  0  0  0  0
  145.7289  132.1814  152.3539 C   0  0  1  0  0  0  0  0  0  0  0  0
  148.8314  128.3322  152.8648 N   0  0  0  0  0  0  0  0  0  0  0  0
  148.1685  128.0895  151.7318 C   0  0  0  0  0  0  0  0  0  0  0  0
  147.9362  126.8039  151.5080 N   0  0  0  0  0  0  0  0  0  0  0  0
  148.5144  126.2698  152.6245 C   0  0  0  0  0  0  0  0  0  0  0  0
  149.0546  127.1417  153.4757 N   0  0  0  0  0  0  0  0  0  0  0  0
  150.2531  130.3638  155.2381 H   0  0  0  0  0  0  0  0  0  0  0  0
  150.8056  128.7770  154.7236 H   0  0  0  0  0  0  0  0  0  0  0  0
  149.2695  128.9413  155.5659 H   0  0  0  0  0  0  0  0  0  0  0  0
  149.9483  130.0627  152.7962 H   0  0  0  0  0  0  0  0  0  0  0  0
  148.9810  131.8923  152.4029 H   0  0  0  0  0  0  0  0  0  0  0  0
  147.4036  133.5447  152.1618 H   0  0  0  0  0  0  0  0  0  0  0  0
  146.6824  132.5752  154.9433 H   0  0  0  0  0  0  0  0  0  0  0  0
  147.4975  134.0811  154.5068 H   0  0  0  0  0  0  0  0  0  0  0  0
  144.8029  134.0894  154.8430 H   0  0  0  0  0  0  0  0  0  0  0  0
  145.5098  134.9590  153.4825 H   0  0  0  0  0  0  0  0  0  0  0  0
  143.0260  134.2948  152.5738 H   0  0  0  0  0  0  0  0  0  0  0  0
  144.3452  134.4950  151.4404 H   0  0  0  0  0  0  0  0  0  0  0  0
  142.4231  132.1258  151.6412 H   0  0  0  0  0  0  0  0  0  0  0  0
  142.5414  133.2554  150.3215 H   0  0  0  0  0  0  0  0  0  0  0  0
  143.9055  130.7629  150.6257 H   0  0  0  0  0  0  0  0  0  0  0  0
  144.0670  131.8845  149.3027 H   0  0  0  0  0  0  0  0  0  0  0  0
  146.2578  131.3106  150.4291 H   0  0  0  0  0  0  0  0  0  0  0  0
  145.9286  133.0189  150.3559 H   0  0  0  0  0  0  0  0  0  0  0  0
  145.5695  131.1924  152.7872 H   0  0  0  0  0  0  0  0  0  0  0  0
  147.8445  128.8697  151.0588 H   0  0  0  0  0  0  0  0  0  0  0  0
  148.5308  125.2077  152.8197 H   0  0  0  0  0  0  0  0  0  0  0  0
  144.1192  132.4571  153.5211 H   0  0  0  0  0  0  0  0  0  0  0  0
  1  2  1  0  0  0  0
  1 20  1  0  0  0  0
  1 21  1  0  0  0  0
  1 22  1  0  0  0  0
  2  3  1  0  0  0  0
  2 15  1  0  0  0  0
  2 23  1  0  0  0  0
  3  4  2  0  0  0  0
  3  5  1  0  0  0  0
  5  6  1  0  0  0  0
  5 24  1  0  0  0  0
  6 14  1  0  0  0  0
  6  7  1  0  0  0  0
  6 25  1  0  0  0  0
  7  8  1  0  0  0  0
  7 26  1  0  0  0  0
  7 27  1  0  0  0  0
  8  9  1  0  0  0  0
  8 28  1  0  0  0  0
  8 29  1  0  0  0  0
  9 14  1  0  0  0  0
  9 10  1  0  0  0  0
  9 41  1  0  0  0  0
 10 11  1  0  0  0  0
 10 30  1  0  0  0  0
 10 31  1  0  0  0  0
 11 12  1  0  0  0  0
 11 32  1  0  0  0  0
 11 33  1  0  0  0  0
 12 13  1  0  0  0  0
 12 34  1  0  0  0  0
 12 35  1  0  0  0  0
 13 14  1  0  0  0  0
 13 36  1  0  0  0  0
 13 37  1  0  0  0  0
 14 38  1  0  0  0  0
 15 19  1  0  0  0  0
 15 16  1  0  0  0  0
 16 17  2  0  0  0  0
 16 39  1  0  0  0  0
 17 18  1  0  0  0  0
 18 19  2  0  0  0  0
 18 40  1  0  0  0  0
M  CHG  1   9   1
M  END
> <s_m_source_file>
AV-unprocessed.smi

> <i_m_source_file_index>
1406

> <i_lp_mmshare_version>
43012

> <i_f3d_flags>
0

> <s_epik_input>
bjFbY0hdbltjSF1uMVtDQEhdKFtDSDNdKUMoPU8pW05IXVtDQEhdKFtDSDJdW0NIMl0yKVtDQEBIXShOMjMpW0NIMl1bQ0gyXVtDSDJdW0NIMl0z

> <s_epik_cmdline>
J2VwaWtfcHl0aG9uJywgJy1waCcsICc3LjAnLCAnLXRuJywgJzgnLCAnLW1hJywgJzIwMCcsICctbWV0YWxfYmluZGluZycsICctaW1hZScsICc8aW5maWxlLm1hZT4nLCAnLW9tYWUnLCAnPG91dGZpbGUubWFlPic=

> <r_lp_tautomer_probability>
1

> <r_epik_Ionization_Penalty>
0.00197066

> <r_epik_Ionization_Penalty_Charging>
0.00196223

> <r_epik_Ionization_Penalty_Neutral>
8.43107e-06

> <r_epik_State_Penalty>
0.00133866

> <r_epik_Charging_Adjusted_Penalty>
0.00330089

> <i_epik_Tot_Q>
1

> <i_epik_Tot_abs_Q>
1

> <r_epik_Metal_State_Penalty>
-0

> <b_epik_Metal_Only>
0

> <s_lp_Force_Field>
OPLS_2005

> <r_lp_Energy>
45.3265

> <b_lp_Chiralities_Consistent>
1

> <s_lp_Variant>
AV-unprocessed.smi:1406-1

> <Gold.Version>
5.8.1

> <Gold.Id.Protein>
6NUR|6NUR_protein|mol2

> <Gold.PLP.Fitness>
38.9586

> <Gold.PLP.PLP>
-29.9719

> <Gold.PLP.part.hbond>
-2.0000

> <Gold.PLP.part.metal>
0.0000

> <Gold.PLP.part.buried>
-4.6397

> <Gold.PLP.part.nonpolar>
-24.0301

> <Gold.PLP.part.repulsive>
0.2819

> <Gold.PLP.ligand.clash>
0.0000

> <Gold.PLP.ligand.torsion>
0.1399

> <Gold.PLP.Chemscore.Hbond>
2.0546

> <Gold.PLP.Chemscore.CHOScore>
1.0000

> <Gold.PLP.Chemscore.Metal>
0.0000

> <Gold.Chemscore.Hbonds>
donor molecule, donor type, donor heavy atom, donor atom, acceptor molecule, acceptor atom, score
      L1  H     5    24       P1 10747  0.05
      L1  H     9    41       P1 10957  2.00
      L1  C    16    39       P1 10747  1.00

> <Gold.PLP.Chemscore.Internal.Correction>
0.1027

> <Gold.Rescore>
     Score         DG    S(hbond)    S(metal)    S(lipo)     H(rot)  DE(clash)    DE(int)     intcor
     10.58     -11.92       1.38        0.00      56.91       1.89       0.08       1.26       ----

> <Gold.Chemscore.Fitness>
10.5772

> <Gold.Chemscore.DG>
-11.9170

> <Gold.Chemscore.ZeroCoef>
-5.4800

> <Gold.Chemscore.Hbond>
1.3797

> <Gold.Chemscore.Metal>
0.0000

> <Gold.Chemscore.Lipo>
56.9083

> <Gold.Chemscore.Internal_Hbond>
0.0000

> <Gold.Chemscore.DEClash>
0.0847

> <Gold.Chemscore.DEInternal>
1.2551

> <Gold.Chemscore.Rot>
1.8865

> <Gold.Chemscore.Internal.Correction>
   9.000000E+99

> <Gold.Chemscore.Hbonds>
donor molecule, donor type, donor heavy atom, donor atom, acceptor molecule, acceptor atom, score
      L1  H     5    24       P1 10747  0.05
      L1  H     9    41       P1 10957  0.24

> <Gold.Chemscore.Hbond.Weighted>
-4.6083

> <Gold.Chemscore.Metal.Weighted>
-0.0000

> <Gold.Chemscore.Lipo.Weighted>
-6.6583

> <Gold.Chemscore.Internal_Hbond.Weighted>
0.0000

> <Gold.Chemscore.DEClash.Weighted>
0.0847

> <Gold.Chemscore.DEInternal.Weighted>
1.2551

> <Gold.Chemscore.Rot.Weighted>
4.8295

> <Gold.Chemscore.Internal.Correction.Weighted>
   9.000000E+99

> <Gold.Protein.RotatedTorsions>
[ 6907 6896 6895 6894 ] final -151.41 input  -60.11 | X-H torsion
[ 7974 7965 7964 7962 ] final  -50.68 input  175.53 | X-H torsion
[ 8008 7997 7996 7995 ] final   21.84 input   59.86 | X-H torsion
[ 10167 10162 10161 10158 ] final   92.39 input  -65.29 | X-H torsion
[ 10718 10713 10712 10709 ] final -151.87 input   66.30 | X-H torsion
[ 10763 10752 10751 10750 ] final  -74.24 input  -60.55 | X-H torsion
[ 11005 11000 10999 10996 ] final  -90.90 input  -57.11 | X-H torsion

> <Gold.Protein.ActiveResidues>
 VAL166  LYS551  ARG553  GLY616  TRP617  ASP618  TYR619  PRO620  LYS621  CYS622 
 ASP623  PHE694  ASN695  SER759  ASP760  ASP761  ALA762  ILE779  LEU786  VAL792 
 PHE793  MET794  SER795  GLU796  ALA797  LYS798  CYS799  TRP800  GLU811  SER814 

> <Gold.Protein.RotatedAtoms>
  151.2128  133.4546  159.2598 H   0  0  0  0  0  0  0  0  0  0  0  0  # atno 6907 bound_to 6896
  151.0960  134.9944  159.8436 H   0  0  0  0  0  0  0  0  0  0  0  0  # atno 6908 bound_to 6896
  152.5439  134.2058  159.8783 H   0  0  0  0  0  0  0  0  0  0  0  0  # atno 6909 bound_to 6896
  145.9273  140.7781  142.9617 H   0  0  0  0  0  0  0  0  0  0  0  0  # atno 7974 bound_to 7965
  154.9567  140.3073  155.5049 H   0  0  0  0  0  0  0  0  0  0  0  0  # atno 8008 bound_to 7997
  156.2981  140.2309  156.4588 H   0  0  0  0  0  0  0  0  0  0  0  0  # atno 8009 bound_to 7997
  154.8003  140.0434  157.1256 H   0  0  0  0  0  0  0  0  0  0  0  0  # atno 8010 bound_to 7997
  139.8281  144.6700  150.9433 H   0  0  0  0  0  0  0  0  0  0  0  0  # atno 10167 bound_to 10162
  156.4649  130.8231  151.2461 H   0  0  0  0  0  0  0  0  0  0  0  0  # atno 10718 bound_to 10713
  154.4704  135.5871  153.6318 H   0  0  0  0  0  0  0  0  0  0  0  0  # atno 10763 bound_to 10752
  152.9834  135.6065  154.3374 H   0  0  0  0  0  0  0  0  0  0  0  0  # atno 10764 bound_to 10752
  154.3255  135.2843  155.2477 H   0  0  0  0  0  0  0  0  0  0  0  0  # atno 10765 bound_to 10752
  141.1556  133.7721  156.9803 H   0  0  0  0  0  0  0  0  0  0  0  0  # atno 11005 bound_to 11000
  144.6760  140.2070  143.7381 LP  0  0  0  0  0  0  0  0  0  0  0  0  # atno 17320 bound_to 7965
  145.8473  139.2158  143.1793 LP  0  0  0  0  0  0  0  0  0  0  0  0  # atno 17321 bound_to 7965
  140.7808  143.4026  151.1123 LP  0  0  0  0  0  0  0  0  0  0  0  0  # atno 17342 bound_to 10162
  139.7682  143.8533  152.3115 LP  0  0  0  0  0  0  0  0  0  0  0  0  # atno 17343 bound_to 10162
  157.7495  131.0095  150.3270 LP  0  0  0  0  0  0  0  0  0  0  0  0  # atno 17370 bound_to 10713
  156.3678  130.3858  149.7199 LP  0  0  0  0  0  0  0  0  0  0  0  0  # atno 17371 bound_to 10713
  140.1070  134.9500  157.2009 LP  0  0  0  0  0  0  0  0  0  0  0  0  # atno 17394 bound_to 11000
  140.3243  134.2881  155.7240 LP  0  0  0  0  0  0  0  0  0  0  0  0  # atno 17395 bound_to 11000

$$$$
