#       Name:                AV-unprocessed.smi:2382
#       Creating user name   scv26
#       Creation time:       Fri Mar 27 13:08:55 2020


#       File generated by GOLD software.
#

@<TRIPOS>MOLECULE
AV-unprocessed.smi:2382
    40    41     1
SMALL
NO_CHARGES


@<TRIPOS>ATOM
      1 ****        -2.2328   2.3532   0.9595 C.3            1 S1                 0.0000
      2 ****        -2.5840   0.9046   0.8974 C.2            1 S1                 0.0000
      3 ****        -3.8511   0.4155   0.9682 N.pl3          1 S1                 1.0000
      4 ****        -3.8363  -0.9230   0.8827 N.pl3          1 S1                 0.0000
      5 ****        -5.1044  -1.6506   0.9367 C.3            1 S1                 0.0000
      6 ****        -2.5562  -1.3721   0.7463 C.2            1 S1                 0.0000
      7 ****        -2.1677  -2.8084   0.6147 C.3            1 S1                 0.0000
      8 ****        -1.7615  -0.2192   0.7625 C.2            1 S1                 0.0000
      9 ****        -0.2659  -0.1829   0.6479 C.3            1 S1                 0.0000
     10 ****         0.1972  -0.0860  -0.8149 C.3            1 S1                 0.0000
     11 ****         1.6499  -0.0211  -0.9146 N.am           1 S1                 0.0000
     12 ****         2.3828   1.0867  -0.7206 C.2            1 S1                 0.0000
     13 ****         1.9032   2.1765  -0.4088 O.2            1 S1                 0.0000
     14 ****         3.7029   0.8735  -0.8391 N.am           1 S1                 0.0000
     15 ****         4.4650  -0.1536  -1.5419 C.3            1 S1                 0.0000
     16 ****         5.7122   0.6378  -1.1528 C.3            1 S1                 0.0000
     17 ****         4.8120   1.8165  -0.7866 C.3            1 S1                 0.0000
     18 ****        -1.5184   2.6021   0.1742 H              1 S1                 0.0000
     19 ****        -1.7843   2.5890   1.9248 H              1 S1                 0.0000
     20 ****        -3.1218   2.9706   0.8273 H              1 S1                 0.0000
     21 ****        -4.9525  -2.6037   1.4443 H              1 S1                 0.0000
     22 ****        -5.4549  -1.8297  -0.0802 H              1 S1                 0.0000
     23 ****        -5.8464  -1.0674   1.4842 H              1 S1                 0.0000
     24 ****        -1.1873  -2.9005   0.1475 H              1 S1                 0.0000
     25 ****        -2.8897  -3.3444  -0.0018 H              1 S1                 0.0000
     26 ****        -2.1305  -3.2775   1.5979 H              1 S1                 0.0000
     27 ****         0.1246   0.6629   1.2150 H              1 S1                 0.0000
     28 ****         0.1689  -1.0696   1.1107 H              1 S1                 0.0000
     29 ****        -0.1440  -0.9578  -1.3737 H              1 S1                 0.0000
     30 ****        -0.2451   0.7860  -1.2998 H              1 S1                 0.0000
     31 ****         2.1344  -0.8758  -1.1477 H              1 S1                 0.0000
     32 ****         4.4183  -1.1463  -1.0927 H              1 S1                 0.0000
     33 ****         4.2799  -0.1805  -2.6169 H              1 S1                 0.0000
     34 ****         6.2299   0.2159  -0.2897 H              1 S1                 0.0000
     35 ****         6.3966   0.8339  -1.9788 H              1 S1                 0.0000
     36 ****         4.7676   2.5904  -1.5544 H              1 S1                 0.0000
     37 ****         5.0108   2.2321   0.2019 H              1 S1                 0.0000
     38 ****        -4.7202   0.9245   1.0700 H              1 S1                 0.0000
     39 ****         0.9152   2.2713  -0.2863 LP             1 S1                 0.0000
     40 ****         2.5014   2.9670  -0.2779 LP             1 S1                 0.0000
@<TRIPOS>BOND
    1    1    2 1     
    2    1   18 1     
    3    1   19 1     
    4    1   20 1     
    5    2    8 1     
    6    2    3 2     
    7    3    4 1     
    8    3   38 1     
    9    4    5 1     
   10    4    6 1     
   11    5   21 1     
   12    5   22 1     
   13    5   23 1     
   14    6    7 1     
   15    6    8 2     
   16    7   24 1     
   17    7   25 1     
   18    7   26 1     
   19    8    9 1     
   20    9   10 1     
   21    9   27 1     
   22    9   28 1     
   23   10   11 1     
   24   10   29 1     
   25   10   30 1     
   26   11   12 am    
   27   11   31 1     
   28   12   13 2     
   29   12   14 am    
   30   14   17 1     
   31   14   15 1     
   32   15   16 1     
   33   15   32 1     
   34   15   33 1     
   35   16   17 1     
   36   16   34 1     
   37   16   35 1     
   38   17   36 1     
   39   17   37 1     
   40   13   39 1     
   41   13   40 1     
@<TRIPOS>SUBSTRUCTURE
      1 S1             1
@<TRIPOS>SET
LONE_PAIRS      STATIC     ATOMS    <user>   **** ""
2 39 40
DONOR_HYDROGENS      STATIC     ATOMS    <user>   **** ""
2 38 31
ATOM$BLUE        STATIC     ATOMS    COLORGROUP SYSTEM
2 39 40
ATOM$RED        STATIC     ATOMS    COLORGROUP SYSTEM
2 38 31
