AV-unprocessed.smi:781|AV-procd|sdf|3707|dock10
  -GOLD-   22720 1133D 1   1.00000     0.00000
 Structure written by MMmdl.
 38 40  0  0  0  0  0  0  0  0  1 V2000
  153.4702  142.0271  160.8037 C   0  0  0  0  0  0  0  0  0  0  0  0
  152.6735  142.5834  159.6739 C   0  0  0  0  0  0  0  0  0  0  0  0
  151.8139  142.0180  158.7747 C   0  0  0  0  0  0  0  0  0  0  0  0
  151.4119  143.1228  157.9779 C   0  0  0  0  0  0  0  0  0  0  0  0
  150.4987  142.9525  156.9066 N   0  0  0  0  0  0  0  0  0  0  0  0
  150.2664  141.8352  156.1970 C   0  0  0  0  0  0  0  0  0  0  0  0
  150.8270  140.7529  156.3720 O   0  0  0  0  0  0  0  0  0  0  0  0
  149.3330  142.0427  155.2578 N   0  0  0  0  0  0  0  0  0  0  0  0
  148.8450  141.0337  154.3211 C   0  0  2  0  0  0  0  0  0  0  0  0
  147.4600  141.4361  153.7682 C   0  0  1  0  0  0  0  0  0  0  0  0
  147.1622  140.5910  152.5167 C   0  0  0  0  0  0  0  0  0  0  0  0
  146.8776  139.2003  153.1147 C   0  0  0  0  0  0  0  0  0  0  0  0
  147.0689  139.4282  154.6298 C   0  0  2  0  0  0  0  0  0  0  0  0
  146.4967  140.8314  154.7861 C   0  0  0  0  0  0  0  0  0  0  0  0
  148.5532  139.6714  155.0016 C   0  0  1  0  0  0  0  0  0  0  0  0
  149.5426  138.5525  154.6213 C   0  0  0  0  0  0  0  0  0  0  0  0
  149.8200  138.5907  153.2374 O   0  0  0  0  0  0  0  0  0  0  0  0
  151.9758  144.2599  158.3556 N   0  0  0  0  0  0  0  0  0  0  0  0
  152.7878  143.9199  159.4443 O   0  0  0  0  0  0  0  0  0  0  0  0
  153.1278  141.0258  161.0655 H   0  0  0  0  0  0  0  0  0  0  0  0
  153.3790  142.6560  161.6894 H   0  0  0  0  0  0  0  0  0  0  0  0
  154.5256  141.9657  160.5385 H   0  0  0  0  0  0  0  0  0  0  0  0
  151.5213  140.9811  158.7012 H   0  0  0  0  0  0  0  0  0  0  0  0
  149.9653  143.7704  156.6519 H   0  0  0  0  0  0  0  0  0  0  0  0
  148.9241  142.9628  155.1864 H   0  0  0  0  0  0  0  0  0  0  0  0
  149.5599  140.9337  153.5017 H   0  0  0  0  0  0  0  0  0  0  0  0
  147.3422  142.5072  153.5990 H   0  0  0  0  0  0  0  0  0  0  0  0
  146.2840  140.9690  151.9919 H   0  0  0  0  0  0  0  0  0  0  0  0
  147.9935  140.5808  151.8107 H   0  0  0  0  0  0  0  0  0  0  0  0
  145.8489  138.9055  152.9038 H   0  0  0  0  0  0  0  0  0  0  0  0
  147.5228  138.4236  152.7067 H   0  0  0  0  0  0  0  0  0  0  0  0
  146.5849  138.6719  155.2484 H   0  0  0  0  0  0  0  0  0  0  0  0
  146.6136  141.2395  155.7916 H   0  0  0  0  0  0  0  0  0  0  0  0
  145.4488  140.9092  154.4908 H   0  0  0  0  0  0  0  0  0  0  0  0
  148.6012  139.7948  156.0857 H   0  0  0  0  0  0  0  0  0  0  0  0
  150.4731  138.6191  155.1836 H   0  0  0  0  0  0  0  0  0  0  0  0
  149.1088  137.5800  154.8541 H   0  0  0  0  0  0  0  0  0  0  0  0
  149.5028  137.7910  152.8462 H   0  0  0  0  0  0  0  0  0  0  0  0
  1  2  1  0  0  0  0
  1 20  1  0  0  0  0
  1 21  1  0  0  0  0
  1 22  1  0  0  0  0
  2 19  1  0  0  0  0
  2  3  2  0  0  0  0
  3  4  1  0  0  0  0
  3 23  1  0  0  0  0
  4  5  1  0  0  0  0
  4 18  2  0  0  0  0
  5  6  1  0  0  0  0
  5 24  1  0  0  0  0
  6  7  2  0  0  0  0
  6  8  1  0  0  0  0
  8  9  1  0  0  0  0
  8 25  1  0  0  0  0
  9 15  1  0  0  0  0
  9 10  1  0  0  0  0
  9 26  1  0  0  0  0
 10 14  1  0  0  0  0
 10 11  1  0  0  0  0
 10 27  1  0  0  0  0
 11 12  1  0  0  0  0
 11 28  1  0  0  0  0
 11 29  1  0  0  0  0
 12 13  1  0  0  0  0
 12 30  1  0  0  0  0
 12 31  1  0  0  0  0
 13 14  1  0  0  0  0
 13 15  1  0  0  0  0
 13 32  1  0  0  0  0
 14 33  1  0  0  0  0
 14 34  1  0  0  0  0
 15 16  1  0  0  0  0
 15 35  1  0  0  0  0
 16 17  1  0  0  0  0
 16 36  1  0  0  0  0
 16 37  1  0  0  0  0
 17 38  1  0  0  0  0
 18 19  1  0  0  0  0
M  END
> <s_m_source_file>
AV-unprocessed.smi

> <i_m_source_file_index>
781

> <i_lp_mmshare_version>
43012

> <i_f3d_flags>
0

> <s_epik_input>
W0NIM11jMVtjSF1jKG5vMSlbTkhdQyg9TylbTkhdW0NASF0oW0NAQEhdMjMpW0NASF0oW0NIMl1bT0hdKVtDQEBIXShbQ0gyXTMpW0NIMl1bQ0gyXTI=

> <s_epik_cmdline>
J2VwaWtfcHl0aG9uJywgJy1waCcsICc3LjAnLCAnLXRuJywgJzgnLCAnLW1hJywgJzIwMCcsICctbWV0YWxfYmluZGluZycsICctaW1hZScsICc8aW5maWxlLm1hZT4nLCAnLW9tYWUnLCAnPG91dGZpbGUubWFlPic=

> <r_lp_tautomer_probability>
1

> <r_epik_Ionization_Penalty>
2.32222e-05

> <r_epik_Ionization_Penalty_Charging>
0

> <r_epik_Ionization_Penalty_Neutral>
2.32222e-05

> <r_epik_State_Penalty>
-0

> <r_epik_Charging_Adjusted_Penalty>
0

> <i_epik_Tot_Q>
0

> <i_epik_Tot_abs_Q>
0

> <r_epik_Metal_State_Penalty>
-0

> <b_epik_Metal_Only>
0

> <s_lp_Force_Field>
OPLS_2005

> <r_lp_Energy>
47.0606

> <b_lp_Chiralities_Consistent>
1

> <s_lp_Variant>
AV-unprocessed.smi:781-1

> <Gold.Version>
5.8.1

> <Gold.Id.Protein>
6NUR|6NUR_protein|mol2

> <Gold.PLP.Fitness>
43.8087

> <Gold.PLP.PLP>
-35.8392

> <Gold.PLP.part.hbond>
-4.0000

> <Gold.PLP.part.metal>
0.0000

> <Gold.PLP.part.buried>
-5.8048

> <Gold.PLP.part.nonpolar>
-26.3976

> <Gold.PLP.part.repulsive>
0.3120

> <Gold.PLP.ligand.clash>
0.0000

> <Gold.PLP.ligand.torsion>
0.5245

> <Gold.PLP.Chemscore.Hbond>
3.0000

> <Gold.PLP.Chemscore.CHOScore>
0.0000

> <Gold.PLP.Chemscore.Metal>
0.0000

> <Gold.Chemscore.Hbonds>
donor molecule, donor type, donor heavy atom, donor atom, acceptor molecule, acceptor atom, score
      L1  H     5    24       P1  8028  1.00
      L1  H     8    25       P1  8028  1.00
      L1  H    17    38       P1  7948  1.00

> <Gold.PLP.Chemscore.Internal.Correction>
0.0185

> <Gold.Rescore>
     Score         DG    S(hbond)    S(metal)    S(lipo)     H(rot)  DE(clash)    DE(int)     intcor
     16.17     -19.42       2.92        0.00      76.49       1.86       0.15       3.10       ----

> <Gold.Chemscore.Fitness>
16.1674

> <Gold.Chemscore.DG>
-19.4239

> <Gold.Chemscore.ZeroCoef>
-5.4800

> <Gold.Chemscore.Hbond>
2.9200

> <Gold.Chemscore.Metal>
0.0000

> <Gold.Chemscore.Lipo>
76.4898

> <Gold.Chemscore.Internal_Hbond>
0.0000

> <Gold.Chemscore.DEClash>
0.1548

> <Gold.Chemscore.DEInternal>
3.1017

> <Gold.Chemscore.Rot>
1.8587

> <Gold.Chemscore.Internal.Correction>
   9.000000E+99

> <Gold.Chemscore.Hbonds>
donor molecule, donor type, donor heavy atom, donor atom, acceptor molecule, acceptor atom, score
      L1  H     5    24       P1  8028  0.99
      L1  H     8    25       P1  8028  0.96
      L1  H    17    38       P1  7948  0.82

> <Gold.Chemscore.Hbond.Weighted>
-9.7529

> <Gold.Chemscore.Metal.Weighted>
-0.0000

> <Gold.Chemscore.Lipo.Weighted>
-8.9493

> <Gold.Chemscore.Internal_Hbond.Weighted>
0.0000

> <Gold.Chemscore.DEClash.Weighted>
0.1548

> <Gold.Chemscore.DEInternal.Weighted>
3.1017

> <Gold.Chemscore.Rot.Weighted>
4.7583

> <Gold.Chemscore.Internal.Correction.Weighted>
   9.000000E+99

> <Gold.Protein.RotatedTorsions>
[ 6907 6896 6895 6894 ] final -173.03 input  -60.11 | X-H torsion
[ 7974 7965 7964 7962 ] final  125.41 input  175.53 | X-H torsion
[ 8008 7997 7996 7995 ] final -101.24 input   59.86 | X-H torsion
[ 10167 10162 10161 10158 ] final  -60.21 input  -65.29 | X-H torsion
[ 10718 10713 10712 10709 ] final  -21.83 input   66.30 | X-H torsion
[ 10763 10752 10751 10750 ] final  -79.81 input  -60.55 | X-H torsion
[ 11005 11000 10999 10996 ] final -101.05 input  -57.11 | X-H torsion

> <Gold.Protein.ActiveResidues>
 VAL166  LYS551  ARG553  GLY616  TRP617  ASP618  TYR619  PRO620  LYS621  CYS622 
 ASP623  PHE694  ASN695  SER759  ASP760  ASP761  ALA762  ILE779  LEU786  VAL792 
 PHE793  MET794  SER795  GLU796  ALA797  LYS798  CYS799  TRP800  GLU811  SER814 

> <Gold.Protein.RotatedAtoms>
  151.5496  133.3419  159.2950 H   0  0  0  0  0  0  0  0  0  0  0  0  # atno 6907 bound_to 6896
  150.8487  134.7807  159.7002 H   0  0  0  0  0  0  0  0  0  0  0  0  # atno 6908 bound_to 6896
  152.4538  134.5344  159.9872 H   0  0  0  0  0  0  0  0  0  0  0  0  # atno 6909 bound_to 6896
  145.0733  139.3713  143.4946 H   0  0  0  0  0  0  0  0  0  0  0  0  # atno 7974 bound_to 7965
  154.8398  140.0435  157.1534 H   0  0  0  0  0  0  0  0  0  0  0  0  # atno 8008 bound_to 7997
  154.9059  140.3007  155.5272 H   0  0  0  0  0  0  0  0  0  0  0  0  # atno 8009 bound_to 7997
  156.2991  140.2367  156.4093 H   0  0  0  0  0  0  0  0  0  0  0  0  # atno 8010 bound_to 7997
  140.6085  143.2380  151.5764 H   0  0  0  0  0  0  0  0  0  0  0  0  # atno 10167 bound_to 10162
  156.5128  130.4614  149.6638 H   0  0  0  0  0  0  0  0  0  0  0  0  # atno 10718 bound_to 10713
  154.5433  135.5683  153.6858 H   0  0  0  0  0  0  0  0  0  0  0  0  # atno 10763 bound_to 10752
  152.9969  135.6233  154.2473 H   0  0  0  0  0  0  0  0  0  0  0  0  # atno 10764 bound_to 10752
  154.2404  135.2862  155.2835 H   0  0  0  0  0  0  0  0  0  0  0  0  # atno 10765 bound_to 10752
  141.1246  133.8447  157.1182 H   0  0  0  0  0  0  0  0  0  0  0  0  # atno 11005 bound_to 11000
  146.3529  140.0489  142.8637 LP  0  0  0  0  0  0  0  0  0  0  0  0  # atno 17320 bound_to 7965
  145.1266  140.9493  143.4569 LP  0  0  0  0  0  0  0  0  0  0  0  0  # atno 17321 bound_to 7965
  139.5343  144.2825  152.1218 LP  0  0  0  0  0  0  0  0  0  0  0  0  # atno 17342 bound_to 10162
  140.2019  144.4649  150.6427 LP  0  0  0  0  0  0  0  0  0  0  0  0  # atno 17343 bound_to 10162
  156.3223  130.7287  151.2201 LP  0  0  0  0  0  0  0  0  0  0  0  0  # atno 17370 bound_to 10713
  157.7448  131.0452  150.4832 LP  0  0  0  0  0  0  0  0  0  0  0  0  # atno 17371 bound_to 10713
  140.0233  134.9935  157.0636 LP  0  0  0  0  0  0  0  0  0  0  0  0  # atno 17394 bound_to 11000
  140.4404  134.1687  155.7173 LP  0  0  0  0  0  0  0  0  0  0  0  0  # atno 17395 bound_to 11000

$$$$
