AV-unprocessed.smi:1814|AV-procd|sdf|7349|dock9
  -GOLD-   22720 9 13D 1   1.00000     0.00000
 Structure written by MMmdl.
 31 32  0  0  0  0  0  0  0  0  1 V2000
  150.9209  140.6350  156.2562 O   0  0  0  0  0  0  0  0  0  0  0  0
  150.3701  141.7352  156.2048 C   0  0  0  0  0  0  0  0  0  0  0  0
  150.6309  142.7736  157.0183 N   0  0  0  0  0  0  0  0  0  0  0  0
  151.5699  142.8419  158.0808 C   0  0  0  0  0  0  0  0  0  0  0  0
  152.2375  141.7893  158.5680 N   0  0  0  0  0  0  0  0  0  0  0  0
  153.0957  142.1487  159.6100 C   0  0  0  0  0  0  0  0  0  0  0  0
  153.0694  143.4891  159.9053 C   0  0  0  0  0  0  0  0  0  0  0  0
  151.9565  144.3576  158.8822 S   0  0  0  0  0  0  0  0  0  0  0  0
  149.4217  142.0465  155.3091 N   0  0  0  0  0  0  0  0  0  0  0  0
  148.9097  141.1489  154.2776 C   0  0  2  0  0  0  0  0  0  0  0  0
  147.5947  141.6946  153.6850 C   0  0  0  0  0  0  0  0  0  0  0  0
  147.0036  140.7327  152.6391 C   0  0  0  0  0  0  0  0  0  0  0  0
  146.8190  139.3068  153.1923 C   0  0  2  0  0  0  0  0  0  0  0  0
  145.7699  139.2849  154.1404 O   0  0  0  0  0  0  0  0  0  0  0  0
  148.1161  138.7735  153.8292 C   0  0  0  0  0  0  0  0  0  0  0  0
  148.6958  139.7451  154.8722 C   0  0  0  0  0  0  0  0  0  0  0  0
  150.1011  143.6166  156.8540 H   0  0  0  0  0  0  0  0  0  0  0  0
  153.6916  141.3841  160.0863 H   0  0  0  0  0  0  0  0  0  0  0  0
  153.6350  144.0153  160.6598 H   0  0  0  0  0  0  0  0  0  0  0  0
  149.0244  142.9739  155.3399 H   0  0  0  0  0  0  0  0  0  0  0  0
  149.6499  141.0679  153.4792 H   0  0  0  0  0  0  0  0  0  0  0  0
  146.8685  141.8555  154.4830 H   0  0  0  0  0  0  0  0  0  0  0  0
  147.7646  142.6689  153.2249 H   0  0  0  0  0  0  0  0  0  0  0  0
  146.0547  141.1208  152.2668 H   0  0  0  0  0  0  0  0  0  0  0  0
  147.6733  140.6947  151.7789 H   0  0  0  0  0  0  0  0  0  0  0  0
  146.5239  138.6444  152.3780 H   0  0  0  0  0  0  0  0  0  0  0  0
  145.0013  139.6698  153.7474 H   0  0  0  0  0  0  0  0  0  0  0  0
  147.9416  137.7969  154.2823 H   0  0  0  0  0  0  0  0  0  0  0  0
  148.8577  138.6156  153.0450 H   0  0  0  0  0  0  0  0  0  0  0  0
  149.6401  139.3523  155.2511 H   0  0  0  0  0  0  0  0  0  0  0  0
  148.0222  139.8036  155.7284 H   0  0  0  0  0  0  0  0  0  0  0  0
  1  2  2  0  0  0  0
  2  3  1  0  0  0  0
  2  9  1  0  0  0  0
  3  4  1  0  0  0  0
  3 17  1  0  0  0  0
  4  8  1  0  0  0  0
  4  5  2  0  0  0  0
  5  6  1  0  0  0  0
  6  7  2  0  0  0  0
  6 18  1  0  0  0  0
  7  8  1  0  0  0  0
  7 19  1  0  0  0  0
  9 10  1  0  0  0  0
  9 20  1  0  0  0  0
 10 16  1  0  0  0  0
 10 11  1  0  0  0  0
 10 21  1  0  0  0  0
 11 12  1  0  0  0  0
 11 22  1  0  0  0  0
 11 23  1  0  0  0  0
 12 13  1  0  0  0  0
 12 24  1  0  0  0  0
 12 25  1  0  0  0  0
 13 14  1  0  0  0  0
 13 15  1  0  0  0  0
 13 26  1  0  0  0  0
 14 27  1  0  0  0  0
 15 16  1  0  0  0  0
 15 28  1  0  0  0  0
 15 29  1  0  0  0  0
 16 30  1  0  0  0  0
 16 31  1  0  0  0  0
M  END
> <s_m_source_file>
AV-unprocessed.smi

> <i_m_source_file_index>
1814

> <i_lp_mmshare_version>
43012

> <i_f3d_flags>
0

> <s_epik_input>
czFbY0hdW2NIXW5jMVtOSF1DKD1PKVtOSF1bQ0BASF0yW0NIMl1bQ0gyXVtDQEBIXShbT0hdKVtDSDJdW0NIMl0y

> <s_epik_cmdline>
J2VwaWtfcHl0aG9uJywgJy1waCcsICc3LjAnLCAnLXRuJywgJzgnLCAnLW1hJywgJzIwMCcsICctbWV0YWxfYmluZGluZycsICctaW1hZScsICc8aW5maWxlLm1hZT4nLCAnLW9tYWUnLCAnPG91dGZpbGUubWFlPic=

> <r_lp_tautomer_probability>
0.999

> <r_epik_Ionization_Penalty>
0.000428518

> <r_epik_Ionization_Penalty_Charging>
0

> <r_epik_Ionization_Penalty_Neutral>
0.000428518

> <r_epik_State_Penalty>
0.000177984

> <r_epik_Charging_Adjusted_Penalty>
0.000177984

> <i_epik_Tot_Q>
0

> <i_epik_Tot_abs_Q>
0

> <r_epik_Metal_State_Penalty>
-0

> <b_epik_Metal_Only>
0

> <s_lp_Force_Field>
OPLS_2005

> <r_lp_Energy>
9.0844

> <b_lp_Chiralities_Consistent>
1

> <s_lp_Variant>
AV-unprocessed.smi:1814-2

> <Gold.Version>
5.8.1

> <Gold.Id.Protein>
6NUR|6NUR_protein|mol2

> <Gold.PLP.Fitness>
41.7288

> <Gold.PLP.PLP>
-33.1885

> <Gold.PLP.part.hbond>
-3.0000

> <Gold.PLP.part.metal>
0.0000

> <Gold.PLP.part.buried>
-4.2986

> <Gold.PLP.part.nonpolar>
-26.3801

> <Gold.PLP.part.repulsive>
0.2275

> <Gold.PLP.ligand.clash>
0.0000

> <Gold.PLP.ligand.torsion>
0.2312

> <Gold.PLP.Chemscore.Hbond>
3.0000

> <Gold.PLP.Chemscore.CHOScore>
0.0000

> <Gold.PLP.Chemscore.Metal>
0.0000

> <Gold.Chemscore.Hbonds>
donor molecule, donor type, donor heavy atom, donor atom, acceptor molecule, acceptor atom, score
      L1  H     3    17       P1  8028  1.00
      L1  H     9    20       P1  8028  1.00
      L1  H    14    27       P1 10175  1.00

> <Gold.PLP.Chemscore.Internal.Correction>
0.0028

> <Gold.Rescore>
     Score         DG    S(hbond)    S(metal)    S(lipo)     H(rot)  DE(clash)    DE(int)     intcor
     17.56     -20.68       2.96        0.00      78.11       1.50       0.20       2.91       ----

> <Gold.Chemscore.Fitness>
17.5636

> <Gold.Chemscore.DG>
-20.6757

> <Gold.Chemscore.ZeroCoef>
-5.4800

> <Gold.Chemscore.Hbond>
2.9635

> <Gold.Chemscore.Metal>
0.0000

> <Gold.Chemscore.Lipo>
78.1123

> <Gold.Chemscore.Internal_Hbond>
0.0000

> <Gold.Chemscore.DEClash>
0.2015

> <Gold.Chemscore.DEInternal>
2.9106

> <Gold.Chemscore.Rot>
1.5006

> <Gold.Chemscore.Internal.Correction>
   9.000000E+99

> <Gold.Chemscore.Hbonds>
donor molecule, donor type, donor heavy atom, donor atom, acceptor molecule, acceptor atom, score
      L1  H     3    17       P1  8028  0.90
      L1  H     9    20       P1  8028  1.00
      L1  H    14    27       P1 10175  0.96

> <Gold.Chemscore.Hbond.Weighted>
-9.8981

> <Gold.Chemscore.Metal.Weighted>
-0.0000

> <Gold.Chemscore.Lipo.Weighted>
-9.1391

> <Gold.Chemscore.Internal_Hbond.Weighted>
0.0000

> <Gold.Chemscore.DEClash.Weighted>
0.2015

> <Gold.Chemscore.DEInternal.Weighted>
2.9106

> <Gold.Chemscore.Rot.Weighted>
3.8415

> <Gold.Chemscore.Internal.Correction.Weighted>
   9.000000E+99

> <Gold.Protein.RotatedTorsions>
[ 6907 6896 6895 6894 ] final   64.55 input  -60.11 | X-H torsion
[ 7974 7965 7964 7962 ] final -168.88 input  175.53 | X-H torsion
[ 8008 7997 7996 7995 ] final  141.52 input   59.86 | X-H torsion
[ 10167 10162 10161 10158 ] final  136.96 input  -65.29 | X-H torsion
[ 10718 10713 10712 10709 ] final  -23.32 input   66.30 | X-H torsion
[ 10763 10752 10751 10750 ] final  155.88 input  -60.55 | X-H torsion
[ 11005 11000 10999 10996 ] final   79.04 input  -57.11 | X-H torsion

> <Gold.Protein.ActiveResidues>
 VAL166  LYS551  ARG553  GLY616  TRP617  ASP618  TYR619  PRO620  LYS621  CYS622 
 ASP623  PHE694  ASN695  SER759  ASP760  ASP761  ALA762  ILE779  LEU786  VAL792 
 PHE793  MET794  SER795  GLU796  ALA797  LYS798  CYS799  TRP800  GLU811  SER814 

> <Gold.Protein.RotatedAtoms>
  152.4340  134.5722  159.9924 H   0  0  0  0  0  0  0  0  0  0  0  0  # atno 6907 bound_to 6896
  151.5837  133.3369  159.3021 H   0  0  0  0  0  0  0  0  0  0  0  0  # atno 6908 bound_to 6896
  150.8236  134.7492  159.6858 H   0  0  0  0  0  0  0  0  0  0  0  0  # atno 6909 bound_to 6896
  144.7195  140.2305  143.6305 H   0  0  0  0  0  0  0  0  0  0  0  0  # atno 7974 bound_to 7965
  156.2964  140.2313  156.4577 H   0  0  0  0  0  0  0  0  0  0  0  0  # atno 8008 bound_to 7997
  154.8045  140.0446  157.1318 H   0  0  0  0  0  0  0  0  0  0  0  0  # atno 8009 bound_to 7997
  154.9494  140.3040  155.5085 H   0  0  0  0  0  0  0  0  0  0  0  0  # atno 8010 bound_to 7997
  139.5161  144.6436  151.5501 H   0  0  0  0  0  0  0  0  0  0  0  0  # atno 10167 bound_to 10162
  156.4927  130.4570  149.6746 H   0  0  0  0  0  0  0  0  0  0  0  0  # atno 10718 bound_to 10713
  154.1754  135.2802  155.3068 H   0  0  0  0  0  0  0  0  0  0  0  0  # atno 10763 bound_to 10752
  154.6043  135.5519  153.7410 H   0  0  0  0  0  0  0  0  0  0  0  0  # atno 10764 bound_to 10752
  153.0153  135.6399  154.1894 H   0  0  0  0  0  0  0  0  0  0  0  0  # atno 10765 bound_to 10752
  139.9188  134.7811  156.1727 H   0  0  0  0  0  0  0  0  0  0  0  0  # atno 11005 bound_to 11000
  145.8415  139.2132  143.1824 LP  0  0  0  0  0  0  0  0  0  0  0  0  # atno 17320 bound_to 7965
  146.0342  140.8229  142.9861 LP  0  0  0  0  0  0  0  0  0  0  0  0  # atno 17321 bound_to 7965
  140.6212  143.9254  150.6528 LP  0  0  0  0  0  0  0  0  0  0  0  0  # atno 17342 bound_to 10162
  140.2528  143.3580  152.1390 LP  0  0  0  0  0  0  0  0  0  0  0  0  # atno 17343 bound_to 10162
  156.3410  130.7382  151.2327 LP  0  0  0  0  0  0  0  0  0  0  0  0  # atno 17370 bound_to 10713
  157.7472  131.0403  150.4593 LP  0  0  0  0  0  0  0  0  0  0  0  0  # atno 17371 bound_to 10713
  141.0690  133.6805  156.2103 LP  0  0  0  0  0  0  0  0  0  0  0  0  # atno 17394 bound_to 11000
  140.6538  134.5040  157.5579 LP  0  0  0  0  0  0  0  0  0  0  0  0  # atno 17395 bound_to 11000

$$$$
