AV-unprocessed.smi:681|AV-procd|sdf|3325|dock7
  -GOLD-   22720 0293D 1   1.00000     0.00000
 Structure written by MMmdl.
 41 42  0  0  0  0  0  0  0  0  1 V2000
  149.9096  133.8562  156.1641 C   0  0  0  0  0  0  0  0  0  0  0  0
  150.0512  135.2483  155.6513 C   0  0  0  0  0  0  0  0  0  0  0  0
  148.9853  136.0751  155.4444 N   0  0  0  0  0  0  0  0  0  0  0  0
  149.6107  137.1581  154.9956 C   0  0  0  0  0  0  0  0  0  0  0  0
  148.9229  138.4216  154.5929 C   0  0  0  0  0  0  0  0  0  0  0  0
  150.9415  137.0032  154.9348 N   0  0  0  0  0  0  0  0  0  0  0  0
  151.9908  137.9112  154.4994 C   0  0  0  0  0  0  0  0  0  0  0  0
  152.1093  139.1096  155.4418 C   0  0  0  0  0  0  0  0  0  0  0  0
  152.7625  140.0962  155.1030 O   0  0  0  0  0  0  0  0  0  0  0  0
  151.4767  139.0086  156.6211 N   0  0  0  0  0  0  0  0  0  0  0  0
  151.4833  140.0258  157.6648 C   0  0  0  0  0  0  0  0  0  0  0  0
  151.3142  141.4355  157.0726 C   0  0  0  0  0  0  0  0  0  0  0  0
  151.7658  142.5311  158.0240 C   0  0  0  0  0  0  0  0  0  0  0  0
  151.8018  143.8261  157.6538 C   0  0  0  0  0  0  0  0  0  0  0  0
  152.2272  144.9634  158.5661 C   0  0  0  0  0  0  0  0  0  0  0  0
  152.2824  144.5397  160.0432 C   0  0  0  0  0  0  0  0  0  0  0  0
  152.9432  143.1646  160.2006 C   0  0  0  0  0  0  0  0  0  0  0  0
  152.1744  142.0815  159.4227 C   0  0  0  0  0  0  0  0  0  0  0  0
  151.2474  135.7550  155.3633 N   0  0  0  0  0  0  0  0  0  0  0  0
  148.8687  133.6361  156.4029 H   0  0  0  0  0  0  0  0  0  0  0  0
  150.5057  133.7231  157.0671 H   0  0  0  0  0  0  0  0  0  0  0  0
  150.2494  133.1425  155.4134 H   0  0  0  0  0  0  0  0  0  0  0  0
  147.8530  138.3535  154.7925 H   0  0  0  0  0  0  0  0  0  0  0  0
  149.0657  138.6032  153.5278 H   0  0  0  0  0  0  0  0  0  0  0  0
  149.3250  139.2659  155.1528 H   0  0  0  0  0  0  0  0  0  0  0  0
  152.9375  137.3712  154.4600 H   0  0  0  0  0  0  0  0  0  0  0  0
  151.7788  138.2527  153.4849 H   0  0  0  0  0  0  0  0  0  0  0  0
  150.9686  138.1575  156.8153 H   0  0  0  0  0  0  0  0  0  0  0  0
  150.6988  139.8208  158.3958 H   0  0  0  0  0  0  0  0  0  0  0  0
  152.4315  139.9488  158.1970 H   0  0  0  0  0  0  0  0  0  0  0  0
  151.8794  141.5229  156.1440 H   0  0  0  0  0  0  0  0  0  0  0  0
  150.2680  141.5991  156.8096 H   0  0  0  0  0  0  0  0  0  0  0  0
  151.5238  144.1055  156.6479 H   0  0  0  0  0  0  0  0  0  0  0  0
  153.2068  145.3107  158.2367 H   0  0  0  0  0  0  0  0  0  0  0  0
  151.5367  145.7986  158.4456 H   0  0  0  0  0  0  0  0  0  0  0  0
  152.8180  145.2893  160.6266 H   0  0  0  0  0  0  0  0  0  0  0  0
  151.2704  144.4980  160.4482 H   0  0  0  0  0  0  0  0  0  0  0  0
  153.9693  143.2170  159.8345 H   0  0  0  0  0  0  0  0  0  0  0  0
  153.0056  142.8918  161.2546 H   0  0  0  0  0  0  0  0  0  0  0  0
  151.2718  141.8089  159.9702 H   0  0  0  0  0  0  0  0  0  0  0  0
  152.7859  141.1813  159.3532 H   0  0  0  0  0  0  0  0  0  0  0  0
  1  2  1  0  0  0  0
  1 20  1  0  0  0  0
  1 21  1  0  0  0  0
  1 22  1  0  0  0  0
  2 19  2  0  0  0  0
  2  3  1  0  0  0  0
  3  4  2  0  0  0  0
  4  5  1  0  0  0  0
  4  6  1  0  0  0  0
  5 23  1  0  0  0  0
  5 24  1  0  0  0  0
  5 25  1  0  0  0  0
  6  7  1  0  0  0  0
  6 19  1  0  0  0  0
  7  8  1  0  0  0  0
  7 26  1  0  0  0  0
  7 27  1  0  0  0  0
  8  9  2  0  0  0  0
  8 10  1  0  0  0  0
 10 11  1  0  0  0  0
 10 28  1  0  0  0  0
 11 12  1  0  0  0  0
 11 29  1  0  0  0  0
 11 30  1  0  0  0  0
 12 13  1  0  0  0  0
 12 31  1  0  0  0  0
 12 32  1  0  0  0  0
 13 18  1  0  0  0  0
 13 14  2  0  0  0  0
 14 15  1  0  0  0  0
 14 33  1  0  0  0  0
 15 16  1  0  0  0  0
 15 34  1  0  0  0  0
 15 35  1  0  0  0  0
 16 17  1  0  0  0  0
 16 36  1  0  0  0  0
 16 37  1  0  0  0  0
 17 18  1  0  0  0  0
 17 38  1  0  0  0  0
 17 39  1  0  0  0  0
 18 40  1  0  0  0  0
 18 41  1  0  0  0  0
M  END
> <s_m_source_file>
AV-unprocessed.smi

> <i_m_source_file_index>
681

> <i_lp_mmshare_version>
43012

> <i_f3d_flags>
0

> <s_epik_input>
W0NIM11jMW5jKFtDSDNdKW4objEpW0NIMl1DKD1PKVtOSF1bQ0gyXVtDSDJdQzI9W0NIXVtDSDJdW0NIMl1bQ0gyXVtDSDJdMg==

> <s_epik_cmdline>
J2VwaWtfcHl0aG9uJywgJy1waCcsICc3LjAnLCAnLXRuJywgJzgnLCAnLW1hJywgJzIwMCcsICctbWV0YWxfYmluZGluZycsICctaW1hZScsICc8aW5maWxlLm1hZT4nLCAnLW9tYWUnLCAnPG91dGZpbGUubWFlPic=

> <r_lp_tautomer_probability>
1

> <r_epik_Ionization_Penalty>
0.000426663

> <r_epik_Ionization_Penalty_Charging>
0

> <r_epik_Ionization_Penalty_Neutral>
0.000426663

> <r_epik_State_Penalty>
0.000262586

> <r_epik_Charging_Adjusted_Penalty>
0.000262586

> <i_epik_Tot_Q>
0

> <i_epik_Tot_abs_Q>
0

> <r_epik_Metal_State_Penalty>
-0

> <b_epik_Metal_Only>
0

> <s_lp_Force_Field>
OPLS_2005

> <r_lp_Energy>
6.45034

> <b_lp_Chiralities_Consistent>
1

> <s_lp_Variant>
AV-unprocessed.smi:681-1

> <Gold.Version>
5.8.1

> <Gold.Id.Protein>
6NUR|6NUR_protein|mol2

> <Gold.PLP.Fitness>
46.6548

> <Gold.PLP.PLP>
-40.0713

> <Gold.PLP.part.hbond>
-3.0000

> <Gold.PLP.part.metal>
0.0000

> <Gold.PLP.part.buried>
-2.6592

> <Gold.PLP.part.nonpolar>
-34.9039

> <Gold.PLP.part.repulsive>
0.2988

> <Gold.PLP.ligand.clash>
0.0000

> <Gold.PLP.ligand.torsion>
0.4394

> <Gold.PLP.Chemscore.Hbond>
2.4800

> <Gold.PLP.Chemscore.CHOScore>
0.0000

> <Gold.PLP.Chemscore.Metal>
0.0000

> <Gold.Chemscore.Hbonds>
donor molecule, donor type, donor heavy atom, donor atom, acceptor molecule, acceptor atom, score
      P1  H  7989  7998       L1     9  0.39
      P1  H  7997  8008       L1     9  1.00
      P1  H 10752 10763       L1    19  1.00

> <Gold.PLP.Chemscore.Internal.Correction>
0.0224

> <Gold.Rescore>
     Score         DG    S(hbond)    S(metal)    S(lipo)     H(rot)  DE(clash)    DE(int)     intcor
     15.54     -17.87       1.71        0.00      98.10       1.87       0.41       1.92       ----

> <Gold.Chemscore.Fitness>
15.5390

> <Gold.Chemscore.DG>
-17.8701

> <Gold.Chemscore.ZeroCoef>
-5.4800

> <Gold.Chemscore.Hbond>
1.7103

> <Gold.Chemscore.Metal>
0.0000

> <Gold.Chemscore.Lipo>
98.0978

> <Gold.Chemscore.Internal_Hbond>
0.0000

> <Gold.Chemscore.DEClash>
0.4096

> <Gold.Chemscore.DEInternal>
1.9214

> <Gold.Chemscore.Rot>
1.8750

> <Gold.Chemscore.Internal.Correction>
   9.000000E+99

> <Gold.Chemscore.Hbonds>
donor molecule, donor type, donor heavy atom, donor atom, acceptor molecule, acceptor atom, score
      P1  H  7989  7998       L1     9  0.17
      P1  H  7997  8008       L1     9  0.91
      P1  H 10752 10763       L1    19  0.30

> <Gold.Chemscore.Hbond.Weighted>
-5.7126

> <Gold.Chemscore.Metal.Weighted>
-0.0000

> <Gold.Chemscore.Lipo.Weighted>
-11.4774

> <Gold.Chemscore.Internal_Hbond.Weighted>
0.0000

> <Gold.Chemscore.DEClash.Weighted>
0.4096

> <Gold.Chemscore.DEInternal.Weighted>
1.9214

> <Gold.Chemscore.Rot.Weighted>
4.7999

> <Gold.Chemscore.Internal.Correction.Weighted>
   9.000000E+99

> <Gold.Protein.RotatedTorsions>
[ 6907 6896 6895 6894 ] final  164.69 input  -60.11 | X-H torsion
[ 7974 7965 7964 7962 ] final  129.62 input  175.53 | X-H torsion
[ 8008 7997 7996 7995 ] final  -14.22 input   59.86 | X-H torsion
[ 10167 10162 10161 10158 ] final   72.48 input  -65.29 | X-H torsion
[ 10718 10713 10712 10709 ] final  122.58 input   66.30 | X-H torsion
[ 10763 10752 10751 10750 ] final   64.11 input  -60.55 | X-H torsion
[ 11005 11000 10999 10996 ] final  -37.47 input  -57.11 | X-H torsion

> <Gold.Protein.ActiveResidues>
 VAL166  LYS551  ARG553  GLY616  TRP617  ASP618  TYR619  PRO620  LYS621  CYS622 
 ASP623  PHE694  ASN695  SER759  ASP760  ASP761  ALA762  ILE779  LEU786  VAL792 
 PHE793  MET794  SER795  GLU796  ALA797  LYS798  CYS799  TRP800  GLU811  SER814 

> <Gold.Protein.RotatedAtoms>
  151.9060  133.3549  159.3846 H   0  0  0  0  0  0  0  0  0  0  0  0  # atno 6907 bound_to 6896
  150.7069  134.4780  159.5466 H   0  0  0  0  0  0  0  0  0  0  0  0  # atno 6908 bound_to 6896
  152.2377  134.8259  160.0515 H   0  0  0  0  0  0  0  0  0  0  0  0  # atno 6909 bound_to 6896
  145.0267  139.4082  143.5170 H   0  0  0  0  0  0  0  0  0  0  0  0  # atno 7974 bound_to 7965
  154.5228  140.2229  155.8945 H   0  0  0  0  0  0  0  0  0  0  0  0  # atno 8008 bound_to 7997
  156.1680  140.3128  155.8888 H   0  0  0  0  0  0  0  0  0  0  0  0  # atno 8009 bound_to 7997
  155.3616  140.0461  157.3037 H   0  0  0  0  0  0  0  0  0  0  0  0  # atno 8010 bound_to 7997
  140.0348  144.5436  150.7479 H   0  0  0  0  0  0  0  0  0  0  0  0  # atno 10167 bound_to 10162
  157.5731  131.1081  150.8329 H   0  0  0  0  0  0  0  0  0  0  0  0  # atno 10718 bound_to 10713
  153.0043  135.5405  154.6459 H   0  0  0  0  0  0  0  0  0  0  0  0  # atno 10763 bound_to 10752
  154.5703  135.2841  155.0836 H   0  0  0  0  0  0  0  0  0  0  0  0  # atno 10764 bound_to 10752
  154.2005  135.6485  153.5138 H   0  0  0  0  0  0  0  0  0  0  0  0  # atno 10765 bound_to 10752
  140.9955  133.6983  156.1926 H   0  0  0  0  0  0  0  0  0  0  0  0  # atno 11005 bound_to 11000
  146.3493  139.9795  142.8697 LP  0  0  0  0  0  0  0  0  0  0  0  0  # atno 17320 bound_to 7965
  145.1824  140.9773  143.4258 LP  0  0  0  0  0  0  0  0  0  0  0  0  # atno 17321 bound_to 7965
  140.7286  143.2663  151.4032 LP  0  0  0  0  0  0  0  0  0  0  0  0  # atno 17342 bound_to 10162
  139.6052  144.1212  152.2241 LP  0  0  0  0  0  0  0  0  0  0  0  0  # atno 17343 bound_to 10162
  156.8795  130.5174  149.5292 LP  0  0  0  0  0  0  0  0  0  0  0  0  # atno 17370 bound_to 10713
  156.0776  130.5795  150.9503 LP  0  0  0  0  0  0  0  0  0  0  0  0  # atno 17371 bound_to 10713
  140.6973  134.4601  157.5587 LP  0  0  0  0  0  0  0  0  0  0  0  0  # atno 17394 bound_to 11000
  139.9012  134.8551  156.1887 LP  0  0  0  0  0  0  0  0  0  0  0  0  # atno 17395 bound_to 11000

$$$$
