AV-unprocessed.smi:1362|AV-procd|sdf|5561|dock6
  -GOLD-   22720 5153D 1   1.00000     0.00000
 Structure written by MMmdl.
 39 39  0  0  0  0  0  0  0  0  1 V2000
  146.2958  138.2483  152.1825 C   0  0  0  0  0  0  0  0  0  0  0  0
  147.1405  139.2526  152.9364 C   0  0  0  0  0  0  0  0  0  0  0  0
  146.4963  140.4558  153.1720 N   0  0  0  0  0  0  0  0  0  0  0  0
  147.1882  141.4365  153.8605 C   0  0  0  0  0  0  0  0  0  0  0  0
  146.4098  142.7224  154.0800 C   0  0  0  0  0  0  0  0  0  0  0  0
  148.4573  141.2279  154.2943 C   0  0  0  0  0  0  0  0  0  0  0  0
  149.2501  142.2837  155.0635 C   0  0  0  0  0  0  0  0  0  0  0  0
  149.6970  141.8874  156.4729 C   0  0  0  0  0  0  0  0  0  0  0  0
  149.2433  140.8765  157.0098 O   0  0  0  0  0  0  0  0  0  0  0  0
  150.5871  142.7007  157.0619 N   0  0  0  0  0  0  0  0  0  0  0  0
  151.1245  142.5407  158.4128 C   0  0  1  0  0  0  0  0  0  0  0  0
  151.6324  141.0955  158.5774 C   0  0  0  0  0  0  0  0  0  0  0  0
  152.2163  143.6097  158.6835 C   0  0  0  0  0  0  0  0  0  0  0  0
  152.9589  143.3675  160.0102 C   0  0  0  0  0  0  0  0  0  0  0  0
  151.6477  145.0425  158.6687 C   0  0  0  0  0  0  0  0  0  0  0  0
  149.0928  139.9183  154.0152 C   0  0  0  0  0  0  0  0  0  0  0  0
  150.2363  139.6638  154.3911 O   0  0  0  0  0  0  0  0  0  0  0  0
  148.3492  138.9591  153.3085 N   0  0  0  0  0  0  0  0  0  0  0  0
  145.5520  140.6507  152.8720 H   0  0  0  0  0  0  0  0  0  0  0  0
  146.8950  137.3930  151.8680 H   0  0  0  0  0  0  0  0  0  0  0  0
  145.8609  138.7037  151.2921 H   0  0  0  0  0  0  0  0  0  0  0  0
  145.4870  137.8840  152.8165 H   0  0  0  0  0  0  0  0  0  0  0  0
  146.9096  143.5589  153.5909 H   0  0  0  0  0  0  0  0  0  0  0  0
  146.3288  142.9430  155.1446 H   0  0  0  0  0  0  0  0  0  0  0  0
  145.3990  142.6537  153.6759 H   0  0  0  0  0  0  0  0  0  0  0  0
  148.6366  143.1829  155.1344 H   0  0  0  0  0  0  0  0  0  0  0  0
  150.1313  142.5932  154.5009 H   0  0  0  0  0  0  0  0  0  0  0  0
  150.9061  143.5046  156.5413 H   0  0  0  0  0  0  0  0  0  0  0  0
  150.3175  142.7015  159.1303 H   0  0  0  0  0  0  0  0  0  0  0  0
  151.9226  140.8844  159.6060 H   0  0  0  0  0  0  0  0  0  0  0  0
  152.4943  140.9019  157.9379 H   0  0  0  0  0  0  0  0  0  0  0  0
  150.8586  140.3729  158.3164 H   0  0  0  0  0  0  0  0  0  0  0  0
  152.9547  143.5481  157.8827 H   0  0  0  0  0  0  0  0  0  0  0  0
  152.2678  143.3519  160.8537 H   0  0  0  0  0  0  0  0  0  0  0  0
  153.6924  144.1521  160.1981 H   0  0  0  0  0  0  0  0  0  0  0  0
  153.5041  142.4242  160.0045 H   0  0  0  0  0  0  0  0  0  0  0  0
  150.8677  145.1647  159.4208 H   0  0  0  0  0  0  0  0  0  0  0  0
  151.2199  145.3037  157.7005 H   0  0  0  0  0  0  0  0  0  0  0  0
  152.4269  145.7760  158.8781 H   0  0  0  0  0  0  0  0  0  0  0  0
  1 20  1  0  0  0  0
  1 21  1  0  0  0  0
  1 22  1  0  0  0  0
  1  2  1  0  0  0  0
  2  3  1  0  0  0  0
  2 18  2  0  0  0  0
  3  4  1  0  0  0  0
  3 19  1  0  0  0  0
  4  6  2  0  0  0  0
  4  5  1  0  0  0  0
  5 23  1  0  0  0  0
  5 24  1  0  0  0  0
  5 25  1  0  0  0  0
  6 16  1  0  0  0  0
  6  7  1  0  0  0  0
  7  8  1  0  0  0  0
  7 26  1  0  0  0  0
  7 27  1  0  0  0  0
  8  9  2  0  0  0  0
  8 10  1  0  0  0  0
 10 11  1  0  0  0  0
 10 28  1  0  0  0  0
 11 12  1  0  0  0  0
 11 13  1  0  0  0  0
 11 29  1  0  0  0  0
 12 30  1  0  0  0  0
 12 31  1  0  0  0  0
 12 32  1  0  0  0  0
 13 14  1  0  0  0  0
 13 15  1  0  0  0  0
 13 33  1  0  0  0  0
 14 34  1  0  0  0  0
 14 35  1  0  0  0  0
 14 36  1  0  0  0  0
 15 37  1  0  0  0  0
 15 38  1  0  0  0  0
 15 39  1  0  0  0  0
 16 17  2  0  0  0  0
 16 18  1  0  0  0  0
M  END
> <s_m_source_file>
AV-unprocessed.smi

> <i_m_source_file_index>
1362

> <i_lp_mmshare_version>
43012

> <i_f3d_flags>
0

> <s_epik_input>
W0NIM11jMW5jKFtDSDNdKWMoYyg9TylbbkhdMSlbQ0gyXUMoPU8pW05IXVtDQEhdKFtDSDNdKVtDSF0oW0NIM10pW0NIM10=

> <s_epik_cmdline>
J2VwaWtfcHl0aG9uJywgJy1waCcsICc3LjAnLCAnLXRuJywgJzgnLCAnLW1hJywgJzIwMCcsICctbWV0YWxfYmluZGluZycsICctaW1hZScsICc8aW5maWxlLm1hZT4nLCAnLW9tYWUnLCAnPG91dGZpbGUubWFlPic=

> <r_lp_tautomer_probability>
0.156392

> <r_epik_Ionization_Penalty>
0.0140737

> <r_epik_Ionization_Penalty_Charging>
0.0139511

> <r_epik_Ionization_Penalty_Neutral>
0.000122633

> <r_epik_State_Penalty>
1.53034

> <r_epik_Charging_Adjusted_Penalty>
1.54429

> <i_epik_Tot_Q>
0

> <i_epik_Tot_abs_Q>
0

> <r_epik_Metal_State_Penalty>
1.70655

> <b_epik_Metal_Only>
0

> <s_lp_Force_Field>
OPLS_2005

> <r_lp_Energy>
10.7391

> <b_lp_Chiralities_Consistent>
1

> <s_lp_Variant>
AV-unprocessed.smi:1362-4

> <Gold.Version>
5.8.1

> <Gold.Id.Protein>
6NUR|6NUR_protein|mol2

> <Gold.PLP.Fitness>
40.9397

> <Gold.PLP.PLP>
-35.4148

> <Gold.PLP.part.hbond>
-2.9246

> <Gold.PLP.part.metal>
0.0000

> <Gold.PLP.part.buried>
1.9566

> <Gold.PLP.part.nonpolar>
-37.4557

> <Gold.PLP.part.repulsive>
3.3237

> <Gold.PLP.ligand.clash>
0.0000

> <Gold.PLP.ligand.torsion>
0.2364

> <Gold.PLP.Chemscore.Hbond>
1.9913

> <Gold.PLP.Chemscore.CHOScore>
0.0000

> <Gold.PLP.Chemscore.Metal>
0.0000

> <Gold.Chemscore.Hbonds>
donor molecule, donor type, donor heavy atom, donor atom, acceptor molecule, acceptor atom, score
      L1  H     3    19       P1 10175  1.00
      P1  H  7989  7998       L1    17  0.96

> <Gold.PLP.Chemscore.Internal.Correction>
0.0239

> <Gold.Rescore>
     Score         DG    S(hbond)    S(metal)    S(lipo)     H(rot)  DE(clash)    DE(int)     intcor
     15.51     -18.02       1.98        0.00      87.50       1.69       2.13       0.38       ----

> <Gold.Chemscore.Fitness>
15.5140

> <Gold.Chemscore.DG>
-18.0160

> <Gold.Chemscore.ZeroCoef>
-5.4800

> <Gold.Chemscore.Hbond>
1.9848

> <Gold.Chemscore.Metal>
0.0000

> <Gold.Chemscore.Lipo>
87.4988

> <Gold.Chemscore.Internal_Hbond>
0.0000

> <Gold.Chemscore.DEClash>
2.1262

> <Gold.Chemscore.DEInternal>
0.3758

> <Gold.Chemscore.Rot>
1.6916

> <Gold.Chemscore.Internal.Correction>
   9.000000E+99

> <Gold.Chemscore.Hbonds>
donor molecule, donor type, donor heavy atom, donor atom, acceptor molecule, acceptor atom, score
      L1  H     3    19       P1 10175  0.60
      P1  H  7989  7998       L1    17  0.75

> <Gold.Chemscore.Hbond.Weighted>
-6.6292

> <Gold.Chemscore.Metal.Weighted>
-0.0000

> <Gold.Chemscore.Lipo.Weighted>
-10.2374

> <Gold.Chemscore.Internal_Hbond.Weighted>
0.0000

> <Gold.Chemscore.DEClash.Weighted>
2.1262

> <Gold.Chemscore.DEInternal.Weighted>
0.3758

> <Gold.Chemscore.Rot.Weighted>
4.3305

> <Gold.Chemscore.Internal.Correction.Weighted>
   9.000000E+99

> <Gold.Protein.RotatedTorsions>
[ 6907 6896 6895 6894 ] final -102.20 input  -60.11 | X-H torsion
[ 7974 7965 7964 7962 ] final   94.30 input  175.53 | X-H torsion
[ 8008 7997 7996 7995 ] final   74.25 input   59.86 | X-H torsion
[ 10167 10162 10161 10158 ] final  147.21 input  -65.29 | X-H torsion
[ 10718 10713 10712 10709 ] final  -78.22 input   66.30 | X-H torsion
[ 10763 10752 10751 10750 ] final  111.00 input  -60.55 | X-H torsion
[ 11005 11000 10999 10996 ] final  -33.68 input  -57.11 | X-H torsion

> <Gold.Protein.ActiveResidues>
 VAL166  LYS551  ARG553  GLY616  TRP617  ASP618  TYR619  PRO620  LYS621  CYS622 
 ASP623  PHE694  ASN695  SER759  ASP760  ASP761  ALA762  ILE779  LEU786  VAL792 
 PHE793  MET794  SER795  GLU796  ALA797  LYS798  CYS799  TRP800  GLU811  SER814 

> <Gold.Protein.RotatedAtoms>
  150.7186  134.0617  159.3833 H   0  0  0  0  0  0  0  0  0  0  0  0  # atno 6907 bound_to 6896
  151.8597  135.0526  160.0477 H   0  0  0  0  0  0  0  0  0  0  0  0  # atno 6908 bound_to 6896
  152.2727  133.5361  159.5485 H   0  0  0  0  0  0  0  0  0  0  0  0  # atno 6909 bound_to 6896
  145.4675  139.2283  143.2953 H   0  0  0  0  0  0  0  0  0  0  0  0  # atno 7974 bound_to 7965
  155.7956  140.3478  155.5373 H   0  0  0  0  0  0  0  0  0  0  0  0  # atno 8008 bound_to 7997
  155.8590  140.0968  157.1646 H   0  0  0  0  0  0  0  0  0  0  0  0  # atno 8009 bound_to 7997
  154.4011  140.1362  156.3925 H   0  0  0  0  0  0  0  0  0  0  0  0  # atno 8010 bound_to 7997
  139.4894  144.5772  151.6942 H   0  0  0  0  0  0  0  0  0  0  0  0  # atno 10167 bound_to 10162
  156.0123  130.4512  150.3463 H   0  0  0  0  0  0  0  0  0  0  0  0  # atno 10718 bound_to 10713
  153.4571  135.3730  155.2317 H   0  0  0  0  0  0  0  0  0  0  0  0  # atno 10763 bound_to 10752
  154.8757  135.3899  154.3969 H   0  0  0  0  0  0  0  0  0  0  0  0  # atno 10764 bound_to 10752
  153.4537  135.7086  153.6157 H   0  0  0  0  0  0  0  0  0  0  0  0  # atno 10765 bound_to 10752
  140.9654  133.7140  156.1437 H   0  0  0  0  0  0  0  0  0  0  0  0  # atno 11005 bound_to 11000
  146.2416  140.5449  142.8931 LP  0  0  0  0  0  0  0  0  0  0  0  0  # atno 17320 bound_to 7965
  144.7965  140.6133  143.6506 LP  0  0  0  0  0  0  0  0  0  0  0  0  # atno 17321 bound_to 7965
  140.5371  144.0639  150.6074 LP  0  0  0  0  0  0  0  0  0  0  0  0  # atno 17342 bound_to 10162
  140.3648  143.2887  152.0343 LP  0  0  0  0  0  0  0  0  0  0  0  0  # atno 17343 bound_to 10162
  157.1557  131.0332  151.2864 LP  0  0  0  0  0  0  0  0  0  0  0  0  # atno 17370 bound_to 10713
  157.4354  130.7514  149.7025 LP  0  0  0  0  0  0  0  0  0  0  0  0  # atno 17371 bound_to 10713
  140.7406  134.4154  157.5555 LP  0  0  0  0  0  0  0  0  0  0  0  0  # atno 17394 bound_to 11000
  139.8893  134.8834  156.2430 LP  0  0  0  0  0  0  0  0  0  0  0  0  # atno 17395 bound_to 11000

$$$$
