#       Name:                AV-unprocessed.smi:1774
#       Creating user name   scv26
#       Creation time:       Fri Mar 27 08:40:23 2020


#       File generated by GOLD software.
#

@<TRIPOS>MOLECULE
AV-unprocessed.smi:1774
    51    52     1
SMALL
NO_CHARGES


@<TRIPOS>ATOM
      1 ****        -3.4783   2.9886   1.8739 C.3            1 S1                 0.0000
      2 ****        -3.4945   2.5965   0.4053 C.ar           1 S1                 0.0000
      3 ****        -4.1598   3.4252  -0.5230 C.ar           1 S1                 0.0000
      4 ****        -4.1734   3.0623  -1.8805 C.ar           1 S1                 0.0000
      5 ****        -3.5164   1.8777  -2.2547 C.ar           1 S1                 0.0000
      6 ****        -2.8787   1.0794  -1.3746 N.ar           1 S1                 0.0000
      7 ****        -2.8565   1.4152  -0.0600 C.ar           1 S1                 0.0000
      8 ****        -2.1996   0.6236   0.9241 N.am           1 S1                 0.0000
      9 ****        -1.5232  -0.5267   0.7582 C.2            1 S1                 0.0000
     10 ****        -1.3909  -1.1281  -0.3082 O.2            1 S1                 0.0000
     11 ****        -0.9952  -0.9474   1.9173 N.am           1 S1                 0.0000
     12 ****        -0.1521  -2.1277   2.0829 C.3            1 S1                 0.0000
     13 ****         1.3448  -1.7654   2.0163 C.3            1 S1                 0.0000
     14 ****         1.8081  -1.2498   0.7287 N.3            1 S1                 0.0000
     15 ****         1.8171  -2.2670  -0.3176 C.3            1 S1                 0.0000
     16 ****         2.2553  -1.6845  -1.6729 C.3            1 S1                 0.0000
     17 ****         2.3495  -2.7602  -2.7595 C.3            1 S1                 0.0000
     18 ****         3.5388  -1.0761  -1.5357 O.3            1 S1                 0.0000
     19 ****         3.6387  -0.0905  -0.5060 C.3            1 S1                 0.0000
     20 ****         2.9366   1.2203  -0.9008 C.3            1 S1                 0.0000
     21 ****         3.1406  -0.6678   0.8340 C.3            1 S1                 0.0000
     22 ****        -4.0109   3.9252   2.0410 H              1 S1                 0.0000
     23 ****        -2.4537   3.1195   2.2231 H              1 S1                 0.0000
     24 ****        -3.9558   2.2183   2.4800 H              1 S1                 0.0000
     25 ****        -4.6547   4.3301  -0.2020 H              1 S1                 0.0000
     26 ****        -4.6737   3.6756  -2.6151 H              1 S1                 0.0000
     27 ****        -3.5014   1.5621  -3.2875 H              1 S1                 0.0000
     28 ****        -2.2318   0.9901   1.8637 H              1 S1                 0.0000
     29 ****        -1.1596  -0.3904   2.7429 H              1 S1                 0.0000
     30 ****        -0.3697  -2.5444   3.0663 H              1 S1                 0.0000
     31 ****        -0.4149  -2.9083   1.3685 H              1 S1                 0.0000
     32 ****         1.5373  -1.0197   2.7890 H              1 S1                 0.0000
     33 ****         1.9389  -2.6374   2.2930 H              1 S1                 0.0000
     34 ****         2.4856  -3.0819  -0.0345 H              1 S1                 0.0000
     35 ****         0.8264  -2.7046  -0.4322 H              1 S1                 0.0000
     36 ****         1.5317  -0.9353  -1.9957 H              1 S1                 0.0000
     37 ****         1.3867  -3.2485  -2.9113 H              1 S1                 0.0000
     38 ****         3.0770  -3.5278  -2.4936 H              1 S1                 0.0000
     39 ****         2.6555  -2.3257  -3.7116 H              1 S1                 0.0000
     40 ****         4.7000   0.1356  -0.4004 H              1 S1                 0.0000
     41 ****         3.1159   1.9949  -0.1550 H              1 S1                 0.0000
     42 ****         1.8571   1.0981  -0.9882 H              1 S1                 0.0000
     43 ****         3.3102   1.5886  -1.8564 H              1 S1                 0.0000
     44 ****         3.1478   0.1164   1.5921 H              1 S1                 0.0000
     45 ****         3.8431  -1.4302   1.1748 H              1 S1                 0.0000
     46 ****        -2.4251   0.2454  -1.6886 LP             1 S1                 0.0000
     47 ****        -1.8052  -0.7640  -1.1423 LP             1 S1                 0.0000
     48 ****        -0.8690  -1.9805  -0.3400 LP             1 S1                 0.0000
     49 ****         1.1509  -0.5412   0.4719 LP             1 S1                 0.0000
     50 ****         3.7685  -0.6391  -2.4053 LP             1 S1                 0.0000
     51 ****         4.2034  -1.7970  -1.3392 LP             1 S1                 0.0000
@<TRIPOS>BOND
    1    1    2 1     
    2    1   22 1     
    3    1   23 1     
    4    1   24 1     
    5    2    7 ar    
    6    2    3 ar    
    7    3    4 ar    
    8    3   25 1     
    9    4    5 ar    
   10    4   26 1     
   11    5    6 ar    
   12    5   27 1     
   13    6    7 ar    
   14    7    8 1     
   15    8    9 am    
   16    8   28 1     
   17    9   10 2     
   18    9   11 am    
   19   11   12 1     
   20   11   29 1     
   21   12   13 1     
   22   12   30 1     
   23   12   31 1     
   24   13   14 1     
   25   13   32 1     
   26   13   33 1     
   27   14   21 1     
   28   14   15 1     
   29   15   16 1     
   30   15   34 1     
   31   15   35 1     
   32   16   17 1     
   33   16   18 1     
   34   16   36 1     
   35   17   37 1     
   36   17   38 1     
   37   17   39 1     
   38   18   19 1     
   39   19   20 1     
   40   19   21 1     
   41   19   40 1     
   42   20   41 1     
   43   20   42 1     
   44   20   43 1     
   45   21   44 1     
   46   21   45 1     
   47    6   46 1     
   48   10   47 1     
   49   10   48 1     
   50   14   49 1     
   51   18   50 1     
   52   18   51 1     
@<TRIPOS>SUBSTRUCTURE
      1 S1             1
@<TRIPOS>SET
LONE_PAIRS      STATIC     ATOMS    <user>   **** ""
6 46 47 48 49 50 51
DONOR_HYDROGENS      STATIC     ATOMS    <user>   **** ""
2 28 29
ATOM$BLUE        STATIC     ATOMS    COLORGROUP SYSTEM
6 46 47 48 49 50 51
ATOM$RED        STATIC     ATOMS    COLORGROUP SYSTEM
2 28 29
