AV-unprocessed.smi:420|AV-procd|sdf|2532|dock4
  -GOLD-   2262022493D 1   1.00000     0.00000
 Structure written by MMmdl.
 36 38  0  0  0  0  0  0  0  0  1 V2000
  153.9235  139.7089  160.4973 C   0  0  0  0  0  0  0  0  0  0  0  0
  153.1613  140.7368  159.7990 N   0  0  0  0  0  0  0  0  0  0  0  0
  152.6832  140.6809  158.5336 C   0  0  0  0  0  0  0  0  0  0  0  0
  152.8115  139.7389  157.7517 O   0  0  0  0  0  0  0  0  0  0  0  0
  152.0381  141.8436  158.2784 N   0  0  0  0  0  0  0  0  0  0  0  0
  151.3593  142.2082  157.0367 C   0  0  0  0  0  0  0  0  0  0  0  0
  150.6175  141.0095  156.4130 C   0  0  2  0  0  0  0  0  0  0  0  0
  151.4272  140.4531  155.3960 O   0  0  0  0  0  0  0  0  0  0  0  0
  149.2612  141.4353  155.8719 C   0  0  0  0  0  0  0  0  0  0  0  0
  148.2373  141.8214  156.7638 C   0  0  0  0  0  0  0  0  0  0  0  0
  146.9824  142.2288  156.2706 C   0  0  0  0  0  0  0  0  0  0  0  0
  146.7444  142.2548  154.8831 C   0  0  0  0  0  0  0  0  0  0  0  0
  145.5378  142.6465  154.4100 F   0  0  0  0  0  0  0  0  0  0  0  0
  147.7631  141.8757  153.9881 C   0  0  0  0  0  0  0  0  0  0  0  0
  149.0183  141.4685  154.4806 C   0  0  0  0  0  0  0  0  0  0  0  0
  152.0983  142.6621  159.4155 C   0  0  0  0  0  0  0  0  0  0  0  0
  151.5808  143.9458  159.6612 C   0  0  0  0  0  0  0  0  0  0  0  0
  151.8191  144.5044  160.9389 C   0  0  0  0  0  0  0  0  0  0  0  0
  152.5523  143.7880  161.9208 C   0  0  0  0  0  0  0  0  0  0  0  0
  153.0608  142.4965  161.6467 C   0  0  0  0  0  0  0  0  0  0  0  0
  152.8077  141.9655  160.3706 C   0  0  0  0  0  0  0  0  0  0  0  0
  154.0433  138.8070  159.8957 H   0  0  0  0  0  0  0  0  0  0  0  0
  153.4198  139.4299  161.4231 H   0  0  0  0  0  0  0  0  0  0  0  0
  154.9169  140.0825  160.7469 H   0  0  0  0  0  0  0  0  0  0  0  0
  150.6409  142.9906  157.2849 H   0  0  0  0  0  0  0  0  0  0  0  0
  152.0501  142.6591  156.3219 H   0  0  0  0  0  0  0  0  0  0  0  0
  150.4587  140.2374  157.1673 H   0  0  0  0  0  0  0  0  0  0  0  0
  151.4572  139.5162  155.5152 H   0  0  0  0  0  0  0  0  0  0  0  0
  148.4113  141.8095  157.8299 H   0  0  0  0  0  0  0  0  0  0  0  0
  146.2023  142.5231  156.9569 H   0  0  0  0  0  0  0  0  0  0  0  0
  147.5828  141.8986  152.9233 H   0  0  0  0  0  0  0  0  0  0  0  0
  149.7956  141.1848  153.7861 H   0  0  0  0  0  0  0  0  0  0  0  0
  151.0228  144.4851  158.9099 H   0  0  0  0  0  0  0  0  0  0  0  0
  151.4387  145.4884  161.1700 H   0  0  0  0  0  0  0  0  0  0  0  0
  152.7234  144.2336  162.8897 H   0  0  0  0  0  0  0  0  0  0  0  0
  153.6183  141.9439  162.3886 H   0  0  0  0  0  0  0  0  0  0  0  0
  1  2  1  0  0  0  0
  1 22  1  0  0  0  0
  1 23  1  0  0  0  0
  1 24  1  0  0  0  0
  2 21  1  0  0  0  0
  2  3  1  0  0  0  0
  3  4  2  0  0  0  0
  3  5  1  0  0  0  0
  5  6  1  0  0  0  0
  5 16  1  0  0  0  0
  6  7  1  0  0  0  0
  6 25  1  0  0  0  0
  6 26  1  0  0  0  0
  7  8  1  0  0  0  0
  7  9  1  0  0  0  0
  7 27  1  0  0  0  0
  8 28  1  0  0  0  0
  9 15  1  0  0  0  0
  9 10  2  0  0  0  0
 10 11  1  0  0  0  0
 10 29  1  0  0  0  0
 11 12  2  0  0  0  0
 11 30  1  0  0  0  0
 12 13  1  0  0  0  0
 12 14  1  0  0  0  0
 14 15  2  0  0  0  0
 14 31  1  0  0  0  0
 15 32  1  0  0  0  0
 16 21  2  0  0  0  0
 16 17  1  0  0  0  0
 17 18  2  0  0  0  0
 17 33  1  0  0  0  0
 18 19  1  0  0  0  0
 18 34  1  0  0  0  0
 19 20  2  0  0  0  0
 19 35  1  0  0  0  0
 20 21  1  0  0  0  0
 20 36  1  0  0  0  0
M  END
> <s_m_source_file>
AV-unprocessed.smi

> <i_m_source_file_index>
420

> <i_lp_mmshare_version>
43012

> <i_f3d_flags>
0

> <s_epik_input>
W2NIXTFbY0hdW2NIXVtjSF1jKGMxMiluKFtDSDNdKWMoPU8pbjJbQ0gyXVtDQEhdKFtPSF0pYzNbY0hdW2NIXWMoRilbY0hdW2NIXTM=

> <s_epik_cmdline>
J2VwaWtfcHl0aG9uJywgJy1waCcsICc3LjAnLCAnLXRuJywgJzgnLCAnLW1hJywgJzIwMCcsICctbWV0YWxfYmluZGluZycsICctaW1hZScsICc8aW5maWxlLm1hZT4nLCAnLW9tYWUnLCAnPG91dGZpbGUubWFlPic=

> <r_lp_tautomer_probability>
1

> <r_epik_Ionization_Penalty>
1.79795e-06

> <r_epik_Ionization_Penalty_Charging>
2.57375e-09

> <r_epik_Ionization_Penalty_Neutral>
1.79538e-06

> <r_epik_State_Penalty>
-0

> <r_epik_Charging_Adjusted_Penalty>
2.57375e-09

> <i_epik_Tot_Q>
0

> <i_epik_Tot_abs_Q>
0

> <r_epik_Metal_State_Penalty>
-0

> <b_epik_Metal_Only>
0

> <s_lp_Force_Field>
OPLS_2005

> <r_lp_Energy>
42.8676

> <b_lp_Chiralities_Consistent>
1

> <s_lp_Variant>
AV-unprocessed.smi:420-1

> <Gold.Version>
5.8.1

> <Gold.Id.Protein>
6NUR|6NUR_protein|mol2

> <Gold.PLP.Fitness>
54.5555

> <Gold.PLP.PLP>
-50.9761

> <Gold.PLP.part.hbond>
-2.0000

> <Gold.PLP.part.metal>
0.0000

> <Gold.PLP.part.buried>
-5.4086

> <Gold.PLP.part.nonpolar>
-42.9568

> <Gold.PLP.part.repulsive>
0.0000

> <Gold.PLP.ligand.clash>
0.0000

> <Gold.PLP.ligand.torsion>
1.0340

> <Gold.PLP.Chemscore.Hbond>
1.8800

> <Gold.PLP.Chemscore.CHOScore>
0.0000

> <Gold.PLP.Chemscore.Metal>
0.0000

> <Gold.Chemscore.Hbonds>
donor molecule, donor type, donor heavy atom, donor atom, acceptor molecule, acceptor atom, score
      P1  H  7989  7998       L1     8  0.88
      P1  H  7997  8009       L1     4  1.00

> <Gold.PLP.Chemscore.Internal.Correction>
0.0074

> <Gold.Rescore>
     Score         DG    S(hbond)    S(metal)    S(lipo)     H(rot)  DE(clash)    DE(int)     intcor
     18.20     -20.69       1.62        0.00     124.06       1.85       0.15       2.34       ----

> <Gold.Chemscore.Fitness>
18.2028

> <Gold.Chemscore.DG>
-20.6904

> <Gold.Chemscore.ZeroCoef>
-5.4800

> <Gold.Chemscore.Hbond>
1.6236

> <Gold.Chemscore.Metal>
0.0000

> <Gold.Chemscore.Lipo>
124.0563

> <Gold.Chemscore.Internal_Hbond>
0.0000

> <Gold.Chemscore.DEClash>
0.1501

> <Gold.Chemscore.DEInternal>
2.3375

> <Gold.Chemscore.Rot>
1.8465

> <Gold.Chemscore.Internal.Correction>
   9.000000E+99

> <Gold.Chemscore.Hbonds>
donor molecule, donor type, donor heavy atom, donor atom, acceptor molecule, acceptor atom, score
      P1  H  7989  7998       L1     8  0.64
      P1  H  7997  8009       L1     4  0.45

> <Gold.Chemscore.Hbond.Weighted>
-5.4228

> <Gold.Chemscore.Metal.Weighted>
-0.0000

> <Gold.Chemscore.Lipo.Weighted>
-14.5146

> <Gold.Chemscore.Internal_Hbond.Weighted>
0.0000

> <Gold.Chemscore.DEClash.Weighted>
0.1501

> <Gold.Chemscore.DEInternal.Weighted>
2.3375

> <Gold.Chemscore.Rot.Weighted>
4.7270

> <Gold.Chemscore.Internal.Correction.Weighted>
   9.000000E+99

> <Gold.Protein.RotatedTorsions>
[ 6907 6896 6895 6894 ] final -169.85 input  -60.11 | X-H torsion
[ 7974 7965 7964 7962 ] final  -94.18 input  175.53 | X-H torsion
[ 8008 7997 7996 7995 ] final  162.85 input   59.86 | X-H torsion
[ 10167 10162 10161 10158 ] final  -55.29 input  -65.29 | X-H torsion
[ 10718 10713 10712 10709 ] final -131.78 input   66.30 | X-H torsion
[ 10763 10752 10751 10750 ] final   70.90 input  -60.55 | X-H torsion
[ 11005 11000 10999 10996 ] final   46.18 input  -57.11 | X-H torsion

> <Gold.Protein.ActiveResidues>
 VAL166  LYS551  ARG553  GLY616  TRP617  ASP618  TYR619  PRO620  LYS621  CYS622 
 ASP623  PHE694  ASN695  SER759  ASP760  ASP761  ALA762  ILE779  LEU786  VAL792 
 PHE793  MET794  SER795  GLU796  ALA797  LYS798  CYS799  TRP800  GLU811  SER814 

> <Gold.Protein.RotatedAtoms>
  151.4983  133.3510  159.2864 H   0  0  0  0  0  0  0  0  0  0  0  0  # atno 6907 bound_to 6896
  150.8790  134.8179  159.7222 H   0  0  0  0  0  0  0  0  0  0  0  0  # atno 6908 bound_to 6896
  152.4750  134.4878  159.9737 H   0  0  0  0  0  0  0  0  0  0  0  0  # atno 6909 bound_to 6896
  145.3767  140.9512  143.2416 H   0  0  0  0  0  0  0  0  0  0  0  0  # atno 7974 bound_to 7965
  156.2001  140.1739  156.7917 H   0  0  0  0  0  0  0  0  0  0  0  0  # atno 8008 bound_to 7997
  154.5581  140.0705  156.8806 H   0  0  0  0  0  0  0  0  0  0  0  0  # atno 8009 bound_to 7997
  155.2901  140.3355  155.4255 H   0  0  0  0  0  0  0  0  0  0  0  0  # atno 8010 bound_to 7997
  140.6383  143.2494  151.5059 H   0  0  0  0  0  0  0  0  0  0  0  0  # atno 10167 bound_to 10162
  156.2278  130.7019  151.0826 H   0  0  0  0  0  0  0  0  0  0  0  0  # atno 10718 bound_to 10713
  153.0368  135.5156  154.7512 H   0  0  0  0  0  0  0  0  0  0  0  0  # atno 10763 bound_to 10752
  154.6482  135.2921  155.0022 H   0  0  0  0  0  0  0  0  0  0  0  0  # atno 10764 bound_to 10752
  154.0916  135.6649  153.4906 H   0  0  0  0  0  0  0  0  0  0  0  0  # atno 10765 bound_to 10752
  140.1392  134.4605  155.8462 H   0  0  0  0  0  0  0  0  0  0  0  0  # atno 11005 bound_to 11000
  144.8537  139.5283  143.6844 LP  0  0  0  0  0  0  0  0  0  0  0  0  # atno 17320 bound_to 7965
  146.2861  139.7007  142.9195 LP  0  0  0  0  0  0  0  0  0  0  0  0  # atno 17321 bound_to 7965
  139.5592  144.2198  152.1664 LP  0  0  0  0  0  0  0  0  0  0  0  0  # atno 17342 bound_to 10162
  140.1461  144.5158  150.6715 LP  0  0  0  0  0  0  0  0  0  0  0  0  # atno 17343 bound_to 10162
  157.7119  131.0730  150.6470 LP  0  0  0  0  0  0  0  0  0  0  0  0  # atno 17370 bound_to 10713
  156.6536  130.4492  149.5711 LP  0  0  0  0  0  0  0  0  0  0  0  0  # atno 17371 bound_to 10713
  141.2183  133.6826  156.7214 LP  0  0  0  0  0  0  0  0  0  0  0  0  # atno 17394 bound_to 11000
  140.2744  134.8367  157.3876 LP  0  0  0  0  0  0  0  0  0  0  0  0  # atno 17395 bound_to 11000

$$$$
