#       Name:                AV-unprocessed.smi:3354
#       Creating user name   scv26
#       Creation time:       Fri Mar 27 19:40:01 2020


#       File generated by GOLD software.
#

@<TRIPOS>MOLECULE
AV-unprocessed.smi:3354
    43    45     1
SMALL
NO_CHARGES


@<TRIPOS>ATOM
      1 ****        -5.9734  -0.3878   0.3236 C.3            1 S1                 0.0000
      2 ****        -4.8554  -0.6377  -0.6653 C.3            1 S1                 0.0000
      3 ****        -4.8480   0.0778  -1.9970 C.3            1 S1                 0.0000
      4 ****        -3.8141   0.4237  -0.9440 C.3            1 S1                 0.0000
      5 ****        -2.4496   0.0233  -1.1098 N.am           1 S1                 0.0000
      6 ****        -1.6359  -0.1915   0.0749 C.3            1 S1                 0.0000
      7 ****        -0.2471  -0.5929  -0.4503 C.3            1 S1                 0.0000
      8 ****         0.8102   0.0722   0.3061 N.am           1 S1                 0.0000
      9 ****         2.1021  -0.2838   0.2893 C.2            1 S1                 0.0000
     10 ****         2.5388  -1.2168  -0.3843 O.2            1 S1                 0.0000
     11 ****         2.8376   0.5188   1.0775 N.am           1 S1                 0.0000
     12 ****         4.2289   0.4494   1.3586 C.ar           1 S1                 0.0000
     13 ****         5.0151  -0.7185   1.2069 C.ar           1 S1                 0.0000
     14 ****         6.3820  -0.6656   1.5409 C.ar           1 S1                 0.0000
     15 ****         6.9113   0.5483   2.0200 C.ar           1 S1                 0.0000
     16 ****         6.1714   1.6655   2.1815 N.ar           1 S1                 0.0000
     17 ****         4.8614   1.6070   1.8600 C.ar           1 S1                 0.0000
     18 ****        -0.2487  -0.1987  -1.9357 C.3            1 S1                 0.0000
     19 ****        -1.7039   0.1344  -2.2180 C.2            1 S1                 0.0000
     20 ****        -2.0959   0.4794  -3.3319 O.2            1 S1                 0.0000
     21 ****        -6.2844   0.6573   0.3020 H              1 S1                 0.0000
     22 ****        -5.6391  -0.6293   1.3326 H              1 S1                 0.0000
     23 ****        -6.8335  -1.0126   0.0825 H              1 S1                 0.0000
     24 ****        -4.5091  -1.6697  -0.6810 H              1 S1                 0.0000
     25 ****        -4.5462  -0.5087  -2.8627 H              1 S1                 0.0000
     26 ****        -5.6309   0.8097  -2.1856 H              1 S1                 0.0000
     27 ****        -3.9570   1.3808  -0.4455 H              1 S1                 0.0000
     28 ****        -1.6015   0.7348   0.6510 H              1 S1                 0.0000
     29 ****        -2.0642  -0.9674   0.7109 H              1 S1                 0.0000
     30 ****        -0.1373  -1.6760  -0.3660 H              1 S1                 0.0000
     31 ****         0.5369   0.8539   0.8836 H              1 S1                 0.0000
     32 ****         2.3513   1.2988   1.4948 H              1 S1                 0.0000
     33 ****         4.5992  -1.6510   0.8589 H              1 S1                 0.0000
     34 ****         7.0095  -1.5384   1.4368 H              1 S1                 0.0000
     35 ****         7.9554   0.6216   2.2865 H              1 S1                 0.0000
     36 ****         4.2999   2.5184   2.0054 H              1 S1                 0.0000
     37 ****         0.3633   0.6829  -2.1325 H              1 S1                 0.0000
     38 ****         0.1001  -1.0117  -2.5736 H              1 S1                 0.0000
     39 ****         1.9189  -1.7529  -0.9573 LP             1 S1                 0.0000
     40 ****         3.5135  -1.4387  -0.3586 LP             1 S1                 0.0000
     41 ****         6.5804   2.5096   2.5282 LP             1 S1                 0.0000
     42 ****        -3.0585   0.7099  -3.4740 LP             1 S1                 0.0000
     43 ****        -1.4519   0.5293  -4.0953 LP             1 S1                 0.0000
@<TRIPOS>BOND
    1    1    2 1     
    2    1   21 1     
    3    1   22 1     
    4    1   23 1     
    5    2    4 1     
    6    2    3 1     
    7    2   24 1     
    8    3    4 1     
    9    3   25 1     
   10    3   26 1     
   11    4    5 1     
   12    4   27 1     
   13    5   19 am    
   14    5    6 1     
   15    6    7 1     
   16    6   28 1     
   17    6   29 1     
   18    7    8 1     
   19    7   18 1     
   20    7   30 1     
   21    8    9 am    
   22    8   31 1     
   23    9   10 2     
   24    9   11 am    
   25   11   12 1     
   26   11   32 1     
   27   12   17 ar    
   28   12   13 ar    
   29   13   14 ar    
   30   13   33 1     
   31   14   15 ar    
   32   14   34 1     
   33   15   16 ar    
   34   15   35 1     
   35   16   17 ar    
   36   17   36 1     
   37   18   19 1     
   38   18   37 1     
   39   18   38 1     
   40   19   20 2     
   41   10   39 1     
   42   10   40 1     
   43   16   41 1     
   44   20   42 1     
   45   20   43 1     
@<TRIPOS>SUBSTRUCTURE
      1 S1             1
@<TRIPOS>SET
LONE_PAIRS      STATIC     ATOMS    <user>   **** ""
5 39 40 41 42 43
DONOR_HYDROGENS      STATIC     ATOMS    <user>   **** ""
2 31 32
ATOM$BLUE        STATIC     ATOMS    COLORGROUP SYSTEM
5 39 40 41 42 43
ATOM$RED        STATIC     ATOMS    COLORGROUP SYSTEM
2 31 32
