AV-unprocessed.smi:2222|AV-procd|sdf|8988|dock3
  -GOLD-   2272012203D 1   1.00000     0.00000
 Structure written by MMmdl.
 34 35  0  0  0  0  0  0  0  0  1 V2000
  146.5382  141.9012  154.3712 C   0  0  0  0  0  0  0  0  0  0  0  0
  147.7875  141.9242  155.0460 O   0  0  0  0  0  0  0  0  0  0  0  0
  148.6356  140.8452  154.8887 C   0  0  0  0  0  0  0  0  0  0  0  0
  148.2490  139.6256  154.2769 C   0  0  0  0  0  0  0  0  0  0  0  0
  149.1842  138.5824  154.1637 C   0  0  0  0  0  0  0  0  0  0  0  0
  150.4802  138.7946  154.6661 C   0  0  0  0  0  0  0  0  0  0  0  0
  151.5390  137.7157  154.5786 C   0  0  0  0  0  0  0  0  0  0  0  0
  150.8594  139.9491  155.2499 N   0  0  0  0  0  0  0  0  0  0  0  0
  149.9666  140.9632  155.3658 C   0  0  0  0  0  0  0  0  0  0  0  0
  150.2878  142.2090  155.9706 N   0  0  0  0  0  0  0  0  0  0  0  0
  151.0694  142.4513  157.0416 C   0  0  0  0  0  0  0  0  0  0  0  0
  151.6902  141.5917  157.6645 O   0  0  0  0  0  0  0  0  0  0  0  0
  151.1619  143.7513  157.3750 N   0  0  0  0  0  0  0  0  0  0  0  0
  151.9064  144.3320  158.4521 C   0  0  1  0  0  0  0  0  0  0  0  0
  151.1200  145.1521  159.4512 C   0  0  0  0  0  0  0  0  0  0  0  0
  151.6689  143.8097  159.8540 C   0  0  2  0  0  0  0  0  0  0  0  0
  152.8012  143.7256  160.8542 C   0  0  0  0  0  0  0  0  0  0  0  0
  145.9900  142.8152  154.5995 H   0  0  0  0  0  0  0  0  0  0  0  0
  145.9247  141.0596  154.6958 H   0  0  0  0  0  0  0  0  0  0  0  0
  146.6695  141.8575  153.2892 H   0  0  0  0  0  0  0  0  0  0  0  0
  147.2531  139.4679  153.8919 H   0  0  0  0  0  0  0  0  0  0  0  0
  148.9096  137.6453  153.7023 H   0  0  0  0  0  0  0  0  0  0  0  0
  151.1887  136.8641  153.9950 H   0  0  0  0  0  0  0  0  0  0  0  0
  151.8011  137.3624  155.5761 H   0  0  0  0  0  0  0  0  0  0  0  0
  152.4402  138.1046  154.1034 H   0  0  0  0  0  0  0  0  0  0  0  0
  149.8608  143.0160  155.5400 H   0  0  0  0  0  0  0  0  0  0  0  0
  150.7028  144.4054  156.7576 H   0  0  0  0  0  0  0  0  0  0  0  0
  152.9008  144.7168  158.2305 H   0  0  0  0  0  0  0  0  0  0  0  0
  151.6006  146.0399  159.8573 H   0  0  0  0  0  0  0  0  0  0  0  0
  150.0432  145.2305  159.3142 H   0  0  0  0  0  0  0  0  0  0  0  0
  150.9407  143.0066  159.9517 H   0  0  0  0  0  0  0  0  0  0  0  0
  153.5031  144.5485  160.7160 H   0  0  0  0  0  0  0  0  0  0  0  0
  153.3393  142.7859  160.7305 H   0  0  0  0  0  0  0  0  0  0  0  0
  152.4077  143.7707  161.8697 H   0  0  0  0  0  0  0  0  0  0  0  0
  1  2  1  0  0  0  0
  1 18  1  0  0  0  0
  1 19  1  0  0  0  0
  1 20  1  0  0  0  0
  2  3  1  0  0  0  0
  3  9  1  0  0  0  0
  3  4  2  0  0  0  0
  4  5  1  0  0  0  0
  4 21  1  0  0  0  0
  5  6  2  0  0  0  0
  5 22  1  0  0  0  0
  6  7  1  0  0  0  0
  6  8  1  0  0  0  0
  7 23  1  0  0  0  0
  7 24  1  0  0  0  0
  7 25  1  0  0  0  0
  8  9  2  0  0  0  0
  9 10  1  0  0  0  0
 10 11  1  0  0  0  0
 10 26  1  0  0  0  0
 11 12  2  0  0  0  0
 11 13  1  0  0  0  0
 13 14  1  0  0  0  0
 13 27  1  0  0  0  0
 14 16  1  0  0  0  0
 14 15  1  0  0  0  0
 14 28  1  0  0  0  0
 15 16  1  0  0  0  0
 15 29  1  0  0  0  0
 15 30  1  0  0  0  0
 16 17  1  0  0  0  0
 16 31  1  0  0  0  0
 17 32  1  0  0  0  0
 17 33  1  0  0  0  0
 17 34  1  0  0  0  0
M  END
> <s_m_source_file>
AV-unprocessed.smi

> <i_m_source_file_index>
2222

> <i_lp_mmshare_version>
43012

> <i_f3d_flags>
0

> <s_epik_input>
W0NIM11PYzFbY0hdW2NIXWMoW0NIM10pbmMxW05IXUMoPU8pW05IXVtDQEBIXTJbQ0gyXVtDQEhdMltDSDNd

> <s_epik_cmdline>
J2VwaWtfcHl0aG9uJywgJy1waCcsICc3LjAnLCAnLXRuJywgJzgnLCAnLW1hJywgJzIwMCcsICctbWV0YWxfYmluZGluZycsICctaW1hZScsICc8aW5maWxlLm1hZT4nLCAnLW9tYWUnLCAnPG91dGZpbGUubWFlPic=

> <r_lp_tautomer_probability>
1

> <r_epik_Ionization_Penalty>
6.59103e-05

> <r_epik_Ionization_Penalty_Charging>
0

> <r_epik_Ionization_Penalty_Neutral>
6.59103e-05

> <r_epik_State_Penalty>
-0

> <r_epik_Charging_Adjusted_Penalty>
0

> <i_epik_Tot_Q>
0

> <i_epik_Tot_abs_Q>
0

> <r_epik_Metal_State_Penalty>
-0

> <b_epik_Metal_Only>
0

> <s_lp_Force_Field>
OPLS_2005

> <r_lp_Energy>
33.3795

> <b_lp_Chiralities_Consistent>
1

> <s_lp_Variant>
AV-unprocessed.smi:2222-4

> <Gold.Version>
5.8.1

> <Gold.Id.Protein>
6NUR|6NUR_protein|mol2

> <Gold.PLP.Fitness>
45.4507

> <Gold.PLP.PLP>
-39.9465

> <Gold.PLP.part.hbond>
-3.0000

> <Gold.PLP.part.metal>
0.0000

> <Gold.PLP.part.buried>
-5.1486

> <Gold.PLP.part.nonpolar>
-32.7116

> <Gold.PLP.part.repulsive>
1.3268

> <Gold.PLP.ligand.clash>
0.0000

> <Gold.PLP.ligand.torsion>
0.4026

> <Gold.PLP.Chemscore.Hbond>
2.0920

> <Gold.PLP.Chemscore.CHOScore>
0.0000

> <Gold.PLP.Chemscore.Metal>
0.0000

> <Gold.Chemscore.Hbonds>
donor molecule, donor type, donor heavy atom, donor atom, acceptor molecule, acceptor atom, score
      L1  H    10    26       P1  8028  1.00
      L1  H    13    27       P1  8028  0.70
      P1  H  7989  7998       L1     8  0.29

> <Gold.PLP.Chemscore.Internal.Correction>
0.0335

> <Gold.Rescore>
     Score         DG    S(hbond)    S(metal)    S(lipo)     H(rot)  DE(clash)    DE(int)     intcor
     17.50     -18.53       1.86        0.00      84.94       1.22       0.03       0.99       ----

> <Gold.Chemscore.Fitness>
17.5026

> <Gold.Chemscore.DG>
-18.5307

> <Gold.Chemscore.ZeroCoef>
-5.4800

> <Gold.Chemscore.Hbond>
1.8644

> <Gold.Chemscore.Metal>
0.0000

> <Gold.Chemscore.Lipo>
84.9446

> <Gold.Chemscore.Internal_Hbond>
0.0000

> <Gold.Chemscore.DEClash>
0.0348

> <Gold.Chemscore.DEInternal>
0.9933

> <Gold.Chemscore.Rot>
1.2168

> <Gold.Chemscore.Internal.Correction>
   9.000000E+99

> <Gold.Chemscore.Hbonds>
donor molecule, donor type, donor heavy atom, donor atom, acceptor molecule, acceptor atom, score
      L1  H    10    26       P1  8028  0.95
      L1  H    13    27       P1  8028  0.66

> <Gold.Chemscore.Hbond.Weighted>
-6.2271

> <Gold.Chemscore.Metal.Weighted>
-0.0000

> <Gold.Chemscore.Lipo.Weighted>
-9.9385

> <Gold.Chemscore.Internal_Hbond.Weighted>
0.0000

> <Gold.Chemscore.DEClash.Weighted>
0.0348

> <Gold.Chemscore.DEInternal.Weighted>
0.9933

> <Gold.Chemscore.Rot.Weighted>
3.1150

> <Gold.Chemscore.Internal.Correction.Weighted>
   9.000000E+99

> <Gold.Protein.RotatedTorsions>
[ 6907 6896 6895 6894 ] final   46.40 input  -60.11 | X-H torsion
[ 7974 7965 7964 7962 ] final  -95.21 input  175.53 | X-H torsion
[ 8008 7997 7996 7995 ] final  124.11 input   59.86 | X-H torsion
[ 10167 10162 10161 10158 ] final   73.57 input  -65.29 | X-H torsion
[ 10718 10713 10712 10709 ] final   -7.62 input   66.30 | X-H torsion
[ 10763 10752 10751 10750 ] final   84.09 input  -60.55 | X-H torsion
[ 11005 11000 10999 10996 ] final    4.56 input  -57.11 | X-H torsion

> <Gold.Protein.ActiveResidues>
 VAL166  LYS551  ARG553  GLY616  TRP617  ASP618  TYR619  PRO620  LYS621  CYS622 
 ASP623  PHE694  ASN695  SER759  ASP760  ASP761  ALA762  ILE779  LEU786  VAL792 
 PHE793  MET794  SER795  GLU796  ALA797  LYS798  CYS799  TRP800  GLU811  SER814 

> <Gold.Protein.RotatedAtoms>
  152.2560  134.8084  160.0438 H   0  0  0  0  0  0  0  0  0  0  0  0  # atno 6907 bound_to 6896
  151.8747  133.3477  159.3754 H   0  0  0  0  0  0  0  0  0  0  0  0  # atno 6908 bound_to 6896
  150.7100  134.5005  159.5603 H   0  0  0  0  0  0  0  0  0  0  0  0  # atno 6909 bound_to 6896
  145.3630  140.9494  143.2490 H   0  0  0  0  0  0  0  0  0  0  0  0  # atno 7974 bound_to 7965
  156.2790  140.2747  156.1735 H   0  0  0  0  0  0  0  0  0  0  0  0  # atno 8008 bound_to 7997
  155.0630  140.0386  157.2601 H   0  0  0  0  0  0  0  0  0  0  0  0  # atno 8009 bound_to 7997
  154.7102  140.2667  155.6642 H   0  0  0  0  0  0  0  0  0  0  0  0  # atno 8010 bound_to 7997
  140.0231  144.5525  150.7566 H   0  0  0  0  0  0  0  0  0  0  0  0  # atno 10167 bound_to 10162
  156.7145  130.5132  149.5883 H   0  0  0  0  0  0  0  0  0  0  0  0  # atno 10718 bound_to 10713
  153.1350  135.4667  154.9408 H   0  0  0  0  0  0  0  0  0  0  0  0  # atno 10763 bound_to 10752
  154.7698  135.3155  154.8215 H   0  0  0  0  0  0  0  0  0  0  0  0  # atno 10764 bound_to 10752
  153.8750  135.6900  153.4825 H   0  0  0  0  0  0  0  0  0  0  0  0  # atno 10765 bound_to 10752
  140.5806  134.0017  155.8046 H   0  0  0  0  0  0  0  0  0  0  0  0  # atno 11005 bound_to 11000
  144.8632  139.5146  143.6802 LP  0  0  0  0  0  0  0  0  0  0  0  0  # atno 17320 bound_to 7965
  146.2919  139.7164  142.9155 LP  0  0  0  0  0  0  0  0  0  0  0  0  # atno 17321 bound_to 7965
  140.7334  143.2717  151.3868 LP  0  0  0  0  0  0  0  0  0  0  0  0  # atno 17342 bound_to 10162
  139.6126  144.1067  152.2314 LP  0  0  0  0  0  0  0  0  0  0  0  0  # atno 17343 bound_to 10162
  156.1637  130.6391  151.0751 LP  0  0  0  0  0  0  0  0  0  0  0  0  # atno 17370 bound_to 10713
  157.6923  131.0806  150.7073 LP  0  0  0  0  0  0  0  0  0  0  0  0  # atno 17371 bound_to 10713
  141.0999  133.9785  157.3097 LP  0  0  0  0  0  0  0  0  0  0  0  0  # atno 17394 bound_to 11000
  139.9319  135.0199  156.8429 LP  0  0  0  0  0  0  0  0  0  0  0  0  # atno 17395 bound_to 11000

$$$$
