AV-unprocessed.smi:2973|AV-procd|sdf|11346|dock8
  -GOLD-   2272016263D 1   1.00000     0.00000
 Structure written by MMmdl.
 48 50  0  0  0  0  0  0  0  0  2 V2000
  152.4900  137.9320  158.9669 C   0  0  0  0  0  0  0  0  0  0  0  0
  152.0923  139.4160  159.1264 C   0  0  1  0  0  0  0  0  0  0  0  0
  153.1714  140.1891  159.9151 C   0  0  0  0  0  0  0  0  0  0  0  0
  152.7537  141.6424  160.1830 C   0  0  0  0  0  0  0  0  0  0  0  0
  152.4263  142.3747  158.8753 C   0  0  0  0  0  0  0  0  0  0  0  0
  151.3460  141.6286  158.0740 C   0  0  0  0  0  0  0  0  0  0  0  0
  151.7200  140.1491  157.7959 C   0  0  1  0  0  0  0  0  0  0  0  0
  152.7953  140.0777  156.8188 N   0  5  0  0  0  0  0  0  0  0  0  0
  152.3407  139.4546  155.7073 C   0  0  0  0  0  0  0  0  0  0  0  0
  152.9757  139.2312  154.6775 O   0  0  0  0  0  0  0  0  0  0  0  0
  151.0506  139.0941  155.8489 N   0  0  0  0  0  0  0  0  0  0  0  0
  150.2424  138.4189  154.8211 C   0  0  0  0  0  0  0  0  0  0  0  0
  148.9312  139.1338  154.4509 C   0  0  0  0  0  0  0  0  0  0  0  0
  148.6295  140.1699  155.0428 O   0  0  0  0  0  0  0  0  0  0  0  0
  148.1580  138.5949  153.4928 N   0  0  0  0  0  0  0  0  0  0  0  0
  146.8782  139.1270  153.0421 C   0  0  0  0  0  0  0  0  0  0  0  0
  146.4525  138.5067  151.7006 C   0  0  0  0  0  0  0  0  0  0  0  0
  145.6016  137.2639  151.8826 C   0  0  0  0  0  0  0  0  0  0  0  0
  145.7755  136.1426  151.0432 C   0  0  0  0  0  0  0  0  0  0  0  0
  144.9611  135.0133  151.2544 C   0  0  0  0  0  0  0  0  0  0  0  0
  144.0093  135.0478  152.2915 C   0  0  0  0  0  0  0  0  0  0  0  0
  143.9154  136.2145  153.0761 C   0  0  0  0  0  0  0  0  0  0  0  0
  144.6921  137.3024  152.8828 N   0  0  0  0  0  0  0  0  0  0  0  0
  150.5863  139.4625  157.0481 C   0  0  0  0  0  0  0  0  0  0  0  0
  149.4506  139.2976  157.4961 O   0  0  0  0  0  0  0  0  0  0  0  0
  153.3961  137.8216  158.3706 H   0  0  0  0  0  0  0  0  0  0  0  0
  151.7038  137.3477  158.4895 H   0  0  0  0  0  0  0  0  0  0  0  0
  152.6825  137.4758  159.9379 H   0  0  0  0  0  0  0  0  0  0  0  0
  151.1967  139.4205  159.7506 H   0  0  0  0  0  0  0  0  0  0  0  0
  153.3654  139.6911  160.8655 H   0  0  0  0  0  0  0  0  0  0  0  0
  154.1139  140.1754  159.3660 H   0  0  0  0  0  0  0  0  0  0  0  0
  151.8835  141.6589  160.8402 H   0  0  0  0  0  0  0  0  0  0  0  0
  153.5510  142.1660  160.7108 H   0  0  0  0  0  0  0  0  0  0  0  0
  152.0909  143.3890  159.0925 H   0  0  0  0  0  0  0  0  0  0  0  0
  153.3305  142.4727  158.2737 H   0  0  0  0  0  0  0  0  0  0  0  0
  150.4125  141.6685  158.6379 H   0  0  0  0  0  0  0  0  0  0  0  0
  151.1534  142.1602  157.1402 H   0  0  0  0  0  0  0  0  0  0  0  0
  150.8339  138.2965  153.9124 H   0  0  0  0  0  0  0  0  0  0  0  0
  149.9992  137.4059  155.1459 H   0  0  0  0  0  0  0  0  0  0  0  0
  148.4757  137.7394  153.0589 H   0  0  0  0  0  0  0  0  0  0  0  0
  146.1134  138.9601  153.8026 H   0  0  0  0  0  0  0  0  0  0  0  0
  146.9829  140.2073  152.9375 H   0  0  0  0  0  0  0  0  0  0  0  0
  145.8924  139.2366  151.1138 H   0  0  0  0  0  0  0  0  0  0  0  0
  147.3316  138.2494  151.1083 H   0  0  0  0  0  0  0  0  0  0  0  0
  146.5157  136.1463  150.2567 H   0  0  0  0  0  0  0  0  0  0  0  0
  145.0646  134.1365  150.6325 H   0  0  0  0  0  0  0  0  0  0  0  0
  143.3672  134.2008  152.4818 H   0  0  0  0  0  0  0  0  0  0  0  0
  143.1967  136.2756  153.8798 H   0  0  0  0  0  0  0  0  0  0  0  0
  1  2  1  0  0  0  0
  1 26  1  0  0  0  0
  1 27  1  0  0  0  0
  1 28  1  0  0  0  0
  2  7  1  0  0  0  0
  2  3  1  0  0  0  0
  2 29  1  0  0  0  0
  3  4  1  0  0  0  0
  3 30  1  0  0  0  0
  3 31  1  0  0  0  0
  4  5  1  0  0  0  0
  4 32  1  0  0  0  0
  4 33  1  0  0  0  0
  5  6  1  0  0  0  0
  5 34  1  0  0  0  0
  5 35  1  0  0  0  0
  6  7  1  0  0  0  0
  6 36  1  0  0  0  0
  6 37  1  0  0  0  0
  7 24  1  0  0  0  0
  7  8  1  0  0  0  0
  8  9  1  0  0  0  0
  9 10  2  0  0  0  0
  9 11  1  0  0  0  0
 11 12  1  0  0  0  0
 11 24  1  0  0  0  0
 12 13  1  0  0  0  0
 12 38  1  0  0  0  0
 12 39  1  0  0  0  0
 13 14  2  0  0  0  0
 13 15  1  0  0  0  0
 15 16  1  0  0  0  0
 15 40  1  0  0  0  0
 16 17  1  0  0  0  0
 16 41  1  0  0  0  0
 16 42  1  0  0  0  0
 17 18  1  0  0  0  0
 17 43  1  0  0  0  0
 17 44  1  0  0  0  0
 18 23  1  0  0  0  0
 18 19  2  0  0  0  0
 19 20  1  0  0  0  0
 19 45  1  0  0  0  0
 20 21  2  0  0  0  0
 20 46  1  0  0  0  0
 21 22  1  0  0  0  0
 21 47  1  0  0  0  0
 22 23  2  0  0  0  0
 22 48  1  0  0  0  0
 24 25  2  0  0  0  0
M  CHG  1   8  -1
M  END
> <s_m_source_file>
AV-unprocessed.smi

> <i_m_source_file_index>
2973

> <i_lp_mmshare_version>
43012

> <i_f3d_flags>
0

> <s_epik_input>
W0NIMl0xW0NIMl1bQ0gyXVtDSDJdW0NAQEhdKFtDSDNdKVtDQF0xMltOSF1DKD1PKU4oQzI9TylbQ0gyXUMoPU8pW05IXVtDSDJdW0NIMl1jM1tjSF1bY0hdW2NIXVtjSF1uMw==

> <s_epik_cmdline>
J2VwaWtfcHl0aG9uJywgJy1waCcsICc3LjAnLCAnLXRuJywgJzgnLCAnLW1hJywgJzIwMCcsICctbWV0YWxfYmluZGluZycsICctaW1hZScsICc8aW5maWxlLm1hZT4nLCAnLW9tYWUnLCAnPG91dGZpbGUubWFlPic=

> <r_lp_tautomer_probability>
1

> <r_epik_Ionization_Penalty>
6.04175

> <r_epik_Ionization_Penalty_Charging>
6.01728

> <r_epik_Ionization_Penalty_Neutral>
0.0244696

> <r_epik_State_Penalty>
6.03712

> <r_epik_Charging_Adjusted_Penalty>
12.0544

> <i_epik_Tot_Q>
-1

> <i_epik_Tot_abs_Q>
1

> <r_epik_Metal_State_Penalty>
2.01153

> <b_epik_Metal_Only>
1

> <s_lp_Force_Field>
OPLS_2005

> <r_lp_Energy>
16.8957

> <b_lp_Chiralities_Consistent>
1

> <s_lp_Variant>
AV-unprocessed.smi:2973-10

> <Gold.Version>
5.8.1

> <Gold.Id.Protein>
6NUR|6NUR_protein|mol2

> <Gold.PLP.Fitness>
50.7817

> <Gold.PLP.PLP>
-43.0002

> <Gold.PLP.part.hbond>
-4.6083

> <Gold.PLP.part.metal>
0.0000

> <Gold.PLP.part.buried>
2.0748

> <Gold.PLP.part.nonpolar>
-41.8923

> <Gold.PLP.part.repulsive>
0.3680

> <Gold.PLP.ligand.clash>
0.0000

> <Gold.PLP.ligand.torsion>
0.6209

> <Gold.PLP.Chemscore.Hbond>
3.0000

> <Gold.PLP.Chemscore.CHOScore>
0.0000

> <Gold.PLP.Chemscore.Metal>
0.0000

> <Gold.Chemscore.Hbonds>
donor molecule, donor type, donor heavy atom, donor atom, acceptor molecule, acceptor atom, score
      L1  H    15    40       P1  7948  1.00
      P1  H  7989  7998       L1    10  0.03
      P1  H  7997  8008       L1     8  2.00

> <Gold.PLP.Chemscore.Internal.Correction>
0.0235

> <Gold.Rescore>
     Score         DG    S(hbond)    S(metal)    S(lipo)     H(rot)  DE(clash)    DE(int)     intcor
     14.27     -17.68       1.69        0.00      95.56       1.81       0.41       3.00       ----

> <Gold.Chemscore.Fitness>
14.2718

> <Gold.Chemscore.DG>
-17.6832

> <Gold.Chemscore.ZeroCoef>
-5.4800

> <Gold.Chemscore.Hbond>
1.6927

> <Gold.Chemscore.Metal>
0.0000

> <Gold.Chemscore.Lipo>
95.5596

> <Gold.Chemscore.Internal_Hbond>
0.0000

> <Gold.Chemscore.DEClash>
0.4126

> <Gold.Chemscore.DEInternal>
2.9989

> <Gold.Chemscore.Rot>
1.8090

> <Gold.Chemscore.Internal.Correction>
   9.000000E+99

> <Gold.Chemscore.Hbonds>
donor molecule, donor type, donor heavy atom, donor atom, acceptor molecule, acceptor atom, score
      L1  H    15    40       P1  7948  0.98
      P1  H  7997  8008       L1     8  0.52

> <Gold.Chemscore.Hbond.Weighted>
-5.6538

> <Gold.Chemscore.Metal.Weighted>
-0.0000

> <Gold.Chemscore.Lipo.Weighted>
-11.1805

> <Gold.Chemscore.Internal_Hbond.Weighted>
0.0000

> <Gold.Chemscore.DEClash.Weighted>
0.4126

> <Gold.Chemscore.DEInternal.Weighted>
2.9989

> <Gold.Chemscore.Rot.Weighted>
4.6310

> <Gold.Chemscore.Internal.Correction.Weighted>
   9.000000E+99

> <Gold.Protein.RotatedTorsions>
[ 6907 6896 6895 6894 ] final  -55.50 input  -60.11 | X-H torsion
[ 7974 7965 7964 7962 ] final   29.14 input  175.53 | X-H torsion
[ 8008 7997 7996 7995 ] final  -65.01 input   59.86 | X-H torsion
[ 10167 10162 10161 10158 ] final  -15.94 input  -65.29 | X-H torsion
[ 10718 10713 10712 10709 ] final  152.14 input   66.30 | X-H torsion
[ 10763 10752 10751 10750 ] final   69.12 input  -60.55 | X-H torsion
[ 11005 11000 10999 10996 ] final -136.94 input  -57.11 | X-H torsion

> <Gold.Protein.ActiveResidues>
 VAL166  LYS551  ARG553  GLY616  TRP617  ASP618  TYR619  PRO620  LYS621  CYS622 
 ASP623  PHE694  ASN695  SER759  ASP760  ASP761  ALA762  ILE779  LEU786  VAL792 
 PHE793  MET794  SER795  GLU796  ALA797  LYS798  CYS799  TRP800  GLU811  SER814 

> <Gold.Protein.RotatedAtoms>
  150.8246  134.7471  159.6801 H   0  0  0  0  0  0  0  0  0  0  0  0  # atno 6907 bound_to 6896
  152.4358  134.5685  159.9924 H   0  0  0  0  0  0  0  0  0  0  0  0  # atno 6908 bound_to 6896
  151.5860  133.3334  159.3054 H   0  0  0  0  0  0  0  0  0  0  0  0  # atno 6909 bound_to 6896
  146.1689  139.6962  142.8982 H   0  0  0  0  0  0  0  0  0  0  0  0  # atno 7974 bound_to 7965
  154.4646  140.0942  156.6984 H   0  0  0  0  0  0  0  0  0  0  0  0  # atno 8008 bound_to 7997
  155.4896  140.3470  155.4334 H   0  0  0  0  0  0  0  0  0  0  0  0  # atno 8009 bound_to 7997
  156.0932  140.1403  156.9553 H   0  0  0  0  0  0  0  0  0  0  0  0  # atno 8010 bound_to 7997
  140.7226  143.5166  150.9684 H   0  0  0  0  0  0  0  0  0  0  0  0  # atno 10167 bound_to 10162
  157.2616  131.0799  151.1662 H   0  0  0  0  0  0  0  0  0  0  0  0  # atno 10718 bound_to 10713
  153.0271  135.5222  154.7240 H   0  0  0  0  0  0  0  0  0  0  0  0  # atno 10763 bound_to 10752
  154.6287  135.2897  155.0244 H   0  0  0  0  0  0  0  0  0  0  0  0  # atno 10764 bound_to 10752
  154.1204  135.6608  153.4954 H   0  0  0  0  0  0  0  0  0  0  0  0  # atno 10765 bound_to 10752
  140.8757  134.1994  157.4623 H   0  0  0  0  0  0  0  0  0  0  0  0  # atno 11005 bound_to 11000
  145.4394  141.0421  143.2866 LP  0  0  0  0  0  0  0  0  0  0  0  0  # atno 17320 bound_to 7965
  144.8133  139.5923  143.7020 LP  0  0  0  0  0  0  0  0  0  0  0  0  # atno 17321 bound_to 7965
  139.8882  143.6986  152.3148 LP  0  0  0  0  0  0  0  0  0  0  0  0  # atno 17342 bound_to 10162
  139.7292  144.7586  151.0829 LP  0  0  0  0  0  0  0  0  0  0  0  0  # atno 17343 bound_to 10162
  157.3169  130.6918  149.6247 LP  0  0  0  0  0  0  0  0  0  0  0  0  # atno 17370 bound_to 10713
  155.9664  130.4347  150.5059 LP  0  0  0  0  0  0  0  0  0  0  0  0  # atno 17371 bound_to 10713
  139.8715  134.9795  156.5038 LP  0  0  0  0  0  0  0  0  0  0  0  0  # atno 17394 bound_to 11000
  140.8520  133.8124  155.9178 LP  0  0  0  0  0  0  0  0  0  0  0  0  # atno 17395 bound_to 11000

$$$$
