AV-unprocessed.smi:1912|AV-procd|sdf|7750|dock10
  -GOLD-   22720 9493D 1   1.00000     0.00000
 Structure written by MMmdl.
 44 46  0  0  0  0  0  0  0  0  2 V2000
  155.4530  134.3663  159.1964 C   0  0  0  0  0  0  0  0  0  0  0  0
  154.3190  135.1885  158.9627 O   0  0  0  0  0  0  0  0  0  0  0  0
  154.2513  136.4010  159.6143 C   0  0  0  0  0  0  0  0  0  0  0  0
  155.1258  136.7971  160.6530 C   0  0  0  0  0  0  0  0  0  0  0  0
  154.9899  138.0606  161.2564 C   0  0  0  0  0  0  0  0  0  0  0  0
  153.9764  138.9596  160.8408 C   0  0  0  0  0  0  0  0  0  0  0  0
  153.8137  140.2187  161.3827 O   0  0  0  0  0  0  0  0  0  0  0  0
  154.6958  140.6302  162.4159 C   0  0  0  0  0  0  0  0  0  0  0  0
  153.0924  138.5618  159.8074 C   0  0  0  0  0  0  0  0  0  0  0  0
  152.0034  139.5111  159.3085 C   0  0  2  0  0  0  0  0  0  0  0  0
  150.7668  138.8587  159.1005 O   0  0  0  0  0  0  0  0  0  0  0  0
  152.3933  140.2190  157.9937 C   0  0  0  0  0  0  0  0  0  0  0  0
  151.7088  141.5105  157.8220 N   0  0  0  0  0  0  0  0  0  0  0  0
  150.9222  141.9523  156.7998 C   0  0  0  0  0  0  0  0  0  0  0  0
  150.5708  141.2042  155.5582 C   0  0  0  0  0  0  0  0  0  0  0  0
  150.5005  143.2062  157.1263 N   0  3  0  0  0  0  0  0  0  0  0  0
  151.0207  143.5706  158.3687 C   0  0  0  0  0  0  0  0  0  0  0  0
  150.8658  144.7355  159.1136 C   0  0  0  0  0  0  0  0  0  0  0  0
  151.5297  144.7845  160.3569 C   0  0  0  0  0  0  0  0  0  0  0  0
  152.3126  143.7049  160.8138 C   0  0  0  0  0  0  0  0  0  0  0  0
  152.4666  142.5314  160.0472 C   0  0  0  0  0  0  0  0  0  0  0  0
  151.8034  142.4880  158.8206 C   0  0  0  0  0  0  0  0  0  0  0  0
  153.2429  137.2931  159.2045 C   0  0  0  0  0  0  0  0  0  0  0  0
  155.3567  133.4485  158.6166 H   0  0  0  0  0  0  0  0  0  0  0  0
  155.5320  134.0856  160.2477 H   0  0  0  0  0  0  0  0  0  0  0  0
  156.3744  134.8589  158.8830 H   0  0  0  0  0  0  0  0  0  0  0  0
  155.9146  136.1496  161.0044 H   0  0  0  0  0  0  0  0  0  0  0  0
  155.6847  138.3174  162.0413 H   0  0  0  0  0  0  0  0  0  0  0  0
  154.4738  141.6626  162.6859 H   0  0  0  0  0  0  0  0  0  0  0  0
  155.7364  140.5924  162.0901 H   0  0  0  0  0  0  0  0  0  0  0  0
  154.5728  140.0210  163.3122 H   0  0  0  0  0  0  0  0  0  0  0  0
  151.8051  140.2631  160.0721 H   0  0  0  0  0  0  0  0  0  0  0  0
  150.5386  138.3905  159.8893 H   0  0  0  0  0  0  0  0  0  0  0  0
  153.4716  140.3592  157.9168 H   0  0  0  0  0  0  0  0  0  0  0  0
  152.1088  139.5995  157.1421 H   0  0  0  0  0  0  0  0  0  0  0  0
  149.9548  141.8192  154.9016 H   0  0  0  0  0  0  0  0  0  0  0  0
  150.0157  140.3001  155.8080 H   0  0  0  0  0  0  0  0  0  0  0  0
  151.4753  140.9217  155.0193 H   0  0  0  0  0  0  0  0  0  0  0  0
  150.2657  145.5635  158.7659 H   0  0  0  0  0  0  0  0  0  0  0  0
  151.4359  145.6673  160.9725 H   0  0  0  0  0  0  0  0  0  0  0  0
  152.8046  143.7766  161.7729 H   0  0  0  0  0  0  0  0  0  0  0  0
  153.0644  141.7099  160.4126 H   0  0  0  0  0  0  0  0  0  0  0  0
  152.5813  136.9957  158.4040 H   0  0  0  0  0  0  0  0  0  0  0  0
  149.8963  143.7688  156.5413 H   0  0  0  0  0  0  0  0  0  0  0  0
  1  2  1  0  0  0  0
  1 24  1  0  0  0  0
  1 25  1  0  0  0  0
  1 26  1  0  0  0  0
  2  3  1  0  0  0  0
  3 23  1  0  0  0  0
  3  4  2  0  0  0  0
  4  5  1  0  0  0  0
  4 27  1  0  0  0  0
  5  6  2  0  0  0  0
  5 28  1  0  0  0  0
  6  7  1  0  0  0  0
  6  9  1  0  0  0  0
  7  8  1  0  0  0  0
  8 29  1  0  0  0  0
  8 30  1  0  0  0  0
  8 31  1  0  0  0  0
  9 10  1  0  0  0  0
  9 23  2  0  0  0  0
 10 11  1  0  0  0  0
 10 12  1  0  0  0  0
 10 32  1  0  0  0  0
 11 33  1  0  0  0  0
 12 13  1  0  0  0  0
 12 34  1  0  0  0  0
 12 35  1  0  0  0  0
 13 22  1  0  0  0  0
 13 14  1  0  0  0  0
 14 15  1  0  0  0  0
 14 16  2  0  0  0  0
 15 36  1  0  0  0  0
 15 37  1  0  0  0  0
 15 38  1  0  0  0  0
 16 17  1  0  0  0  0
 16 44  1  0  0  0  0
 17 22  2  0  0  0  0
 17 18  1  0  0  0  0
 18 19  2  0  0  0  0
 18 39  1  0  0  0  0
 19 20  1  0  0  0  0
 19 40  1  0  0  0  0
 20 21  2  0  0  0  0
 20 41  1  0  0  0  0
 21 22  1  0  0  0  0
 21 42  1  0  0  0  0
 23 43  1  0  0  0  0
M  CHG  1  16   1
M  END
> <s_m_source_file>
AV-unprocessed.smi

> <i_m_source_file_index>
1912

> <i_lp_mmshare_version>
43012

> <i_f3d_flags>
0

> <s_epik_input>
W0NIM11PYzFbY0hdW2NIXWMoT1tDSDNdKWMoW2NIXTEpW0NASF0oW09IXSlbQ0gyXW4oYyhuMilbQ0gzXSljKGMyMylbY0hdW2NIXVtjSF1bY0hdMw==

> <s_epik_cmdline>
J2VwaWtfcHl0aG9uJywgJy1waCcsICc3LjAnLCAnLXRuJywgJzgnLCAnLW1hJywgJzIwMCcsICctbWV0YWxfYmluZGluZycsICctaW1hZScsICc8aW5maWxlLm1hZT4nLCAnLW9tYWUnLCAnPG91dGZpbGUubWFlPic=

> <r_lp_tautomer_probability>
1

> <r_epik_Ionization_Penalty>
0.963869

> <r_epik_Ionization_Penalty_Charging>
0.963868

> <r_epik_Ionization_Penalty_Neutral>
1.34362e-06

> <r_epik_State_Penalty>
1.00924

> <r_epik_Charging_Adjusted_Penalty>
1.9731

> <i_epik_Tot_Q>
1

> <i_epik_Tot_abs_Q>
1

> <r_epik_Metal_State_Penalty>
4.98304

> <b_epik_Metal_Only>
0

> <s_lp_Force_Field>
OPLS_2005

> <r_lp_Energy>
21.5299

> <b_lp_Chiralities_Consistent>
1

> <s_lp_Variant>
AV-unprocessed.smi:1912-3

> <Gold.Version>
5.8.1

> <Gold.Id.Protein>
6NUR|6NUR_protein|mol2

> <Gold.PLP.Fitness>
48.8575

> <Gold.PLP.PLP>
-41.6877

> <Gold.PLP.part.hbond>
-2.8966

> <Gold.PLP.part.metal>
0.0000

> <Gold.PLP.part.buried>
-4.5194

> <Gold.PLP.part.nonpolar>
-34.2916

> <Gold.PLP.part.repulsive>
0.0026

> <Gold.PLP.ligand.clash>
0.0000

> <Gold.PLP.ligand.torsion>
0.8452

> <Gold.PLP.Chemscore.Hbond>
2.9424

> <Gold.PLP.Chemscore.CHOScore>
0.0000

> <Gold.PLP.Chemscore.Metal>
0.0000

> <Gold.Chemscore.Hbonds>
donor molecule, donor type, donor heavy atom, donor atom, acceptor molecule, acceptor atom, score
      L1  H    16    44       P1  8028  2.00
      P1  H  6896  6907       L1     2  0.64

> <Gold.PLP.Chemscore.Internal.Correction>
0.0332

> <Gold.Rescore>
     Score         DG    S(hbond)    S(metal)    S(lipo)     H(rot)  DE(clash)    DE(int)     intcor
     20.27     -20.98       1.69        0.00     133.44       2.24       0.12       0.59       ----

> <Gold.Chemscore.Fitness>
20.2692

> <Gold.Chemscore.DG>
-20.9807

> <Gold.Chemscore.ZeroCoef>
-5.4800

> <Gold.Chemscore.Hbond>
1.6870

> <Gold.Chemscore.Metal>
0.0000

> <Gold.Chemscore.Lipo>
133.4432

> <Gold.Chemscore.Internal_Hbond>
0.0000

> <Gold.Chemscore.DEClash>
0.1220

> <Gold.Chemscore.DEInternal>
0.5895

> <Gold.Chemscore.Rot>
2.2448

> <Gold.Chemscore.Internal.Correction>
   9.000000E+99

> <Gold.Chemscore.Hbonds>
donor molecule, donor type, donor heavy atom, donor atom, acceptor molecule, acceptor atom, score
      L1  H    16    44       P1  8028  1.00
      P1  H  6896  6907       L1     2  0.09

> <Gold.Chemscore.Hbond.Weighted>
-5.6346

> <Gold.Chemscore.Metal.Weighted>
-0.0000

> <Gold.Chemscore.Lipo.Weighted>
-15.6129

> <Gold.Chemscore.Internal_Hbond.Weighted>
0.0000

> <Gold.Chemscore.DEClash.Weighted>
0.1220

> <Gold.Chemscore.DEInternal.Weighted>
0.5895

> <Gold.Chemscore.Rot.Weighted>
5.7467

> <Gold.Chemscore.Internal.Correction.Weighted>
   9.000000E+99

> <Gold.Protein.RotatedTorsions>
[ 6907 6896 6895 6894 ] final   85.44 input  -60.11 | X-H torsion
[ 7974 7965 7964 7962 ] final -157.80 input  175.53 | X-H torsion
[ 8008 7997 7996 7995 ] final  105.78 input   59.86 | X-H torsion
[ 10167 10162 10161 10158 ] final  120.28 input  -65.29 | X-H torsion
[ 10718 10713 10712 10709 ] final  -74.03 input   66.30 | X-H torsion
[ 10763 10752 10751 10750 ] final   37.96 input  -60.55 | X-H torsion
[ 11005 11000 10999 10996 ] final  -21.35 input  -57.11 | X-H torsion

> <Gold.Protein.ActiveResidues>
 VAL166  LYS551  ARG553  GLY616  TRP617  ASP618  TYR619  PRO620  LYS621  CYS622 
 ASP623  PHE694  ASN695  SER759  ASP760  ASP761  ALA762  ILE779  LEU786  VAL792 
 PHE793  MET794  SER795  GLU796  ALA797  LYS798  CYS799  TRP800  GLU811  SER814 

> <Gold.Protein.RotatedAtoms>
  152.5374  134.2586  159.8926 H   0  0  0  0  0  0  0  0  0  0  0  0  # atno 6907 bound_to 6896
  151.2547  133.4325  159.2621 H   0  0  0  0  0  0  0  0  0  0  0  0  # atno 6908 bound_to 6896
  151.0507  134.9685  159.8266 H   0  0  0  0  0  0  0  0  0  0  0  0  # atno 6909 bound_to 6896
  144.7532  140.3918  143.6032 H   0  0  0  0  0  0  0  0  0  0  0  0  # atno 7974 bound_to 7965
  156.1688  140.3124  155.8936 H   0  0  0  0  0  0  0  0  0  0  0  0  # atno 8008 bound_to 7997
  155.3630  140.0477  157.3063 H   0  0  0  0  0  0  0  0  0  0  0  0  # atno 8009 bound_to 7997
  154.5220  140.2201  155.8970 H   0  0  0  0  0  0  0  0  0  0  0  0  # atno 8010 bound_to 7997
  139.5992  144.7051  151.3103 H   0  0  0  0  0  0  0  0  0  0  0  0  # atno 10167 bound_to 10162
  156.0257  130.4407  150.2832 H   0  0  0  0  0  0  0  0  0  0  0  0  # atno 10718 bound_to 10713
  153.0018  135.6263  154.2228 H   0  0  0  0  0  0  0  0  0  0  0  0  # atno 10763 bound_to 10752
  154.1971  135.2806  155.3005 H   0  0  0  0  0  0  0  0  0  0  0  0  # atno 10764 bound_to 10752
  154.5714  135.5675  153.7157 H   0  0  0  0  0  0  0  0  0  0  0  0  # atno 10765 bound_to 10752
  140.8553  133.7827  156.0012 H   0  0  0  0  0  0  0  0  0  0  0  0  # atno 11005 bound_to 11000
  145.6868  139.1630  143.2669 LP  0  0  0  0  0  0  0  0  0  0  0  0  # atno 17320 bound_to 7965
  146.1511  140.6924  142.9322 LP  0  0  0  0  0  0  0  0  0  0  0  0  # atno 17321 bound_to 7965
  140.7236  143.7066  150.7802 LP  0  0  0  0  0  0  0  0  0  0  0  0  # atno 17342 bound_to 10162
  140.0639  143.5127  152.2614 LP  0  0  0  0  0  0  0  0  0  0  0  0  # atno 17343 bound_to 10162
  157.0935  131.0176  151.3112 LP  0  0  0  0  0  0  0  0  0  0  0  0  # atno 17370 bound_to 10713
  157.4835  130.7779  149.7437 LP  0  0  0  0  0  0  0  0  0  0  0  0  # atno 17371 bound_to 10713
  140.8744  134.2687  157.5175 LP  0  0  0  0  0  0  0  0  0  0  0  0  # atno 17394 bound_to 11000
  139.8705  134.9584  156.4298 LP  0  0  0  0  0  0  0  0  0  0  0  0  # atno 17395 bound_to 11000

$$$$
