#       Name:                AV-unprocessed.smi:282
#       Creating user name   scv26
#       Creation time:       Thu Mar 26 21:42:03 2020


#       File generated by GOLD software.
#

@<TRIPOS>MOLECULE
AV-unprocessed.smi:282
    73    77     1
SMALL
NO_CHARGES


@<TRIPOS>ATOM
      1 ****        -2.4853   0.2969  -3.0658 C.3            1 S1                 0.0000
      2 ****        -1.8332  -0.0670  -1.7248 C.3            1 S1                 0.0000
      3 ****        -2.6065   0.4366  -0.4764 C.3            1 S1                 0.0000
      4 ****        -4.0363  -0.1639  -0.4319 C.3            1 S1                 0.0000
      5 ****        -4.7784   0.2002   0.8007 N.4            1 S1                 1.0000
      6 ****        -5.2844   1.5995   0.7887 C.3            1 S1                 0.0000
      7 ****        -6.1351   1.8955   2.0332 C.3            1 S1                 0.0000
      8 ****        -5.3406   1.6185   3.3148 C.3            1 S1                 0.0000
      9 ****        -4.8205   0.1743   3.3054 C.3            1 S1                 0.0000
     10 ****        -4.0155  -0.1508   2.0302 C.3            1 S1                 0.0000
     11 ****        -2.6153   0.4886   2.0076 C.3            1 S1                 0.0000
     12 ****        -1.9010   0.1421   0.7809 N.3            1 S1                 0.0000
     13 ****        -0.6117   0.5473   0.8268 C.ar           1 S1                 0.0000
     14 ****        -0.3167   1.8714   0.9068 N.ar           1 S1                 0.0000
     15 ****         0.9601   2.2664   0.9302 C.ar           1 S1                 0.0000
     16 ****         2.0659   1.5204   0.8738 N.ar           1 S1                 0.0000
     17 ****         1.7687   0.1921   0.7838 C.ar           1 S1                 0.0000
     18 ****         0.4646  -0.3746   0.7639 C.ar           1 S1                 0.0000
     19 ****         0.5423  -1.7575   0.6746 N.2            1 S1                 0.0000
     20 ****         1.8250  -1.9968   0.6416 C.2            1 S1                 0.0000
     21 ****         2.6355  -0.8829   0.6808 N.pl3          1 S1                 0.0000
     22 ****         4.0917  -0.8651   0.6489 C.3            1 S1                 0.0000
     23 ****         4.7170  -0.8648  -0.7786 C.3            1 S1                 0.0000
     24 ****         4.2908   0.4091  -1.5635 C.3            1 S1                 0.0000
     25 ****         4.7207   1.5972  -0.9301 O.3            1 S1                 0.0000
     26 ****         6.2578  -0.9528  -0.6368 C.3            1 S1                 0.0000
     27 ****         6.9677  -1.2369  -1.9721 C.3            1 S1                 0.0000
     28 ****         6.4676  -2.4430  -2.5340 O.3            1 S1                 0.0000
     29 ****         5.0813  -2.3741  -2.8394 C.3            1 S1                 0.0000
     30 ****         4.2639  -2.1269  -1.5573 C.3            1 S1                 0.0000
     31 ****        -1.8350   0.0182  -3.8952 H              1 S1                 0.0000
     32 ****        -2.6694   1.3692  -3.1365 H              1 S1                 0.0000
     33 ****        -3.4320  -0.2221  -3.2126 H              1 S1                 0.0000
     34 ****        -1.7011  -1.1481  -1.6668 H              1 S1                 0.0000
     35 ****        -0.8294   0.3582  -1.7424 H              1 S1                 0.0000
     36 ****        -2.6909   1.5214  -0.5530 H              1 S1                 0.0000
     37 ****        -4.6222   0.1421  -1.2985 H              1 S1                 0.0000
     38 ****        -3.9730  -1.2523  -0.4743 H              1 S1                 0.0000
     39 ****        -4.4542   2.3040   0.7335 H              1 S1                 0.0000
     40 ****        -5.8875   1.7583  -0.1060 H              1 S1                 0.0000
     41 ****        -6.4679   2.9337   2.0188 H              1 S1                 0.0000
     42 ****        -7.0364   1.2811   2.0183 H              1 S1                 0.0000
     43 ****        -4.5078   2.3179   3.3951 H              1 S1                 0.0000
     44 ****        -5.9695   1.7845   4.1900 H              1 S1                 0.0000
     45 ****        -4.2143  -0.0127   4.1924 H              1 S1                 0.0000
     46 ****        -5.6705  -0.5064   3.3718 H              1 S1                 0.0000
     47 ****        -3.8716  -1.2325   2.0129 H              1 S1                 0.0000
     48 ****        -2.6903   1.5732   2.0929 H              1 S1                 0.0000
     49 ****        -2.0429   0.1448   2.8708 H              1 S1                 0.0000
     50 ****         1.1199   3.3323   1.0000 H              1 S1                 0.0000
     51 ****         2.2179  -3.0012   0.5762 H              1 S1                 0.0000
     52 ****         4.4348   0.0009   1.2162 H              1 S1                 0.0000
     53 ****         4.4394  -1.7348   1.2082 H              1 S1                 0.0000
     54 ****         4.6961   0.4161  -2.5737 H              1 S1                 0.0000
     55 ****         3.2076   0.4501  -1.6776 H              1 S1                 0.0000
     56 ****         4.3994   2.3352  -1.4254 H              1 S1                 0.0000
     57 ****         6.6597  -0.0436  -0.1891 H              1 S1                 0.0000
     58 ****         6.5122  -1.7582   0.0536 H              1 S1                 0.0000
     59 ****         6.8495  -0.4115  -2.6748 H              1 S1                 0.0000
     60 ****         8.0386  -1.3511  -1.8039 H              1 S1                 0.0000
     61 ****         4.8991  -1.6029  -3.5881 H              1 S1                 0.0000
     62 ****         4.7800  -3.3188  -3.2919 H              1 S1                 0.0000
     63 ****         4.3677  -3.0038  -0.9167 H              1 S1                 0.0000
     64 ****         3.2064  -2.0621  -1.8153 H              1 S1                 0.0000
     65 ****        -5.6048  -0.3802   0.8097 H              1 S1                 0.0000
     66 ****        -1.8808  -0.8573   0.7551 LP             1 S1                 0.0000
     67 ****        -1.0521   2.5478   0.9480 LP             1 S1                 0.0000
     68 ****         2.9953   1.8891   0.8949 LP             1 S1                 0.0000
     69 ****        -0.2090  -2.4166   0.6429 LP             1 S1                 0.0000
     70 ****         5.7200   1.6207  -0.9001 LP             1 S1                 0.0000
     71 ****         4.3584   1.6328   0.0013 LP             1 S1                 0.0000
     72 ****         6.6144  -3.1852  -1.8801 LP             1 S1                 0.0000
     73 ****         6.9712  -2.6362  -3.3761 LP             1 S1                 0.0000
@<TRIPOS>BOND
    1    1    2 1     
    2    1   31 1     
    3    1   32 1     
    4    1   33 1     
    5    2    3 1     
    6    2   34 1     
    7    2   35 1     
    8    3   12 1     
    9    3    4 1     
   10    3   36 1     
   11    4    5 1     
   12    4   37 1     
   13    4   38 1     
   14    5   10 1     
   15    5    6 1     
   16    5   65 1     
   17    6    7 1     
   18    6   39 1     
   19    6   40 1     
   20    7    8 1     
   21    7   41 1     
   22    7   42 1     
   23    8    9 1     
   24    8   43 1     
   25    8   44 1     
   26    9   10 1     
   27    9   45 1     
   28    9   46 1     
   29   10   11 1     
   30   10   47 1     
   31   11   12 1     
   32   11   48 1     
   33   11   49 1     
   34   12   13 1     
   35   13   18 ar    
   36   13   14 ar    
   37   14   15 ar    
   38   15   16 ar    
   39   15   50 1     
   40   16   17 ar    
   41   17   21 1     
   42   17   18 ar    
   43   18   19 1     
   44   19   20 2     
   45   20   21 1     
   46   20   51 1     
   47   21   22 1     
   48   22   23 1     
   49   22   52 1     
   50   22   53 1     
   51   23   30 1     
   52   23   24 1     
   53   23   26 1     
   54   24   25 1     
   55   24   54 1     
   56   24   55 1     
   57   25   56 1     
   58   26   27 1     
   59   26   57 1     
   60   26   58 1     
   61   27   28 1     
   62   27   59 1     
   63   27   60 1     
   64   28   29 1     
   65   29   30 1     
   66   29   61 1     
   67   29   62 1     
   68   30   63 1     
   69   30   64 1     
   70   12   66 1     
   71   14   67 1     
   72   16   68 1     
   73   19   69 1     
   74   25   70 1     
   75   25   71 1     
   76   28   72 1     
   77   28   73 1     
@<TRIPOS>SUBSTRUCTURE
      1 S1             1
@<TRIPOS>SET
LONE_PAIRS      STATIC     ATOMS    <user>   **** ""
8 66 67 68 69 70 71 72 73
DONOR_HYDROGENS      STATIC     ATOMS    <user>   **** ""
2 65 56
ATOM$BLUE        STATIC     ATOMS    COLORGROUP SYSTEM
8 66 67 68 69 70 71 72 73
ATOM$RED        STATIC     ATOMS    COLORGROUP SYSTEM
2 65 56
