AV-unprocessed.smi:2923|AV-procd|sdf|11215|dock6
  -GOLD-   2272016103D 1   1.00000     0.00000
 Structure written by MMmdl.
 46 48  0  0  0  0  0  0  0  0  1 V2000
  143.9390  132.3899  149.6178 C   0  0  0  0  0  0  0  0  0  0  0  0
  144.8396  132.7486  150.7067 N   0  0  0  0  0  0  0  0  0  0  0  0
  145.7010  131.7322  151.3020 C   0  0  0  0  0  0  0  0  0  0  0  0
  144.9369  134.0921  151.1359 C   0  0  0  0  0  0  0  0  0  0  0  0
  144.1432  135.1133  150.5565 C   0  0  0  0  0  0  0  0  0  0  0  0
  144.2781  136.4376  151.0150 C   0  0  0  0  0  0  0  0  0  0  0  0
  145.1990  136.7146  152.0514 C   0  0  0  0  0  0  0  0  0  0  0  0
  145.4448  138.0098  152.5817 N   0  0  0  0  0  0  0  0  0  0  0  0
  146.3736  138.3855  153.4772 C   0  0  0  0  0  0  0  0  0  0  0  0
  147.2422  137.6551  153.9536 O   0  0  0  0  0  0  0  0  0  0  0  0
  146.2500  139.6827  153.7873 N   0  0  0  0  0  0  0  0  0  0  0  0
  147.1099  140.3894  154.7315 C   0  0  1  0  0  0  0  0  0  0  0  0
  148.5625  140.4921  154.2415 C   0  0  2  0  0  0  0  0  0  0  0  0
  149.6584  139.7863  154.9927 C   0  0  0  0  0  0  0  0  0  0  0  0
  150.2014  140.8825  155.9137 C   0  0  0  0  0  0  0  0  0  0  0  0
  149.1372  141.8258  156.0167 O   0  0  0  0  0  0  0  0  0  0  0  0
  148.5341  141.9326  154.7294 C   0  0  2  0  0  0  0  0  0  0  0  0
  146.9915  141.9347  154.6850 C   0  0  0  0  0  0  0  0  0  0  0  0
  146.4007  142.5641  153.4151 C   0  0  0  0  0  0  0  0  0  0  0  0
  146.2870  142.5933  155.8719 C   0  0  0  0  0  0  0  0  0  0  0  0
  145.9514  135.6376  152.5586 C   0  0  0  0  0  0  0  0  0  0  0  0
  145.8252  134.3672  152.1223 N   0  0  0  0  0  0  0  0  0  0  0  0
  144.2017  132.9313  148.7086 H   0  0  0  0  0  0  0  0  0  0  0  0
  142.9077  132.6258  149.8809 H   0  0  0  0  0  0  0  0  0  0  0  0
  143.9890  131.3239  149.3956 H   0  0  0  0  0  0  0  0  0  0  0  0
  146.7509  131.9788  151.1411 H   0  0  0  0  0  0  0  0  0  0  0  0
  145.5179  130.7500  150.8662 H   0  0  0  0  0  0  0  0  0  0  0  0
  145.5224  131.6592  152.3753 H   0  0  0  0  0  0  0  0  0  0  0  0
  143.4375  134.9104  149.7652 H   0  0  0  0  0  0  0  0  0  0  0  0
  143.6850  137.2105  150.5517 H   0  0  0  0  0  0  0  0  0  0  0  0
  144.8607  138.7455  152.2120 H   0  0  0  0  0  0  0  0  0  0  0  0
  145.5135  140.2153  153.3483 H   0  0  0  0  0  0  0  0  0  0  0  0
  147.0546  140.0011  155.7511 H   0  0  0  0  0  0  0  0  0  0  0  0
  148.6469  140.4401  153.1543 H   0  0  0  0  0  0  0  0  0  0  0  0
  149.2591  138.9538  155.5729 H   0  0  0  0  0  0  0  0  0  0  0  0
  150.4342  139.3947  154.3342 H   0  0  0  0  0  0  0  0  0  0  0  0
  150.4992  140.5028  156.8913 H   0  0  0  0  0  0  0  0  0  0  0  0
  151.0646  141.3712  155.4595 H   0  0  0  0  0  0  0  0  0  0  0  0
  149.0377  142.6383  154.0668 H   0  0  0  0  0  0  0  0  0  0  0  0
  146.5704  143.6408  153.3894 H   0  0  0  0  0  0  0  0  0  0  0  0
  145.3241  142.4024  153.3474 H   0  0  0  0  0  0  0  0  0  0  0  0
  146.8484  142.1498  152.5113 H   0  0  0  0  0  0  0  0  0  0  0  0
  146.4769  143.6664  155.9052 H   0  0  0  0  0  0  0  0  0  0  0  0
  146.6238  142.1764  156.8214 H   0  0  0  0  0  0  0  0  0  0  0  0
  145.2071  142.4490  155.8258 H   0  0  0  0  0  0  0  0  0  0  0  0
  146.6781  135.7969  153.3421 H   0  0  0  0  0  0  0  0  0  0  0  0
  1  2  1  0  0  0  0
  1 23  1  0  0  0  0
  1 24  1  0  0  0  0
  1 25  1  0  0  0  0
  2  3  1  0  0  0  0
  2  4  1  0  0  0  0
  3 26  1  0  0  0  0
  3 27  1  0  0  0  0
  3 28  1  0  0  0  0
  4 22  1  0  0  0  0
  4  5  2  0  0  0  0
  5  6  1  0  0  0  0
  5 29  1  0  0  0  0
  6  7  2  0  0  0  0
  6 30  1  0  0  0  0
  7  8  1  0  0  0  0
  7 21  1  0  0  0  0
  8  9  1  0  0  0  0
  8 31  1  0  0  0  0
  9 10  2  0  0  0  0
  9 11  1  0  0  0  0
 11 12  1  0  0  0  0
 11 32  1  0  0  0  0
 12 18  1  0  0  0  0
 12 13  1  0  0  0  0
 12 33  1  0  0  0  0
 13 17  1  0  0  0  0
 13 14  1  0  0  0  0
 13 34  1  0  0  0  0
 14 15  1  0  0  0  0
 14 35  1  0  0  0  0
 14 36  1  0  0  0  0
 15 16  1  0  0  0  0
 15 37  1  0  0  0  0
 15 38  1  0  0  0  0
 16 17  1  0  0  0  0
 17 18  1  0  0  0  0
 17 39  1  0  0  0  0
 18 19  1  0  0  0  0
 18 20  1  0  0  0  0
 19 40  1  0  0  0  0
 19 41  1  0  0  0  0
 19 42  1  0  0  0  0
 20 43  1  0  0  0  0
 20 44  1  0  0  0  0
 20 45  1  0  0  0  0
 21 22  2  0  0  0  0
 21 46  1  0  0  0  0
M  END
> <s_m_source_file>
AV-unprocessed.smi

> <i_m_source_file_index>
2923

> <i_lp_mmshare_version>
43012

> <i_f3d_flags>
0

> <s_epik_input>
W0NIM11OKFtDSDNdKWMxW2NIXVtjSF1jKFtjSF1uMSlbTkhdQyg9TylbTkhdW0NASF0yQyhbQ0gzXSkoW0NIM10pW0NAQEhdKFtDQEhdMjMpT1tDSDJdW0NIMl0z

> <s_epik_cmdline>
J2VwaWtfcHl0aG9uJywgJy1waCcsICc3LjAnLCAnLXRuJywgJzgnLCAnLW1hJywgJzIwMCcsICctbWV0YWxfYmluZGluZycsICctaW1hZScsICc8aW5maWxlLm1hZT4nLCAnLW9tYWUnLCAnPG91dGZpbGUubWFlPic=

> <r_lp_tautomer_probability>
1

> <r_epik_Ionization_Penalty>
0.628785

> <r_epik_Ionization_Penalty_Charging>
0

> <r_epik_Ionization_Penalty_Neutral>
0.628785

> <r_epik_State_Penalty>
0.644286

> <r_epik_Charging_Adjusted_Penalty>
0.644286

> <i_epik_Tot_Q>
0

> <i_epik_Tot_abs_Q>
0

> <r_epik_Metal_State_Penalty>
0.308404

> <b_epik_Metal_Only>
0

> <s_lp_Force_Field>
OPLS_2005

> <r_lp_Energy>
39.1675

> <b_lp_Chiralities_Consistent>
1

> <s_lp_Variant>
AV-unprocessed.smi:2923-14

> <Gold.Version>
5.8.1

> <Gold.Id.Protein>
6NUR|6NUR_protein|mol2

> <Gold.PLP.Fitness>
39.6799

> <Gold.PLP.PLP>
-32.1611

> <Gold.PLP.part.hbond>
-2.2571

> <Gold.PLP.part.metal>
0.0000

> <Gold.PLP.part.buried>
2.4994

> <Gold.PLP.part.nonpolar>
-34.7263

> <Gold.PLP.part.repulsive>
3.4888

> <Gold.PLP.ligand.clash>
0.0000

> <Gold.PLP.ligand.torsion>
0.1037

> <Gold.PLP.Chemscore.Hbond>
1.9913

> <Gold.PLP.Chemscore.CHOScore>
0.5243

> <Gold.PLP.Chemscore.Metal>
0.0000

> <Gold.Chemscore.Hbonds>
donor molecule, donor type, donor heavy atom, donor atom, acceptor molecule, acceptor atom, score
      L1  H     8    31       P1 10175  0.84
      L1  H    11    32       P1 10175  0.96
      L1  C    21    46       P1  7948  0.19

> <Gold.PLP.Chemscore.Internal.Correction>
0.1795

> <Gold.Rescore>
     Score         DG    S(hbond)    S(metal)    S(lipo)     H(rot)  DE(clash)    DE(int)     intcor
     14.16     -20.16       1.94        0.00      92.11       1.00       4.46       1.54       ----

> <Gold.Chemscore.Fitness>
14.1613

> <Gold.Chemscore.DG>
-20.1644

> <Gold.Chemscore.ZeroCoef>
-5.4800

> <Gold.Chemscore.Hbond>
1.9363

> <Gold.Chemscore.Metal>
0.0000

> <Gold.Chemscore.Lipo>
92.1126

> <Gold.Chemscore.Internal_Hbond>
0.0000

> <Gold.Chemscore.DEClash>
4.4612

> <Gold.Chemscore.DEInternal>
1.5419

> <Gold.Chemscore.Rot>
1.0000

> <Gold.Chemscore.Internal.Correction>
   9.000000E+99

> <Gold.Chemscore.Hbonds>
donor molecule, donor type, donor heavy atom, donor atom, acceptor molecule, acceptor atom, score
      L1  H     8    31       P1 10175  0.81
      L1  H    11    32       P1 10175  0.89

> <Gold.Chemscore.Hbond.Weighted>
-6.4672

> <Gold.Chemscore.Metal.Weighted>
-0.0000

> <Gold.Chemscore.Lipo.Weighted>
-10.7772

> <Gold.Chemscore.Internal_Hbond.Weighted>
0.0000

> <Gold.Chemscore.DEClash.Weighted>
4.4612

> <Gold.Chemscore.DEInternal.Weighted>
1.5419

> <Gold.Chemscore.Rot.Weighted>
2.5600

> <Gold.Chemscore.Internal.Correction.Weighted>
   9.000000E+99

> <Gold.Protein.RotatedTorsions>
[ 6907 6896 6895 6894 ] final -128.61 input  -60.11 | X-H torsion
[ 7974 7965 7964 7962 ] final  100.72 input  175.53 | X-H torsion
[ 8008 7997 7996 7995 ] final  -22.90 input   59.86 | X-H torsion
[ 10167 10162 10161 10158 ] final  -52.15 input  -65.29 | X-H torsion
[ 10718 10713 10712 10709 ] final -127.95 input   66.30 | X-H torsion
[ 10763 10752 10751 10750 ] final  -32.98 input  -60.55 | X-H torsion
[ 11005 11000 10999 10996 ] final -105.79 input  -57.11 | X-H torsion

> <Gold.Protein.ActiveResidues>
 VAL166  LYS551  ARG553  GLY616  TRP617  ASP618  TYR619  PRO620  LYS621  CYS622 
 ASP623  PHE694  ASN695  SER759  ASP760  ASP761  ALA762  ILE779  LEU786  VAL792 
 PHE793  MET794  SER795  GLU796  ALA797  LYS798  CYS799  TRP800  GLU811  SER814 

> <Gold.Protein.RotatedAtoms>
  150.9197  133.6895  159.2834 H   0  0  0  0  0  0  0  0  0  0  0  0  # atno 6907 bound_to 6896
  151.4354  135.1013  159.9664 H   0  0  0  0  0  0  0  0  0  0  0  0  # atno 6908 bound_to 6896
  152.4973  133.8618  159.7309 H   0  0  0  0  0  0  0  0  0  0  0  0  # atno 6909 bound_to 6896
  145.3818  139.2378  143.3399 H   0  0  0  0  0  0  0  0  0  0  0  0  # atno 7974 bound_to 7965
  154.4616  140.1995  156.0228 H   0  0  0  0  0  0  0  0  0  0  0  0  # atno 8008 bound_to 7997
  156.0851  140.3266  155.7715 H   0  0  0  0  0  0  0  0  0  0  0  0  # atno 8009 bound_to 7997
  155.5048  140.0557  157.2924 H   0  0  0  0  0  0  0  0  0  0  0  0  # atno 8010 bound_to 7997
  140.6552  143.2594  151.4606 H   0  0  0  0  0  0  0  0  0  0  0  0  # atno 10167 bound_to 10162
  156.1905  130.6792  151.0418 H   0  0  0  0  0  0  0  0  0  0  0  0  # atno 10718 bound_to 10713
  153.8226  135.6873  153.4825 H   0  0  0  0  0  0  0  0  0  0  0  0  # atno 10763 bound_to 10752
  153.1559  135.4599  154.9702 H   0  0  0  0  0  0  0  0  0  0  0  0  # atno 10764 bound_to 10752
  154.7921  135.3305  154.7697 H   0  0  0  0  0  0  0  0  0  0  0  0  # atno 10765 bound_to 10752
  141.1036  133.8837  157.1777 H   0  0  0  0  0  0  0  0  0  0  0  0  # atno 11005 bound_to 11000
  146.2838  140.4487  142.8766 LP  0  0  0  0  0  0  0  0  0  0  0  0  # atno 17320 bound_to 7965
  144.8502  140.6990  143.6173 LP  0  0  0  0  0  0  0  0  0  0  0  0  # atno 17321 bound_to 7965
  139.5773  144.1789  152.1921 LP  0  0  0  0  0  0  0  0  0  0  0  0  # atno 17342 bound_to 10162
  140.1103  144.5463  150.6929 LP  0  0  0  0  0  0  0  0  0  0  0  0  # atno 17343 bound_to 10162
  157.6926  131.0805  150.7063 LP  0  0  0  0  0  0  0  0  0  0  0  0  # atno 17370 bound_to 10713
  156.7120  130.4654  149.5545 LP  0  0  0  0  0  0  0  0  0  0  0  0  # atno 17371 bound_to 10713
  139.9898  135.0069  156.9947 LP  0  0  0  0  0  0  0  0  0  0  0  0  # atno 17394 bound_to 11000
  140.4958  134.1147  155.7241 LP  0  0  0  0  0  0  0  0  0  0  0  0  # atno 17395 bound_to 11000

$$$$
