AV-unprocessed.smi:2649|AV-procd|sdf|10289|dock2
  -GOLD-   2272014303D 1   1.00000     0.00000
 Structure written by MMmdl.
 34 35  0  0  0  0  0  0  0  0  1 V2000
  153.9316  137.7756  161.7838 C   0  0  0  0  0  0  0  0  0  0  0  0
  155.1470  138.9843  161.1910 S   0  0  0  0  0  0  0  0  0  0  0  0
  154.8159  140.3860  162.3014 C   0  0  0  0  0  0  0  0  0  0  0  0
  153.8347  141.3615  161.6709 C   0  0  0  0  0  0  0  0  0  0  0  0
  153.3790  141.0143  160.4467 N   0  0  0  0  0  0  0  0  0  0  0  0
  152.5077  141.8260  159.7996 C   0  0  0  0  0  0  0  0  0  0  0  0
  151.9787  141.5439  158.5125 N   0  0  0  0  0  0  0  0  0  0  0  0
  152.2250  140.4808  157.7225 C   0  0  0  0  0  0  0  0  0  0  0  0
  152.9837  139.5570  158.0198 O   0  0  0  0  0  0  0  0  0  0  0  0
  151.4695  140.4568  156.3853 C   0  0  2  0  0  0  0  0  0  0  0  0
  149.9569  140.7409  156.5377 C   0  0  0  0  0  0  0  0  0  0  0  0
  149.3346  140.6675  155.2615 O   0  0  0  0  0  0  0  0  0  0  0  0
  149.5008  139.3831  154.6772 C   0  0  0  0  0  0  0  0  0  0  0  0
  151.0030  139.0987  154.5155 C   0  0  0  0  0  0  0  0  0  0  0  0
  151.6291  139.1710  155.7898 O   0  0  0  0  0  0  0  0  0  0  0  0
  152.0579  143.0299  160.3845 C   0  0  0  0  0  0  0  0  0  0  0  0
  152.5233  143.3937  161.6624 C   0  0  0  0  0  0  0  0  0  0  0  0
  153.4300  142.5469  162.3258 C   0  0  0  0  0  0  0  0  0  0  0  0
  154.0109  142.9725  163.8969 Cl  0  0  0  0  0  0  0  0  0  0  0  0
  154.0658  136.8264  161.2651 H   0  0  0  0  0  0  0  0  0  0  0  0
  152.9161  138.1244  161.5976 H   0  0  0  0  0  0  0  0  0  0  0  0
  154.0525  137.6056  162.8537 H   0  0  0  0  0  0  0  0  0  0  0  0
  154.4263  140.0075  163.2475 H   0  0  0  0  0  0  0  0  0  0  0  0
  155.7522  140.8955  162.5293 H   0  0  0  0  0  0  0  0  0  0  0  0
  151.3419  142.2339  158.1411 H   0  0  0  0  0  0  0  0  0  0  0  0
  151.9216  141.2115  155.7392 H   0  0  0  0  0  0  0  0  0  0  0  0
  149.4868  140.0329  157.2230 H   0  0  0  0  0  0  0  0  0  0  0  0
  149.7901  141.7400  156.9422 H   0  0  0  0  0  0  0  0  0  0  0  0
  149.0236  138.6217  155.2963 H   0  0  0  0  0  0  0  0  0  0  0  0
  149.0049  139.3662  153.7066 H   0  0  0  0  0  0  0  0  0  0  0  0
  151.1578  138.1036  154.0983 H   0  0  0  0  0  0  0  0  0  0  0  0
  151.4626  139.8108  153.8283 H   0  0  0  0  0  0  0  0  0  0  0  0
  151.3621  143.6715  159.8634 H   0  0  0  0  0  0  0  0  0  0  0  0
  152.1879  144.3101  162.1253 H   0  0  0  0  0  0  0  0  0  0  0  0
  1  2  1  0  0  0  0
  1 20  1  0  0  0  0
  1 21  1  0  0  0  0
  1 22  1  0  0  0  0
  2  3  1  0  0  0  0
  3  4  1  0  0  0  0
  3 23  1  0  0  0  0
  3 24  1  0  0  0  0
  4 18  1  0  0  0  0
  4  5  2  0  0  0  0
  5  6  1  0  0  0  0
  6  7  1  0  0  0  0
  6 16  2  0  0  0  0
  7  8  1  0  0  0  0
  7 25  1  0  0  0  0
  8  9  2  0  0  0  0
  8 10  1  0  0  0  0
 10 15  1  0  0  0  0
 10 11  1  0  0  0  0
 10 26  1  0  0  0  0
 11 12  1  0  0  0  0
 11 27  1  0  0  0  0
 11 28  1  0  0  0  0
 12 13  1  0  0  0  0
 13 14  1  0  0  0  0
 13 29  1  0  0  0  0
 13 30  1  0  0  0  0
 14 15  1  0  0  0  0
 14 31  1  0  0  0  0
 14 32  1  0  0  0  0
 16 17  1  0  0  0  0
 16 33  1  0  0  0  0
 17 18  2  0  0  0  0
 17 34  1  0  0  0  0
 18 19  1  0  0  0  0
M  END
> <s_m_source_file>
AV-unprocessed.smi

> <i_m_source_file_index>
2649

> <i_lp_mmshare_version>
43012

> <i_f3d_flags>
0

> <s_epik_input>
W0NIM11TW0NIMl1jMW5jKFtjSF1bY0hdYzFDbClbTkhdQyg9TylbQ0BASF0yW0NIMl1PW0NIMl1bQ0gyXU8y

> <s_epik_cmdline>
J2VwaWtfcHl0aG9uJywgJy1waCcsICc3LjAnLCAnLXRuJywgJzgnLCAnLW1hJywgJzIwMCcsICctbWV0YWxfYmluZGluZycsICctaW1hZScsICc8aW5maWxlLm1hZT4nLCAnLW9tYWUnLCAnPG91dGZpbGUubWFlPic=

> <r_lp_tautomer_probability>
1

> <r_epik_Ionization_Penalty>
9.71596e-06

> <r_epik_Ionization_Penalty_Charging>
0

> <r_epik_Ionization_Penalty_Neutral>
9.71596e-06

> <r_epik_State_Penalty>
-0

> <r_epik_Charging_Adjusted_Penalty>
0

> <i_epik_Tot_Q>
0

> <i_epik_Tot_abs_Q>
0

> <r_epik_Metal_State_Penalty>
-0

> <b_epik_Metal_Only>
0

> <s_lp_Force_Field>
OPLS_2005

> <r_lp_Energy>
11.5794

> <b_lp_Chiralities_Consistent>
1

> <s_lp_Variant>
AV-unprocessed.smi:2649-1

> <Gold.Version>
5.8.1

> <Gold.Id.Protein>
6NUR|6NUR_protein|mol2

> <Gold.PLP.Fitness>
42.4364

> <Gold.PLP.PLP>
-40.3209

> <Gold.PLP.part.hbond>
-1.0000

> <Gold.PLP.part.metal>
0.0000

> <Gold.PLP.part.buried>
-4.1818

> <Gold.PLP.part.nonpolar>
-34.2560

> <Gold.PLP.part.repulsive>
0.1784

> <Gold.PLP.ligand.clash>
0.0000

> <Gold.PLP.ligand.torsion>
0.4437

> <Gold.PLP.Chemscore.Hbond>
1.0000

> <Gold.PLP.Chemscore.CHOScore>
0.0000

> <Gold.PLP.Chemscore.Metal>
0.0000

> <Gold.Chemscore.Hbonds>
donor molecule, donor type, donor heavy atom, donor atom, acceptor molecule, acceptor atom, score
      P1  H  7997  8009       L1     9  1.00

> <Gold.PLP.Chemscore.Internal.Correction>
0.0031

> <Gold.Rescore>
     Score         DG    S(hbond)    S(metal)    S(lipo)     H(rot)  DE(clash)    DE(int)     intcor
     14.65     -16.97       0.79        0.00     105.02       1.34       0.54       1.78       ----

> <Gold.Chemscore.Fitness>
14.6474

> <Gold.Chemscore.DG>
-16.9693

> <Gold.Chemscore.ZeroCoef>
-5.4800

> <Gold.Chemscore.Hbond>
0.7888

> <Gold.Chemscore.Metal>
0.0000

> <Gold.Chemscore.Lipo>
105.0223

> <Gold.Chemscore.Internal_Hbond>
0.0000

> <Gold.Chemscore.DEClash>
0.5429

> <Gold.Chemscore.DEInternal>
1.7790

> <Gold.Chemscore.Rot>
1.3410

> <Gold.Chemscore.Internal.Correction>
   9.000000E+99

> <Gold.Chemscore.Hbonds>
donor molecule, donor type, donor heavy atom, donor atom, acceptor molecule, acceptor atom, score
      P1  H  7997  8009       L1     9  0.42

> <Gold.Chemscore.Hbond.Weighted>
-2.6347

> <Gold.Chemscore.Metal.Weighted>
-0.0000

> <Gold.Chemscore.Lipo.Weighted>
-12.2876

> <Gold.Chemscore.Internal_Hbond.Weighted>
0.0000

> <Gold.Chemscore.DEClash.Weighted>
0.5429

> <Gold.Chemscore.DEInternal.Weighted>
1.7790

> <Gold.Chemscore.Rot.Weighted>
3.4331

> <Gold.Chemscore.Internal.Correction.Weighted>
   9.000000E+99

> <Gold.Protein.RotatedTorsions>
[ 6907 6896 6895 6894 ] final  105.24 input  -60.11 | X-H torsion
[ 7974 7965 7964 7962 ] final -120.03 input  175.53 | X-H torsion
[ 8008 7997 7996 7995 ] final  144.39 input   59.86 | X-H torsion
[ 10167 10162 10161 10158 ] final -164.08 input  -65.29 | X-H torsion
[ 10718 10713 10712 10709 ] final   34.67 input   66.30 | X-H torsion
[ 10763 10752 10751 10750 ] final -175.25 input  -60.55 | X-H torsion
[ 11005 11000 10999 10996 ] final  -31.95 input  -57.11 | X-H torsion

> <Gold.Protein.ActiveResidues>
 VAL166  LYS551  ARG553  GLY616  TRP617  ASP618  TYR619  PRO620  LYS621  CYS622 
 ASP623  PHE694  ASN695  SER759  ASP760  ASP761  ALA762  ILE779  LEU786  VAL792 
 PHE793  MET794  SER795  GLU796  ALA797  LYS798  CYS799  TRP800  GLU811  SER814 

> <Gold.Protein.RotatedAtoms>
  152.5237  133.9558  159.7693 H   0  0  0  0  0  0  0  0  0  0  0  0  # atno 6907 bound_to 6896
  150.9859  133.6190  159.2722 H   0  0  0  0  0  0  0  0  0  0  0  0  # atno 6908 bound_to 6896
  151.3351  135.0856  159.9405 H   0  0  0  0  0  0  0  0  0  0  0  0  # atno 6909 bound_to 6896
  145.0559  140.8254  143.4181 H   0  0  0  0  0  0  0  0  0  0  0  0  # atno 7974 bound_to 7965
  156.2909  140.2237  156.5045 H   0  0  0  0  0  0  0  0  0  0  0  0  # atno 8008 bound_to 7997
  154.7661  140.0470  157.1035 H   0  0  0  0  0  0  0  0  0  0  0  0  # atno 8009 bound_to 7997
  154.9930  140.3092  155.4901 H   0  0  0  0  0  0  0  0  0  0  0  0  # atno 8010 bound_to 7997
  139.6275  144.0503  152.1987 H   0  0  0  0  0  0  0  0  0  0  0  0  # atno 10167 bound_to 10162
  157.3133  130.7410  149.6738 H   0  0  0  0  0  0  0  0  0  0  0  0  # atno 10718 bound_to 10713
  154.5866  135.2841  155.0678 H   0  0  0  0  0  0  0  0  0  0  0  0  # atno 10763 bound_to 10752
  154.1994  135.6427  153.5086 H   0  0  0  0  0  0  0  0  0  0  0  0  # atno 10764 bound_to 10752
  153.0106  135.5465  154.6538 H   0  0  0  0  0  0  0  0  0  0  0  0  # atno 10765 bound_to 10752
  140.9511  133.7220  156.1221 H   0  0  0  0  0  0  0  0  0  0  0  0  # atno 11005 bound_to 11000
  145.1469  139.2538  143.5461 LP  0  0  0  0  0  0  0  0  0  0  0  0  # atno 17320 bound_to 7965
  146.3521  140.1161  142.8602 LP  0  0  0  0  0  0  0  0  0  0  0  0  # atno 17321 bound_to 7965
  140.0160  144.6188  150.7606 LP  0  0  0  0  0  0  0  0  0  0  0  0  # atno 17342 bound_to 10162
  140.7420  143.2825  151.3556 LP  0  0  0  0  0  0  0  0  0  0  0  0  # atno 17343 bound_to 10162
  155.9679  130.4245  150.4610 LP  0  0  0  0  0  0  0  0  0  0  0  0  # atno 17370 bound_to 10713
  157.2613  131.0567  151.2318 LP  0  0  0  0  0  0  0  0  0  0  0  0  # atno 17371 bound_to 10713
  140.7601  134.3948  157.5527 LP  0  0  0  0  0  0  0  0  0  0  0  0  # atno 17394 bound_to 11000
  139.8848  134.8956  156.2683 LP  0  0  0  0  0  0  0  0  0  0  0  0  # atno 17395 bound_to 11000

$$$$
