AV-unprocessed.smi:910|AV-procd|sdf|4128|dock3
  -GOLD-   22720 2 33D 1   1.00000     0.00000
 Structure written by MMmdl.
 47 48  0  0  0  0  0  0  0  0  2 V2000
  149.2906  132.5886  152.4768 C   0  0  0  0  0  0  0  0  0  0  0  0
  149.8269  133.2666  153.6982 C   0  0  0  0  0  0  0  0  0  0  0  0
  149.8756  134.6106  153.9861 N   0  3  0  0  0  0  0  0  0  0  0  0
  150.4381  134.7895  155.1788 C   0  0  0  0  0  0  0  0  0  0  0  0
  150.6421  136.0528  155.7798 N   0  0  0  0  0  0  0  0  0  0  0  0
  151.4391  137.0211  155.3038 C   0  0  0  0  0  0  0  0  0  0  0  0
  152.0714  136.9482  154.2496 O   0  0  0  0  0  0  0  0  0  0  0  0
  151.4692  138.0864  156.1189 N   0  0  0  0  0  0  0  0  0  0  0  0
  152.2797  139.2811  155.9015 C   0  0  0  0  0  0  0  0  0  0  0  0
  151.7196  140.4869  156.6696 C   0  0  0  0  0  0  0  0  0  0  0  0
  152.5673  140.7780  157.7694 O   0  0  0  0  0  0  0  0  0  0  0  0
  151.9722  141.5960  158.7662 C   0  0  2  0  0  0  0  0  0  0  0  0
  151.4048  142.8403  158.0604 C   0  0  0  0  0  0  0  0  0  0  0  0
  150.8460  143.8529  159.0707 C   0  0  0  0  0  0  0  0  0  0  0  0
  151.9131  144.2442  160.1037 C   0  0  0  0  0  0  0  0  0  0  0  0
  152.4847  143.0043  160.8098 C   0  0  0  0  0  0  0  0  0  0  0  0
  153.0507  141.9821  159.8033 C   0  0  1  0  0  0  0  0  0  0  0  0
  153.6140  140.7520  160.5333 C   0  0  0  0  0  0  0  0  0  0  0  0
  150.7802  133.5940  155.7303 O   0  0  0  0  0  0  0  0  0  0  0  0
  150.3924  132.6554  154.7962 C   0  0  0  0  0  0  0  0  0  0  0  0
  150.6446  131.2224  155.1249 C   0  0  0  0  0  0  0  0  0  0  0  0
  150.0869  132.0897  151.9239 H   0  0  0  0  0  0  0  0  0  0  0  0
  148.8157  133.3012  151.8021 H   0  0  0  0  0  0  0  0  0  0  0  0
  148.5470  131.8354  152.7383 H   0  0  0  0  0  0  0  0  0  0  0  0
  149.5277  135.3233  153.3569 H   0  0  0  0  0  0  0  0  0  0  0  0
  150.9153  138.0634  156.9627 H   0  0  0  0  0  0  0  0  0  0  0  0
  153.3221  139.1033  156.1711 H   0  0  0  0  0  0  0  0  0  0  0  0
  152.2707  139.4975  154.8331 H   0  0  0  0  0  0  0  0  0  0  0  0
  151.6696  141.3564  156.0127 H   0  0  0  0  0  0  0  0  0  0  0  0
  150.7053  140.2752  157.0123 H   0  0  0  0  0  0  0  0  0  0  0  0
  151.1548  141.0801  159.2755 H   0  0  0  0  0  0  0  0  0  0  0  0
  152.1884  143.3153  157.4683 H   0  0  0  0  0  0  0  0  0  0  0  0
  150.6236  142.5460  157.3587 H   0  0  0  0  0  0  0  0  0  0  0  0
  150.4898  144.7415  158.5486 H   0  0  0  0  0  0  0  0  0  0  0  0
  149.9816  143.4245  159.5794 H   0  0  0  0  0  0  0  0  0  0  0  0
  152.7194  144.7872  159.6091 H   0  0  0  0  0  0  0  0  0  0  0  0
  151.4858  144.9271  160.8386 H   0  0  0  0  0  0  0  0  0  0  0  0
  153.2643  143.3113  161.5080 H   0  0  0  0  0  0  0  0  0  0  0  0
  151.7020  142.5365  161.4091 H   0  0  0  0  0  0  0  0  0  0  0  0
  153.8768  142.4578  159.2724 H   0  0  0  0  0  0  0  0  0  0  0  0
  152.8287  140.2114  161.0627 H   0  0  0  0  0  0  0  0  0  0  0  0
  154.3698  141.0410  161.2639 H   0  0  0  0  0  0  0  0  0  0  0  0
  154.0845  140.0582  159.8366 H   0  0  0  0  0  0  0  0  0  0  0  0
  149.7247  130.6419  155.0536 H   0  0  0  0  0  0  0  0  0  0  0  0
  151.0338  131.1131  156.1375 H   0  0  0  0  0  0  0  0  0  0  0  0
  151.3710  130.7912  154.4358 H   0  0  0  0  0  0  0  0  0  0  0  0
  150.1546  136.2273  156.6461 H   0  0  0  0  0  0  0  0  0  0  0  0
  1 22  1  0  0  0  0
  1 23  1  0  0  0  0
  1 24  1  0  0  0  0
  1  2  1  0  0  0  0
  2  3  1  0  0  0  0
  2 20  2  0  0  0  0
  3 25  1  0  0  0  0
  3  4  2  0  0  0  0
  4 19  1  0  0  0  0
  4  5  1  0  0  0  0
  5  6  1  0  0  0  0
  5 47  1  0  0  0  0
  6  8  1  0  0  0  0
  6  7  2  0  0  0  0
  8  9  1  0  0  0  0
  8 26  1  0  0  0  0
  9 10  1  0  0  0  0
  9 27  1  0  0  0  0
  9 28  1  0  0  0  0
 10 11  1  0  0  0  0
 10 29  1  0  0  0  0
 10 30  1  0  0  0  0
 11 12  1  0  0  0  0
 12 17  1  0  0  0  0
 12 13  1  0  0  0  0
 12 31  1  0  0  0  0
 13 14  1  0  0  0  0
 13 32  1  0  0  0  0
 13 33  1  0  0  0  0
 14 15  1  0  0  0  0
 14 34  1  0  0  0  0
 14 35  1  0  0  0  0
 15 16  1  0  0  0  0
 15 36  1  0  0  0  0
 15 37  1  0  0  0  0
 16 17  1  0  0  0  0
 16 38  1  0  0  0  0
 16 39  1  0  0  0  0
 17 18  1  0  0  0  0
 17 40  1  0  0  0  0
 18 41  1  0  0  0  0
 18 42  1  0  0  0  0
 18 43  1  0  0  0  0
 19 20  1  0  0  0  0
 20 21  1  0  0  0  0
 21 44  1  0  0  0  0
 21 45  1  0  0  0  0
 21 46  1  0  0  0  0
M  CHG  1   3   1
M  END
> <s_m_source_file>
AV-unprocessed.smi

> <i_m_source_file_index>
910

> <i_lp_mmshare_version>
43012

> <i_f3d_flags>
0

> <s_epik_input>
W0NIM11jMW5jKG9jMVtDSDNdKVtOSF1DKD1PKVtOSF1bQ0gyXVtDSDJdT1tDQEBIXTJbQ0gyXVtDSDJdW0NIMl1bQ0gyXVtDQEhdMltDSDNd

> <s_epik_cmdline>
J2VwaWtfcHl0aG9uJywgJy1waCcsICc3LjAnLCAnLXRuJywgJzgnLCAnLW1hJywgJzIwMCcsICctbWV0YWxfYmluZGluZycsICctaW1hZScsICc8aW5maWxlLm1hZT4nLCAnLW9tYWUnLCAnPG91dGZpbGUubWFlPic=

> <r_epik_Ionization_Penalty>
7.32931

> <r_epik_Ionization_Penalty_Charging>
7.12214

> <r_epik_Ionization_Penalty_Neutral>
0.207166

> <r_epik_State_Penalty>
2.61278

> <r_epik_Charging_Adjusted_Penalty>
9.73492

> <i_epik_Tot_Q>
1

> <i_epik_Tot_abs_Q>
1

> <r_epik_Metal_State_Penalty>
2.64585

> <b_epik_Metal_Only>
0

> <s_lp_Force_Field>
OPLS_2005

> <r_lp_Energy>
16.0479

> <b_lp_Chiralities_Consistent>
1

> <s_lp_Variant>
AV-unprocessed.smi:910-13

> <Gold.Version>
5.8.1

> <Gold.Id.Protein>
6NUR|6NUR_protein|mol2

> <Gold.PLP.Fitness>
49.5930

> <Gold.PLP.PLP>
-41.8406

> <Gold.PLP.part.hbond>
-3.0000

> <Gold.PLP.part.metal>
0.0000

> <Gold.PLP.part.buried>
-2.6131

> <Gold.PLP.part.nonpolar>
-36.5130

> <Gold.PLP.part.repulsive>
0.6885

> <Gold.PLP.ligand.clash>
0.0000

> <Gold.PLP.ligand.torsion>
1.1929

> <Gold.PLP.Chemscore.Hbond>
3.3661

> <Gold.PLP.Chemscore.CHOScore>
0.0000

> <Gold.PLP.Chemscore.Metal>
0.0000

> <Gold.Chemscore.Hbonds>
donor molecule, donor type, donor heavy atom, donor atom, acceptor molecule, acceptor atom, score
      L1  H     3    25       P1  7948  1.20
      P1  H  7997  8009       L1    11  0.32
      P1  H 10752 10765       L1     7  0.96

> <Gold.PLP.Chemscore.Internal.Correction>
0.0398

> <Gold.Rescore>
     Score         DG    S(hbond)    S(metal)    S(lipo)     H(rot)  DE(clash)    DE(int)     intcor
     19.16     -21.89       2.63        0.00     102.26       1.69       1.50       1.23       ----

> <Gold.Chemscore.Fitness>
19.1636

> <Gold.Chemscore.DG>
-21.8898

> <Gold.Chemscore.ZeroCoef>
-5.4800

> <Gold.Chemscore.Hbond>
2.6302

> <Gold.Chemscore.Metal>
0.0000

> <Gold.Chemscore.Lipo>
102.2553

> <Gold.Chemscore.Internal_Hbond>
0.0000

> <Gold.Chemscore.DEClash>
1.4975

> <Gold.Chemscore.DEInternal>
1.2287

> <Gold.Chemscore.Rot>
1.6949

> <Gold.Chemscore.Internal.Correction>
   9.000000E+99

> <Gold.Chemscore.Hbonds>
donor molecule, donor type, donor heavy atom, donor atom, acceptor molecule, acceptor atom, score
      L1  H     3    25       P1  7948  0.04
      P1  H  7997  8009       L1    11  0.05
      P1  H 10752 10765       L1     7  0.84

> <Gold.Chemscore.Hbond.Weighted>
-8.7849

> <Gold.Chemscore.Metal.Weighted>
-0.0000

> <Gold.Chemscore.Lipo.Weighted>
-11.9639

> <Gold.Chemscore.Internal_Hbond.Weighted>
0.0000

> <Gold.Chemscore.DEClash.Weighted>
1.4975

> <Gold.Chemscore.DEInternal.Weighted>
1.2287

> <Gold.Chemscore.Rot.Weighted>
4.3390

> <Gold.Chemscore.Internal.Correction.Weighted>
   9.000000E+99

> <Gold.Protein.RotatedTorsions>
[ 6907 6896 6895 6894 ] final  -23.99 input  -60.11 | X-H torsion
[ 7974 7965 7964 7962 ] final   84.43 input  175.53 | X-H torsion
[ 8008 7997 7996 7995 ] final  171.02 input   59.86 | X-H torsion
[ 10167 10162 10161 10158 ] final  104.95 input  -65.29 | X-H torsion
[ 10718 10713 10712 10709 ] final  -61.63 input   66.30 | X-H torsion
[ 10763 10752 10751 10750 ] final  147.14 input  -60.55 | X-H torsion
[ 11005 11000 10999 10996 ] final  145.47 input  -57.11 | X-H torsion

> <Gold.Protein.ActiveResidues>
 VAL166  LYS551  ARG553  GLY616  TRP617  ASP618  TYR619  PRO620  LYS621  CYS622 
 ASP623  PHE694  ASN695  SER759  ASP760  ASP761  ALA762  ILE779  LEU786  VAL792 
 PHE793  MET794  SER795  GLU796  ALA797  LYS798  CYS799  TRP800  GLU811  SER814 

> <Gold.Protein.RotatedAtoms>
  151.1960  135.0422  159.8852 H   0  0  0  0  0  0  0  0  0  0  0  0  # atno 6907 bound_to 6896
  152.5436  134.0903  159.8284 H   0  0  0  0  0  0  0  0  0  0  0  0  # atno 6908 bound_to 6896
  151.1038  133.5176  159.2641 H   0  0  0  0  0  0  0  0  0  0  0  0  # atno 6909 bound_to 6896
  145.5989  139.2349  143.2257 H   0  0  0  0  0  0  0  0  0  0  0  0  # atno 7974 bound_to 7965
  156.1310  140.1522  156.9065 H   0  0  0  0  0  0  0  0  0  0  0  0  # atno 8008 bound_to 7997
  154.4909  140.0851  156.7632 H   0  0  0  0  0  0  0  0  0  0  0  0  # atno 8009 bound_to 7997
  155.4255  140.3425  155.4277 H   0  0  0  0  0  0  0  0  0  0  0  0  # atno 8010 bound_to 7997
  139.7134  144.7073  151.0990 H   0  0  0  0  0  0  0  0  0  0  0  0  # atno 10167 bound_to 10162
  156.0908  130.4200  150.1022 H   0  0  0  0  0  0  0  0  0  0  0  0  # atno 10718 bound_to 10713
  154.0335  135.2895  155.3365 H   0  0  0  0  0  0  0  0  0  0  0  0  # atno 10763 bound_to 10752
  154.6973  135.5202  153.8480 H   0  0  0  0  0  0  0  0  0  0  0  0  # atno 10764 bound_to 10752
  153.0630  135.6620  154.0545 H   0  0  0  0  0  0  0  0  0  0  0  0  # atno 10765 bound_to 10752
  140.0715  134.9149  157.1353 H   0  0  0  0  0  0  0  0  0  0  0  0  # atno 11005 bound_to 11000
  146.1591  140.6814  142.9286 LP  0  0  0  0  0  0  0  0  0  0  0  0  # atno 17320 bound_to 7965
  144.7318  140.4695  143.6932 LP  0  0  0  0  0  0  0  0  0  0  0  0  # atno 17321 bound_to 7965
  140.7738  143.5263  150.9477 LP  0  0  0  0  0  0  0  0  0  0  0  0  # atno 17342 bound_to 10162
  139.8948  143.6908  152.3140 LP  0  0  0  0  0  0  0  0  0  0  0  0  # atno 17343 bound_to 10162
  156.9032  130.9627  151.3573 LP  0  0  0  0  0  0  0  0  0  0  0  0  # atno 17370 bound_to 10713
  157.6057  130.8545  149.8872 LP  0  0  0  0  0  0  0  0  0  0  0  0  # atno 17371 bound_to 10713
  140.3620  134.2484  155.7186 LP  0  0  0  0  0  0  0  0  0  0  0  0  # atno 17394 bound_to 11000
  141.2013  133.7965  157.0445 LP  0  0  0  0  0  0  0  0  0  0  0  0  # atno 17395 bound_to 11000

$$$$
