AV-unprocessed.smi:1251|AV-procd|sdf|5261|dock3
  -GOLD-   22720 4373D 1   1.00000     0.00000
 Structure written by MMmdl.
 38 39  0  0  0  0  0  0  0  0  2 V2000
  143.4427  134.5150  163.2707 C   0  0  0  0  0  0  0  0  0  0  0  0
  144.4238  134.9902  162.1934 C   0  0  0  0  0  0  0  0  0  0  0  0
  145.8726  134.5816  162.4943 C   0  0  0  0  0  0  0  0  0  0  0  0
  146.8612  135.3116  161.6478 C   0  0  0  0  0  0  0  0  0  0  0  0
  146.9455  136.6440  161.6171 N   0  0  0  0  0  0  0  0  0  0  0  0
  147.9228  137.0854  160.7370 N   0  0  0  0  0  0  0  0  0  0  0  0
  148.5455  136.0849  160.0981 C   0  0  0  0  0  0  0  0  0  0  0  0
  149.5269  136.2988  159.2062 N   0  5  0  0  0  0  0  0  0  0  0  0
  149.7789  137.5523  158.7653 C   0  0  0  0  0  0  0  0  0  0  0  0
  149.0227  138.5228  158.8515 O   0  0  0  0  0  0  0  0  0  0  0  0
  150.9822  137.6879  158.1898 N   0  0  0  0  0  0  0  0  0  0  0  0
  151.5338  138.9120  157.6127 C   0  0  1  0  0  0  0  0  0  0  0  0
  150.5751  139.4507  156.5363 C   0  0  0  0  0  0  0  0  0  0  0  0
  151.7779  139.9311  158.7419 C   0  0  2  0  0  0  0  0  0  0  0  0
  151.9939  141.3705  158.2754 C   0  0  0  0  0  0  0  0  0  0  0  0
  152.7614  141.9991  159.4263 C   0  0  0  0  0  0  0  0  0  0  0  0
  153.3494  140.8013  160.1780 C   0  0  0  0  0  0  0  0  0  0  0  0
  153.0038  139.6598  159.4050 O   0  0  0  0  0  0  0  0  0  0  0  0
  147.9658  134.4859  160.5617 S   0  0  0  0  0  0  0  0  0  0  0  0
  142.4254  134.8272  163.0338 H   0  0  0  0  0  0  0  0  0  0  0  0
  143.6996  134.9279  164.2465 H   0  0  0  0  0  0  0  0  0  0  0  0
  143.4465  133.4279  163.3544 H   0  0  0  0  0  0  0  0  0  0  0  0
  144.1223  134.5825  161.2279 H   0  0  0  0  0  0  0  0  0  0  0  0
  144.3613  136.0755  162.1038 H   0  0  0  0  0  0  0  0  0  0  0  0
  146.1054  134.7668  163.5437 H   0  0  0  0  0  0  0  0  0  0  0  0
  146.0013  133.5112  162.3311 H   0  0  0  0  0  0  0  0  0  0  0  0
  151.5624  136.8635  158.1396 H   0  0  0  0  0  0  0  0  0  0  0  0
  152.4936  138.6881  157.1438 H   0  0  0  0  0  0  0  0  0  0  0  0
  150.9811  140.3372  156.0497 H   0  0  0  0  0  0  0  0  0  0  0  0
  149.6083  139.7174  156.9644 H   0  0  0  0  0  0  0  0  0  0  0  0
  150.3993  138.7078  155.7577 H   0  0  0  0  0  0  0  0  0  0  0  0
  150.9659  139.8960  159.4713 H   0  0  0  0  0  0  0  0  0  0  0  0
  152.6088  141.3855  157.3744 H   0  0  0  0  0  0  0  0  0  0  0  0
  151.0607  141.8902  158.0571 H   0  0  0  0  0  0  0  0  0  0  0  0
  153.5341  142.6786  159.0657 H   0  0  0  0  0  0  0  0  0  0  0  0
  152.0938  142.5637  160.0782 H   0  0  0  0  0  0  0  0  0  0  0  0
  154.4307  140.8728  160.2954 H   0  0  0  0  0  0  0  0  0  0  0  0
  152.9042  140.7145  161.1699 H   0  0  0  0  0  0  0  0  0  0  0  0
  1  2  1  0  0  0  0
  1 20  1  0  0  0  0
  1 21  1  0  0  0  0
  1 22  1  0  0  0  0
  2  3  1  0  0  0  0
  2 23  1  0  0  0  0
  2 24  1  0  0  0  0
  3  4  1  0  0  0  0
  3 25  1  0  0  0  0
  3 26  1  0  0  0  0
  4 19  1  0  0  0  0
  4  5  2  0  0  0  0
  5  6  1  0  0  0  0
  6  7  2  0  0  0  0
  7  8  1  0  0  0  0
  7 19  1  0  0  0  0
  8  9  1  0  0  0  0
  9 10  2  0  0  0  0
  9 11  1  0  0  0  0
 11 12  1  0  0  0  0
 11 27  1  0  0  0  0
 12 13  1  0  0  0  0
 12 14  1  0  0  0  0
 12 28  1  0  0  0  0
 13 29  1  0  0  0  0
 13 30  1  0  0  0  0
 13 31  1  0  0  0  0
 14 18  1  0  0  0  0
 14 15  1  0  0  0  0
 14 32  1  0  0  0  0
 15 16  1  0  0  0  0
 15 33  1  0  0  0  0
 15 34  1  0  0  0  0
 16 17  1  0  0  0  0
 16 35  1  0  0  0  0
 16 36  1  0  0  0  0
 17 18  1  0  0  0  0
 17 37  1  0  0  0  0
 17 38  1  0  0  0  0
M  CHG  1   8  -1
M  END
> <s_m_source_file>
AV-unprocessed.smi

> <i_m_source_file_index>
1251

> <i_lp_mmshare_version>
43012

> <i_f3d_flags>
0

> <s_epik_input>
W0NIM11bQ0gyXVtDSDJdYzFubmMoczEpW05IXUMoPU8pW05IXVtDQEhdKFtDSDNdKVtDQEBIXTJbQ0gyXVtDSDJdW0NIMl1PMg==

> <s_epik_cmdline>
J2VwaWtfcHl0aG9uJywgJy1waCcsICc3LjAnLCAnLXRuJywgJzgnLCAnLW1hJywgJzIwMCcsICctbWV0YWxfYmluZGluZycsICctaW1hZScsICc8aW5maWxlLm1hZT4nLCAnLW9tYWUnLCAnPG91dGZpbGUubWFlPic=

> <r_lp_tautomer_probability>
1

> <r_epik_Ionization_Penalty>
4.22551

> <r_epik_Ionization_Penalty_Charging>
4.21437

> <r_epik_Ionization_Penalty_Neutral>
0.0111434

> <r_epik_State_Penalty>
4.21389

> <r_epik_Charging_Adjusted_Penalty>
8.42826

> <i_epik_Tot_Q>
-1

> <i_epik_Tot_abs_Q>
1

> <r_epik_Metal_State_Penalty>
0.69377

> <b_epik_Metal_Only>
1

> <s_lp_Force_Field>
OPLS_2005

> <r_lp_Energy>
12.2708

> <b_lp_Chiralities_Consistent>
1

> <s_lp_Variant>
AV-unprocessed.smi:1251-6

> <Gold.Version>
5.8.1

> <Gold.Id.Protein>
6NUR|6NUR_protein|mol2

> <Gold.PLP.Fitness>
41.5712

> <Gold.PLP.PLP>
-32.5375

> <Gold.PLP.part.hbond>
-4.9594

> <Gold.PLP.part.metal>
0.0000

> <Gold.PLP.part.buried>
-4.1604

> <Gold.PLP.part.nonpolar>
-24.1084

> <Gold.PLP.part.repulsive>
0.0914

> <Gold.PLP.ligand.clash>
0.0000

> <Gold.PLP.ligand.torsion>
0.5263

> <Gold.PLP.Chemscore.Hbond>
3.2994

> <Gold.PLP.Chemscore.CHOScore>
0.0000

> <Gold.PLP.Chemscore.Metal>
0.0000

> <Gold.Chemscore.Hbonds>
donor molecule, donor type, donor heavy atom, donor atom, acceptor molecule, acceptor atom, score
      P1  H  6896  6908       L1     8  2.00
      P1  H  6931  6943       L1     6  0.88
      P1  H  6934  6947       L1     6  0.36

> <Gold.PLP.Chemscore.Internal.Correction>
0.1881

> <Gold.Rescore>
     Score         DG    S(hbond)    S(metal)    S(lipo)     H(rot)  DE(clash)    DE(int)     intcor
     12.59     -16.16       1.79        0.00      74.04       1.55       0.06       3.51       ----

> <Gold.Chemscore.Fitness>
12.5932

> <Gold.Chemscore.DG>
-16.1602

> <Gold.Chemscore.ZeroCoef>
-5.4800

> <Gold.Chemscore.Hbond>
1.7896

> <Gold.Chemscore.Metal>
0.0000

> <Gold.Chemscore.Lipo>
74.0405

> <Gold.Chemscore.Internal_Hbond>
0.0000

> <Gold.Chemscore.DEClash>
0.0609

> <Gold.Chemscore.DEInternal>
3.5061

> <Gold.Chemscore.Rot>
1.5469

> <Gold.Chemscore.Internal.Correction>
   9.000000E+99

> <Gold.Chemscore.Hbonds>
donor molecule, donor type, donor heavy atom, donor atom, acceptor molecule, acceptor atom, score
      P1  H  6896  6908       L1     8  0.24
      P1  H  6931  6943       L1     6  0.28
      P1  H  6934  6947       L1     6  0.02

> <Gold.Chemscore.Hbond.Weighted>
-5.9774

> <Gold.Chemscore.Metal.Weighted>
-0.0000

> <Gold.Chemscore.Lipo.Weighted>
-8.6627

> <Gold.Chemscore.Internal_Hbond.Weighted>
0.0000

> <Gold.Chemscore.DEClash.Weighted>
0.0609

> <Gold.Chemscore.DEInternal.Weighted>
3.5061

> <Gold.Chemscore.Rot.Weighted>
3.9600

> <Gold.Chemscore.Internal.Correction.Weighted>
   9.000000E+99

> <Gold.Protein.RotatedTorsions>
[ 6907 6896 6895 6894 ] final  179.13 input  -60.11 | X-H torsion
[ 7974 7965 7964 7962 ] final   91.46 input  175.53 | X-H torsion
[ 8008 7997 7996 7995 ] final -122.53 input   59.86 | X-H torsion
[ 10167 10162 10161 10158 ] final -110.22 input  -65.29 | X-H torsion
[ 10718 10713 10712 10709 ] final    2.71 input   66.30 | X-H torsion
[ 10763 10752 10751 10750 ] final  -49.96 input  -60.55 | X-H torsion
[ 11005 11000 10999 10996 ] final  -78.67 input  -57.11 | X-H torsion

> <Gold.Protein.ActiveResidues>
 VAL166  LYS551  ARG553  GLY616  TRP617  ASP618  TYR619  PRO620  LYS621  CYS622 
 ASP623  PHE694  ASN695  SER759  ASP760  ASP761  ALA762  ILE779  LEU786  VAL792 
 PHE793  MET794  SER795  GLU796  ALA797  LYS798  CYS799  TRP800  GLU811  SER814 

> <Gold.Protein.RotatedAtoms>
  151.6766  133.3313  159.3209 H   0  0  0  0  0  0  0  0  0  0  0  0  # atno 6907 bound_to 6896
  150.7842  134.6817  159.6457 H   0  0  0  0  0  0  0  0  0  0  0  0  # atno 6908 bound_to 6896
  152.3908  134.6448  160.0160 H   0  0  0  0  0  0  0  0  0  0  0  0  # atno 6909 bound_to 6896
  145.5053  139.2276  143.2754 H   0  0  0  0  0  0  0  0  0  0  0  0  # atno 7974 bound_to 7965
  155.1657  140.0407  157.2852 H   0  0  0  0  0  0  0  0  0  0  0  0  # atno 8008 bound_to 7997
  154.6305  140.2523  155.7413 H   0  0  0  0  0  0  0  0  0  0  0  0  # atno 8009 bound_to 7997
  156.2482  140.2876  156.0654 H   0  0  0  0  0  0  0  0  0  0  0  0  # atno 8010 bound_to 7997
  140.1468  143.4232  152.1523 H   0  0  0  0  0  0  0  0  0  0  0  0  # atno 10167 bound_to 10162
  156.8671  130.5607  149.5659 H   0  0  0  0  0  0  0  0  0  0  0  0  # atno 10718 bound_to 10713
  154.1026  135.6561  153.4871 H   0  0  0  0  0  0  0  0  0  0  0  0  # atno 10763 bound_to 10752
  153.0283  135.5228  154.7271 H   0  0  0  0  0  0  0  0  0  0  0  0  # atno 10764 bound_to 10752
  154.6428  135.2990  155.0052 H   0  0  0  0  0  0  0  0  0  0  0  0  # atno 10765 bound_to 10752
  141.1665  133.7073  156.8006 H   0  0  0  0  0  0  0  0  0  0  0  0  # atno 11005 bound_to 11000
  146.2200  140.5857  142.9021 LP  0  0  0  0  0  0  0  0  0  0  0  0  # atno 17320 bound_to 7965
  144.7757  140.5734  143.6640 LP  0  0  0  0  0  0  0  0  0  0  0  0  # atno 17321 bound_to 7965
  139.5445  144.7286  151.4628 LP  0  0  0  0  0  0  0  0  0  0  0  0  # atno 17342 bound_to 10162
  140.6727  143.8259  150.7019 LP  0  0  0  0  0  0  0  0  0  0  0  0  # atno 17343 bound_to 10162
  156.0746  130.5771  150.9449 LP  0  0  0  0  0  0  0  0  0  0  0  0  # atno 17370 bound_to 10713
  157.6217  131.0929  150.8610 LP  0  0  0  0  0  0  0  0  0  0  0  0  # atno 17371 bound_to 10713
  140.2259  134.8722  157.3426 LP  0  0  0  0  0  0  0  0  0  0  0  0  # atno 17394 bound_to 11000
  140.1940  134.4336  155.7699 LP  0  0  0  0  0  0  0  0  0  0  0  0  # atno 17395 bound_to 11000

$$$$
