AV-unprocessed.smi:1836|AV-procd|sdf|7479|dock3
  -GOLD-   22720 9173D 1   1.00000     0.00000
 Structure written by MMmdl.
 32 33  0  0  0  0  0  0  0  0  2 V2000
  152.2018  138.6425  156.8301 C   0  0  0  0  0  0  0  0  0  0  0  0
  151.6316  138.8805  158.2350 C   0  0  2  0  0  0  0  0  0  0  0  0
  152.7402  139.3253  159.2170 C   0  0  0  0  0  0  0  0  0  0  0  0
  152.6715  140.7513  159.5337 N   0  0  0  0  0  0  0  0  0  0  0  0
  151.7203  141.6179  158.8565 C   0  0  0  0  0  0  0  0  0  0  0  0
  152.1745  143.0421  159.2019 C   0  0  0  0  0  0  0  0  0  0  0  0
  153.1002  142.8940  160.4140 C   0  0  0  0  0  0  0  0  0  0  0  0
  153.4234  141.4092  160.4245 C   0  0  0  0  0  0  0  0  0  0  0  0
  154.2763  140.9163  161.1614 O   0  0  0  0  0  0  0  0  0  0  0  0
  151.0068  137.6411  158.6978 N   0  0  0  0  0  0  0  0  0  0  0  0
  149.7151  137.4722  159.0189 C   0  0  0  0  0  0  0  0  0  0  0  0
  148.9186  138.4047  158.8894 O   0  0  0  0  0  0  0  0  0  0  0  0
  149.4291  136.2389  159.4933 N   0  5  0  0  0  0  0  0  0  0  0  0
  148.4757  136.0885  160.4273 C   0  0  0  0  0  0  0  0  0  0  0  0
  147.9269  137.1318  161.0697 N   0  0  0  0  0  0  0  0  0  0  0  0
  146.9613  136.7564  161.9943 N   0  0  0  0  0  0  0  0  0  0  0  0
  146.8008  135.4337  162.0194 C   0  0  0  0  0  0  0  0  0  0  0  0
  147.8112  134.5261  160.9145 S   0  0  0  0  0  0  0  0  0  0  0  0
  152.6542  139.5510  156.4320 H   0  0  0  0  0  0  0  0  0  0  0  0
  151.4191  138.3346  156.1359 H   0  0  0  0  0  0  0  0  0  0  0  0
  152.9665  137.8650  156.8372 H   0  0  0  0  0  0  0  0  0  0  0  0
  150.8823  139.6687  158.1444 H   0  0  0  0  0  0  0  0  0  0  0  0
  152.6904  138.7394  160.1363 H   0  0  0  0  0  0  0  0  0  0  0  0
  153.7209  139.1221  158.7841 H   0  0  0  0  0  0  0  0  0  0  0  0
  151.7094  141.4472  157.7792 H   0  0  0  0  0  0  0  0  0  0  0  0
  150.7198  141.4214  159.2434 H   0  0  0  0  0  0  0  0  0  0  0  0
  152.7310  143.4658  158.3644 H   0  0  0  0  0  0  0  0  0  0  0  0
  151.3294  143.7008  159.4043 H   0  0  0  0  0  0  0  0  0  0  0  0
  154.0024  143.4993  160.3204 H   0  0  0  0  0  0  0  0  0  0  0  0
  152.5905  143.1604  161.3402 H   0  0  0  0  0  0  0  0  0  0  0  0
  151.6161  136.8450  158.8175 H   0  0  0  0  0  0  0  0  0  0  0  0
  146.0808  134.9898  162.6906 H   0  0  0  0  0  0  0  0  0  0  0  0
  1  2  1  0  0  0  0
  1 19  1  0  0  0  0
  1 20  1  0  0  0  0
  1 21  1  0  0  0  0
  2  3  1  0  0  0  0
  2 10  1  0  0  0  0
  2 22  1  0  0  0  0
  3  4  1  0  0  0  0
  3 23  1  0  0  0  0
  3 24  1  0  0  0  0
  4  8  1  0  0  0  0
  4  5  1  0  0  0  0
  5  6  1  0  0  0  0
  5 25  1  0  0  0  0
  5 26  1  0  0  0  0
  6  7  1  0  0  0  0
  6 27  1  0  0  0  0
  6 28  1  0  0  0  0
  7  8  1  0  0  0  0
  7 29  1  0  0  0  0
  7 30  1  0  0  0  0
  8  9  2  0  0  0  0
 10 11  1  0  0  0  0
 10 31  1  0  0  0  0
 11 12  2  0  0  0  0
 11 13  1  0  0  0  0
 13 14  1  0  0  0  0
 14 18  1  0  0  0  0
 14 15  2  0  0  0  0
 15 16  1  0  0  0  0
 16 17  2  0  0  0  0
 17 18  1  0  0  0  0
 17 32  1  0  0  0  0
M  CHG  1  13  -1
M  END
> <s_m_source_file>
AV-unprocessed.smi

> <i_m_source_file_index>
1836

> <i_lp_mmshare_version>
43012

> <i_f3d_flags>
0

> <s_epik_input>
Tz1DMVtDSDJdW0NIMl1bQ0gyXU4xW0NIMl1bQ0BASF0oW0NIM10pW05IXUMoPU8pW05IXWMybm5bY0hdczI=

> <s_epik_cmdline>
J2VwaWtfcHl0aG9uJywgJy1waCcsICc3LjAnLCAnLXRuJywgJzgnLCAnLW1hJywgJzIwMCcsICctbWV0YWxfYmluZGluZycsICctaW1hZScsICc8aW5maWxlLm1hZT4nLCAnLW9tYWUnLCAnPG91dGZpbGUubWFlPic=

> <r_lp_tautomer_probability>
1

> <r_epik_Ionization_Penalty>
3.44722

> <r_epik_Ionization_Penalty_Charging>
3.40341

> <r_epik_Ionization_Penalty_Neutral>
0.0438099

> <r_epik_State_Penalty>
3.40151

> <r_epik_Charging_Adjusted_Penalty>
6.80491

> <i_epik_Tot_Q>
-1

> <i_epik_Tot_abs_Q>
1

> <r_epik_Metal_State_Penalty>
0.49534

> <b_epik_Metal_Only>
1

> <s_lp_Force_Field>
OPLS_2005

> <r_lp_Energy>
15.5322

> <b_lp_Chiralities_Consistent>
1

> <s_lp_Variant>
AV-unprocessed.smi:1836-3

> <Gold.Version>
5.8.1

> <Gold.Id.Protein>
6NUR|6NUR_protein|mol2

> <Gold.PLP.Fitness>
42.2365

> <Gold.PLP.PLP>
-33.3537

> <Gold.PLP.part.hbond>
-4.4624

> <Gold.PLP.part.metal>
0.0000

> <Gold.PLP.part.buried>
-4.7362

> <Gold.PLP.part.nonpolar>
-24.7237

> <Gold.PLP.part.repulsive>
0.1294

> <Gold.PLP.ligand.clash>
0.0000

> <Gold.PLP.ligand.torsion>
0.9257

> <Gold.PLP.Chemscore.Hbond>
3.5296

> <Gold.PLP.Chemscore.CHOScore>
0.0000

> <Gold.PLP.Chemscore.Metal>
0.0000

> <Gold.Chemscore.Hbonds>
donor molecule, donor type, donor heavy atom, donor atom, acceptor molecule, acceptor atom, score
      P1  H  6896  6908       L1    13  2.00
      P1  H  6931  6943       L1    15  0.99
      P1  H  6934  6947       L1    15  0.49

> <Gold.PLP.Chemscore.Internal.Correction>
0.1453

> <Gold.Rescore>
     Score         DG    S(hbond)    S(metal)    S(lipo)     H(rot)  DE(clash)    DE(int)     intcor
     11.41     -13.89       1.70        0.00      61.33       1.73       0.01       2.47       ----

> <Gold.Chemscore.Fitness>
11.4106

> <Gold.Chemscore.DG>
-13.8925

> <Gold.Chemscore.ZeroCoef>
-5.4800

> <Gold.Chemscore.Hbond>
1.6964

> <Gold.Chemscore.Metal>
0.0000

> <Gold.Chemscore.Lipo>
61.3326

> <Gold.Chemscore.Internal_Hbond>
0.0000

> <Gold.Chemscore.DEClash>
0.0121

> <Gold.Chemscore.DEInternal>
2.4698

> <Gold.Chemscore.Rot>
1.7302

> <Gold.Chemscore.Internal.Correction>
   9.000000E+99

> <Gold.Chemscore.Hbonds>
donor molecule, donor type, donor heavy atom, donor atom, acceptor molecule, acceptor atom, score
      P1  H  6896  6908       L1    13  0.67
      P1  H  6931  6943       L1    15  0.53
      P1  H  6934  6947       L1    15  0.04

> <Gold.Chemscore.Hbond.Weighted>
-5.6660

> <Gold.Chemscore.Metal.Weighted>
-0.0000

> <Gold.Chemscore.Lipo.Weighted>
-7.1759

> <Gold.Chemscore.Internal_Hbond.Weighted>
0.0000

> <Gold.Chemscore.DEClash.Weighted>
0.0121

> <Gold.Chemscore.DEInternal.Weighted>
2.4698

> <Gold.Chemscore.Rot.Weighted>
4.4294

> <Gold.Chemscore.Internal.Correction.Weighted>
   9.000000E+99

> <Gold.Protein.RotatedTorsions>
[ 6907 6896 6895 6894 ] final -178.96 input  -60.11 | X-H torsion
[ 7974 7965 7964 7962 ] final  133.86 input  175.53 | X-H torsion
[ 8008 7997 7996 7995 ] final -145.20 input   59.86 | X-H torsion
[ 10167 10162 10161 10158 ] final   11.25 input  -65.29 | X-H torsion
[ 10718 10713 10712 10709 ] final  167.60 input   66.30 | X-H torsion
[ 10763 10752 10751 10750 ] final  -14.91 input  -60.55 | X-H torsion
[ 11005 11000 10999 10996 ] final  -81.11 input  -57.11 | X-H torsion

> <Gold.Protein.ActiveResidues>
 VAL166  LYS551  ARG553  GLY616  TRP617  ASP618  TYR619  PRO620  LYS621  CYS622 
 ASP623  PHE694  ASN695  SER759  ASP760  ASP761  ALA762  ILE779  LEU786  VAL792 
 PHE793  MET794  SER795  GLU796  ALA797  LYS798  CYS799  TRP800  GLU811  SER814 

> <Gold.Protein.RotatedAtoms>
  151.6457  133.3323  159.3140 H   0  0  0  0  0  0  0  0  0  0  0  0  # atno 6907 bound_to 6896
  150.7985  134.7066  159.6590 H   0  0  0  0  0  0  0  0  0  0  0  0  # atno 6908 bound_to 6896
  152.4075  134.6186  160.0096 H   0  0  0  0  0  0  0  0  0  0  0  0  # atno 6909 bound_to 6896
  144.9822  139.4493  143.5381 H   0  0  0  0  0  0  0  0  0  0  0  0  # atno 7974 bound_to 7965
  155.5394  140.0606  157.2873 H   0  0  0  0  0  0  0  0  0  0  0  0  # atno 8008 bound_to 7997
  154.4457  140.1922  156.0619 H   0  0  0  0  0  0  0  0  0  0  0  0  # atno 8009 bound_to 7997
  156.0596  140.3274  155.7449 H   0  0  0  0  0  0  0  0  0  0  0  0  # atno 8010 bound_to 7997
  140.6143  143.8341  150.7101 H   0  0  0  0  0  0  0  0  0  0  0  0  # atno 10167 bound_to 10162
  157.0491  131.0308  151.2687 H   0  0  0  0  0  0  0  0  0  0  0  0  # atno 10718 bound_to 10713
  153.5353  135.7014  153.5663 H   0  0  0  0  0  0  0  0  0  0  0  0  # atno 10763 bound_to 10752
  153.3652  135.3959  155.1748 H   0  0  0  0  0  0  0  0  0  0  0  0  # atno 10764 bound_to 10752
  154.8680  135.3798  154.4853 H   0  0  0  0  0  0  0  0  0  0  0  0  # atno 10765 bound_to 10752
  141.1667  133.7181  156.8374 H   0  0  0  0  0  0  0  0  0  0  0  0  # atno 11005 bound_to 11000
  146.3411  139.9102  142.8781 LP  0  0  0  0  0  0  0  0  0  0  0  0  # atno 17320 bound_to 7965
  145.2405  141.0007  143.3939 LP  0  0  0  0  0  0  0  0  0  0  0  0  # atno 17321 bound_to 7965
  140.1916  143.4031  152.1858 LP  0  0  0  0  0  0  0  0  0  0  0  0  # atno 17342 bound_to 10162
  139.5386  144.7234  151.4809 LP  0  0  0  0  0  0  0  0  0  0  0  0  # atno 17343 bound_to 10162
  157.5044  130.7900  149.7638 LP  0  0  0  0  0  0  0  0  0  0  0  0  # atno 17370 bound_to 10713
  156.0013  130.3878  150.2595 LP  0  0  0  0  0  0  0  0  0  0  0  0  # atno 17371 bound_to 10713
  140.2008  134.8898  157.3166 LP  0  0  0  0  0  0  0  0  0  0  0  0  # atno 17394 bound_to 11000
  140.2190  134.4047  155.7575 LP  0  0  0  0  0  0  0  0  0  0  0  0  # atno 17395 bound_to 11000

$$$$
