AV-unprocessed.smi:1406|AV-procd|sdf|5712|dock9
  -GOLD-   22720 5343D 1   1.00000     0.00000
 Structure written by MMmdl.
 41 43  0  0  0  0  0  0  0  0  2 V2000
  147.4867  136.7899  154.7229 C   0  0  0  0  0  0  0  0  0  0  0  0
  148.5037  135.7886  155.3080 C   0  0  1  0  0  0  0  0  0  0  0  0
  148.4780  134.4211  154.5964 C   0  0  0  0  0  0  0  0  0  0  0  0
  149.0367  133.4426  155.0938 O   0  0  0  0  0  0  0  0  0  0  0  0
  147.8442  134.3643  153.4132 N   0  0  0  0  0  0  0  0  0  0  0  0
  147.7073  133.1638  152.5941 C   0  0  1  0  0  0  0  0  0  0  0  0
  147.0240  132.0045  153.3309 C   0  0  0  0  0  0  0  0  0  0  0  0
  146.2677  131.2271  152.2389 C   0  0  0  0  0  0  0  0  0  0  0  0
  146.4984  131.9610  150.9743 N   0  3  1  0  0  0  0  0  0  0  0  0
  145.4662  131.7996  149.9183 C   0  0  0  0  0  0  0  0  0  0  0  0
  144.2192  132.6639  150.1694 C   0  0  0  0  0  0  0  0  0  0  0  0
  144.6104  134.1304  150.3785 C   0  0  0  0  0  0  0  0  0  0  0  0
  145.5903  134.2364  151.5514 C   0  0  0  0  0  0  0  0  0  0  0  0
  146.8467  133.3541  151.3339 C   0  0  1  0  0  0  0  0  0  0  0  0
  149.8493  136.3540  155.3342 N   0  0  0  0  0  0  0  0  0  0  0  0
  150.9759  135.8663  155.8584 C   0  0  0  0  0  0  0  0  0  0  0  0
  152.0377  136.6352  155.6626 N   0  0  0  0  0  0  0  0  0  0  0  0
  151.4561  137.6534  154.9616 C   0  0  0  0  0  0  0  0  0  0  0  0
  150.1491  137.5310  154.7304 N   0  0  0  0  0  0  0  0  0  0  0  0
  146.4673  136.4097  154.7964 H   0  0  0  0  0  0  0  0  0  0  0  0
  147.6860  137.0032  153.6717 H   0  0  0  0  0  0  0  0  0  0  0  0
  147.5173  137.7361  155.2638 H   0  0  0  0  0  0  0  0  0  0  0  0
  148.2170  135.6001  156.3435 H   0  0  0  0  0  0  0  0  0  0  0  0
  147.4109  135.2080  153.0666 H   0  0  0  0  0  0  0  0  0  0  0  0
  148.6999  132.8244  152.2895 H   0  0  0  0  0  0  0  0  0  0  0  0
  147.7477  131.3798  153.8558 H   0  0  0  0  0  0  0  0  0  0  0  0
  146.3150  132.3767  154.0721 H   0  0  0  0  0  0  0  0  0  0  0  0
  146.6268  130.2017  152.1456 H   0  0  0  0  0  0  0  0  0  0  0  0
  145.2049  131.1867  152.4796 H   0  0  0  0  0  0  0  0  0  0  0  0
  145.9145  132.0876  148.9667 H   0  0  0  0  0  0  0  0  0  0  0  0
  145.1939  130.7477  149.8257 H   0  0  0  0  0  0  0  0  0  0  0  0
  143.5337  132.5788  149.3257 H   0  0  0  0  0  0  0  0  0  0  0  0
  143.6770  132.2986  151.0421 H   0  0  0  0  0  0  0  0  0  0  0  0
  145.0674  134.5298  149.4723 H   0  0  0  0  0  0  0  0  0  0  0  0
  143.7225  134.7324  150.5747 H   0  0  0  0  0  0  0  0  0  0  0  0
  145.8819  135.2783  151.6871 H   0  0  0  0  0  0  0  0  0  0  0  0
  145.0760  133.9421  152.4671 H   0  0  0  0  0  0  0  0  0  0  0  0
  147.4431  133.7860  150.5289 H   0  0  0  0  0  0  0  0  0  0  0  0
  151.0223  134.9260  156.3882 H   0  0  0  0  0  0  0  0  0  0  0  0
  152.0138  138.5070  154.6048 H   0  0  0  0  0  0  0  0  0  0  0  0
  147.3479  131.5628  150.5994 H   0  0  0  0  0  0  0  0  0  0  0  0
  1  2  1  0  0  0  0
  1 20  1  0  0  0  0
  1 21  1  0  0  0  0
  1 22  1  0  0  0  0
  2  3  1  0  0  0  0
  2 15  1  0  0  0  0
  2 23  1  0  0  0  0
  3  4  2  0  0  0  0
  3  5  1  0  0  0  0
  5  6  1  0  0  0  0
  5 24  1  0  0  0  0
  6 14  1  0  0  0  0
  6  7  1  0  0  0  0
  6 25  1  0  0  0  0
  7  8  1  0  0  0  0
  7 26  1  0  0  0  0
  7 27  1  0  0  0  0
  8  9  1  0  0  0  0
  8 28  1  0  0  0  0
  8 29  1  0  0  0  0
  9 14  1  0  0  0  0
  9 10  1  0  0  0  0
  9 41  1  0  0  0  0
 10 11  1  0  0  0  0
 10 30  1  0  0  0  0
 10 31  1  0  0  0  0
 11 12  1  0  0  0  0
 11 32  1  0  0  0  0
 11 33  1  0  0  0  0
 12 13  1  0  0  0  0
 12 34  1  0  0  0  0
 12 35  1  0  0  0  0
 13 14  1  0  0  0  0
 13 36  1  0  0  0  0
 13 37  1  0  0  0  0
 14 38  1  0  0  0  0
 15 19  1  0  0  0  0
 15 16  1  0  0  0  0
 16 17  2  0  0  0  0
 16 39  1  0  0  0  0
 17 18  1  0  0  0  0
 18 19  2  0  0  0  0
 18 40  1  0  0  0  0
M  CHG  1   9   1
M  END
> <s_m_source_file>
AV-unprocessed.smi

> <i_m_source_file_index>
1406

> <i_lp_mmshare_version>
43012

> <i_f3d_flags>
0

> <s_epik_input>
bjFbY0hdbltjSF1uMVtDQEhdKFtDSDNdKUMoPU8pW05IXVtDQEhdKFtDSDJdW0NIMl0yKVtDQEBIXShOMjMpW0NIMl1bQ0gyXVtDSDJdW0NIMl0z

> <s_epik_cmdline>
J2VwaWtfcHl0aG9uJywgJy1waCcsICc3LjAnLCAnLXRuJywgJzgnLCAnLW1hJywgJzIwMCcsICctbWV0YWxfYmluZGluZycsICctaW1hZScsICc8aW5maWxlLm1hZT4nLCAnLW9tYWUnLCAnPG91dGZpbGUubWFlPic=

> <r_lp_tautomer_probability>
1

> <r_epik_Ionization_Penalty>
0.00197066

> <r_epik_Ionization_Penalty_Charging>
0.00196223

> <r_epik_Ionization_Penalty_Neutral>
8.43107e-06

> <r_epik_State_Penalty>
0.00133866

> <r_epik_Charging_Adjusted_Penalty>
0.00330089

> <i_epik_Tot_Q>
1

> <i_epik_Tot_abs_Q>
1

> <r_epik_Metal_State_Penalty>
-0

> <b_epik_Metal_Only>
0

> <s_lp_Force_Field>
OPLS_2005

> <r_lp_Energy>
42.4798

> <b_lp_Chiralities_Consistent>
1

> <s_lp_Variant>
AV-unprocessed.smi:1406-4

> <Gold.Version>
5.8.1

> <Gold.Id.Protein>
6NUR|6NUR_protein|mol2

> <Gold.PLP.Fitness>
36.6280

> <Gold.PLP.PLP>
-30.9519

> <Gold.PLP.part.hbond>
-3.0000

> <Gold.PLP.part.metal>
0.0000

> <Gold.PLP.part.buried>
-5.2475

> <Gold.PLP.part.nonpolar>
-23.7054

> <Gold.PLP.part.repulsive>
0.3073

> <Gold.PLP.ligand.clash>
0.0000

> <Gold.PLP.ligand.torsion>
0.3132

> <Gold.PLP.Chemscore.Hbond>
2.0673

> <Gold.PLP.Chemscore.CHOScore>
0.0000

> <Gold.PLP.Chemscore.Metal>
0.0000

> <Gold.Chemscore.Hbonds>
donor molecule, donor type, donor heavy atom, donor atom, acceptor molecule, acceptor atom, score
      L1  H     5    24       P1  7948  0.07
      L1  H     9    41       P1 10747  1.00
      P1  H 10752 10763       L1    17  1.00

> <Gold.PLP.Chemscore.Internal.Correction>
0.1006

> <Gold.Rescore>
     Score         DG    S(hbond)    S(metal)    S(lipo)     H(rot)  DE(clash)    DE(int)     intcor
     12.36     -13.64       1.74        0.00      61.36       1.89       0.03       1.25       ----

> <Gold.Chemscore.Fitness>
12.3572

> <Gold.Chemscore.DG>
-13.6369

> <Gold.Chemscore.ZeroCoef>
-5.4800

> <Gold.Chemscore.Hbond>
1.7388

> <Gold.Chemscore.Metal>
0.0000

> <Gold.Chemscore.Lipo>
61.3576

> <Gold.Chemscore.Internal_Hbond>
0.0000

> <Gold.Chemscore.DEClash>
0.0310

> <Gold.Chemscore.DEInternal>
1.2487

> <Gold.Chemscore.Rot>
1.8865

> <Gold.Chemscore.Internal.Correction>
   9.000000E+99

> <Gold.Chemscore.Hbonds>
donor molecule, donor type, donor heavy atom, donor atom, acceptor molecule, acceptor atom, score
      L1  H     5    24       P1  7948  0.07
      L1  H     9    41       P1 10747  1.00
      P1  H 10752 10763       L1    17  0.25

> <Gold.Chemscore.Hbond.Weighted>
-5.8075

> <Gold.Chemscore.Metal.Weighted>
-0.0000

> <Gold.Chemscore.Lipo.Weighted>
-7.1788

> <Gold.Chemscore.Internal_Hbond.Weighted>
0.0000

> <Gold.Chemscore.DEClash.Weighted>
0.0310

> <Gold.Chemscore.DEInternal.Weighted>
1.2487

> <Gold.Chemscore.Rot.Weighted>
4.8295

> <Gold.Chemscore.Internal.Correction.Weighted>
   9.000000E+99

> <Gold.Protein.RotatedTorsions>
[ 6907 6896 6895 6894 ] final   46.54 input  -60.11 | X-H torsion
[ 7974 7965 7964 7962 ] final -138.25 input  175.53 | X-H torsion
[ 8008 7997 7996 7995 ] final  155.68 input   59.86 | X-H torsion
[ 10167 10162 10161 10158 ] final -121.13 input  -65.29 | X-H torsion
[ 10718 10713 10712 10709 ] final -134.71 input   66.30 | X-H torsion
[ 10763 10752 10751 10750 ] final   83.44 input  -60.55 | X-H torsion
[ 11005 11000 10999 10996 ] final -134.98 input  -57.11 | X-H torsion

> <Gold.Protein.ActiveResidues>
 VAL166  LYS551  ARG553  GLY616  TRP617  ASP618  TYR619  PRO620  LYS621  CYS622 
 ASP623  PHE694  ASN695  SER759  ASP760  ASP761  ALA762  ILE779  LEU786  VAL792 
 PHE793  MET794  SER795  GLU796  ALA797  LYS798  CYS799  TRP800  GLU811  SER814 

> <Gold.Protein.RotatedAtoms>
  152.2576  134.8067  160.0435 H   0  0  0  0  0  0  0  0  0  0  0  0  # atno 6907 bound_to 6896
  151.8725  133.3473  159.3748 H   0  0  0  0  0  0  0  0  0  0  0  0  # atno 6908 bound_to 6896
  150.7105  134.5025  159.5612 H   0  0  0  0  0  0  0  0  0  0  0  0  # atno 6909 bound_to 6896
  144.8774  140.6457  143.5228 H   0  0  0  0  0  0  0  0  0  0  0  0  # atno 7974 bound_to 7965
  156.2465  140.1933  156.6838 H   0  0  0  0  0  0  0  0  0  0  0  0  # atno 8008 bound_to 7997
  154.6302  140.0597  156.9748 H   0  0  0  0  0  0  0  0  0  0  0  0  # atno 8009 bound_to 7997
  155.1723  140.3269  155.4393 H   0  0  0  0  0  0  0  0  0  0  0  0  # atno 8010 bound_to 7997
  140.0283  143.5274  152.2188 H   0  0  0  0  0  0  0  0  0  0  0  0  # atno 10167 bound_to 10162
  156.2583  130.7194  151.1119 H   0  0  0  0  0  0  0  0  0  0  0  0  # atno 10718 bound_to 10713
  153.1291  135.4691  154.9320 H   0  0  0  0  0  0  0  0  0  0  0  0  # atno 10763 bound_to 10752
  154.7648  135.3141  154.8311 H   0  0  0  0  0  0  0  0  0  0  0  0  # atno 10764 bound_to 10752
  153.8857  135.6890  153.4818 H   0  0  0  0  0  0  0  0  0  0  0  0  # atno 10765 bound_to 10752
  140.8940  134.1775  157.4508 H   0  0  0  0  0  0  0  0  0  0  0  0  # atno 11005 bound_to 11000
  145.4017  139.1596  143.4174 LP  0  0  0  0  0  0  0  0  0  0  0  0  # atno 17320 bound_to 7965
  146.2972  140.4115  142.8717 LP  0  0  0  0  0  0  0  0  0  0  0  0  # atno 17321 bound_to 7965
  139.6093  144.7604  151.2989 LP  0  0  0  0  0  0  0  0  0  0  0  0  # atno 17342 bound_to 10162
  140.7313  143.6856  150.7965 LP  0  0  0  0  0  0  0  0  0  0  0  0  # atno 17343 bound_to 10162
  157.7241  131.0662  150.6009 LP  0  0  0  0  0  0  0  0  0  0  0  0  # atno 17370 bound_to 10713
  156.6095  130.4376  149.5865 LP  0  0  0  0  0  0  0  0  0  0  0  0  # atno 17371 bound_to 10713
  139.8733  134.9870  156.5351 LP  0  0  0  0  0  0  0  0  0  0  0  0  # atno 17394 bound_to 11000
  140.8312  133.8277  155.8986 LP  0  0  0  0  0  0  0  0  0  0  0  0  # atno 17395 bound_to 11000

$$$$
