AV-unprocessed.smi:2110|AV-procd|sdf|8609|dock8
  -GOLD-   2272011353D 1   1.00000     0.00000
 Structure written by MMmdl.
 47 48  0  0  0  0  0  0  0  0  2 V2000
  144.3114  134.1086  162.5458 C   0  0  0  0  0  0  0  0  0  0  0  0
  145.0079  135.4754  162.5402 C   0  0  0  0  0  0  0  0  0  0  0  0
  146.3695  135.3672  161.9932 N   0  0  0  0  0  0  0  0  0  0  0  0
  147.3004  134.4749  162.7031 C   0  0  0  0  0  0  0  0  0  0  0  0
  147.6251  133.2247  161.8735 C   0  0  0  0  0  0  0  0  0  0  0  0
  146.9926  136.6203  160.9692 S   0  0  0  0  0  0  0  0  0  0  0  0
  146.0641  137.7614  160.9860 O   0  0  0  0  0  0  0  0  0  0  0  0
  148.4223  136.7929  161.2664 O   0  0  0  0  0  0  0  0  0  0  0  0
  146.8494  135.8254  159.4424 N   0  0  0  0  0  0  0  0  0  0  0  0
  146.1094  136.4253  158.3295 C   0  0  0  0  0  0  0  0  0  0  0  0
  146.9088  136.5173  157.0415 C   0  0  0  0  0  0  0  0  0  0  0  0
  146.4733  135.8313  155.8892 C   0  0  0  0  0  0  0  0  0  0  0  0
  147.2270  135.9366  154.7059 C   0  0  0  0  0  0  0  0  0  0  0  0
  148.3498  136.6857  154.6889 N   0  3  0  0  0  0  0  0  0  0  0  0
  148.8226  137.3651  155.7627 C   0  0  0  0  0  0  0  0  0  0  0  0
  150.0037  138.1238  155.6028 N   0  0  0  0  0  0  0  0  0  0  0  0
  151.1715  137.4176  155.0776 C   0  0  0  0  0  0  0  0  0  0  0  0
  152.2593  138.4157  154.6462 C   0  0  0  0  0  0  0  0  0  0  0  0
  152.5677  139.2875  155.7275 O   0  0  0  0  0  0  0  0  0  0  0  0
  151.4392  140.0612  156.1169 C   0  0  0  0  0  0  0  0  0  0  0  0
  150.3179  139.1321  156.6114 C   0  0  0  0  0  0  0  0  0  0  0  0
  148.0953  137.2826  156.9774 C   0  0  0  0  0  0  0  0  0  0  0  0
  143.3084  134.1893  162.9649 H   0  0  0  0  0  0  0  0  0  0  0  0
  144.8647  133.3865  163.1466 H   0  0  0  0  0  0  0  0  0  0  0  0
  144.2145  133.7013  161.5399 H   0  0  0  0  0  0  0  0  0  0  0  0
  144.4381  136.1890  161.9442 H   0  0  0  0  0  0  0  0  0  0  0  0
  145.0371  135.8773  163.5536 H   0  0  0  0  0  0  0  0  0  0  0  0
  148.2255  135.0107  162.9164 H   0  0  0  0  0  0  0  0  0  0  0  0
  146.8741  134.1988  163.6682 H   0  0  0  0  0  0  0  0  0  0  0  0
  148.3407  132.5913  162.3979 H   0  0  0  0  0  0  0  0  0  0  0  0
  148.0642  133.4920  160.9123 H   0  0  0  0  0  0  0  0  0  0  0  0
  146.7362  132.6241  161.6813 H   0  0  0  0  0  0  0  0  0  0  0  0
  146.8633  134.8062  159.4779 H   0  0  0  0  0  0  0  0  0  0  0  0
  145.2246  135.8187  158.1373 H   0  0  0  0  0  0  0  0  0  0  0  0
  145.7529  137.4123  158.6235 H   0  0  0  0  0  0  0  0  0  0  0  0
  145.5712  135.2371  155.9068 H   0  0  0  0  0  0  0  0  0  0  0  0
  146.9658  135.4510  153.7768 H   0  0  0  0  0  0  0  0  0  0  0  0
  151.5590  136.7554  155.8526 H   0  0  0  0  0  0  0  0  0  0  0  0
  150.9125  136.7932  154.2227 H   0  0  0  0  0  0  0  0  0  0  0  0
  153.1629  137.8814  154.3527 H   0  0  0  0  0  0  0  0  0  0  0  0
  151.9361  138.9931  153.7784 H   0  0  0  0  0  0  0  0  0  0  0  0
  151.7352  140.7472  156.9106 H   0  0  0  0  0  0  0  0  0  0  0  0
  151.0975  140.6727  155.2801 H   0  0  0  0  0  0  0  0  0  0  0  0
  149.4380  139.7365  156.8327 H   0  0  0  0  0  0  0  0  0  0  0  0
  150.6199  138.6360  157.5347 H   0  0  0  0  0  0  0  0  0  0  0  0
  148.4274  137.7964  157.8667 H   0  0  0  0  0  0  0  0  0  0  0  0
  148.8700  136.7486  153.8134 H   0  0  0  0  0  0  0  0  0  0  0  0
  1  2  1  0  0  0  0
  1 23  1  0  0  0  0
  1 24  1  0  0  0  0
  1 25  1  0  0  0  0
  2  3  1  0  0  0  0
  2 26  1  0  0  0  0
  2 27  1  0  0  0  0
  3  4  1  0  0  0  0
  3  6  1  0  0  0  0
  4  5  1  0  0  0  0
  4 28  1  0  0  0  0
  4 29  1  0  0  0  0
  5 30  1  0  0  0  0
  5 31  1  0  0  0  0
  5 32  1  0  0  0  0
  6  7  2  0  0  0  0
  6  8  2  0  0  0  0
  6  9  1  0  0  0  0
  9 10  1  0  0  0  0
  9 33  1  0  0  0  0
 10 11  1  0  0  0  0
 10 34  1  0  0  0  0
 10 35  1  0  0  0  0
 11 22  1  0  0  0  0
 11 12  2  0  0  0  0
 12 13  1  0  0  0  0
 12 36  1  0  0  0  0
 13 14  2  0  0  0  0
 13 37  1  0  0  0  0
 14 15  1  0  0  0  0
 14 47  1  0  0  0  0
 15 16  1  0  0  0  0
 15 22  2  0  0  0  0
 16 21  1  0  0  0  0
 16 17  1  0  0  0  0
 17 18  1  0  0  0  0
 17 38  1  0  0  0  0
 17 39  1  0  0  0  0
 18 19  1  0  0  0  0
 18 40  1  0  0  0  0
 18 41  1  0  0  0  0
 19 20  1  0  0  0  0
 20 21  1  0  0  0  0
 20 42  1  0  0  0  0
 20 43  1  0  0  0  0
 21 44  1  0  0  0  0
 21 45  1  0  0  0  0
 22 46  1  0  0  0  0
M  CHG  1  14   1
M  END
> <s_m_source_file>
AV-unprocessed.smi

> <i_m_source_file_index>
2110

> <i_lp_mmshare_version>
43012

> <i_f3d_flags>
0

> <s_epik_input>
W0NIM11bQ0gyXU4oW0NIMl1bQ0gzXSlTKD1PKSg9TylbTkhdW0NIMl1jMVtjSF1bY0hdbmMoW2NIXTEpTjJbQ0gyXVtDSDJdT1tDSDJdW0NIMl0y

> <s_epik_cmdline>
J2VwaWtfcHl0aG9uJywgJy1waCcsICc3LjAnLCAnLXRuJywgJzgnLCAnLW1hJywgJzIwMCcsICctbWV0YWxfYmluZGluZycsICctaW1hZScsICc8aW5maWxlLm1hZT4nLCAnLW9tYWUnLCAnPG91dGZpbGUubWFlPic=

> <r_lp_tautomer_probability>
0.999994

> <r_epik_Ionization_Penalty>
1.66934

> <r_epik_Ionization_Penalty_Charging>
1.61364

> <r_epik_Ionization_Penalty_Neutral>
0.0557011

> <r_epik_State_Penalty>
1.67389

> <r_epik_Charging_Adjusted_Penalty>
3.28753

> <i_epik_Tot_Q>
1

> <i_epik_Tot_abs_Q>
1

> <r_epik_Metal_State_Penalty>
4.64949

> <b_epik_Metal_Only>
0

> <s_lp_Force_Field>
OPLS_2005

> <r_lp_Energy>
18.4454

> <b_lp_Chiralities_Consistent>
1

> <s_lp_Variant>
AV-unprocessed.smi:2110-2

> <Gold.Version>
5.8.1

> <Gold.Id.Protein>
6NUR|6NUR_protein|mol2

> <Gold.PLP.Fitness>
45.3270

> <Gold.PLP.PLP>
-31.2416

> <Gold.PLP.part.hbond>
-4.0757

> <Gold.PLP.part.metal>
0.0000

> <Gold.PLP.part.buried>
-5.3950

> <Gold.PLP.part.nonpolar>
-22.9884

> <Gold.PLP.part.repulsive>
0.0751

> <Gold.PLP.ligand.clash>
0.0000

> <Gold.PLP.ligand.torsion>
2.1766

> <Gold.PLP.Chemscore.Hbond>
4.8473

> <Gold.PLP.Chemscore.CHOScore>
0.0000

> <Gold.PLP.Chemscore.Metal>
0.0000

> <Gold.Chemscore.Hbonds>
donor molecule, donor type, donor heavy atom, donor atom, acceptor molecule, acceptor atom, score
      L1  H    14    47       P1  7948  1.89
      P1  H  6931  6943       L1     8  1.00
      P1  H  6934  6947       L1     7  1.00
      P1  H  7997  8010       L1    19  0.89

> <Gold.PLP.Chemscore.Internal.Correction>
3.8968

> <Gold.Rescore>
     Score         DG    S(hbond)    S(metal)    S(lipo)     H(rot)  DE(clash)    DE(int)     intcor
     16.93     -19.10       3.44        0.00      56.91       1.77       0.02       2.15       ----

> <Gold.Chemscore.Fitness>
16.9291

> <Gold.Chemscore.DG>
-19.1018

> <Gold.Chemscore.ZeroCoef>
-5.4800

> <Gold.Chemscore.Hbond>
3.4400

> <Gold.Chemscore.Metal>
0.0000

> <Gold.Chemscore.Lipo>
56.9094

> <Gold.Chemscore.Internal_Hbond>
0.0000

> <Gold.Chemscore.DEClash>
0.0202

> <Gold.Chemscore.DEInternal>
2.1525

> <Gold.Chemscore.Rot>
1.7680

> <Gold.Chemscore.Internal.Correction>
   9.000000E+99

> <Gold.Chemscore.Hbonds>
donor molecule, donor type, donor heavy atom, donor atom, acceptor molecule, acceptor atom, score
      L1  H    14    47       P1  7948  0.87
      P1  H  6931  6943       L1     8  0.99
      P1  H  6934  6947       L1     7  0.30
      P1  H  7997  8010       L1    19  0.71

> <Gold.Chemscore.Hbond.Weighted>
-11.4895

> <Gold.Chemscore.Metal.Weighted>
-0.0000

> <Gold.Chemscore.Lipo.Weighted>
-6.6584

> <Gold.Chemscore.Internal_Hbond.Weighted>
0.0000

> <Gold.Chemscore.DEClash.Weighted>
0.0202

> <Gold.Chemscore.DEInternal.Weighted>
2.1525

> <Gold.Chemscore.Rot.Weighted>
4.5261

> <Gold.Chemscore.Internal.Correction.Weighted>
   9.000000E+99

> <Gold.Protein.RotatedTorsions>
[ 6907 6896 6895 6894 ] final  -34.53 input  -60.11 | X-H torsion
[ 7974 7965 7964 7962 ] final   -6.00 input  175.53 | X-H torsion
[ 8008 7997 7996 7995 ] final   71.79 input   59.86 | X-H torsion
[ 10167 10162 10161 10158 ] final  -99.44 input  -65.29 | X-H torsion
[ 10718 10713 10712 10709 ] final  118.26 input   66.30 | X-H torsion
[ 10763 10752 10751 10750 ] final -171.61 input  -60.55 | X-H torsion
[ 11005 11000 10999 10996 ] final -137.34 input  -57.11 | X-H torsion

> <Gold.Protein.ActiveResidues>
 VAL166  LYS551  ARG553  GLY616  TRP617  ASP618  TYR619  PRO620  LYS621  CYS622 
 ASP623  PHE694  ASN695  SER759  ASP760  ASP761  ALA762  ILE779  LEU786  VAL792 
 PHE793  MET794  SER795  GLU796  ALA797  LYS798  CYS799  TRP800  GLU811  SER814 

> <Gold.Protein.RotatedAtoms>
  151.0515  134.9676  159.8213 H   0  0  0  0  0  0  0  0  0  0  0  0  # atno 6907 bound_to 6896
  152.5381  134.2531  159.8916 H   0  0  0  0  0  0  0  0  0  0  0  0  # atno 6908 bound_to 6896
  151.2547  133.4289  159.2647 H   0  0  0  0  0  0  0  0  0  0  0  0  # atno 6909 bound_to 6896
  146.2340  140.2106  142.8335 H   0  0  0  0  0  0  0  0  0  0  0  0  # atno 7974 bound_to 7965
  155.7591  140.3487  155.5189 H   0  0  0  0  0  0  0  0  0  0  0  0  # atno 8008 bound_to 7997
  155.8931  140.1021  157.1425 H   0  0  0  0  0  0  0  0  0  0  0  0  # atno 8009 bound_to 7997
  154.4035  140.1300  156.4328 H   0  0  0  0  0  0  0  0  0  0  0  0  # atno 8010 bound_to 7997
  140.2624  143.3398  152.0613 H   0  0  0  0  0  0  0  0  0  0  0  0  # atno 10167 bound_to 10162
  157.6042  131.1046  150.7731 H   0  0  0  0  0  0  0  0  0  0  0  0  # atno 10718 bound_to 10713
  154.6285  135.2884  155.0244 H   0  0  0  0  0  0  0  0  0  0  0  0  # atno 10763 bound_to 10752
  154.1413  135.6518  153.4946 H   0  0  0  0  0  0  0  0  0  0  0  0  # atno 10764 bound_to 10752
  153.0269  135.5333  154.7103 H   0  0  0  0  0  0  0  0  0  0  0  0  # atno 10765 bound_to 10752
  140.8720  134.2039  157.4645 H   0  0  0  0  0  0  0  0  0  0  0  0  # atno 11005 bound_to 11000
  144.9710  140.8368  143.5455 LP  0  0  0  0  0  0  0  0  0  0  0  0  # atno 17320 bound_to 7965
  145.2087  139.2215  143.5154 LP  0  0  0  0  0  0  0  0  0  0  0  0  # atno 17321 bound_to 7965
  139.5013  144.6710  151.6243 LP  0  0  0  0  0  0  0  0  0  0  0  0  # atno 17342 bound_to 10162
  140.5955  143.9704  150.6352 LP  0  0  0  0  0  0  0  0  0  0  0  0  # atno 17343 bound_to 10162
  156.8123  130.4956  149.5354 LP  0  0  0  0  0  0  0  0  0  0  0  0  # atno 17370 bound_to 10713
  156.1124  130.6050  151.0067 LP  0  0  0  0  0  0  0  0  0  0  0  0  # atno 17371 bound_to 10713
  139.8713  134.9778  156.4974 LP  0  0  0  0  0  0  0  0  0  0  0  0  # atno 17394 bound_to 11000
  140.8562  133.8094  155.9219 LP  0  0  0  0  0  0  0  0  0  0  0  0  # atno 17395 bound_to 11000

$$$$
