#       Name:                AV-unprocessed.smi:1013
#       Creating user name   scv26
#       Creation time:       Fri Mar 27 02:38:28 2020


#       File generated by GOLD software.
#

@<TRIPOS>MOLECULE
AV-unprocessed.smi:1013
    35    36     1
SMALL
NO_CHARGES


@<TRIPOS>ATOM
      1 ****        -1.6861  -1.2947   0.5998 O.co2          1 S1                 0.0000
      2 ****        -1.1638  -0.2133   0.9484 C.2            1 S1                 0.0000
      3 ****        -1.1409   0.2388   2.1149 O.co2          1 S1                -1.0000
      4 ****        -0.4837   0.6173  -0.1555 C.3            1 S1                 0.0000
      5 ****         1.0547   0.5558  -0.0358 C.3            1 S1                 0.0000
      6 ****         1.5842  -0.7734  -0.2922 N.pl3          1 S1                 0.0000
      7 ****         1.6030  -1.4716  -1.4801 C.2            1 S1                 0.0000
      8 ****         2.2003  -2.6742  -1.2345 C.2            1 S1                 0.0000
      9 ****         2.5239  -2.6231   0.1527 C.2            1 S1                 0.0000
     10 ****         3.1990  -3.6740   0.9939 C.3            1 S1                 0.0000
     11 ****         3.4722  -4.7508   0.2568 F              1 S1                 0.0000
     12 ****         4.3398  -3.1954   1.4906 F              1 S1                 0.0000
     13 ****         2.4037  -4.0349   2.0009 F              1 S1                 0.0000
     14 ****         2.1595  -1.4751   0.7073 N.2            1 S1                 0.0000
     15 ****        -0.9230   2.0249  -0.1901 N.3            1 S1                 0.0000
     16 ****        -2.3500   2.1529  -0.4429 C.3            1 S1                 0.0000
     17 ****        -2.9479   3.5319  -0.2791 C.3            1 S1                 0.0000
     18 ****        -3.2569   2.4566   0.7300 C.3            1 S1                 0.0000
     19 ****        -0.7585   0.1732  -1.1135 H              1 S1                 0.0000
     20 ****         1.5124   1.2317  -0.7591 H              1 S1                 0.0000
     21 ****         1.3813   0.8941   0.9496 H              1 S1                 0.0000
     22 ****         1.1891  -1.0604  -2.3890 H              1 S1                 0.0000
     23 ****         2.3771  -3.4728  -1.9393 H              1 S1                 0.0000
     24 ****        -0.4092   2.5396  -0.8898 H              1 S1                 0.0000
     25 ****        -2.7888   1.5673  -1.2491 H              1 S1                 0.0000
     26 ****        -2.2914   4.3401   0.0376 H              1 S1                 0.0000
     27 ****        -3.7424   3.8192  -0.9647 H              1 S1                 0.0000
     28 ****        -4.2535   2.0206   0.7158 H              1 S1                 0.0000
     29 ****        -2.8034   2.5484   1.7152 H              1 S1                 0.0000
     30 ****        -2.1330  -1.8761   1.2797 LP             1 S1                 0.0000
     31 ****        -1.6569  -1.5780  -0.3587 LP             1 S1                 0.0000
     32 ****        -1.5645  -0.2771   2.8595 LP             1 S1                 0.0000
     33 ****        -0.6990   1.1161   2.3026 LP             1 S1                 0.0000
     34 ****         2.2837  -1.1912   1.6581 LP             1 S1                 0.0000
     35 ****        -0.7365   2.4072   0.7150 LP             1 S1                 0.0000
@<TRIPOS>BOND
    1    1    2 ar    
    2    2    3 ar    
    3    2    4 1     
    4    4    5 1     
    5    4   15 1     
    6    4   19 1     
    7    5    6 1     
    8    5   20 1     
    9    5   21 1     
   10    6   14 1     
   11    6    7 1     
   12    7    8 2     
   13    7   22 1     
   14    8    9 1     
   15    8   23 1     
   16    9   10 1     
   17    9   14 2     
   18   10   11 1     
   19   10   12 1     
   20   10   13 1     
   21   15   16 1     
   22   15   24 1     
   23   16   18 1     
   24   16   17 1     
   25   16   25 1     
   26   17   18 1     
   27   17   26 1     
   28   17   27 1     
   29   18   28 1     
   30   18   29 1     
   31    1   30 1     
   32    1   31 1     
   33    3   32 1     
   34    3   33 1     
   35   14   34 1     
   36   15   35 1     
@<TRIPOS>SUBSTRUCTURE
      1 S1             1
@<TRIPOS>SET
LONE_PAIRS      STATIC     ATOMS    <user>   **** ""
6 30 31 32 33 34 35
DONOR_HYDROGENS      STATIC     ATOMS    <user>   **** ""
1 24
ATOM$BLUE        STATIC     ATOMS    COLORGROUP SYSTEM
6 30 31 32 33 34 35
ATOM$RED        STATIC     ATOMS    COLORGROUP SYSTEM
1 24
