AV-unprocessed.smi:3347|AV-procd|sdf|12912|dock4
  -GOLD-   2272019323D 1   1.00000     0.00000
 Structure written by MMmdl.
 40 42  0  0  0  0  0  0  0  0  2 V2000
  149.7640  135.4501  156.2603 O   0  0  0  0  0  0  0  0  0  0  0  0
  149.5853  135.6810  155.0650 C   0  0  0  0  0  0  0  0  0  0  0  0
  149.0320  134.7997  154.2198 N   0  0  0  0  0  0  0  0  0  0  0  0
  148.5332  133.4792  154.5915 C   0  0  0  0  0  0  0  0  0  0  0  0
  147.9050  132.7287  153.4007 C   0  0  1  0  0  0  0  0  0  0  0  0
  147.3124  131.3712  153.7667 C   0  0  0  0  0  0  0  0  0  0  0  0
  146.3819  131.0891  152.5901 C   0  0  0  0  0  0  0  0  0  0  0  0
  145.8250  132.4031  152.2016 N   0  3  2  0  0  0  0  0  0  0  0  0
  145.5340  132.5246  150.7572 C   0  0  0  0  0  0  0  0  0  0  0  0
  144.4612  133.5393  150.4410 C   0  0  0  0  0  0  0  0  0  0  0  0
  144.1479  132.0599  150.3793 C   0  0  0  0  0  0  0  0  0  0  0  0
  146.7300  133.4529  152.7270 C   0  0  0  0  0  0  0  0  0  0  0  0
  149.9245  136.8159  154.4293 N   0  0  0  0  0  0  0  0  0  0  0  0
  150.5115  137.9961  154.9625 C   0  0  0  0  0  0  0  0  0  0  0  0
  151.3625  138.0290  156.0945 C   0  0  0  0  0  0  0  0  0  0  0  0
  151.8641  139.2698  156.5322 C   0  0  0  0  0  0  0  0  0  0  0  0
  151.4929  140.4321  155.8291 C   0  0  0  0  0  0  0  0  0  0  0  0
  150.6741  140.4176  154.7564 N   0  0  0  0  0  0  0  0  0  0  0  0
  150.1966  139.2245  154.3430 C   0  0  0  0  0  0  0  0  0  0  0  0
  148.9238  135.0722  153.2535 H   0  0  0  0  0  0  0  0  0  0  0  0
  149.3436  132.8895  155.0235 H   0  0  0  0  0  0  0  0  0  0  0  0
  147.7945  133.6107  155.3824 H   0  0  0  0  0  0  0  0  0  0  0  0
  148.6713  132.5548  152.6429 H   0  0  0  0  0  0  0  0  0  0  0  0
  148.0706  130.5989  153.9001 H   0  0  0  0  0  0  0  0  0  0  0  0
  146.7352  131.4427  154.6900 H   0  0  0  0  0  0  0  0  0  0  0  0
  146.9601  130.6718  151.7638 H   0  0  0  0  0  0  0  0  0  0  0  0
  145.5930  130.3786  152.8388 H   0  0  0  0  0  0  0  0  0  0  0  0
  146.3725  132.3774  150.0785 H   0  0  0  0  0  0  0  0  0  0  0  0
  144.0331  134.1100  151.2633 H   0  0  0  0  0  0  0  0  0  0  0  0
  144.5371  134.0722  149.4955 H   0  0  0  0  0  0  0  0  0  0  0  0
  144.0181  131.6188  149.3931 H   0  0  0  0  0  0  0  0  0  0  0  0
  143.5116  131.6477  151.1604 H   0  0  0  0  0  0  0  0  0  0  0  0
  146.1691  134.0427  153.4529 H   0  0  0  0  0  0  0  0  0  0  0  0
  147.0775  134.1356  151.9497 H   0  0  0  0  0  0  0  0  0  0  0  0
  149.7772  136.8249  153.4306 H   0  0  0  0  0  0  0  0  0  0  0  0
  151.6296  137.1393  156.6428 H   0  0  0  0  0  0  0  0  0  0  0  0
  152.5154  139.3293  157.3916 H   0  0  0  0  0  0  0  0  0  0  0  0
  151.8590  141.3994  156.1398 H   0  0  0  0  0  0  0  0  0  0  0  0
  149.5419  139.2525  153.4838 H   0  0  0  0  0  0  0  0  0  0  0  0
  144.9503  132.5086  152.6959 H   0  0  0  0  0  0  0  0  0  0  0  0
  1  2  2  0  0  0  0
  2  3  1  0  0  0  0
  2 13  1  0  0  0  0
  3  4  1  0  0  0  0
  3 20  1  0  0  0  0
  4  5  1  0  0  0  0
  4 21  1  0  0  0  0
  4 22  1  0  0  0  0
  5 12  1  0  0  0  0
  5  6  1  0  0  0  0
  5 23  1  0  0  0  0
  6  7  1  0  0  0  0
  6 24  1  0  0  0  0
  6 25  1  0  0  0  0
  7  8  1  0  0  0  0
  7 26  1  0  0  0  0
  7 27  1  0  0  0  0
  8  9  1  0  0  0  0
  8 12  1  0  0  0  0
  8 40  1  0  0  0  0
  9 11  1  0  0  0  0
  9 10  1  0  0  0  0
  9 28  1  0  0  0  0
 10 11  1  0  0  0  0
 10 29  1  0  0  0  0
 10 30  1  0  0  0  0
 11 31  1  0  0  0  0
 11 32  1  0  0  0  0
 12 33  1  0  0  0  0
 12 34  1  0  0  0  0
 13 14  1  0  0  0  0
 13 35  1  0  0  0  0
 14 19  1  0  0  0  0
 14 15  2  0  0  0  0
 15 16  1  0  0  0  0
 15 36  1  0  0  0  0
 16 17  2  0  0  0  0
 16 37  1  0  0  0  0
 17 18  1  0  0  0  0
 17 38  1  0  0  0  0
 18 19  2  0  0  0  0
 19 39  1  0  0  0  0
M  CHG  1   8   1
M  END
> <s_m_source_file>
AV-unprocessed.smi

> <i_m_source_file_index>
3347

> <i_lp_mmshare_version>
43012

> <i_f3d_flags>
0

> <s_epik_input>
W2NIXTFuW2NIXVtjSF1bY0hdYzFbTkhdQyg9TylbTkhdW0NIMl1bQ0BASF0yW0NIMl1bQ0gyXU4oW0NIMl0yKVtDSF0zW0NIMl1bQ0gyXTM=

> <s_epik_cmdline>
J2VwaWtfcHl0aG9uJywgJy1waCcsICc3LjAnLCAnLXRuJywgJzgnLCAnLW1hJywgJzIwMCcsICctbWV0YWxfYmluZGluZycsICctaW1hZScsICc8aW5maWxlLm1hZT4nLCAnLW9tYWUnLCAnPG91dGZpbGUubWFlPic=

> <r_epik_Ionization_Penalty>
0.00442629

> <r_epik_Ionization_Penalty_Charging>
0.000203384

> <r_epik_Ionization_Penalty_Neutral>
0.00422291

> <r_epik_State_Penalty>
0.00301008

> <r_epik_Charging_Adjusted_Penalty>
0.00321347

> <i_epik_Tot_Q>
1

> <i_epik_Tot_abs_Q>
1

> <r_epik_Metal_State_Penalty>
-0

> <b_epik_Metal_Only>
0

> <s_lp_Force_Field>
OPLS_2005

> <r_lp_Energy>
41.3797

> <b_lp_Chiralities_Consistent>
1

> <s_lp_Variant>
AV-unprocessed.smi:3347-2

> <Gold.Version>
5.8.1

> <Gold.Id.Protein>
6NUR|6NUR_protein|mol2

> <Gold.PLP.Fitness>
46.3739

> <Gold.PLP.PLP>
-34.9037

> <Gold.PLP.part.hbond>
-3.5263

> <Gold.PLP.part.metal>
0.0000

> <Gold.PLP.part.buried>
-3.9760

> <Gold.PLP.part.nonpolar>
-27.4143

> <Gold.PLP.part.repulsive>
0.1654

> <Gold.PLP.ligand.clash>
0.0000

> <Gold.PLP.ligand.torsion>
0.8180

> <Gold.PLP.Chemscore.Hbond>
2.9500

> <Gold.PLP.Chemscore.CHOScore>
0.9990

> <Gold.PLP.Chemscore.Metal>
0.0000

> <Gold.Chemscore.Hbonds>
donor molecule, donor type, donor heavy atom, donor atom, acceptor molecule, acceptor atom, score
      L1  H     3    20       P1  7948  1.00
      L1  H    13    35       P1  7948  1.00
      P1  H  7989  7998       L1    18  1.00
      L1  C    19    39       P1  7957  1.00

> <Gold.PLP.Chemscore.Internal.Correction>
1.2592

> <Gold.Rescore>
     Score         DG    S(hbond)    S(metal)    S(lipo)     H(rot)  DE(clash)    DE(int)     intcor
     16.27     -17.24       1.76        0.00      81.47       1.42       0.05       0.92       ----

> <Gold.Chemscore.Fitness>
16.2707

> <Gold.Chemscore.DG>
-17.2363

> <Gold.Chemscore.ZeroCoef>
-5.4800

> <Gold.Chemscore.Hbond>
1.7558

> <Gold.Chemscore.Metal>
0.0000

> <Gold.Chemscore.Lipo>
81.4704

> <Gold.Chemscore.Internal_Hbond>
0.0000

> <Gold.Chemscore.DEClash>
0.0480

> <Gold.Chemscore.DEInternal>
0.9176

> <Gold.Chemscore.Rot>
1.4219

> <Gold.Chemscore.Internal.Correction>
   9.000000E+99

> <Gold.Chemscore.Hbonds>
donor molecule, donor type, donor heavy atom, donor atom, acceptor molecule, acceptor atom, score
      L1  H     3    20       P1  7948  0.34
      L1  H    13    35       P1  7948  0.44
      P1  H  7989  7998       L1    18  0.19

> <Gold.Chemscore.Hbond.Weighted>
-5.8643

> <Gold.Chemscore.Metal.Weighted>
-0.0000

> <Gold.Chemscore.Lipo.Weighted>
-9.5320

> <Gold.Chemscore.Internal_Hbond.Weighted>
0.0000

> <Gold.Chemscore.DEClash.Weighted>
0.0480

> <Gold.Chemscore.DEInternal.Weighted>
0.9176

> <Gold.Chemscore.Rot.Weighted>
3.6401

> <Gold.Chemscore.Internal.Correction.Weighted>
   9.000000E+99

> <Gold.Protein.RotatedTorsions>
[ 6907 6896 6895 6894 ] final  152.36 input  -60.11 | X-H torsion
[ 7974 7965 7964 7962 ] final  -99.35 input  175.53 | X-H torsion
[ 8008 7997 7996 7995 ] final  -64.45 input   59.86 | X-H torsion
[ 10167 10162 10161 10158 ] final  -11.68 input  -65.29 | X-H torsion
[ 10718 10713 10712 10709 ] final  128.15 input   66.30 | X-H torsion
[ 10763 10752 10751 10750 ] final   70.76 input  -60.55 | X-H torsion
[ 11005 11000 10999 10996 ] final  -60.16 input  -57.11 | X-H torsion

> <Gold.Protein.ActiveResidues>
 VAL166  LYS551  ARG553  GLY616  TRP617  ASP618  TYR619  PRO620  LYS621  CYS622 
 ASP623  PHE694  ASN695  SER759  ASP760  ASP761  ALA762  ILE779  LEU786  VAL792 
 PHE793  MET794  SER795  GLU796  ALA797  LYS798  CYS799  TRP800  GLU811  SER814 

> <Gold.Protein.RotatedAtoms>
  152.0878  133.4185  159.4529 H   0  0  0  0  0  0  0  0  0  0  0  0  # atno 6907 bound_to 6896
  150.6862  134.2907  159.4674 H   0  0  0  0  0  0  0  0  0  0  0  0  # atno 6908 bound_to 6896
  152.0755  134.9505  160.0624 H   0  0  0  0  0  0  0  0  0  0  0  0  # atno 6909 bound_to 6896
  145.3087  140.9395  143.2782 H   0  0  0  0  0  0  0  0  0  0  0  0  # atno 7974 bound_to 7965
  154.4612  140.0953  156.6899 H   0  0  0  0  0  0  0  0  0  0  0  0  # atno 8008 bound_to 7997
  155.4988  140.3473  155.4349 H   0  0  0  0  0  0  0  0  0  0  0  0  # atno 8009 bound_to 7997
  156.0874  140.1388  156.9624 H   0  0  0  0  0  0  0  0  0  0  0  0  # atno 8010 bound_to 7997
  140.7144  143.5613  150.9192 H   0  0  0  0  0  0  0  0  0  0  0  0  # atno 10167 bound_to 10162
  157.5270  131.1098  150.9067 H   0  0  0  0  0  0  0  0  0  0  0  0  # atno 10718 bound_to 10713
  153.0360  135.5162  154.7491 H   0  0  0  0  0  0  0  0  0  0  0  0  # atno 10763 bound_to 10752
  154.6467  135.2919  155.0040 H   0  0  0  0  0  0  0  0  0  0  0  0  # atno 10764 bound_to 10752
  154.0938  135.6646  153.4909 H   0  0  0  0  0  0  0  0  0  0  0  0  # atno 10765 bound_to 10752
  141.1276  133.6620  156.5181 H   0  0  0  0  0  0  0  0  0  0  0  0  # atno 11005 bound_to 11000
  144.9034  139.4620  143.6622 LP  0  0  0  0  0  0  0  0  0  0  0  0  # atno 17320 bound_to 7965
  146.3126  139.7801  142.9008 LP  0  0  0  0  0  0  0  0  0  0  0  0  # atno 17321 bound_to 7965
  139.9339  143.6461  152.3070 LP  0  0  0  0  0  0  0  0  0  0  0  0  # atno 17342 bound_to 10162
  139.6921  144.7645  151.1420 LP  0  0  0  0  0  0  0  0  0  0  0  0  # atno 17343 bound_to 10162
  156.9660  130.5473  149.5288 LP  0  0  0  0  0  0  0  0  0  0  0  0  # atno 17370 bound_to 10713
  156.0394  130.5478  150.8734 LP  0  0  0  0  0  0  0  0  0  0  0  0  # atno 17371 bound_to 10713
  140.4314  134.7098  157.4944 LP  0  0  0  0  0  0  0  0  0  0  0  0  # atno 17394 bound_to 11000
  140.0291  134.6433  155.9131 LP  0  0  0  0  0  0  0  0  0  0  0  0  # atno 17395 bound_to 11000

$$$$
