AV-unprocessed.smi:2276|AV-procd|sdf|9173|dock1
  -GOLD-   2272012383D 1   1.00000     0.00000
 Structure written by MMmdl.
 53 54  0  0  0  0  0  0  0  0  2 V2000
  152.2003  145.9225  160.2470 C   0  0  0  0  0  0  0  0  0  0  0  0
  152.2232  144.5771  159.5523 C   0  0  0  0  0  0  0  0  0  0  0  0
  153.1796  143.6080  159.9094 C   0  0  0  0  0  0  0  0  0  0  0  0
  153.1580  142.3717  159.2356 C   0  0  0  0  0  0  0  0  0  0  0  0
  154.1615  141.2866  159.5643 C   0  0  0  0  0  0  0  0  0  0  0  0
  152.2688  142.0794  158.2634 N   0  0  0  0  0  0  0  0  0  0  0  0
  151.3410  143.0042  157.9113 C   0  0  0  0  0  0  0  0  0  0  0  0
  150.3930  142.8059  156.8728 N   0  0  0  0  0  0  0  0  0  0  0  0
  150.0920  141.6508  156.2556 C   0  0  0  0  0  0  0  0  0  0  0  0
  150.6281  140.5665  156.4854 O   0  0  0  0  0  0  0  0  0  0  0  0
  149.1474  141.8327  155.3206 N   0  0  0  0  0  0  0  0  0  0  0  0
  148.7368  140.8572  154.3098 C   0  0  0  0  0  0  0  0  0  0  0  0
  147.2012  140.6682  154.1982 C   0  0  1  0  0  0  0  0  0  0  0  0
  146.5211  142.0069  153.8717 C   0  0  0  0  0  0  0  0  0  0  0  0
  146.8083  139.5719  153.1733 C   0  0  0  0  0  0  0  0  0  0  0  0
  146.9738  138.1958  153.6591 N   0  0  0  0  0  0  0  0  0  0  0  0
  146.3793  138.0201  154.9883 C   0  0  0  0  0  0  0  0  0  0  0  0
  144.8323  138.0661  154.9538 C   0  0  0  0  0  0  0  0  0  0  0  0
  144.2921  137.0508  154.0183 N   0  3  0  0  0  0  0  0  0  0  0  0
  142.8146  137.0563  153.9597 C   0  0  0  0  0  0  0  0  0  0  0  0
  144.9090  137.1848  152.6795 C   0  0  0  0  0  0  0  0  0  0  0  0
  146.4461  137.1376  152.7871 C   0  0  0  0  0  0  0  0  0  0  0  0
  151.2929  144.2694  158.5384 C   0  0  0  0  0  0  0  0  0  0  0  0
  151.8539  145.8094  161.2745 H   0  0  0  0  0  0  0  0  0  0  0  0
  151.5368  146.6212  159.7366 H   0  0  0  0  0  0  0  0  0  0  0  0
  153.2001  146.3572  160.2674 H   0  0  0  0  0  0  0  0  0  0  0  0
  153.9086  143.8084  160.6811 H   0  0  0  0  0  0  0  0  0  0  0  0
  154.6821  141.5014  160.4979 H   0  0  0  0  0  0  0  0  0  0  0  0
  154.9029  141.2058  158.7692 H   0  0  0  0  0  0  0  0  0  0  0  0
  153.6630  140.3224  159.6689 H   0  0  0  0  0  0  0  0  0  0  0  0
  150.0341  143.6491  156.4499 H   0  0  0  0  0  0  0  0  0  0  0  0
  148.7471  142.7555  155.2349 H   0  0  0  0  0  0  0  0  0  0  0  0
  149.1522  141.1507  153.3447 H   0  0  0  0  0  0  0  0  0  0  0  0
  149.2043  139.9072  154.5701 H   0  0  0  0  0  0  0  0  0  0  0  0
  146.8636  140.3794  155.1904 H   0  0  0  0  0  0  0  0  0  0  0  0
  146.8213  142.3757  152.8904 H   0  0  0  0  0  0  0  0  0  0  0  0
  146.7812  142.7688  154.6070 H   0  0  0  0  0  0  0  0  0  0  0  0
  145.4353  141.9099  153.8730 H   0  0  0  0  0  0  0  0  0  0  0  0
  145.7657  139.7209  152.8892 H   0  0  0  0  0  0  0  0  0  0  0  0
  147.3800  139.6931  152.2571 H   0  0  0  0  0  0  0  0  0  0  0  0
  146.7056  137.0605  155.3916 H   0  0  0  0  0  0  0  0  0  0  0  0
  146.7647  138.7819  155.6670 H   0  0  0  0  0  0  0  0  0  0  0  0
  144.4455  137.8679  155.9538 H   0  0  0  0  0  0  0  0  0  0  0  0
  144.4716  139.0579  154.6791 H   0  0  0  0  0  0  0  0  0  0  0  0
  142.4414  138.0015  153.5626 H   0  0  0  0  0  0  0  0  0  0  0  0
  142.3895  136.9090  154.9528 H   0  0  0  0  0  0  0  0  0  0  0  0
  142.4528  136.2516  153.3188 H   0  0  0  0  0  0  0  0  0  0  0  0
  144.5647  136.3691  152.0426 H   0  0  0  0  0  0  0  0  0  0  0  0
  144.5769  138.1071  152.2062 H   0  0  0  0  0  0  0  0  0  0  0  0
  146.8969  137.1778  151.7975 H   0  0  0  0  0  0  0  0  0  0  0  0
  146.7470  136.1731  153.1988 H   0  0  0  0  0  0  0  0  0  0  0  0
  150.5521  144.9985  158.2428 H   0  0  0  0  0  0  0  0  0  0  0  0
  144.5717  136.1489  154.3766 H   0  0  0  0  0  0  0  0  0  0  0  0
  1  2  1  0  0  0  0
  1 24  1  0  0  0  0
  1 25  1  0  0  0  0
  1 26  1  0  0  0  0
  2 23  1  0  0  0  0
  2  3  2  0  0  0  0
  3  4  1  0  0  0  0
  3 27  1  0  0  0  0
  4  5  1  0  0  0  0
  4  6  2  0  0  0  0
  5 28  1  0  0  0  0
  5 29  1  0  0  0  0
  5 30  1  0  0  0  0
  6  7  1  0  0  0  0
  7  8  1  0  0  0  0
  7 23  2  0  0  0  0
  8  9  1  0  0  0  0
  8 31  1  0  0  0  0
  9 10  2  0  0  0  0
  9 11  1  0  0  0  0
 11 12  1  0  0  0  0
 11 32  1  0  0  0  0
 12 13  1  0  0  0  0
 12 33  1  0  0  0  0
 12 34  1  0  0  0  0
 13 14  1  0  0  0  0
 13 15  1  0  0  0  0
 13 35  1  0  0  0  0
 14 36  1  0  0  0  0
 14 37  1  0  0  0  0
 14 38  1  0  0  0  0
 15 16  1  0  0  0  0
 15 39  1  0  0  0  0
 15 40  1  0  0  0  0
 16 22  1  0  0  0  0
 16 17  1  0  0  0  0
 17 18  1  0  0  0  0
 17 41  1  0  0  0  0
 17 42  1  0  0  0  0
 18 19  1  0  0  0  0
 18 43  1  0  0  0  0
 18 44  1  0  0  0  0
 19 20  1  0  0  0  0
 19 21  1  0  0  0  0
 19 53  1  0  0  0  0
 20 45  1  0  0  0  0
 20 46  1  0  0  0  0
 20 47  1  0  0  0  0
 21 22  1  0  0  0  0
 21 48  1  0  0  0  0
 21 49  1  0  0  0  0
 22 50  1  0  0  0  0
 22 51  1  0  0  0  0
 23 52  1  0  0  0  0
M  CHG  1  19   1
M  END
> <s_m_source_file>
AV-unprocessed.smi

> <i_m_source_file_index>
2276

> <i_lp_mmshare_version>
43012

> <i_f3d_flags>
0

> <s_epik_input>
W0NIM11jMVtjSF1jKFtDSDNdKW5jKFtjSF0xKVtOSF1DKD1PKVtOSF1bQ0gyXVtDQEhdKFtDSDNdKVtDSDJdTjJbQ0gyXVtDSDJdTihbQ0gzXSlbQ0gyXVtDSDJdMg==

> <s_epik_cmdline>
J2VwaWtfcHl0aG9uJywgJy1waCcsICc3LjAnLCAnLXRuJywgJzgnLCAnLW1hJywgJzIwMCcsICctbWV0YWxfYmluZGluZycsICctaW1hZScsICc8aW5maWxlLm1hZT4nLCAnLW9tYWUnLCAnPG91dGZpbGUubWFlPic=

> <r_epik_Ionization_Penalty>
0.0247364

> <r_epik_Ionization_Penalty_Charging>
0.0230248

> <r_epik_Ionization_Penalty_Neutral>
0.00171164

> <r_epik_State_Penalty>
0.239056

> <r_epik_Charging_Adjusted_Penalty>
0.262081

> <i_epik_Tot_Q>
1

> <i_epik_Tot_abs_Q>
1

> <r_epik_Metal_State_Penalty>
0.239048

> <b_epik_Metal_Only>
0

> <s_lp_Force_Field>
OPLS_2005

> <r_lp_Energy>
20.5392

> <b_lp_Chiralities_Consistent>
1

> <s_lp_Variant>
AV-unprocessed.smi:2276-2

> <Gold.Version>
5.8.1

> <Gold.Id.Protein>
6NUR|6NUR_protein|mol2

> <Gold.PLP.Fitness>
46.3024

> <Gold.PLP.PLP>
-40.9249

> <Gold.PLP.part.hbond>
-2.0000

> <Gold.PLP.part.metal>
0.0000

> <Gold.PLP.part.buried>
-4.7950

> <Gold.PLP.part.nonpolar>
-36.2591

> <Gold.PLP.part.repulsive>
0.3504

> <Gold.PLP.ligand.clash>
0.0000

> <Gold.PLP.ligand.torsion>
0.3316

> <Gold.PLP.Chemscore.Hbond>
1.9913

> <Gold.PLP.Chemscore.CHOScore>
0.0000

> <Gold.PLP.Chemscore.Metal>
0.0000

> <Gold.Chemscore.Hbonds>
donor molecule, donor type, donor heavy atom, donor atom, acceptor molecule, acceptor atom, score
      L1  H     8    31       P1  8028  1.00
      L1  H    11    32       P1  8028  0.98

> <Gold.PLP.Chemscore.Internal.Correction>
0.0669

> <Gold.Rescore>
     Score         DG    S(hbond)    S(metal)    S(lipo)     H(rot)  DE(clash)    DE(int)     intcor
     18.41     -20.56       1.93        0.00     109.45       1.63       0.52       1.62       ----

> <Gold.Chemscore.Fitness>
18.4119

> <Gold.Chemscore.DG>
-20.5576

> <Gold.Chemscore.ZeroCoef>
-5.4800

> <Gold.Chemscore.Hbond>
1.9283

> <Gold.Chemscore.Metal>
0.0000

> <Gold.Chemscore.Lipo>
109.4458

> <Gold.Chemscore.Internal_Hbond>
0.0000

> <Gold.Chemscore.DEClash>
0.5241

> <Gold.Chemscore.DEInternal>
1.6216

> <Gold.Chemscore.Rot>
1.6282

> <Gold.Chemscore.Internal.Correction>
   9.000000E+99

> <Gold.Chemscore.Hbonds>
donor molecule, donor type, donor heavy atom, donor atom, acceptor molecule, acceptor atom, score
      L1  H     8    31       P1  8028  0.99
      L1  H    11    32       P1  8028  0.90

> <Gold.Chemscore.Hbond.Weighted>
-6.4406

> <Gold.Chemscore.Metal.Weighted>
-0.0000

> <Gold.Chemscore.Lipo.Weighted>
-12.8052

> <Gold.Chemscore.Internal_Hbond.Weighted>
0.0000

> <Gold.Chemscore.DEClash.Weighted>
0.5241

> <Gold.Chemscore.DEInternal.Weighted>
1.6216

> <Gold.Chemscore.Rot.Weighted>
4.1682

> <Gold.Chemscore.Internal.Correction.Weighted>
   9.000000E+99

> <Gold.Protein.RotatedTorsions>
[ 6907 6896 6895 6894 ] final  -52.15 input  -60.11 | X-H torsion
[ 7974 7965 7964 7962 ] final   67.72 input  175.53 | X-H torsion
[ 8008 7997 7996 7995 ] final  -76.34 input   59.86 | X-H torsion
[ 10167 10162 10161 10158 ] final -130.89 input  -65.29 | X-H torsion
[ 10718 10713 10712 10709 ] final  -84.88 input   66.30 | X-H torsion
[ 10763 10752 10751 10750 ] final  -73.34 input  -60.55 | X-H torsion
[ 11005 11000 10999 10996 ] final   25.03 input  -57.11 | X-H torsion

> <Gold.Protein.ActiveResidues>
 VAL166  LYS551  ARG553  GLY616  TRP617  ASP618  TYR619  PRO620  LYS621  CYS622 
 ASP623  PHE694  ASN695  SER759  ASP760  ASP761  ALA762  ILE779  LEU786  VAL792 
 PHE793  MET794  SER795  GLU796  ALA797  LYS798  CYS799  TRP800  GLU811  SER814 

> <Gold.Protein.RotatedAtoms>
  150.8545  134.7879  159.7034 H   0  0  0  0  0  0  0  0  0  0  0  0  # atno 6907 bound_to 6896
  152.4600  134.5202  159.9790 H   0  0  0  0  0  0  0  0  0  0  0  0  # atno 6908 bound_to 6896
  151.5317  133.3410  159.2955 H   0  0  0  0  0  0  0  0  0  0  0  0  # atno 6909 bound_to 6896
  145.8113  139.3034  143.1097 H   0  0  0  0  0  0  0  0  0  0  0  0  # atno 7974 bound_to 7965
  154.5496  140.0729  156.8646 H   0  0  0  0  0  0  0  0  0  0  0  0  # atno 8008 bound_to 7997
  155.3019  140.3384  155.4229 H   0  0  0  0  0  0  0  0  0  0  0  0  # atno 8009 bound_to 7997
  156.1949  140.1700  156.8003 H   0  0  0  0  0  0  0  0  0  0  0  0  # atno 8010 bound_to 7997
  139.9246  143.6343  152.2545 H   0  0  0  0  0  0  0  0  0  0  0  0  # atno 10167 bound_to 10162
  156.0002  130.4712  150.4477 H   0  0  0  0  0  0  0  0  0  0  0  0  # atno 10718 bound_to 10713
  154.4582  135.5900  153.6237 H   0  0  0  0  0  0  0  0  0  0  0  0  # atno 10763 bound_to 10752
  152.9820  135.6037  154.3520 H   0  0  0  0  0  0  0  0  0  0  0  0  # atno 10764 bound_to 10752
  154.3389  135.2842  155.2412 H   0  0  0  0  0  0  0  0  0  0  0  0  # atno 10765 bound_to 10752
  140.3523  134.2215  155.7679 H   0  0  0  0  0  0  0  0  0  0  0  0  # atno 11005 bound_to 11000
  145.9774  140.8710  143.0131 LP  0  0  0  0  0  0  0  0  0  0  0  0  # atno 17320 bound_to 7965
  144.6757  140.2032  143.7385 LP  0  0  0  0  0  0  0  0  0  0  0  0  # atno 17321 bound_to 7965
  139.6833  144.7654  151.1569 LP  0  0  0  0  0  0  0  0  0  0  0  0  # atno 17342 bound_to 10162
  140.7653  143.5693  150.9013 LP  0  0  0  0  0  0  0  0  0  0  0  0  # atno 17343 bound_to 10162
  157.2512  131.0547  151.2378 LP  0  0  0  0  0  0  0  0  0  0  0  0  # atno 17370 bound_to 10713
  157.3526  130.7090  149.6450 LP  0  0  0  0  0  0  0  0  0  0  0  0  # atno 17371 bound_to 10713
  141.2008  133.7977  157.0469 LP  0  0  0  0  0  0  0  0  0  0  0  0  # atno 17394 bound_to 11000
  140.0693  134.9711  157.1440 LP  0  0  0  0  0  0  0  0  0  0  0  0  # atno 17395 bound_to 11000

$$$$
