AV-unprocessed.smi:1890|AV-procd|sdf|7664|dock4
  -GOLD-   22720 9403D 1   1.00000     0.00000
 Structure written by MMmdl.
 51 52  0  0  0  0  0  0  0  0  1 V2000
  151.1058  144.6637  158.4353 C   0  0  0  0  0  0  0  0  0  0  0  0
  151.6588  143.6845  157.3879 C   0  0  0  0  0  0  0  0  0  0  0  0
  151.3425  142.2866  157.6845 N   0  0  0  0  0  0  0  0  0  0  0  0
  152.2141  141.5939  158.6350 C   0  0  0  0  0  0  0  0  0  0  0  0
  152.8771  142.5524  159.6353 C   0  0  0  0  0  0  0  0  0  0  0  0
  150.7482  141.4745  156.6893 C   0  0  0  0  0  0  0  0  0  0  0  0
  151.5017  140.5703  155.9001 C   0  0  0  0  0  0  0  0  0  0  0  0
  150.8416  139.7848  154.9365 C   0  0  0  0  0  0  0  0  0  0  0  0
  149.4501  139.9182  154.7709 C   0  0  0  0  0  0  0  0  0  0  0  0
  148.8102  139.0912  153.8082 N   0  0  0  0  0  0  0  0  0  0  0  0
  147.5085  139.0397  153.4774 C   0  0  0  0  0  0  0  0  0  0  0  0
  146.6298  139.7782  153.9215 O   0  0  0  0  0  0  0  0  0  0  0  0
  147.2790  138.0809  152.5689 N   0  0  0  0  0  0  0  0  0  0  0  0
  145.9766  137.7586  151.9938 C   0  0  0  0  0  0  0  0  0  0  0  0
  144.9296  137.6312  153.1214 C   0  0  0  0  0  0  0  0  0  0  0  0
  143.5880  137.1017  152.5835 C   0  0  0  0  0  0  0  0  0  0  0  0
  143.8246  135.8231  151.9041 N   0  0  0  0  0  0  0  0  0  0  0  0
  143.4259  134.6353  152.4195 C   0  0  0  0  0  0  0  0  0  0  0  0
  143.7991  133.3412  151.6931 C   0  0  0  0  0  0  0  0  0  0  0  0
  142.7742  134.5467  153.4603 O   0  0  0  0  0  0  0  0  0  0  0  0
  144.6620  135.9939  150.7104 C   0  0  0  0  0  0  0  0  0  0  0  0
  146.0597  136.4657  151.1494 C   0  0  0  0  0  0  0  0  0  0  0  0
  148.7781  140.8389  155.6088 C   0  0  0  0  0  0  0  0  0  0  0  0
  149.4074  141.5917  156.5353 N   0  0  0  0  0  0  0  0  0  0  0  0
  151.4034  145.6851  158.1980 H   0  0  0  0  0  0  0  0  0  0  0  0
  151.4912  144.4305  159.4282 H   0  0  0  0  0  0  0  0  0  0  0  0
  150.0178  144.6453  158.4881 H   0  0  0  0  0  0  0  0  0  0  0  0
  151.3026  143.9453  156.3913 H   0  0  0  0  0  0  0  0  0  0  0  0
  152.7427  143.7994  157.3507 H   0  0  0  0  0  0  0  0  0  0  0  0
  151.6184  140.8613  159.1804 H   0  0  0  0  0  0  0  0  0  0  0  0
  152.9761  141.0140  158.1138 H   0  0  0  0  0  0  0  0  0  0  0  0
  153.5083  142.0032  160.3338 H   0  0  0  0  0  0  0  0  0  0  0  0
  152.1337  143.0961  160.2184 H   0  0  0  0  0  0  0  0  0  0  0  0
  153.5066  143.2837  159.1273 H   0  0  0  0  0  0  0  0  0  0  0  0
  152.5676  140.4545  156.0211 H   0  0  0  0  0  0  0  0  0  0  0  0
  151.4025  139.0862  154.3328 H   0  0  0  0  0  0  0  0  0  0  0  0
  149.4235  138.4798  153.2897 H   0  0  0  0  0  0  0  0  0  0  0  0
  148.0628  137.5280  152.2542 H   0  0  0  0  0  0  0  0  0  0  0  0
  145.6587  138.5751  151.3423 H   0  0  0  0  0  0  0  0  0  0  0  0
  145.2956  136.9512  153.8924 H   0  0  0  0  0  0  0  0  0  0  0  0
  144.7814  138.5967  153.6063 H   0  0  0  0  0  0  0  0  0  0  0  0
  142.8672  137.0209  153.3980 H   0  0  0  0  0  0  0  0  0  0  0  0
  143.1584  137.8138  151.8774 H   0  0  0  0  0  0  0  0  0  0  0  0
  144.8810  133.2518  151.5924 H   0  0  0  0  0  0  0  0  0  0  0  0
  143.3453  133.3098  150.7024 H   0  0  0  0  0  0  0  0  0  0  0  0
  143.4445  132.4728  152.2497 H   0  0  0  0  0  0  0  0  0  0  0  0
  144.7464  135.0937  150.1035 H   0  0  0  0  0  0  0  0  0  0  0  0
  144.2071  136.7407  150.0578 H   0  0  0  0  0  0  0  0  0  0  0  0
  146.6875  136.6285  150.2727 H   0  0  0  0  0  0  0  0  0  0  0  0
  146.5377  135.6744  151.7288 H   0  0  0  0  0  0  0  0  0  0  0  0
  147.7091  140.9756  155.5714 H   0  0  0  0  0  0  0  0  0  0  0  0
  1  2  1  0  0  0  0
  1 25  1  0  0  0  0
  1 26  1  0  0  0  0
  1 27  1  0  0  0  0
  2  3  1  0  0  0  0
  2 28  1  0  0  0  0
  2 29  1  0  0  0  0
  3  4  1  0  0  0  0
  3  6  1  0  0  0  0
  4  5  1  0  0  0  0
  4 30  1  0  0  0  0
  4 31  1  0  0  0  0
  5 32  1  0  0  0  0
  5 33  1  0  0  0  0
  5 34  1  0  0  0  0
  6 24  1  0  0  0  0
  6  7  2  0  0  0  0
  7  8  1  0  0  0  0
  7 35  1  0  0  0  0
  8  9  2  0  0  0  0
  8 36  1  0  0  0  0
  9 10  1  0  0  0  0
  9 23  1  0  0  0  0
 10 11  1  0  0  0  0
 10 37  1  0  0  0  0
 11 12  2  0  0  0  0
 11 13  1  0  0  0  0
 13 14  1  0  0  0  0
 13 38  1  0  0  0  0
 14 22  1  0  0  0  0
 14 15  1  0  0  0  0
 14 39  1  0  0  0  0
 15 16  1  0  0  0  0
 15 40  1  0  0  0  0
 15 41  1  0  0  0  0
 16 17  1  0  0  0  0
 16 42  1  0  0  0  0
 16 43  1  0  0  0  0
 17 18  1  0  0  0  0
 17 21  1  0  0  0  0
 18 19  1  0  0  0  0
 18 20  2  0  0  0  0
 19 44  1  0  0  0  0
 19 45  1  0  0  0  0
 19 46  1  0  0  0  0
 21 22  1  0  0  0  0
 21 47  1  0  0  0  0
 21 48  1  0  0  0  0
 22 49  1  0  0  0  0
 22 50  1  0  0  0  0
 23 24  2  0  0  0  0
 23 51  1  0  0  0  0
M  END
> <s_m_source_file>
AV-unprocessed.smi

> <i_m_source_file_index>
1890

> <i_lp_mmshare_version>
43012

> <i_f3d_flags>
0

> <s_epik_input>
W0NIM11bQ0gyXU4oW0NIMl1bQ0gzXSljMVtjSF1bY0hdYyhbY0hdbjEpW05IXUMoPU8pW05IXVtDSF0yW0NIMl1bQ0gyXU4oQyg9TylbQ0gzXSlbQ0gyXVtDSDJdMg==

> <s_epik_cmdline>
J2VwaWtfcHl0aG9uJywgJy1waCcsICc3LjAnLCAnLXRuJywgJzgnLCAnLW1hJywgJzIwMCcsICctbWV0YWxfYmluZGluZycsICctaW1hZScsICc8aW5maWxlLm1hZT4nLCAnLW9tYWUnLCAnPG91dGZpbGUubWFlPic=

> <r_lp_tautomer_probability>
1

> <r_epik_Ionization_Penalty>
0.700493

> <r_epik_Ionization_Penalty_Charging>
0

> <r_epik_Ionization_Penalty_Neutral>
0.700493

> <r_epik_State_Penalty>
2.19132

> <r_epik_Charging_Adjusted_Penalty>
2.19132

> <i_epik_Tot_Q>
0

> <i_epik_Tot_abs_Q>
0

> <r_epik_Metal_State_Penalty>
1.54624

> <b_epik_Metal_Only>
0

> <s_lp_Force_Field>
OPLS_2005

> <r_lp_Energy>
30.5228

> <b_lp_Chiralities_Consistent>
1

> <s_lp_Variant>
AV-unprocessed.smi:1890-2

> <Gold.Version>
5.8.1

> <Gold.Id.Protein>
6NUR|6NUR_protein|mol2

> <Gold.PLP.Fitness>
43.1573

> <Gold.PLP.PLP>
-42.5212

> <Gold.PLP.part.hbond>
-2.0000

> <Gold.PLP.part.metal>
0.0000

> <Gold.PLP.part.buried>
1.6174

> <Gold.PLP.part.nonpolar>
-43.3280

> <Gold.PLP.part.repulsive>
1.1027

> <Gold.PLP.ligand.clash>
0.0000

> <Gold.PLP.ligand.torsion>
1.6667

> <Gold.PLP.Chemscore.Hbond>
1.0000

> <Gold.PLP.Chemscore.CHOScore>
0.0000

> <Gold.PLP.Chemscore.Metal>
0.0000

> <Gold.Chemscore.Hbonds>
donor molecule, donor type, donor heavy atom, donor atom, acceptor molecule, acceptor atom, score
      L1  H    13    38       P1  7948  1.00

> <Gold.PLP.Chemscore.Internal.Correction>
0.9694

> <Gold.Rescore>
     Score         DG    S(hbond)    S(metal)    S(lipo)     H(rot)  DE(clash)    DE(int)     intcor
     11.25     -17.28       0.99        0.00     101.83       1.33       1.70       4.33       ----

> <Gold.Chemscore.Fitness>
11.2500

> <Gold.Chemscore.DG>
-17.2825

> <Gold.Chemscore.ZeroCoef>
-5.4800

> <Gold.Chemscore.Hbond>
0.9855

> <Gold.Chemscore.Metal>
0.0000

> <Gold.Chemscore.Lipo>
101.8304

> <Gold.Chemscore.Internal_Hbond>
0.0000

> <Gold.Chemscore.DEClash>
1.6990

> <Gold.Chemscore.DEInternal>
4.3336

> <Gold.Chemscore.Rot>
1.3294

> <Gold.Chemscore.Internal.Correction>
   9.000000E+99

> <Gold.Chemscore.Hbonds>
donor molecule, donor type, donor heavy atom, donor atom, acceptor molecule, acceptor atom, score
      L1  H    13    38       P1  7948  0.98

> <Gold.Chemscore.Hbond.Weighted>
-3.2917

> <Gold.Chemscore.Metal.Weighted>
-0.0000

> <Gold.Chemscore.Lipo.Weighted>
-11.9142

> <Gold.Chemscore.Internal_Hbond.Weighted>
0.0000

> <Gold.Chemscore.DEClash.Weighted>
1.6990

> <Gold.Chemscore.DEInternal.Weighted>
4.3336

> <Gold.Chemscore.Rot.Weighted>
3.4034

> <Gold.Chemscore.Internal.Correction.Weighted>
   9.000000E+99

> <Gold.Protein.RotatedTorsions>
[ 6907 6896 6895 6894 ] final  -54.07 input  -60.11 | X-H torsion
[ 7974 7965 7964 7962 ] final  164.26 input  175.53 | X-H torsion
[ 8008 7997 7996 7995 ] final   96.24 input   59.86 | X-H torsion
[ 10167 10162 10161 10158 ] final   32.24 input  -65.29 | X-H torsion
[ 10718 10713 10712 10709 ] final -101.94 input   66.30 | X-H torsion
[ 10763 10752 10751 10750 ] final  -99.07 input  -60.55 | X-H torsion
[ 11005 11000 10999 10996 ] final  -92.41 input  -57.11 | X-H torsion

> <Gold.Protein.ActiveResidues>
 VAL166  LYS551  ARG553  GLY616  TRP617  ASP618  TYR619  PRO620  LYS621  CYS622 
 ASP623  PHE694  ASN695  SER759  ASP760  ASP761  ALA762  ILE779  LEU786  VAL792 
 PHE793  MET794  SER795  GLU796  ALA797  LYS798  CYS799  TRP800  GLU811  SER814 

> <Gold.Protein.RotatedAtoms>
  150.8370  134.7647  159.6900 H   0  0  0  0  0  0  0  0  0  0  0  0  # atno 6907 bound_to 6896
  152.4465  134.5480  159.9868 H   0  0  0  0  0  0  0  0  0  0  0  0  # atno 6908 bound_to 6896
  151.5629  133.3363  159.3010 H   0  0  0  0  0  0  0  0  0  0  0  0  # atno 6909 bound_to 6896
  144.7553  139.8301  143.6352 H   0  0  0  0  0  0  0  0  0  0  0  0  # atno 7974 bound_to 7965
  156.0775  140.3275  155.7652 H   0  0  0  0  0  0  0  0  0  0  0  0  # atno 8008 bound_to 7997
  155.5206  140.0585  157.2925 H   0  0  0  0  0  0  0  0  0  0  0  0  # atno 8009 bound_to 7997
  154.4564  140.1944  156.0386 H   0  0  0  0  0  0  0  0  0  0  0  0  # atno 8010 bound_to 7997
  140.4516  144.1039  150.6193 H   0  0  0  0  0  0  0  0  0  0  0  0  # atno 10167 bound_to 10162
  156.0211  130.5397  150.7036 H   0  0  0  0  0  0  0  0  0  0  0  0  # atno 10718 bound_to 10713
  154.7468  135.4986  153.9217 H   0  0  0  0  0  0  0  0  0  0  0  0  # atno 10763 bound_to 10752
  153.1100  135.6707  153.9525 H   0  0  0  0  0  0  0  0  0  0  0  0  # atno 10764 bound_to 10752
  153.9287  135.3080  155.3425 H   0  0  0  0  0  0  0  0  0  0  0  0  # atno 10765 bound_to 10752
  141.1522  133.7819  157.0016 H   0  0  0  0  0  0  0  0  0  0  0  0  # atno 11005 bound_to 11000
  146.1555  139.4651  143.0022 LP  0  0  0  0  0  0  0  0  0  0  0  0  # atno 17320 bound_to 7965
  145.6802  141.0193  143.1610 LP  0  0  0  0  0  0  0  0  0  0  0  0  # atno 17321 bound_to 7965
  140.4200  143.2616  151.9727 LP  0  0  0  0  0  0  0  0  0  0  0  0  # atno 17342 bound_to 10162
  139.4797  144.5840  151.7885 LP  0  0  0  0  0  0  0  0  0  0  0  0  # atno 17343 bound_to 10162
  157.4690  131.0891  151.0663 LP  0  0  0  0  0  0  0  0  0  0  0  0  # atno 17370 bound_to 10713
  157.1128  130.6029  149.5486 LP  0  0  0  0  0  0  0  0  0  0  0  0  # atno 17371 bound_to 10713
  140.0936  134.9577  157.1815 LP  0  0  0  0  0  0  0  0  0  0  0  0  # atno 17394 bound_to 11000
  140.3412  134.2701  155.7212 LP  0  0  0  0  0  0  0  0  0  0  0  0  # atno 17395 bound_to 11000

$$$$
