AV-unprocessed.smi:283|AV-procd|sdf|2131|dock6
  -GOLD-   2262021443D 1   1.00000     0.00000
 Structure written by MMmdl.
 48 51  0  0  0  0  0  0  0  0  1 V2000
  143.8424  143.0201  158.4574 C   0  0  0  0  0  0  0  0  0  0  0  0
  144.4847  143.2833  157.0891 C   0  0  2  0  0  0  0  0  0  0  0  0
  145.9160  142.9903  157.1437 N   0  0  0  0  0  0  0  0  0  0  0  0
  146.5321  142.3308  156.1363 C   0  0  0  0  0  0  0  0  0  0  0  0
  145.8854  142.0624  154.9716 N   0  0  0  0  0  0  0  0  0  0  0  0
  146.5154  141.4094  153.9915 C   0  0  0  0  0  0  0  0  0  0  0  0
  147.7640  140.9389  153.9722 N   0  0  0  0  0  0  0  0  0  0  0  0
  148.4174  141.1971  155.1420 C   0  0  0  0  0  0  0  0  0  0  0  0
  147.8735  141.8856  156.2629 C   0  0  0  0  0  0  0  0  0  0  0  0
  148.8250  141.9698  157.2705 N   0  0  0  0  0  0  0  0  0  0  0  0
  149.8677  141.3622  156.7715 C   0  0  0  0  0  0  0  0  0  0  0  0
  149.7109  140.8663  155.4961 N   0  0  0  0  0  0  0  0  0  0  0  0
  150.7269  140.1280  154.6797 C   0  0  1  0  0  0  0  0  0  0  0  0
  151.9227  140.0264  155.3937 O   0  0  0  0  0  0  0  0  0  0  0  0
  152.5225  138.7418  155.2073 C   0  0  1  0  0  0  0  0  0  0  0  0
  152.5983  138.0497  156.5837 C   0  0  0  0  0  0  0  0  0  0  0  0
  153.4451  138.7663  157.4580 O   0  0  0  0  0  0  0  0  0  0  0  0
  151.6491  138.0473  154.1455 C   0  0  1  0  0  0  0  0  0  0  0  0
  151.5991  136.6344  154.2116 O   0  0  0  0  0  0  0  0  0  0  0  0
  150.2895  138.7065  154.3063 C   0  0  1  0  0  0  0  0  0  0  0  0
  149.4833  138.0845  155.2939 O   0  0  0  0  0  0  0  0  0  0  0  0
  144.1543  144.6969  156.6059 C   0  0  0  0  0  0  0  0  0  0  0  0
  143.5783  144.8781  155.3275 C   0  0  0  0  0  0  0  0  0  0  0  0
  143.2645  146.1671  154.8574 C   0  0  0  0  0  0  0  0  0  0  0  0
  143.5269  147.2907  155.6613 C   0  0  0  0  0  0  0  0  0  0  0  0
  144.1073  147.1228  156.9320 C   0  0  0  0  0  0  0  0  0  0  0  0
  144.4257  145.8347  157.4071 C   0  0  0  0  0  0  0  0  0  0  0  0
  145.1476  145.6922  158.9719 Cl  0  0  0  0  0  0  0  0  0  0  0  0
  150.8938  140.7558  153.8034 H   0  0  0  0  0  0  0  0  0  0  0  0
  153.5333  138.8910  154.8253 H   0  0  0  0  0  0  0  0  0  0  0  0
  152.0413  138.3155  153.1633 H   0  0  0  0  0  0  0  0  0  0  0  0
  149.7309  138.7284  153.3699 H   0  0  0  0  0  0  0  0  0  0  0  0
  142.7615  143.1572  158.4140 H   0  0  0  0  0  0  0  0  0  0  0  0
  144.2336  143.6966  159.2181 H   0  0  0  0  0  0  0  0  0  0  0  0
  144.0305  141.9990  158.7903 H   0  0  0  0  0  0  0  0  0  0  0  0
  144.0595  142.5596  156.3951 H   0  0  0  0  0  0  0  0  0  0  0  0
  146.4177  143.3969  157.9201 H   0  0  0  0  0  0  0  0  0  0  0  0
  145.9372  141.2390  153.0955 H   0  0  0  0  0  0  0  0  0  0  0  0
  150.7895  141.2585  157.3253 H   0  0  0  0  0  0  0  0  0  0  0  0
  151.6081  138.0238  157.0395 H   0  0  0  0  0  0  0  0  0  0  0  0
  152.9359  137.0169  156.5012 H   0  0  0  0  0  0  0  0  0  0  0  0
  153.9136  138.1466  157.9964 H   0  0  0  0  0  0  0  0  0  0  0  0
  151.1418  136.3190  153.4465 H   0  0  0  0  0  0  0  0  0  0  0  0
  148.5823  138.1215  155.0107 H   0  0  0  0  0  0  0  0  0  0  0  0
  143.3740  144.0244  154.6980 H   0  0  0  0  0  0  0  0  0  0  0  0
  142.8235  146.2930  153.8795 H   0  0  0  0  0  0  0  0  0  0  0  0
  143.2861  148.2807  155.3031 H   0  0  0  0  0  0  0  0  0  0  0  0
  144.3107  147.9883  157.5451 H   0  0  0  0  0  0  0  0  0  0  0  0
  1  2  1  0  0  0  0
  1 33  1  0  0  0  0
  1 34  1  0  0  0  0
  1 35  1  0  0  0  0
  2  3  1  0  0  0  0
  2 22  1  0  0  0  0
  2 36  1  0  0  0  0
  3  4  1  0  0  0  0
  3 37  1  0  0  0  0
  4  9  1  0  0  0  0
  4  5  2  0  0  0  0
  5  6  1  0  0  0  0
  6  7  2  0  0  0  0
  6 38  1  0  0  0  0
  7  8  1  0  0  0  0
  8 12  1  0  0  0  0
  8  9  2  0  0  0  0
  9 10  1  0  0  0  0
 10 11  2  0  0  0  0
 11 12  1  0  0  0  0
 11 39  1  0  0  0  0
 12 13  1  0  0  0  0
 13 29  1  0  0  0  0
 13 20  1  0  0  0  0
 13 14  1  0  0  0  0
 14 15  1  0  0  0  0
 15 30  1  0  0  0  0
 15 16  1  0  0  0  0
 15 18  1  0  0  0  0
 16 17  1  0  0  0  0
 16 40  1  0  0  0  0
 16 41  1  0  0  0  0
 17 42  1  0  0  0  0
 18 31  1  0  0  0  0
 18 19  1  0  0  0  0
 18 20  1  0  0  0  0
 19 43  1  0  0  0  0
 20 32  1  0  0  0  0
 20 21  1  0  0  0  0
 21 44  1  0  0  0  0
 22 27  1  0  0  0  0
 22 23  2  0  0  0  0
 23 24  1  0  0  0  0
 23 45  1  0  0  0  0
 24 25  2  0  0  0  0
 24 46  1  0  0  0  0
 25 26  1  0  0  0  0
 25 47  1  0  0  0  0
 26 27  2  0  0  0  0
 26 48  1  0  0  0  0
 27 28  1  0  0  0  0
M  END
> <s_m_source_file>
AV-unprocessed.smi

> <i_m_source_file_index>
283

> <i_lp_mmshare_version>
43012

> <i_f3d_flags>
0

> <s_epik_input>
Q2xjMVtjSF1bY0hdW2NIXVtjSF1jMVtDQEhdKFtDSDNdKVtOSF1jKG5bY0hdbjIpYyhjMjMpbltjSF1uM1tDQEBIXTRPW0NASF0oW0NIMl1bT0hdKVtDQEBIXShbT0hdKVtDQEhdNFtPSF0=

> <s_epik_cmdline>
J2VwaWtfcHl0aG9uJywgJy1waCcsICc3LjAnLCAnLXRuJywgJzgnLCAnLW1hJywgJzIwMCcsICctbWV0YWxfYmluZGluZycsICctaW1hZScsICc8aW5maWxlLm1hZT4nLCAnLW9tYWUnLCAnPG91dGZpbGUubWFlPic=

> <r_lp_tautomer_probability>
1

> <r_epik_Ionization_Penalty>
0.000266407

> <r_epik_Ionization_Penalty_Charging>
0

> <r_epik_Ionization_Penalty_Neutral>
0.000266407

> <r_epik_State_Penalty>
-0

> <r_epik_Charging_Adjusted_Penalty>
0

> <i_epik_Tot_Q>
0

> <i_epik_Tot_abs_Q>
0

> <r_epik_Metal_State_Penalty>
-0

> <b_epik_Metal_Only>
0

> <s_epik_Chemistry_Notes>
This compound contains an acetal/aminal-like group ( X-CH(R)-Y where X, Y are N, S, or O) that may be acid/base labile, releasing an aldehyde.

> <s_lp_Force_Field>
OPLS_2005

> <r_lp_Energy>
56.5757

> <b_lp_Chiralities_Consistent>
1

> <s_lp_Variant>
AV-unprocessed.smi:283-7

> <Gold.Version>
5.8.1

> <Gold.Id.Protein>
6NUR|6NUR_protein|mol2

> <Gold.PLP.Fitness>
49.3071

> <Gold.PLP.PLP>
-38.5272

> <Gold.PLP.part.hbond>
-4.0000

> <Gold.PLP.part.metal>
0.0000

> <Gold.PLP.part.buried>
-1.4660

> <Gold.PLP.part.nonpolar>
-34.4751

> <Gold.PLP.part.repulsive>
0.4640

> <Gold.PLP.ligand.clash>
0.0000

> <Gold.PLP.ligand.torsion>
0.4495

> <Gold.PLP.Chemscore.Hbond>
3.0000

> <Gold.PLP.Chemscore.CHOScore>
0.8784

> <Gold.PLP.Chemscore.Metal>
0.0000

> <Gold.Chemscore.Hbonds>
donor molecule, donor type, donor heavy atom, donor atom, acceptor molecule, acceptor atom, score
      L1  H    19    43       P1  7949  0.96
      P1  H  7997  8009       L1    17  1.00
      P1  H 10752 10763       L1    19  1.00
      L1  C     6    38       P1 10175  0.91

> <Gold.PLP.Chemscore.Internal.Correction>
0.0436

> <Gold.Rescore>
     Score         DG    S(hbond)    S(metal)    S(lipo)     H(rot)  DE(clash)    DE(int)     intcor
      7.54      -9.97       2.07        0.00      68.85       4.10       2.14       0.28       ----

> <Gold.Chemscore.Fitness>
7.5440

> <Gold.Chemscore.DG>
-9.9665

> <Gold.Chemscore.ZeroCoef>
-5.4800

> <Gold.Chemscore.Hbond>
2.0716

> <Gold.Chemscore.Metal>
0.0000

> <Gold.Chemscore.Lipo>
68.8495

> <Gold.Chemscore.Internal_Hbond>
0.0000

> <Gold.Chemscore.DEClash>
2.1443

> <Gold.Chemscore.DEInternal>
0.2782

> <Gold.Chemscore.Rot>
4.0968

> <Gold.Chemscore.Internal.Correction>
   9.000000E+99

> <Gold.Chemscore.Hbonds>
donor molecule, donor type, donor heavy atom, donor atom, acceptor molecule, acceptor atom, score
      L1  H    19    43       P1  7949  0.36
      P1  H  7997  8009       L1    17  0.81
      P1  H 10752 10763       L1    19  0.25

> <Gold.Chemscore.Hbond.Weighted>
-6.9190

> <Gold.Chemscore.Metal.Weighted>
-0.0000

> <Gold.Chemscore.Lipo.Weighted>
-8.0554

> <Gold.Chemscore.Internal_Hbond.Weighted>
0.0000

> <Gold.Chemscore.DEClash.Weighted>
2.1443

> <Gold.Chemscore.DEInternal.Weighted>
0.2782

> <Gold.Chemscore.Rot.Weighted>
10.4879

> <Gold.Chemscore.Internal.Correction.Weighted>
   9.000000E+99

> <Gold.Protein.RotatedTorsions>
[ 6907 6896 6895 6894 ] final   18.76 input  -60.11 | X-H torsion
[ 7974 7965 7964 7962 ] final  -60.00 input  175.53 | X-H torsion
[ 8008 7997 7996 7995 ] final  177.23 input   59.86 | X-H torsion
[ 10167 10162 10161 10158 ] final  110.14 input  -65.29 | X-H torsion
[ 10718 10713 10712 10709 ] final   94.10 input   66.30 | X-H torsion
[ 10763 10752 10751 10750 ] final   33.88 input  -60.55 | X-H torsion
[ 11005 11000 10999 10996 ] final  -42.03 input  -57.11 | X-H torsion

> <Gold.Protein.ActiveResidues>
 VAL166  LYS551  ARG553  GLY616  TRP617  ASP618  TYR619  PRO620  LYS621  CYS622 
 ASP623  PHE694  ASN695  SER759  ASP760  ASP761  ALA762  ILE779  LEU786  VAL792 
 PHE793  MET794  SER795  GLU796  ALA797  LYS798  CYS799  TRP800  GLU811  SER814 

> <Gold.Protein.RotatedAtoms>
  151.8703  135.0492  160.0478 H   0  0  0  0  0  0  0  0  0  0  0  0  # atno 6907 bound_to 6896
  152.2593  133.5279  159.5381 H   0  0  0  0  0  0  0  0  0  0  0  0  # atno 6908 bound_to 6896
  150.7111  134.0768  159.3926 H   0  0  0  0  0  0  0  0  0  0  0  0  # atno 6909 bound_to 6896
  145.8208  140.8541  143.0134 H   0  0  0  0  0  0  0  0  0  0  0  0  # atno 7974 bound_to 7965
  156.0679  140.1363  156.9863 H   0  0  0  0  0  0  0  0  0  0  0  0  # atno 8008 bound_to 7997
  154.4516  140.0978  156.6686 H   0  0  0  0  0  0  0  0  0  0  0  0  # atno 8009 bound_to 7997
  155.5274  140.3458  155.4421 H   0  0  0  0  0  0  0  0  0  0  0  0  # atno 8010 bound_to 7997
  139.6711  144.7125  151.1686 H   0  0  0  0  0  0  0  0  0  0  0  0  # atno 10167 bound_to 10162
  157.6950  131.0501  150.4135 H   0  0  0  0  0  0  0  0  0  0  0  0  # atno 10718 bound_to 10713
  153.0190  135.6375  154.1581 H   0  0  0  0  0  0  0  0  0  0  0  0  # atno 10763 bound_to 10752
  154.1317  135.2840  155.3185 H   0  0  0  0  0  0  0  0  0  0  0  0  # atno 10764 bound_to 10752
  154.6190  135.5531  153.7616 H   0  0  0  0  0  0  0  0  0  0  0  0  # atno 10765 bound_to 10752
  141.0287  133.6829  156.2538 H   0  0  0  0  0  0  0  0  0  0  0  0  # atno 11005 bound_to 11000
  144.6748  140.0530  143.7478 LP  0  0  0  0  0  0  0  0  0  0  0  0  # atno 17320 bound_to 7965
  145.9677  139.2847  143.1117 LP  0  0  0  0  0  0  0  0  0  0  0  0  # atno 17321 bound_to 7965
  140.7618  143.5842  150.8863 LP  0  0  0  0  0  0  0  0  0  0  0  0  # atno 17342 bound_to 10162
  139.9508  143.6275  152.3029 LP  0  0  0  0  0  0  0  0  0  0  0  0  # atno 17343 bound_to 10162
  156.4517  130.4013  149.6632 LP  0  0  0  0  0  0  0  0  0  0  0  0  # atno 17370 bound_to 10713
  156.3779  130.7564  151.2554 LP  0  0  0  0  0  0  0  0  0  0  0  0  # atno 17371 bound_to 10713
  140.6445  134.5131  157.5572 LP  0  0  0  0  0  0  0  0  0  0  0  0  # atno 17394 bound_to 11000
  139.9193  134.8181  156.1263 LP  0  0  0  0  0  0  0  0  0  0  0  0  # atno 17395 bound_to 11000

$$$$
