AV-unprocessed.smi:3314|AV-procd|sdf|12742|dock9
  -GOLD-   2272019 83D 1   1.00000     0.00000
 Structure written by MMmdl.
 38 39  0  0  0  0  0  0  0  0  2 V2000
  153.9236  140.9987  160.0028 C   0  0  0  0  0  0  0  0  0  0  0  0
  152.9726  142.0003  159.3807 C   0  0  0  0  0  0  0  0  0  0  0  0
  152.8952  143.3202  159.8718 C   0  0  0  0  0  0  0  0  0  0  0  0
  152.0054  144.2265  159.2610 C   0  0  0  0  0  0  0  0  0  0  0  0
  151.8698  145.6624  159.7220 C   0  0  0  0  0  0  0  0  0  0  0  0
  151.2409  143.8175  158.2242 N   0  3  0  0  0  0  0  0  0  0  0  0
  151.2657  142.5620  157.7197 C   0  0  0  0  0  0  0  0  0  0  0  0
  150.4107  142.2977  156.6150 N   0  0  0  0  0  0  0  0  0  0  0  0
  150.2768  141.1688  155.8940 C   0  0  0  0  0  0  0  0  0  0  0  0
  150.8968  140.1262  156.1053 O   0  0  0  0  0  0  0  0  0  0  0  0
  149.2622  141.2490  154.7462 C   0  0  1  0  0  0  0  0  0  0  0  0
  148.6789  139.8753  154.3439 C   0  0  0  0  0  0  0  0  0  0  0  0
  147.6765  140.0045  153.2948 N   0  0  0  0  0  0  0  0  0  0  0  0
  147.1311  138.7114  152.9108 C   0  0  0  0  0  0  0  0  0  0  0  0
  146.6313  140.9217  153.7278 C   0  0  0  0  0  0  0  0  0  0  0  0
  147.2090  142.2878  154.1350 C   0  0  0  0  0  0  0  0  0  0  0  0
  148.1965  142.1098  155.1470 O   0  0  0  0  0  0  0  0  0  0  0  0
  152.1559  141.6193  158.2947 C   0  0  0  0  0  0  0  0  0  0  0  0
  154.4691  141.4338  160.8407 H   0  0  0  0  0  0  0  0  0  0  0  0
  154.6495  140.6578  159.2642 H   0  0  0  0  0  0  0  0  0  0  0  0
  153.3732  140.1315  160.3690 H   0  0  0  0  0  0  0  0  0  0  0  0
  153.5121  143.6348  160.7011 H   0  0  0  0  0  0  0  0  0  0  0  0
  152.5118  145.8617  160.5805 H   0  0  0  0  0  0  0  0  0  0  0  0
  150.8400  145.8741  160.0111 H   0  0  0  0  0  0  0  0  0  0  0  0
  152.1507  146.3465  158.9209 H   0  0  0  0  0  0  0  0  0  0  0  0
  149.7825  143.0476  156.3649 H   0  0  0  0  0  0  0  0  0  0  0  0
  149.7697  141.6923  153.8873 H   0  0  0  0  0  0  0  0  0  0  0  0
  149.4825  139.2222  154.0006 H   0  0  0  0  0  0  0  0  0  0  0  0
  148.2353  139.3928  155.2169 H   0  0  0  0  0  0  0  0  0  0  0  0
  146.4101  138.8222  152.1002 H   0  0  0  0  0  0  0  0  0  0  0  0
  146.6275  138.2306  153.7505 H   0  0  0  0  0  0  0  0  0  0  0  0
  147.9219  138.0464  152.5624 H   0  0  0  0  0  0  0  0  0  0  0  0
  145.9033  141.0585  152.9273 H   0  0  0  0  0  0  0  0  0  0  0  0
  146.0899  140.4930  154.5727 H   0  0  0  0  0  0  0  0  0  0  0  0
  147.6492  142.7927  153.2738 H   0  0  0  0  0  0  0  0  0  0  0  0
  146.4193  142.9351  154.5164 H   0  0  0  0  0  0  0  0  0  0  0  0
  152.2398  140.6119  157.9175 H   0  0  0  0  0  0  0  0  0  0  0  0
  150.6076  144.4967  157.8016 H   0  0  0  0  0  0  0  0  0  0  0  0
  1  2  1  0  0  0  0
  1 19  1  0  0  0  0
  1 20  1  0  0  0  0
  1 21  1  0  0  0  0
  2 18  1  0  0  0  0
  2  3  2  0  0  0  0
  3  4  1  0  0  0  0
  3 22  1  0  0  0  0
  4  5  1  0  0  0  0
  4  6  2  0  0  0  0
  5 23  1  0  0  0  0
  5 24  1  0  0  0  0
  5 25  1  0  0  0  0
  6  7  1  0  0  0  0
  6 38  1  0  0  0  0
  7  8  1  0  0  0  0
  7 18  2  0  0  0  0
  8  9  1  0  0  0  0
  8 26  1  0  0  0  0
  9 10  2  0  0  0  0
  9 11  1  0  0  0  0
 11 17  1  0  0  0  0
 11 12  1  0  0  0  0
 11 27  1  0  0  0  0
 12 13  1  0  0  0  0
 12 28  1  0  0  0  0
 12 29  1  0  0  0  0
 13 14  1  0  0  0  0
 13 15  1  0  0  0  0
 14 30  1  0  0  0  0
 14 31  1  0  0  0  0
 14 32  1  0  0  0  0
 15 16  1  0  0  0  0
 15 33  1  0  0  0  0
 15 34  1  0  0  0  0
 16 17  1  0  0  0  0
 16 35  1  0  0  0  0
 16 36  1  0  0  0  0
 18 37  1  0  0  0  0
M  CHG  1   6   1
M  END
> <s_m_source_file>
AV-unprocessed.smi

> <i_m_source_file_index>
3314

> <i_lp_mmshare_version>
43012

> <i_f3d_flags>
0

> <s_epik_input>
W0NIM11jMVtjSF1jKFtDSDNdKW5jKFtjSF0xKVtOSF1DKD1PKVtDQEBIXTJbQ0gyXU4oW0NIM10pW0NIMl1bQ0gyXU8y

> <s_epik_cmdline>
J2VwaWtfcHl0aG9uJywgJy1waCcsICc3LjAnLCAnLXRuJywgJzgnLCAnLW1hJywgJzIwMCcsICctbWV0YWxfYmluZGluZycsICctaW1hZScsICc8aW5maWxlLm1hZT4nLCAnLW9tYWUnLCAnPG91dGZpbGUubWFlPic=

> <r_epik_Ionization_Penalty>
2.57421

> <r_epik_Ionization_Penalty_Charging>
1.80498

> <r_epik_Ionization_Penalty_Neutral>
0.76923

> <r_epik_State_Penalty>
2.63884

> <r_epik_Charging_Adjusted_Penalty>
4.44382

> <i_epik_Tot_Q>
1

> <i_epik_Tot_abs_Q>
1

> <r_epik_Metal_State_Penalty>
6.15142

> <b_epik_Metal_Only>
0

> <s_lp_Force_Field>
OPLS_2005

> <r_lp_Energy>
30.3211

> <b_lp_Chiralities_Consistent>
1

> <s_lp_Variant>
AV-unprocessed.smi:3314-12

> <Gold.Version>
5.8.1

> <Gold.Id.Protein>
6NUR|6NUR_protein|mol2

> <Gold.PLP.Fitness>
39.7541

> <Gold.PLP.PLP>
-38.1696

> <Gold.PLP.part.hbond>
-1.0000

> <Gold.PLP.part.metal>
0.0000

> <Gold.PLP.part.buried>
-5.7618

> <Gold.PLP.part.nonpolar>
-36.2954

> <Gold.PLP.part.repulsive>
4.5362

> <Gold.PLP.ligand.clash>
0.0000

> <Gold.PLP.ligand.torsion>
0.7089

> <Gold.PLP.Chemscore.Hbond>
1.0000

> <Gold.PLP.Chemscore.CHOScore>
0.0000

> <Gold.PLP.Chemscore.Metal>
0.0000

> <Gold.Chemscore.Hbonds>
donor molecule, donor type, donor heavy atom, donor atom, acceptor molecule, acceptor atom, score
      L1  H     8    26       P1  8028  1.00

> <Gold.PLP.Chemscore.Internal.Correction>
0.0023

> <Gold.Rescore>
     Score         DG    S(hbond)    S(metal)    S(lipo)     H(rot)  DE(clash)    DE(int)     intcor
     14.43     -18.10       0.99        0.00     101.39       1.00       1.75       1.92       ----

> <Gold.Chemscore.Fitness>
14.4270

> <Gold.Chemscore.DG>
-18.0952

> <Gold.Chemscore.ZeroCoef>
-5.4800

> <Gold.Chemscore.Hbond>
0.9918

> <Gold.Chemscore.Metal>
0.0000

> <Gold.Chemscore.Lipo>
101.3903

> <Gold.Chemscore.Internal_Hbond>
0.0000

> <Gold.Chemscore.DEClash>
1.7457

> <Gold.Chemscore.DEInternal>
1.9225

> <Gold.Chemscore.Rot>
1.0000

> <Gold.Chemscore.Internal.Correction>
   9.000000E+99

> <Gold.Chemscore.Hbonds>
donor molecule, donor type, donor heavy atom, donor atom, acceptor molecule, acceptor atom, score
      L1  H     8    26       P1  8028  0.93

> <Gold.Chemscore.Hbond.Weighted>
-3.3125

> <Gold.Chemscore.Metal.Weighted>
-0.0000

> <Gold.Chemscore.Lipo.Weighted>
-11.8627

> <Gold.Chemscore.Internal_Hbond.Weighted>
0.0000

> <Gold.Chemscore.DEClash.Weighted>
1.7457

> <Gold.Chemscore.DEInternal.Weighted>
1.9225

> <Gold.Chemscore.Rot.Weighted>
2.5600

> <Gold.Chemscore.Internal.Correction.Weighted>
   9.000000E+99

> <Gold.Protein.RotatedTorsions>
[ 6907 6896 6895 6894 ] final -124.90 input  -60.11 | X-H torsion
[ 7974 7965 7964 7962 ] final  130.33 input  175.53 | X-H torsion
[ 8008 7997 7996 7995 ] final  139.01 input   59.86 | X-H torsion
[ 10167 10162 10161 10158 ] final  100.85 input  -65.29 | X-H torsion
[ 10718 10713 10712 10709 ] final  123.64 input   66.30 | X-H torsion
[ 10763 10752 10751 10750 ] final  114.99 input  -60.55 | X-H torsion
[ 11005 11000 10999 10996 ] final   55.29 input  -57.11 | X-H torsion

> <Gold.Protein.ActiveResidues>
 VAL166  LYS551  ARG553  GLY616  TRP617  ASP618  TYR619  PRO620  LYS621  CYS622 
 ASP623  PHE694  ASN695  SER759  ASP760  ASP761  ALA762  ILE779  LEU786  VAL792 
 PHE793  MET794  SER795  GLU796  ALA797  LYS798  CYS799  TRP800  GLU811  SER814 

> <Gold.Protein.RotatedAtoms>
  150.8814  133.7367  159.2930 H   0  0  0  0  0  0  0  0  0  0  0  0  # atno 6907 bound_to 6896
  151.4947  135.1057  159.9822 H   0  0  0  0  0  0  0  0  0  0  0  0  # atno 6908 bound_to 6896
  152.4762  133.8098  159.7053 H   0  0  0  0  0  0  0  0  0  0  0  0  # atno 6909 bound_to 6896
  145.0190  139.4149  143.5207 H   0  0  0  0  0  0  0  0  0  0  0  0  # atno 7974 bound_to 7965
  156.2993  140.2378  156.4168 H   0  0  0  0  0  0  0  0  0  0  0  0  # atno 8008 bound_to 7997
  154.8391  140.0429  157.1549 H   0  0  0  0  0  0  0  0  0  0  0  0  # atno 8009 bound_to 7997
  154.9122  140.2992  155.5264 H   0  0  0  0  0  0  0  0  0  0  0  0  # atno 8010 bound_to 7997
  139.7490  144.6989  151.0461 H   0  0  0  0  0  0  0  0  0  0  0  0  # atno 10167 bound_to 10162
  157.5649  131.1087  150.8472 H   0  0  0  0  0  0  0  0  0  0  0  0  # atno 10718 bound_to 10713
  153.5155  135.3609  155.2607 H   0  0  0  0  0  0  0  0  0  0  0  0  # atno 10763 bound_to 10752
  154.8739  135.4033  154.3320 H   0  0  0  0  0  0  0  0  0  0  0  0  # atno 10764 bound_to 10752
  153.3981  135.7074  153.6513 H   0  0  0  0  0  0  0  0  0  0  0  0  # atno 10765 bound_to 10752
  140.0618  134.5591  155.9143 H   0  0  0  0  0  0  0  0  0  0  0  0  # atno 11005 bound_to 11000
  146.3482  139.9677  142.8710 LP  0  0  0  0  0  0  0  0  0  0  0  0  # atno 17320 bound_to 7965
  145.1921  140.9816  143.4205 LP  0  0  0  0  0  0  0  0  0  0  0  0  # atno 17321 bound_to 7965
  140.7795  143.4832  150.9991 LP  0  0  0  0  0  0  0  0  0  0  0  0  # atno 17342 bound_to 10162
  139.8520  143.7426  152.3177 LP  0  0  0  0  0  0  0  0  0  0  0  0  # atno 17343 bound_to 10162
  156.8960  130.5229  149.5284 LP  0  0  0  0  0  0  0  0  0  0  0  0  # atno 17370 bound_to 10713
  156.0698  130.5733  150.9361 LP  0  0  0  0  0  0  0  0  0  0  0  0  # atno 17371 bound_to 10713
  141.1976  133.6597  156.5751 LP  0  0  0  0  0  0  0  0  0  0  0  0  # atno 17394 bound_to 11000
  140.3758  134.7566  157.4629 LP  0  0  0  0  0  0  0  0  0  0  0  0  # atno 17395 bound_to 11000

$$$$
