AV-unprocessed.smi:1701|AV-procd|sdf|6831|dock4
  -GOLD-   22720 8 03D 1   1.00000     0.00000
 Structure written by MMmdl.
 54 56  0  0  0  0  0  0  0  0  2 V2000
  151.9064  145.5189  159.7676 C   0  0  0  0  0  0  0  0  0  0  0  0
  152.7130  144.3738  159.1353 C   0  0  0  0  0  0  0  0  0  0  0  0
  152.3613  143.0614  159.6766 N   0  0  0  0  0  0  0  0  0  0  0  0
  153.3984  142.3522  160.4298 C   0  0  0  0  0  0  0  0  0  0  0  0
  153.1338  142.3266  161.9439 C   0  0  0  0  0  0  0  0  0  0  0  0
  151.4847  142.3104  158.8624 C   0  0  0  0  0  0  0  0  0  0  0  0
  151.6994  140.9247  158.6853 C   0  0  0  0  0  0  0  0  0  0  0  0
  150.8056  140.1909  157.8835 C   0  0  0  0  0  0  0  0  0  0  0  0
  149.7162  140.8487  157.2796 C   0  0  0  0  0  0  0  0  0  0  0  0
  148.8425  140.0654  156.4757 N   0  0  0  0  0  0  0  0  0  0  0  0
  147.5889  140.3284  156.0559 C   0  0  0  0  0  0  0  0  0  0  0  0
  146.9563  141.3493  156.3110 O   0  0  0  0  0  0  0  0  0  0  0  0
  147.0498  139.3549  155.3005 N   0  0  0  0  0  0  0  0  0  0  0  0
  145.7208  139.3196  154.6893 C   0  0  2  0  0  0  0  0  0  0  0  0
  144.5601  139.4211  155.6992 C   0  0  0  0  0  0  0  0  0  0  0  0
  143.4812  138.4482  155.1818 C   0  0  0  0  0  0  0  0  0  0  0  0
  143.9936  137.9491  153.8916 N   0  3  2  0  0  0  0  0  0  0  0  0
  143.4811  136.6443  153.4196 C   0  0  0  0  0  0  0  0  0  0  0  0
  144.0756  136.3366  152.0301 C   0  0  0  0  0  0  0  0  0  0  0  0
  145.6154  136.4323  152.0302 C   0  0  0  0  0  0  0  0  0  0  0  0
  146.0897  137.7751  152.6185 C   0  0  0  0  0  0  0  0  0  0  0  0
  145.4593  137.9785  154.0054 C   0  0  1  0  0  0  0  0  0  0  0  0
  149.5833  142.2391  157.5136 C   0  0  0  0  0  0  0  0  0  0  0  0
  150.4389  142.9463  158.2813 N   0  0  0  0  0  0  0  0  0  0  0  0
  152.1945  146.4767  159.3340 H   0  0  0  0  0  0  0  0  0  0  0  0
  152.0768  145.5798  160.8429 H   0  0  0  0  0  0  0  0  0  0  0  0
  150.8361  145.3914  159.6038 H   0  0  0  0  0  0  0  0  0  0  0  0
  152.5366  144.3612  158.0594 H   0  0  0  0  0  0  0  0  0  0  0  0
  153.7789  144.5657  159.2539 H   0  0  0  0  0  0  0  0  0  0  0  0
  153.5038  141.3355  160.0496 H   0  0  0  0  0  0  0  0  0  0  0  0
  154.3571  142.8405  160.2523 H   0  0  0  0  0  0  0  0  0  0  0  0
  153.9526  141.8326  162.4668 H   0  0  0  0  0  0  0  0  0  0  0  0
  152.2181  141.7908  162.1932 H   0  0  0  0  0  0  0  0  0  0  0  0
  153.0490  143.3374  162.3436 H   0  0  0  0  0  0  0  0  0  0  0  0
  152.5400  140.4258  159.1447 H   0  0  0  0  0  0  0  0  0  0  0  0
  150.9591  139.1319  157.7353 H   0  0  0  0  0  0  0  0  0  0  0  0
  149.2174  139.1735  156.1885 H   0  0  0  0  0  0  0  0  0  0  0  0
  147.6396  138.5556  155.1178 H   0  0  0  0  0  0  0  0  0  0  0  0
  145.6247  140.1127  153.9446 H   0  0  0  0  0  0  0  0  0  0  0  0
  144.8747  139.1248  156.7011 H   0  0  0  0  0  0  0  0  0  0  0  0
  144.1857  140.4433  155.7630 H   0  0  0  0  0  0  0  0  0  0  0  0
  143.3596  137.6196  155.8816 H   0  0  0  0  0  0  0  0  0  0  0  0
  142.5116  138.9299  155.0542 H   0  0  0  0  0  0  0  0  0  0  0  0
  143.7464  135.8607  154.1309 H   0  0  0  0  0  0  0  0  0  0  0  0
  142.3925  136.6762  153.3653 H   0  0  0  0  0  0  0  0  0  0  0  0
  143.7630  135.3452  151.7013 H   0  0  0  0  0  0  0  0  0  0  0  0
  143.6729  137.0423  151.3021 H   0  0  0  0  0  0  0  0  0  0  0  0
  146.0285  135.6124  152.6191 H   0  0  0  0  0  0  0  0  0  0  0  0
  145.9998  136.3094  151.0172 H   0  0  0  0  0  0  0  0  0  0  0  0
  147.1778  137.7902  152.6910 H   0  0  0  0  0  0  0  0  0  0  0  0
  145.8080  138.5922  151.9527 H   0  0  0  0  0  0  0  0  0  0  0  0
  145.7714  137.1685  154.6695 H   0  0  0  0  0  0  0  0  0  0  0  0
  148.7885  142.8282  157.0870 H   0  0  0  0  0  0  0  0  0  0  0  0
  143.7466  138.6394  153.1968 H   0  0  0  0  0  0  0  0  0  0  0  0
  1  2  1  0  0  0  0
  1 25  1  0  0  0  0
  1 26  1  0  0  0  0
  1 27  1  0  0  0  0
  2  3  1  0  0  0  0
  2 28  1  0  0  0  0
  2 29  1  0  0  0  0
  3  4  1  0  0  0  0
  3  6  1  0  0  0  0
  4  5  1  0  0  0  0
  4 30  1  0  0  0  0
  4 31  1  0  0  0  0
  5 32  1  0  0  0  0
  5 33  1  0  0  0  0
  5 34  1  0  0  0  0
  6 24  1  0  0  0  0
  6  7  2  0  0  0  0
  7  8  1  0  0  0  0
  7 35  1  0  0  0  0
  8  9  2  0  0  0  0
  8 36  1  0  0  0  0
  9 10  1  0  0  0  0
  9 23  1  0  0  0  0
 10 11  1  0  0  0  0
 10 37  1  0  0  0  0
 11 12  2  0  0  0  0
 11 13  1  0  0  0  0
 13 14  1  0  0  0  0
 13 38  1  0  0  0  0
 14 22  1  0  0  0  0
 14 15  1  0  0  0  0
 14 39  1  0  0  0  0
 15 16  1  0  0  0  0
 15 40  1  0  0  0  0
 15 41  1  0  0  0  0
 16 17  1  0  0  0  0
 16 42  1  0  0  0  0
 16 43  1  0  0  0  0
 17 22  1  0  0  0  0
 17 18  1  0  0  0  0
 17 54  1  0  0  0  0
 18 19  1  0  0  0  0
 18 44  1  0  0  0  0
 18 45  1  0  0  0  0
 19 20  1  0  0  0  0
 19 46  1  0  0  0  0
 19 47  1  0  0  0  0
 20 21  1  0  0  0  0
 20 48  1  0  0  0  0
 20 49  1  0  0  0  0
 21 22  1  0  0  0  0
 21 50  1  0  0  0  0
 21 51  1  0  0  0  0
 22 52  1  0  0  0  0
 23 24  2  0  0  0  0
 23 53  1  0  0  0  0
M  CHG  1  17   1
M  END
> <s_m_source_file>
AV-unprocessed.smi

> <i_m_source_file_index>
1701

> <i_lp_mmshare_version>
43012

> <i_f3d_flags>
0

> <s_epik_input>
W0NIM11bQ0gyXU4oW0NIMl1bQ0gzXSljMVtjSF1bY0hdYyhbY0hdbjEpW05IXUMoPU8pW05IXVtDQEhdKFtDSDJdW0NIMl0yKVtDQEBIXShOMjMpW0NIMl1bQ0gyXVtDSDJdW0NIMl0z

> <s_epik_cmdline>
J2VwaWtfcHl0aG9uJywgJy1waCcsICc3LjAnLCAnLXRuJywgJzgnLCAnLW1hJywgJzIwMCcsICctbWV0YWxfYmluZGluZycsICctaW1hZScsICc8aW5maWxlLm1hZT4nLCAnLW9tYWUnLCAnPG91dGZpbGUubWFlPic=

> <r_lp_tautomer_probability>
1

> <r_epik_Ionization_Penalty>
0.56662

> <r_epik_Ionization_Penalty_Charging>
0.000974069

> <r_epik_Ionization_Penalty_Neutral>
0.565646

> <r_epik_State_Penalty>
2.0247

> <r_epik_Charging_Adjusted_Penalty>
2.02568

> <i_epik_Tot_Q>
1

> <i_epik_Tot_abs_Q>
1

> <r_epik_Metal_State_Penalty>
1.51504

> <b_epik_Metal_Only>
0

> <s_lp_Force_Field>
OPLS_2005

> <r_lp_Energy>
54.426

> <b_lp_Chiralities_Consistent>
1

> <s_lp_Variant>
AV-unprocessed.smi:1701-11

> <Gold.Version>
5.8.1

> <Gold.Id.Protein>
6NUR|6NUR_protein|mol2

> <Gold.PLP.Fitness>
46.7061

> <Gold.PLP.PLP>
-38.2977

> <Gold.PLP.part.hbond>
-1.0000

> <Gold.PLP.part.metal>
0.0000

> <Gold.PLP.part.buried>
-3.7570

> <Gold.PLP.part.nonpolar>
-33.5778

> <Gold.PLP.part.repulsive>
0.2056

> <Gold.PLP.ligand.clash>
0.0000

> <Gold.PLP.ligand.torsion>
0.7089

> <Gold.PLP.Chemscore.Hbond>
2.0000

> <Gold.PLP.Chemscore.CHOScore>
1.0000

> <Gold.PLP.Chemscore.Metal>
0.0000

> <Gold.Chemscore.Hbonds>
donor molecule, donor type, donor heavy atom, donor atom, acceptor molecule, acceptor atom, score
      L1  H    17    54       P1 10175  2.00
      L1  C    23    53       P1  8028  1.00

> <Gold.PLP.Chemscore.Internal.Correction>
0.8263

> <Gold.Rescore>
     Score         DG    S(hbond)    S(metal)    S(lipo)     H(rot)  DE(clash)    DE(int)     intcor
     14.65     -16.39       0.98        0.00      93.39       1.28       0.08       1.67       ----

> <Gold.Chemscore.Fitness>
14.6456

> <Gold.Chemscore.DG>
-16.3892

> <Gold.Chemscore.ZeroCoef>
-5.4800

> <Gold.Chemscore.Hbond>
0.9789

> <Gold.Chemscore.Metal>
0.0000

> <Gold.Chemscore.Lipo>
93.3864

> <Gold.Chemscore.Internal_Hbond>
0.0000

> <Gold.Chemscore.DEClash>
0.0767

> <Gold.Chemscore.DEInternal>
1.6668

> <Gold.Chemscore.Rot>
1.2838

> <Gold.Chemscore.Internal.Correction>
   9.000000E+99

> <Gold.Chemscore.Hbonds>
donor molecule, donor type, donor heavy atom, donor atom, acceptor molecule, acceptor atom, score
      L1  H    17    54       P1 10175  0.97

> <Gold.Chemscore.Hbond.Weighted>
-3.2695

> <Gold.Chemscore.Metal.Weighted>
-0.0000

> <Gold.Chemscore.Lipo.Weighted>
-10.9262

> <Gold.Chemscore.Internal_Hbond.Weighted>
0.0000

> <Gold.Chemscore.DEClash.Weighted>
0.0767

> <Gold.Chemscore.DEInternal.Weighted>
1.6668

> <Gold.Chemscore.Rot.Weighted>
3.2865

> <Gold.Chemscore.Internal.Correction.Weighted>
   9.000000E+99

> <Gold.Protein.RotatedTorsions>
[ 6907 6896 6895 6894 ] final   72.80 input  -60.11 | X-H torsion
[ 7974 7965 7964 7962 ] final   96.06 input  175.53 | X-H torsion
[ 8008 7997 7996 7995 ] final   45.55 input   59.86 | X-H torsion
[ 10167 10162 10161 10158 ] final  -98.90 input  -65.29 | X-H torsion
[ 10718 10713 10712 10709 ] final  -79.97 input   66.30 | X-H torsion
[ 10763 10752 10751 10750 ] final -103.93 input  -60.55 | X-H torsion
[ 11005 11000 10999 10996 ] final  -50.61 input  -57.11 | X-H torsion

> <Gold.Protein.ActiveResidues>
 VAL166  LYS551  ARG553  GLY616  TRP617  ASP618  TYR619  PRO620  LYS621  CYS622 
 ASP623  PHE694  ASN695  SER759  ASP760  ASP761  ALA762  ILE779  LEU786  VAL792 
 PHE793  MET794  SER795  GLU796  ALA797  LYS798  CYS799  TRP800  GLU811  SER814 

> <Gold.Protein.RotatedAtoms>
  152.4888  134.4518  159.9576 H   0  0  0  0  0  0  0  0  0  0  0  0  # atno 6907 bound_to 6896
  151.4509  133.3612  159.2803 H   0  0  0  0  0  0  0  0  0  0  0  0  # atno 6908 bound_to 6896
  150.9022  134.8459  159.7428 H   0  0  0  0  0  0  0  0  0  0  0  0  # atno 6909 bound_to 6896
  145.4438  139.2299  143.3077 H   0  0  0  0  0  0  0  0  0  0  0  0  # atno 7974 bound_to 7965
  155.3378  140.3406  155.4239 H   0  0  0  0  0  0  0  0  0  0  0  0  # atno 8008 bound_to 7997
  156.1829  140.1670  156.8277 H   0  0  0  0  0  0  0  0  0  0  0  0  # atno 8009 bound_to 7997
  154.5353  140.0736  156.8400 H   0  0  0  0  0  0  0  0  0  0  0  0  # atno 8010 bound_to 7997
  140.2681  143.3362  152.0561 H   0  0  0  0  0  0  0  0  0  0  0  0  # atno 10167 bound_to 10162
  156.0080  130.4561  150.3730 H   0  0  0  0  0  0  0  0  0  0  0  0  # atno 10718 bound_to 10713
  154.7842  135.4805  153.9910 H   0  0  0  0  0  0  0  0  0  0  0  0  # atno 10763 bound_to 10752
  153.1537  135.6796  153.8852 H   0  0  0  0  0  0  0  0  0  0  0  0  # atno 10764 bound_to 10752
  153.8488  135.3170  155.3409 H   0  0  0  0  0  0  0  0  0  0  0  0  # atno 10765 bound_to 10752
  141.0825  133.6650  156.3756 H   0  0  0  0  0  0  0  0  0  0  0  0  # atno 11005 bound_to 11000
  146.2541  140.5190  142.8881 LP  0  0  0  0  0  0  0  0  0  0  0  0  # atno 17320 bound_to 7965
  144.8104  140.6376  143.6419 LP  0  0  0  0  0  0  0  0  0  0  0  0  # atno 17321 bound_to 7965
  139.4997  144.6674  151.6323 LP  0  0  0  0  0  0  0  0  0  0  0  0  # atno 17342 bound_to 10162
  140.5912  143.9777  150.6325 LP  0  0  0  0  0  0  0  0  0  0  0  0  # atno 17343 bound_to 10162
  157.1813  131.0393  151.2747 LP  0  0  0  0  0  0  0  0  0  0  0  0  # atno 17370 bound_to 10713
  157.4143  130.7402  149.6863 LP  0  0  0  0  0  0  0  0  0  0  0  0  # atno 17371 bound_to 10713
  140.5436  134.6096  157.5387 LP  0  0  0  0  0  0  0  0  0  0  0  0  # atno 17394 bound_to 11000
  139.9640  134.7404  156.0176 LP  0  0  0  0  0  0  0  0  0  0  0  0  # atno 17395 bound_to 11000

$$$$
