AV-unprocessed.smi:1218|AV-procd|sdf|5107|dock9
  -GOLD-   22720 4163D 1   1.00000     0.00000
 Structure written by MMmdl.
 45 46  0  0  0  0  0  0  0  0  2 V2000
  145.8726  131.7655  149.7745 C   0  0  0  0  0  0  0  0  0  0  0  0
  145.4669  132.3838  151.1209 C   0  0  0  0  0  0  0  0  0  0  0  0
  144.1939  133.2315  150.9596 C   0  0  0  0  0  0  0  0  0  0  0  0
  146.6341  133.2028  151.7141 C   0  0  0  0  0  0  0  0  0  0  0  0
  147.5834  132.3801  152.5129 N   0  3  2  0  0  0  0  0  0  0  0  0
  146.9150  131.5033  153.5046 C   0  0  0  0  0  0  0  0  0  0  0  0
  146.4789  132.3026  154.7451 C   0  0  0  0  0  0  0  0  0  0  0  0
  147.6127  132.9496  155.3080 O   0  0  0  0  0  0  0  0  0  0  0  0
  148.2083  133.8907  154.4198 C   0  0  1  0  0  0  0  0  0  0  0  0
  149.3778  134.5843  155.1417 C   0  0  0  0  0  0  0  0  0  0  0  0
  149.7184  135.8624  154.5255 N   0  0  0  0  0  0  0  0  0  0  0  0
  150.6603  136.7101  154.9668 C   0  0  0  0  0  0  0  0  0  0  0  0
  151.3459  136.4948  155.9669 O   0  0  0  0  0  0  0  0  0  0  0  0
  150.8468  137.9959  154.1542 C   0  0  0  0  0  0  0  0  0  0  0  0
  150.4855  139.1813  154.9144 N   0  0  0  0  0  0  0  0  0  0  0  0
  149.2744  139.4902  155.4995 C   0  0  0  0  0  0  0  0  0  0  0  0
  149.4151  140.7033  156.1102 C   0  0  0  0  0  0  0  0  0  0  0  0
  150.7664  141.0608  155.8440 C   0  0  0  0  0  0  0  0  0  0  0  0
  151.4052  140.1471  155.1311 N   0  0  0  0  0  0  0  0  0  0  0  0
  148.6867  133.1398  153.1566 C   0  0  0  0  0  0  0  0  0  0  0  0
  146.1181  132.5345  149.0412 H   0  0  0  0  0  0  0  0  0  0  0  0
  145.0665  131.1582  149.3617 H   0  0  0  0  0  0  0  0  0  0  0  0
  146.7449  131.1201  149.8837 H   0  0  0  0  0  0  0  0  0  0  0  0
  145.2337  131.5533  151.7860 H   0  0  0  0  0  0  0  0  0  0  0  0
  144.3642  134.0824  150.2991 H   0  0  0  0  0  0  0  0  0  0  0  0
  143.8456  133.6176  151.9179 H   0  0  0  0  0  0  0  0  0  0  0  0
  143.3819  132.6404  150.5349 H   0  0  0  0  0  0  0  0  0  0  0  0
  147.1694  133.7271  150.9226 H   0  0  0  0  0  0  0  0  0  0  0  0
  146.2096  133.9804  152.3510 H   0  0  0  0  0  0  0  0  0  0  0  0
  146.0668  130.9855  153.0555 H   0  0  0  0  0  0  0  0  0  0  0  0
  147.6197  130.7277  153.8073 H   0  0  0  0  0  0  0  0  0  0  0  0
  145.7081  133.0341  154.4985 H   0  0  0  0  0  0  0  0  0  0  0  0
  146.0521  131.6319  155.4910 H   0  0  0  0  0  0  0  0  0  0  0  0
  147.4723  134.6486  154.1474 H   0  0  0  0  0  0  0  0  0  0  0  0
  149.1589  134.7098  156.2036 H   0  0  0  0  0  0  0  0  0  0  0  0
  150.2661  133.9546  155.0845 H   0  0  0  0  0  0  0  0  0  0  0  0
  149.2027  136.1202  153.6964 H   0  0  0  0  0  0  0  0  0  0  0  0
  151.8852  138.0984  153.8359 H   0  0  0  0  0  0  0  0  0  0  0  0
  150.2374  137.9402  153.2507 H   0  0  0  0  0  0  0  0  0  0  0  0
  148.4228  138.8293  155.4306 H   0  0  0  0  0  0  0  0  0  0  0  0
  148.6673  141.2517  156.6633 H   0  0  0  0  0  0  0  0  0  0  0  0
  151.2989  141.9502  156.1471 H   0  0  0  0  0  0  0  0  0  0  0  0
  149.4637  132.4269  153.4364 H   0  0  0  0  0  0  0  0  0  0  0  0
  149.1524  133.8284  152.4531 H   0  0  0  0  0  0  0  0  0  0  0  0
  148.0141  131.7578  151.8438 H   0  0  0  0  0  0  0  0  0  0  0  0
  1  2  1  0  0  0  0
  1 21  1  0  0  0  0
  1 22  1  0  0  0  0
  1 23  1  0  0  0  0
  2  3  1  0  0  0  0
  2  4  1  0  0  0  0
  2 24  1  0  0  0  0
  3 25  1  0  0  0  0
  3 26  1  0  0  0  0
  3 27  1  0  0  0  0
  4  5  1  0  0  0  0
  4 28  1  0  0  0  0
  4 29  1  0  0  0  0
  5 20  1  0  0  0  0
  5  6  1  0  0  0  0
  5 45  1  0  0  0  0
  6  7  1  0  0  0  0
  6 30  1  0  0  0  0
  6 31  1  0  0  0  0
  7  8  1  0  0  0  0
  7 32  1  0  0  0  0
  7 33  1  0  0  0  0
  8  9  1  0  0  0  0
  9 10  1  0  0  0  0
  9 20  1  0  0  0  0
  9 34  1  0  0  0  0
 10 11  1  0  0  0  0
 10 35  1  0  0  0  0
 10 36  1  0  0  0  0
 11 12  1  0  0  0  0
 11 37  1  0  0  0  0
 12 13  2  0  0  0  0
 12 14  1  0  0  0  0
 14 15  1  0  0  0  0
 14 38  1  0  0  0  0
 14 39  1  0  0  0  0
 15 19  1  0  0  0  0
 15 16  1  0  0  0  0
 16 17  2  0  0  0  0
 16 40  1  0  0  0  0
 17 18  1  0  0  0  0
 17 41  1  0  0  0  0
 18 19  2  0  0  0  0
 18 42  1  0  0  0  0
 20 43  1  0  0  0  0
 20 44  1  0  0  0  0
M  CHG  1   5   1
M  END
> <s_m_source_file>
AV-unprocessed.smi

> <i_m_source_file_index>
1218

> <i_lp_mmshare_version>
43012

> <i_f3d_flags>
0

> <s_epik_input>
W0NIM11bQ0hdKFtDSDNdKVtDSDJdTjFbQ0gyXVtDSDJdT1tDQEhdKFtDSDJdMSlbQ0gyXVtOSF1DKD1PKVtDSDJdbjJbY0hdW2NIXVtjSF1uMg==

> <s_epik_cmdline>
J2VwaWtfcHl0aG9uJywgJy1waCcsICc3LjAnLCAnLXRuJywgJzgnLCAnLW1hJywgJzIwMCcsICctbWV0YWxfYmluZGluZycsICctaW1hZScsICc8aW5maWxlLm1hZT4nLCAnLW9tYWUnLCAnPG91dGZpbGUubWFlPic=

> <r_lp_tautomer_probability>
1

> <r_epik_Ionization_Penalty>
0.0995066

> <r_epik_Ionization_Penalty_Charging>
0.0994921

> <r_epik_Ionization_Penalty_Neutral>
1.44634e-05

> <r_epik_State_Penalty>
0.0895432

> <r_epik_Charging_Adjusted_Penalty>
0.189035

> <i_epik_Tot_Q>
1

> <i_epik_Tot_abs_Q>
1

> <r_epik_Metal_State_Penalty>
0.0895432

> <b_epik_Metal_Only>
0

> <s_lp_Force_Field>
OPLS_2005

> <r_lp_Energy>
22.0385

> <b_lp_Chiralities_Consistent>
1

> <s_lp_Variant>
AV-unprocessed.smi:1218-2

> <Gold.Version>
5.8.1

> <Gold.Id.Protein>
6NUR|6NUR_protein|mol2

> <Gold.PLP.Fitness>
48.3341

> <Gold.PLP.PLP>
-37.4066

> <Gold.PLP.part.hbond>
-4.5021

> <Gold.PLP.part.metal>
0.0000

> <Gold.PLP.part.buried>
-4.8957

> <Gold.PLP.part.nonpolar>
-29.0244

> <Gold.PLP.part.repulsive>
0.1358

> <Gold.PLP.ligand.clash>
0.0000

> <Gold.PLP.ligand.torsion>
0.6068

> <Gold.PLP.Chemscore.Hbond>
4.0000

> <Gold.PLP.Chemscore.CHOScore>
0.0000

> <Gold.PLP.Chemscore.Metal>
0.0000

> <Gold.Chemscore.Hbonds>
donor molecule, donor type, donor heavy atom, donor atom, acceptor molecule, acceptor atom, score
      L1  H     5    45       P1 10747  0.96
      L1  H    11    37       P1  7948  1.00
      P1  H  7989  7998       L1    19  1.00
      P1  H 10752 10764       L1    13  0.44

> <Gold.PLP.Chemscore.Internal.Correction>
0.1411

> <Gold.Rescore>
     Score         DG    S(hbond)    S(metal)    S(lipo)     H(rot)  DE(clash)    DE(int)     intcor
     20.80     -21.57       3.51        0.00      80.17       1.96       0.03       0.74       ----

> <Gold.Chemscore.Fitness>
20.8033

> <Gold.Chemscore.DG>
-21.5726

> <Gold.Chemscore.ZeroCoef>
-5.4800

> <Gold.Chemscore.Hbond>
3.5140

> <Gold.Chemscore.Metal>
0.0000

> <Gold.Chemscore.Lipo>
80.1676

> <Gold.Chemscore.Internal_Hbond>
0.0000

> <Gold.Chemscore.DEClash>
0.0319

> <Gold.Chemscore.DEInternal>
0.7373

> <Gold.Chemscore.Rot>
1.9624

> <Gold.Chemscore.Internal.Correction>
   9.000000E+99

> <Gold.Chemscore.Hbonds>
donor molecule, donor type, donor heavy atom, donor atom, acceptor molecule, acceptor atom, score
      L1  H     5    45       P1 10747  0.91
      L1  H    11    37       P1  7948  0.85
      P1  H  7989  7998       L1    19  0.24
      P1  H 10752 10764       L1    13  0.13

> <Gold.Chemscore.Hbond.Weighted>
-11.7367

> <Gold.Chemscore.Metal.Weighted>
-0.0000

> <Gold.Chemscore.Lipo.Weighted>
-9.3796

> <Gold.Chemscore.Internal_Hbond.Weighted>
0.0000

> <Gold.Chemscore.DEClash.Weighted>
0.0319

> <Gold.Chemscore.DEInternal.Weighted>
0.7373

> <Gold.Chemscore.Rot.Weighted>
5.0237

> <Gold.Chemscore.Internal.Correction.Weighted>
   9.000000E+99

> <Gold.Protein.RotatedTorsions>
[ 6907 6896 6895 6894 ] final -112.81 input  -60.11 | X-H torsion
[ 7974 7965 7964 7962 ] final  176.44 input  175.53 | X-H torsion
[ 8008 7997 7996 7995 ] final  158.26 input   59.86 | X-H torsion
[ 10167 10162 10161 10158 ] final   75.27 input  -65.29 | X-H torsion
[ 10718 10713 10712 10709 ] final  -59.65 input   66.30 | X-H torsion
[ 10763 10752 10751 10750 ] final  -29.75 input  -60.55 | X-H torsion
[ 11005 11000 10999 10996 ] final   52.24 input  -57.11 | X-H torsion

> <Gold.Protein.ActiveResidues>
 VAL166  LYS551  ARG553  GLY616  TRP617  ASP618  TYR619  PRO620  LYS621  CYS622 
 ASP623  PHE694  ASN695  SER759  ASP760  ASP761  ALA762  ILE779  LEU786  VAL792 
 PHE793  MET794  SER795  GLU796  ALA797  LYS798  CYS799  TRP800  GLU811  SER814 

> <Gold.Protein.RotatedAtoms>
  150.7784  133.9035  159.3348 H   0  0  0  0  0  0  0  0  0  0  0  0  # atno 6907 bound_to 6896
  151.6904  135.0945  160.0242 H   0  0  0  0  0  0  0  0  0  0  0  0  # atno 6908 bound_to 6896
  152.3828  133.6531  159.6210 H   0  0  0  0  0  0  0  0  0  0  0  0  # atno 6909 bound_to 6896
  144.7184  140.0097  143.6440 H   0  0  0  0  0  0  0  0  0  0  0  0  # atno 7974 bound_to 7965
  156.2314  140.1863  156.7233 H   0  0  0  0  0  0  0  0  0  0  0  0  # atno 8008 bound_to 7997
  154.6028  140.0633  156.9419 H   0  0  0  0  0  0  0  0  0  0  0  0  # atno 8009 bound_to 7997
  155.2145  140.3302  155.4326 H   0  0  0  0  0  0  0  0  0  0  0  0  # atno 8010 bound_to 7997
  140.0047  144.5659  150.7707 H   0  0  0  0  0  0  0  0  0  0  0  0  # atno 10167 bound_to 10162
  156.1047  130.4182  150.0744 H   0  0  0  0  0  0  0  0  0  0  0  0  # atno 10718 bound_to 10713
  153.7697  135.6913  153.4909 H   0  0  0  0  0  0  0  0  0  0  0  0  # atno 10763 bound_to 10752
  153.1883  135.4480  155.0115 H   0  0  0  0  0  0  0  0  0  0  0  0  # atno 10764 bound_to 10752
  154.8122  135.3383  154.7207 H   0  0  0  0  0  0  0  0  0  0  0  0  # atno 10765 bound_to 10752
  140.0866  134.5266  155.8893 H   0  0  0  0  0  0  0  0  0  0  0  0  # atno 11005 bound_to 11000
  146.0268  139.3299  143.0779 LP  0  0  0  0  0  0  0  0  0  0  0  0  # atno 17320 bound_to 7965
  145.8501  140.9533  143.0754 LP  0  0  0  0  0  0  0  0  0  0  0  0  # atno 17321 bound_to 7965
  140.7405  143.2805  151.3613 LP  0  0  0  0  0  0  0  0  0  0  0  0  # atno 17342 bound_to 10162
  139.6247  144.0838  152.2423 LP  0  0  0  0  0  0  0  0  0  0  0  0  # atno 17343 bound_to 10162
  156.8723  130.9528  151.3608 LP  0  0  0  0  0  0  0  0  0  0  0  0  # atno 17370 bound_to 10713
  157.6222  130.8663  149.9127 LP  0  0  0  0  0  0  0  0  0  0  0  0  # atno 17371 bound_to 10713
  141.2064  133.6655  156.6242 LP  0  0  0  0  0  0  0  0  0  0  0  0  # atno 17394 bound_to 11000
  140.3412  134.7848  157.4399 LP  0  0  0  0  0  0  0  0  0  0  0  0  # atno 17395 bound_to 11000

$$$$
