AV-unprocessed.smi:221|AV-procd|sdf|1700|dock2
  -GOLD-   2262020153D 1   1.00000     0.00000
 Structure written by MMmdl.
 50 53  0  0  0  0  0  0  0  0  1 V2000
  154.0599  141.0635  160.9725 N   0  0  0  0  0  0  0  0  0  0  0  0
  153.5201  140.8522  159.7678 C   0  0  0  0  0  0  0  0  0  0  0  0
  153.4577  139.7251  159.2818 O   0  0  0  0  0  0  0  0  0  0  0  0
  152.9598  142.0521  158.9818 C   0  0  2  0  0  0  0  0  0  0  0  0
  152.9833  143.3416  159.8175 C   0  0  0  0  0  0  0  0  0  0  0  0
  151.9052  144.1888  159.1577 C   0  0  2  0  0  0  0  0  0  0  0  0
  151.4480  145.1527  159.9564 F   0  0  0  0  0  0  0  0  0  0  0  0
  150.8373  143.1561  158.8091 C   0  0  0  0  0  0  0  0  0  0  0  0
  151.5546  141.9060  158.5719 N   0  0  0  0  0  0  0  0  0  0  0  0
  151.3409  141.3505  157.3572 C   0  0  0  0  0  0  0  0  0  0  0  0
  152.3637  140.7527  156.6905 N   0  0  0  0  0  0  0  0  0  0  0  0
  152.1477  140.2093  155.4883 C   0  0  0  0  0  0  0  0  0  0  0  0
  151.0130  140.1580  154.7861 N   0  0  0  0  0  0  0  0  0  0  0  0
  149.9894  140.7633  155.4542 C   0  0  0  0  0  0  0  0  0  0  0  0
  150.0676  141.3828  156.7320 C   0  0  0  0  0  0  0  0  0  0  0  0
  148.8287  141.8988  157.0907 N   0  0  0  0  0  0  0  0  0  0  0  0
  148.0577  141.5967  156.0813 C   0  0  0  0  0  0  0  0  0  0  0  0
  148.6718  140.9080  155.0589 N   0  0  0  0  0  0  0  0  0  0  0  0
  148.0600  140.4471  153.8255 C   0  0  0  0  0  0  0  0  0  0  0  0
  147.2449  139.1347  153.9774 C   0  0  1  0  0  0  0  0  0  0  0  0
  146.6893  138.6253  152.6226 C   0  0  0  0  0  0  0  0  0  0  0  0
  147.6954  138.5416  151.6342 O   0  0  0  0  0  0  0  0  0  0  0  0
  148.1014  138.0439  154.6723 C   0  0  1  0  0  0  0  0  0  0  0  0
  148.3289  138.2590  156.1598 C   0  0  0  0  0  0  0  0  0  0  0  0
  148.7530  136.8723  156.6263 C   0  0  0  0  0  0  0  0  0  0  0  0
  148.0166  135.9626  155.8190 O   0  0  0  0  0  0  0  0  0  0  0  0
  147.4737  136.6429  154.6911 C   0  0  0  0  0  0  0  0  0  0  0  0
  153.5962  142.1982  158.1073 H   0  0  0  0  0  0  0  0  0  0  0  0
  152.2927  144.6582  158.2525 H   0  0  0  0  0  0  0  0  0  0  0  0
  154.4286  140.2863  161.5007 H   0  0  0  0  0  0  0  0  0  0  0  0
  154.0944  141.9994  161.3514 H   0  0  0  0  0  0  0  0  0  0  0  0
  152.7108  143.1389  160.8551 H   0  0  0  0  0  0  0  0  0  0  0  0
  153.9584  143.8299  159.8146 H   0  0  0  0  0  0  0  0  0  0  0  0
  150.1692  142.9982  159.6569 H   0  0  0  0  0  0  0  0  0  0  0  0
  150.2228  143.4828  157.9680 H   0  0  0  0  0  0  0  0  0  0  0  0
  153.0066  139.7490  155.0225 H   0  0  0  0  0  0  0  0  0  0  0  0
  147.0111  141.8635  156.0580 H   0  0  0  0  0  0  0  0  0  0  0  0
  147.4206  141.2417  153.4389 H   0  0  0  0  0  0  0  0  0  0  0  0
  148.8643  140.3205  153.1011 H   0  0  0  0  0  0  0  0  0  0  0  0
  146.3953  139.3379  154.6314 H   0  0  0  0  0  0  0  0  0  0  0  0
  146.2099  137.6532  152.7411 H   0  0  0  0  0  0  0  0  0  0  0  0
  145.9319  139.2999  152.2263 H   0  0  0  0  0  0  0  0  0  0  0  0
  148.0570  137.6684  151.6459 H   0  0  0  0  0  0  0  0  0  0  0  0
  149.0749  137.9814  154.1828 H   0  0  0  0  0  0  0  0  0  0  0  0
  149.0840  139.0145  156.3778 H   0  0  0  0  0  0  0  0  0  0  0  0
  147.3996  138.5515  156.6509 H   0  0  0  0  0  0  0  0  0  0  0  0
  149.8171  136.7184  156.4424 H   0  0  0  0  0  0  0  0  0  0  0  0
  148.5647  136.7104  157.6879 H   0  0  0  0  0  0  0  0  0  0  0  0
  146.3921  136.7034  154.8198 H   0  0  0  0  0  0  0  0  0  0  0  0
  147.6729  136.0848  153.7760 H   0  0  0  0  0  0  0  0  0  0  0  0
  1  2  1  0  0  0  0
  1 30  1  0  0  0  0
  1 31  1  0  0  0  0
  2  3  2  0  0  0  0
  2  4  1  0  0  0  0
  4 28  1  0  0  0  0
  4  9  1  0  0  0  0
  4  5  1  0  0  0  0
  5  6  1  0  0  0  0
  5 32  1  0  0  0  0
  5 33  1  0  0  0  0
  6 29  1  0  0  0  0
  6  7  1  0  0  0  0
  6  8  1  0  0  0  0
  8  9  1  0  0  0  0
  8 34  1  0  0  0  0
  8 35  1  0  0  0  0
  9 10  1  0  0  0  0
 10 15  1  0  0  0  0
 10 11  2  0  0  0  0
 11 12  1  0  0  0  0
 12 13  2  0  0  0  0
 12 36  1  0  0  0  0
 13 14  1  0  0  0  0
 14 18  1  0  0  0  0
 14 15  2  0  0  0  0
 15 16  1  0  0  0  0
 16 17  2  0  0  0  0
 17 18  1  0  0  0  0
 17 37  1  0  0  0  0
 18 19  1  0  0  0  0
 19 20  1  0  0  0  0
 19 38  1  0  0  0  0
 19 39  1  0  0  0  0
 20 21  1  0  0  0  0
 20 23  1  0  0  0  0
 20 40  1  0  0  0  0
 21 22  1  0  0  0  0
 21 41  1  0  0  0  0
 21 42  1  0  0  0  0
 22 43  1  0  0  0  0
 23 27  1  0  0  0  0
 23 24  1  0  0  0  0
 23 44  1  0  0  0  0
 24 25  1  0  0  0  0
 24 45  1  0  0  0  0
 24 46  1  0  0  0  0
 25 26  1  0  0  0  0
 25 47  1  0  0  0  0
 25 48  1  0  0  0  0
 26 27  1  0  0  0  0
 27 49  1  0  0  0  0
 27 50  1  0  0  0  0
M  END
> <s_m_source_file>
AV-unprocessed.smi

> <i_m_source_file_index>
221

> <i_lp_mmshare_version>
43012

> <i_f3d_flags>
0

> <s_epik_input>
W05IMl1DKD1PKVtDQEBIXTFbQ0gyXVtDQEBIXShGKVtDSDJdTjFjKG5bY0hdbjIpYyhjMjMpbltjSF1uM1tDSDJdW0NASF0oW0NIMl1bT0hdKVtDQEBIXTRbQ0gyXVtDSDJdT1tDSDJdNA==

> <s_epik_cmdline>
J2VwaWtfcHl0aG9uJywgJy1waCcsICc3LjAnLCAnLXRuJywgJzgnLCAnLW1hJywgJzIwMCcsICctbWV0YWxfYmluZGluZycsICctaW1hZScsICc8aW5maWxlLm1hZT4nLCAnLW9tYWUnLCAnPG91dGZpbGUubWFlPic=

> <r_lp_tautomer_probability>
1

> <r_epik_Ionization_Penalty>
0.000818822

> <r_epik_Ionization_Penalty_Charging>
0

> <r_epik_Ionization_Penalty_Neutral>
0.000818822

> <r_epik_State_Penalty>
0.000440551

> <r_epik_Charging_Adjusted_Penalty>
0.000440551

> <i_epik_Tot_Q>
0

> <i_epik_Tot_abs_Q>
0

> <r_epik_Metal_State_Penalty>
-0

> <b_epik_Metal_Only>
0

> <s_lp_Force_Field>
OPLS_2005

> <r_lp_Energy>
51.3471

> <b_lp_Chiralities_Consistent>
1

> <s_lp_Variant>
AV-unprocessed.smi:221-15

> <Gold.Version>
5.8.1

> <Gold.Id.Protein>
6NUR|6NUR_protein|mol2

> <Gold.PLP.Fitness>
48.3976

> <Gold.PLP.PLP>
-43.3397

> <Gold.PLP.part.hbond>
-4.8898

> <Gold.PLP.part.metal>
0.0000

> <Gold.PLP.part.buried>
-3.5677

> <Gold.PLP.part.nonpolar>
-36.0948

> <Gold.PLP.part.repulsive>
0.9368

> <Gold.PLP.ligand.clash>
0.0000

> <Gold.PLP.ligand.torsion>
1.0434

> <Gold.PLP.Chemscore.Hbond>
2.2948

> <Gold.PLP.Chemscore.CHOScore>
0.0000

> <Gold.PLP.Chemscore.Metal>
0.0000

> <Gold.Chemscore.Hbonds>
donor molecule, donor type, donor heavy atom, donor atom, acceptor molecule, acceptor atom, score
      L1  H    22    43       P1  7948  1.00
      P1  H  7989  7998       L1    13  0.70
      P1  H  7997  8010       L1    11  0.28

> <Gold.PLP.Chemscore.Internal.Correction>
0.2604

> <Gold.Rescore>
     Score         DG    S(hbond)    S(metal)    S(lipo)     H(rot)  DE(clash)    DE(int)     intcor
      5.90      -8.87       1.37        0.00      71.27       3.72       0.29       2.67       ----

> <Gold.Chemscore.Fitness>
5.9045

> <Gold.Chemscore.DG>
-8.8674

> <Gold.Chemscore.ZeroCoef>
-5.4800

> <Gold.Chemscore.Hbond>
1.3690

> <Gold.Chemscore.Metal>
0.0000

> <Gold.Chemscore.Lipo>
71.2709

> <Gold.Chemscore.Internal_Hbond>
0.0000

> <Gold.Chemscore.DEClash>
0.2947

> <Gold.Chemscore.DEInternal>
2.6682

> <Gold.Chemscore.Rot>
3.7202

> <Gold.Chemscore.Internal.Correction>
   9.000000E+99

> <Gold.Chemscore.Hbonds>
donor molecule, donor type, donor heavy atom, donor atom, acceptor molecule, acceptor atom, score
      L1  H    22    43       P1  7948  1.00
      P1  H  7989  7998       L1    13  0.07
      P1  H  7997  8010       L1    11  0.02

> <Gold.Chemscore.Hbond.Weighted>
-4.5724

> <Gold.Chemscore.Metal.Weighted>
-0.0000

> <Gold.Chemscore.Lipo.Weighted>
-8.3387

> <Gold.Chemscore.Internal_Hbond.Weighted>
0.0000

> <Gold.Chemscore.DEClash.Weighted>
0.2947

> <Gold.Chemscore.DEInternal.Weighted>
2.6682

> <Gold.Chemscore.Rot.Weighted>
9.5237

> <Gold.Chemscore.Internal.Correction.Weighted>
   9.000000E+99

> <Gold.Protein.RotatedTorsions>
[ 6907 6896 6895 6894 ] final  -26.28 input  -60.11 | X-H torsion
[ 7974 7965 7964 7962 ] final  -45.45 input  175.53 | X-H torsion
[ 8008 7997 7996 7995 ] final   51.67 input   59.86 | X-H torsion
[ 10167 10162 10161 10158 ] final  179.38 input  -65.29 | X-H torsion
[ 10718 10713 10712 10709 ] final  167.82 input   66.30 | X-H torsion
[ 10763 10752 10751 10750 ] final -108.91 input  -60.55 | X-H torsion
[ 11005 11000 10999 10996 ] final -132.81 input  -57.11 | X-H torsion

> <Gold.Protein.ActiveResidues>
 VAL166  LYS551  ARG553  GLY616  TRP617  ASP618  TYR619  PRO620  LYS621  CYS622 
 ASP623  PHE694  ASN695  SER759  ASP760  ASP761  ALA762  ILE779  LEU786  VAL792 
 PHE793  MET794  SER795  GLU796  ALA797  LYS798  CYS799  TRP800  GLU811  SER814 

> <Gold.Protein.RotatedAtoms>
  151.1632  135.0283  159.8718 H   0  0  0  0  0  0  0  0  0  0  0  0  # atno 6907 bound_to 6896
  152.5451  134.1255  159.8427 H   0  0  0  0  0  0  0  0  0  0  0  0  # atno 6908 bound_to 6896
  151.1353  133.4962  159.2630 H   0  0  0  0  0  0  0  0  0  0  0  0  # atno 6909 bound_to 6896
  145.9819  140.7274  142.9359 H   0  0  0  0  0  0  0  0  0  0  0  0  # atno 7974 bound_to 7965
  155.4392  140.3454  155.4288 H   0  0  0  0  0  0  0  0  0  0  0  0  # atno 8008 bound_to 7997
  156.1289  140.1508  156.9125 H   0  0  0  0  0  0  0  0  0  0  0  0  # atno 8009 bound_to 7997
  154.4879  140.0849  156.7509 H   0  0  0  0  0  0  0  0  0  0  0  0  # atno 8010 bound_to 7997
  139.5334  144.2567  152.0740 H   0  0  0  0  0  0  0  0  0  0  0  0  # atno 10167 bound_to 10162
  157.0460  131.0300  151.2697 H   0  0  0  0  0  0  0  0  0  0  0  0  # atno 10718 bound_to 10713
  154.8163  135.4620  154.0652 H   0  0  0  0  0  0  0  0  0  0  0  0  # atno 10763 bound_to 10752
  153.2042  135.6873  153.8200 H   0  0  0  0  0  0  0  0  0  0  0  0  # atno 10764 bound_to 10752
  153.7674  135.3275  155.3323 H   0  0  0  0  0  0  0  0  0  0  0  0  # atno 10765 bound_to 10752
  140.9137  134.1534  157.4369 H   0  0  0  0  0  0  0  0  0  0  0  0  # atno 11005 bound_to 11000
  144.6864  140.2923  143.7276 LP  0  0  0  0  0  0  0  0  0  0  0  0  # atno 17320 bound_to 7965
  145.7757  139.1873  143.2187 LP  0  0  0  0  0  0  0  0  0  0  0  0  # atno 17321 bound_to 7965
  140.2034  144.4635  150.6420 LP  0  0  0  0  0  0  0  0  0  0  0  0  # atno 17342 bound_to 10162
  140.6526  143.2229  151.6041 LP  0  0  0  0  0  0  0  0  0  0  0  0  # atno 17343 bound_to 10162
  157.5068  130.7913  149.7662 LP  0  0  0  0  0  0  0  0  0  0  0  0  # atno 17370 bound_to 10713
  156.0023  130.3874  150.2560 LP  0  0  0  0  0  0  0  0  0  0  0  0  # atno 17371 bound_to 10713
  139.8762  134.9945  156.5699 LP  0  0  0  0  0  0  0  0  0  0  0  0  # atno 17394 bound_to 11000
  140.8077  133.8454  155.8782 LP  0  0  0  0  0  0  0  0  0  0  0  0  # atno 17395 bound_to 11000

$$$$
