AV-unprocessed.smi:2941|AV-procd|sdf|11264|dock3
  -GOLD-   2272016153D 1   1.00000     0.00000
 Structure written by MMmdl.
 36 37  0  0  0  0  0  0  0  0  1 V2000
  146.7228  135.8189  161.6170 C   0  0  0  0  0  0  0  0  0  0  0  0
  147.8416  136.6289  161.3019 O   0  0  0  0  0  0  0  0  0  0  0  0
  148.2732  136.4632  159.9621 C   0  0  0  0  0  0  0  0  0  0  0  0
  149.7683  136.8056  159.8789 C   0  0  0  0  0  0  0  0  0  0  0  0
  150.1980  137.0115  158.4892 N   0  0  0  0  0  0  0  0  0  0  0  0
  150.7600  138.2643  158.1756 C   0  0  0  0  0  0  0  0  0  0  0  0
  151.2003  138.5631  156.9391 C   0  0  0  0  0  0  0  0  0  0  0  0
  151.7893  139.8927  156.6506 C   0  0  0  0  0  0  0  0  0  0  0  0
  152.3455  140.1203  155.5753 O   0  0  0  0  0  0  0  0  0  0  0  0
  151.7139  140.9508  157.7003 C   0  0  0  0  0  0  0  0  0  0  0  0
  152.5135  140.7924  158.8551 C   0  0  0  0  0  0  0  0  0  0  0  0
  152.4834  141.7490  159.8873 C   0  0  0  0  0  0  0  0  0  0  0  0
  153.2501  141.5790  160.9902 F   0  0  0  0  0  0  0  0  0  0  0  0
  151.6563  142.8805  159.7734 C   0  0  0  0  0  0  0  0  0  0  0  0
  150.8659  143.0580  158.6231 C   0  0  0  0  0  0  0  0  0  0  0  0
  150.8920  142.1053  157.5841 C   0  0  0  0  0  0  0  0  0  0  0  0
  150.1351  142.3470  156.4712 O   0  0  0  0  0  0  0  0  0  0  0  0
  151.0626  137.5497  155.9116 C   0  0  0  0  0  0  0  0  0  0  0  0
  150.5172  136.3525  156.2034 C   0  0  0  0  0  0  0  0  0  0  0  0
  150.3724  135.3424  155.2081 C   0  0  0  0  0  0  0  0  0  0  0  0
  150.2682  134.5375  154.3830 N   0  0  0  0  0  0  0  0  0  0  0  0
  150.0423  136.0247  157.5550 C   0  0  0  0  0  0  0  0  0  0  0  0
  149.5341  134.9378  157.8356 O   0  0  0  0  0  0  0  0  0  0  0  0
  146.4253  135.9915  162.6513 H   0  0  0  0  0  0  0  0  0  0  0  0
  146.9600  134.7599  161.5079 H   0  0  0  0  0  0  0  0  0  0  0  0
  145.8711  136.0551  160.9778 H   0  0  0  0  0  0  0  0  0  0  0  0
  148.0999  135.4351  159.6401 H   0  0  0  0  0  0  0  0  0  0  0  0
  147.7001  137.1171  159.3027 H   0  0  0  0  0  0  0  0  0  0  0  0
  149.9698  137.6994  160.4712 H   0  0  0  0  0  0  0  0  0  0  0  0
  150.3568  136.0169  160.3507 H   0  0  0  0  0  0  0  0  0  0  0  0
  150.8109  138.9551  159.0057 H   0  0  0  0  0  0  0  0  0  0  0  0
  153.1517  139.9268  158.9625 H   0  0  0  0  0  0  0  0  0  0  0  0
  151.6325  143.6154  160.5646 H   0  0  0  0  0  0  0  0  0  0  0  0
  150.2435  143.9368  158.5369 H   0  0  0  0  0  0  0  0  0  0  0  0
  149.8466  143.2447  156.4060 H   0  0  0  0  0  0  0  0  0  0  0  0
  151.3907  137.7466  154.9009 H   0  0  0  0  0  0  0  0  0  0  0  0
  1  2  1  0  0  0  0
  1 24  1  0  0  0  0
  1 25  1  0  0  0  0
  1 26  1  0  0  0  0
  2  3  1  0  0  0  0
  3  4  1  0  0  0  0
  3 27  1  0  0  0  0
  3 28  1  0  0  0  0
  4  5  1  0  0  0  0
  4 29  1  0  0  0  0
  4 30  1  0  0  0  0
  5 22  1  0  0  0  0
  5  6  1  0  0  0  0
  6  7  2  0  0  0  0
  6 31  1  0  0  0  0
  7  8  1  0  0  0  0
  7 18  1  0  0  0  0
  8  9  2  0  0  0  0
  8 10  1  0  0  0  0
 10 16  1  0  0  0  0
 10 11  2  0  0  0  0
 11 12  1  0  0  0  0
 11 32  1  0  0  0  0
 12 13  1  0  0  0  0
 12 14  2  0  0  0  0
 14 15  1  0  0  0  0
 14 33  1  0  0  0  0
 15 16  2  0  0  0  0
 15 34  1  0  0  0  0
 16 17  1  0  0  0  0
 17 35  1  0  0  0  0
 18 19  2  0  0  0  0
 18 36  1  0  0  0  0
 19 20  1  0  0  0  0
 19 22  1  0  0  0  0
 20 21  3  0  0  0  0
 22 23  2  0  0  0  0
M  END
> <s_m_source_file>
AV-unprocessed.smi

> <i_m_source_file_index>
2941

> <i_lp_mmshare_version>
43012

> <i_f3d_flags>
0

> <s_epik_input>
W0NIM11PW0NIMl1bQ0gyXW4xW2NIXWMoW2NIXWMoQyNOKWMxPU8pQyg9TyljMltjSF1jKEYpW2NIXVtjSF1jMltPSF0=

> <s_epik_cmdline>
J2VwaWtfcHl0aG9uJywgJy1waCcsICc3LjAnLCAnLXRuJywgJzgnLCAnLW1hJywgJzIwMCcsICctbWV0YWxfYmluZGluZycsICctaW1hZScsICc8aW5maWxlLm1hZT4nLCAnLW9tYWUnLCAnPG91dGZpbGUubWFlPic=

> <r_epik_Ionization_Penalty>
0.27579

> <r_epik_Ionization_Penalty_Charging>
5.62591e-11

> <r_epik_Ionization_Penalty_Neutral>
0.27579

> <r_epik_State_Penalty>
0.26814

> <r_epik_Charging_Adjusted_Penalty>
0.26814

> <i_epik_Tot_Q>
0

> <i_epik_Tot_abs_Q>
0

> <r_epik_Metal_State_Penalty>
0.26814

> <b_epik_Metal_Only>
0

> <s_lp_Force_Field>
OPLS_2005

> <r_lp_Energy>
22.041

> <b_lp_Chiralities_Consistent>
1

> <s_lp_Variant>
AV-unprocessed.smi:2941-1

> <Gold.Version>
5.8.1

> <Gold.Id.Protein>
6NUR|6NUR_protein|mol2

> <Gold.PLP.Fitness>
50.5932

> <Gold.PLP.PLP>
-36.9876

> <Gold.PLP.part.hbond>
-6.0000

> <Gold.PLP.part.metal>
0.0000

> <Gold.PLP.part.buried>
-2.0893

> <Gold.PLP.part.nonpolar>
-29.1832

> <Gold.PLP.part.repulsive>
0.1603

> <Gold.PLP.ligand.clash>
0.0000

> <Gold.PLP.ligand.torsion>
1.5857

> <Gold.PLP.Chemscore.Hbond>
5.0174

> <Gold.PLP.Chemscore.CHOScore>
0.0000

> <Gold.PLP.Chemscore.Metal>
0.0000

> <Gold.Chemscore.Hbonds>
donor molecule, donor type, donor heavy atom, donor atom, acceptor molecule, acceptor atom, score
      L1  H    17    35       P1  8028  1.00
      P1  H  6896  6908       L1    23  0.99
      P1  H  6931  6943       L1     2  0.83
      P1  H  7989  7998       L1     9  0.21
      P1  H  7997  8008       L1     9  0.84

> <Gold.PLP.Chemscore.Internal.Correction>
1.7248

> <Gold.Rescore>
     Score         DG    S(hbond)    S(metal)    S(lipo)     H(rot)  DE(clash)    DE(int)     intcor
     16.20     -19.87       2.80        0.00      87.61       2.04       0.85       2.82       ----

> <Gold.Chemscore.Fitness>
16.1995

> <Gold.Chemscore.DG>
-19.8682

> <Gold.Chemscore.ZeroCoef>
-5.4800

> <Gold.Chemscore.Hbond>
2.7987

> <Gold.Chemscore.Metal>
0.0000

> <Gold.Chemscore.Lipo>
87.6099

> <Gold.Chemscore.Internal_Hbond>
0.0000

> <Gold.Chemscore.DEClash>
0.8520

> <Gold.Chemscore.DEInternal>
2.8167

> <Gold.Chemscore.Rot>
2.0351

> <Gold.Chemscore.Internal.Correction>
   9.000000E+99

> <Gold.Chemscore.Hbonds>
donor molecule, donor type, donor heavy atom, donor atom, acceptor molecule, acceptor atom, score
      L1  H    17    35       P1  8028  0.98
      P1  H  6896  6908       L1    23  0.31
      P1  H  6931  6943       L1     2  0.24
      P1  H  7989  7998       L1     9  0.21
      P1  H  7997  8008       L1     9  0.41

> <Gold.Chemscore.Hbond.Weighted>
-9.3478

> <Gold.Chemscore.Metal.Weighted>
-0.0000

> <Gold.Chemscore.Lipo.Weighted>
-10.2504

> <Gold.Chemscore.Internal_Hbond.Weighted>
0.0000

> <Gold.Chemscore.DEClash.Weighted>
0.8520

> <Gold.Chemscore.DEInternal.Weighted>
2.8167

> <Gold.Chemscore.Rot.Weighted>
5.2099

> <Gold.Chemscore.Internal.Correction.Weighted>
   9.000000E+99

> <Gold.Protein.RotatedTorsions>
[ 6907 6896 6895 6894 ] final  156.06 input  -60.11 | X-H torsion
[ 7974 7965 7964 7962 ] final  -95.64 input  175.53 | X-H torsion
[ 8008 7997 7996 7995 ] final  -24.55 input   59.86 | X-H torsion
[ 10167 10162 10161 10158 ] final -138.04 input  -65.29 | X-H torsion
[ 10718 10713 10712 10709 ] final -152.87 input   66.30 | X-H torsion
[ 10763 10752 10751 10750 ] final  109.58 input  -60.55 | X-H torsion
[ 11005 11000 10999 10996 ] final  107.56 input  -57.11 | X-H torsion

> <Gold.Protein.ActiveResidues>
 VAL166  LYS551  ARG553  GLY616  TRP617  ASP618  TYR619  PRO620  LYS621  CYS622 
 ASP623  PHE694  ASN695  SER759  ASP760  ASP761  ALA762  ILE779  LEU786  VAL792 
 PHE793  MET794  SER795  GLU796  ALA797  LYS798  CYS799  TRP800  GLU811  SER814 

> <Gold.Protein.RotatedAtoms>
  152.0352  133.3954  159.4313 H   0  0  0  0  0  0  0  0  0  0  0  0  # atno 6907 bound_to 6896
  150.6879  134.3476  159.4904 H   0  0  0  0  0  0  0  0  0  0  0  0  # atno 6908 bound_to 6896
  152.1268  134.9164  160.0611 H   0  0  0  0  0  0  0  0  0  0  0  0  # atno 6909 bound_to 6896
  145.3574  140.9486  143.2520 H   0  0  0  0  0  0  0  0  0  0  0  0  # atno 7974 bound_to 7965
  154.4523  140.1950  156.0481 H   0  0  0  0  0  0  0  0  0  0  0  0  # atno 8008 bound_to 7997
  156.0674  140.3289  155.7507 H   0  0  0  0  0  0  0  0  0  0  0  0  # atno 8009 bound_to 7997
  155.5316  140.0578  157.2878 H   0  0  0  0  0  0  0  0  0  0  0  0  # atno 8010 bound_to 7997
  139.8517  143.7189  152.2657 H   0  0  0  0  0  0  0  0  0  0  0  0  # atno 10167 bound_to 10162
  156.4782  130.8290  151.2518 H   0  0  0  0  0  0  0  0  0  0  0  0  # atno 10718 bound_to 10713
  153.4367  135.3775  155.2203 H   0  0  0  0  0  0  0  0  0  0  0  0  # atno 10763 bound_to 10752
  154.8752  135.3853  154.4202 H   0  0  0  0  0  0  0  0  0  0  0  0  # atno 10764 bound_to 10752
  153.4742  135.7087  153.6039 H   0  0  0  0  0  0  0  0  0  0  0  0  # atno 10765 bound_to 10752
  139.8830  134.9404  156.5838 H   0  0  0  0  0  0  0  0  0  0  0  0  # atno 11005 bound_to 11000
  144.8672  139.5090  143.6784 LP  0  0  0  0  0  0  0  0  0  0  0  0  # atno 17320 bound_to 7965
  146.2942  139.7228  142.9139 LP  0  0  0  0  0  0  0  0  0  0  0  0  # atno 17321 bound_to 7965
  139.7458  144.7547  151.0581 LP  0  0  0  0  0  0  0  0  0  0  0  0  # atno 17342 bound_to 10162
  140.7786  143.4918  150.9884 LP  0  0  0  0  0  0  0  0  0  0  0  0  # atno 17343 bound_to 10162
  157.7485  131.0054  150.3111 LP  0  0  0  0  0  0  0  0  0  0  0  0  # atno 17370 bound_to 10713
  156.3548  130.3837  149.7299 LP  0  0  0  0  0  0  0  0  0  0  0  0  # atno 17371 bound_to 10713
  140.8007  133.8508  155.8724 LP  0  0  0  0  0  0  0  0  0  0  0  0  # atno 17394 bound_to 11000
  140.9595  134.1674  157.4665 LP  0  0  0  0  0  0  0  0  0  0  0  0  # atno 17395 bound_to 11000

$$$$
