AV-unprocessed.smi:1703|AV-procd|sdf|6868|dock4
  -GOLD-   22720 8 63D 1   1.00000     0.00000
 Structure written by MMmdl.
 49 51  0  0  0  0  0  0  0  0  2 V2000
  148.0983  134.0079  156.0583 C   0  0  0  0  0  0  0  0  0  0  0  0
  148.5234  135.3622  156.6353 C   0  0  2  0  0  0  0  0  0  0  0  0
  149.9722  135.7281  156.2584 C   0  0  0  0  0  0  0  0  0  0  0  0
  150.3964  136.9882  156.8621 N   0  0  0  0  0  0  0  0  0  0  0  0
  151.7713  137.3188  156.4753 C   0  0  0  0  0  0  0  0  0  0  0  0
  152.0965  138.8229  156.3337 C   0  0  2  0  0  0  0  0  0  0  0  0
  153.4675  138.9110  155.9973 O   0  0  0  0  0  0  0  0  0  0  0  0
  151.8408  139.6828  157.5918 C   0  0  0  0  0  0  0  0  0  0  0  0
  151.3871  141.0481  157.2812 N   0  0  0  0  0  0  0  0  0  0  0  0
  150.5740  141.5057  156.2857 C   0  0  0  0  0  0  0  0  0  0  0  0
  149.9145  140.6806  155.2265 C   0  0  0  0  0  0  0  0  0  0  0  0
  149.4181  141.4473  154.1494 O   0  0  0  0  0  0  0  0  0  0  0  0
  150.4740  142.8574  156.4406 N   0  3  0  0  0  0  0  0  0  0  0  0
  151.2294  143.2667  157.5400 C   0  0  0  0  0  0  0  0  0  0  0  0
  151.4362  144.5295  158.0866 C   0  0  0  0  0  0  0  0  0  0  0  0
  152.2722  144.5991  159.2207 C   0  0  0  0  0  0  0  0  0  0  0  0
  152.8665  143.4428  159.7672 C   0  0  0  0  0  0  0  0  0  0  0  0
  152.6499  142.1679  159.2039 C   0  0  0  0  0  0  0  0  0  0  0  0
  151.8209  142.1087  158.0840 C   0  0  0  0  0  0  0  0  0  0  0  0
  150.2319  136.8692  158.3106 C   0  0  0  0  0  0  0  0  0  0  0  0
  148.7851  136.5120  158.7016 C   0  0  2  0  0  0  0  0  0  0  0  0
  148.6248  136.3189  160.2132 C   0  0  0  0  0  0  0  0  0  0  0  0
  148.4143  135.2988  158.0540 O   0  0  0  0  0  0  0  0  0  0  0  0
  148.1560  134.0100  154.9697 H   0  0  0  0  0  0  0  0  0  0  0  0
  147.0709  133.7717  156.3364 H   0  0  0  0  0  0  0  0  0  0  0  0
  148.7365  133.2043  156.4268 H   0  0  0  0  0  0  0  0  0  0  0  0
  147.8437  136.1307  156.2625 H   0  0  0  0  0  0  0  0  0  0  0  0
  150.6438  134.9254  156.5682 H   0  0  0  0  0  0  0  0  0  0  0  0
  150.0489  135.7954  155.1723 H   0  0  0  0  0  0  0  0  0  0  0  0
  152.4829  136.8321  157.1443 H   0  0  0  0  0  0  0  0  0  0  0  0
  151.9600  136.8790  155.4943 H   0  0  0  0  0  0  0  0  0  0  0  0
  151.5359  139.2293  155.4916 H   0  0  0  0  0  0  0  0  0  0  0  0
  153.7287  138.0979  155.5928 H   0  0  0  0  0  0  0  0  0  0  0  0
  151.0823  139.2336  158.2299 H   0  0  0  0  0  0  0  0  0  0  0  0
  152.7502  139.7626  158.1883 H   0  0  0  0  0  0  0  0  0  0  0  0
  150.6307  139.9538  154.8422 H   0  0  0  0  0  0  0  0  0  0  0  0
  149.0902  140.1214  155.6696 H   0  0  0  0  0  0  0  0  0  0  0  0
  148.5230  141.6859  154.3386 H   0  0  0  0  0  0  0  0  0  0  0  0
  150.9830  145.4169  157.6694 H   0  0  0  0  0  0  0  0  0  0  0  0
  152.4619  145.5583  159.6803 H   0  0  0  0  0  0  0  0  0  0  0  0
  153.5016  143.5353  160.6364 H   0  0  0  0  0  0  0  0  0  0  0  0
  153.1093  141.2881  159.6298 H   0  0  0  0  0  0  0  0  0  0  0  0
  150.9076  136.1035  158.6949 H   0  0  0  0  0  0  0  0  0  0  0  0
  150.5041  137.7920  158.8123 H   0  0  0  0  0  0  0  0  0  0  0  0
  148.1122  137.3075  158.3765 H   0  0  0  0  0  0  0  0  0  0  0  0
  148.8931  137.2258  160.7555 H   0  0  0  0  0  0  0  0  0  0  0  0
  149.2594  135.5102  160.5771 H   0  0  0  0  0  0  0  0  0  0  0  0
  147.5935  136.0725  160.4668 H   0  0  0  0  0  0  0  0  0  0  0  0
  149.9253  143.4514  155.8318 H   0  0  0  0  0  0  0  0  0  0  0  0
  1  2  1  0  0  0  0
  1 24  1  0  0  0  0
  1 25  1  0  0  0  0
  1 26  1  0  0  0  0
  2 23  1  0  0  0  0
  2  3  1  0  0  0  0
  2 27  1  0  0  0  0
  3  4  1  0  0  0  0
  3 28  1  0  0  0  0
  3 29  1  0  0  0  0
  4  5  1  0  0  0  0
  4 20  1  0  0  0  0
  5  6  1  0  0  0  0
  5 30  1  0  0  0  0
  5 31  1  0  0  0  0
  6  7  1  0  0  0  0
  6  8  1  0  0  0  0
  6 32  1  0  0  0  0
  7 33  1  0  0  0  0
  8  9  1  0  0  0  0
  8 34  1  0  0  0  0
  8 35  1  0  0  0  0
  9 19  1  0  0  0  0
  9 10  1  0  0  0  0
 10 11  1  0  0  0  0
 10 13  2  0  0  0  0
 11 12  1  0  0  0  0
 11 36  1  0  0  0  0
 11 37  1  0  0  0  0
 12 38  1  0  0  0  0
 13 14  1  0  0  0  0
 13 49  1  0  0  0  0
 14 19  2  0  0  0  0
 14 15  1  0  0  0  0
 15 16  2  0  0  0  0
 15 39  1  0  0  0  0
 16 17  1  0  0  0  0
 16 40  1  0  0  0  0
 17 18  2  0  0  0  0
 17 41  1  0  0  0  0
 18 19  1  0  0  0  0
 18 42  1  0  0  0  0
 20 21  1  0  0  0  0
 20 43  1  0  0  0  0
 20 44  1  0  0  0  0
 21 22  1  0  0  0  0
 21 23  1  0  0  0  0
 21 45  1  0  0  0  0
 22 46  1  0  0  0  0
 22 47  1  0  0  0  0
 22 48  1  0  0  0  0
M  CHG  1  13   1
M  END
> <s_m_source_file>
AV-unprocessed.smi

> <i_m_source_file_index>
1703

> <i_lp_mmshare_version>
43012

> <i_f3d_flags>
0

> <s_epik_input>
W0NIM11bQ0BASF0xW0NIMl1OKFtDSDJdW0NASF0oTzEpW0NIM10pW0NIMl1bQ0BIXShbT0hdKVtDSDJdbihjKG4yKVtDSDJdW09IXSljKGMyMylbY0hdW2NIXVtjSF1bY0hdMw==

> <s_epik_cmdline>
J2VwaWtfcHl0aG9uJywgJy1waCcsICc3LjAnLCAnLXRuJywgJzgnLCAnLW1hJywgJzIwMCcsICctbWV0YWxfYmluZGluZycsICctaW1hZScsICc8aW5maWxlLm1hZT4nLCAnLW9tYWUnLCAnPG91dGZpbGUubWFlPic=

> <r_epik_Ionization_Penalty>
1.7682

> <r_epik_Ionization_Penalty_Charging>
1.55298

> <r_epik_Ionization_Penalty_Neutral>
0.215215

> <r_epik_State_Penalty>
1.83821

> <r_epik_Charging_Adjusted_Penalty>
3.39119

> <i_epik_Tot_Q>
1

> <i_epik_Tot_abs_Q>
1

> <r_epik_Metal_State_Penalty>
5.89206

> <b_epik_Metal_Only>
0

> <s_lp_Force_Field>
OPLS_2005

> <r_lp_Energy>
30.4523

> <b_lp_Chiralities_Consistent>
1

> <s_lp_Variant>
AV-unprocessed.smi:1703-16

> <Gold.Version>
5.8.1

> <Gold.Id.Protein>
6NUR|6NUR_protein|mol2

> <Gold.PLP.Fitness>
50.3449

> <Gold.PLP.PLP>
-42.4644

> <Gold.PLP.part.hbond>
-3.8145

> <Gold.PLP.part.metal>
0.0000

> <Gold.PLP.part.buried>
-5.0758

> <Gold.PLP.part.nonpolar>
-33.5843

> <Gold.PLP.part.repulsive>
0.0838

> <Gold.PLP.ligand.clash>
0.0000

> <Gold.PLP.ligand.torsion>
1.4003

> <Gold.PLP.Chemscore.Hbond>
3.5360

> <Gold.PLP.Chemscore.CHOScore>
0.0000

> <Gold.PLP.Chemscore.Metal>
0.0000

> <Gold.Chemscore.Hbonds>
donor molecule, donor type, donor heavy atom, donor atom, acceptor molecule, acceptor atom, score
      L1  H    13    49       P1  8028  1.95
      P1  H  7997  8008       L1     7  0.94
      P1  H  8011  8017       L1    12  0.55

> <Gold.PLP.Chemscore.Internal.Correction>
0.0731

> <Gold.Rescore>
     Score         DG    S(hbond)    S(metal)    S(lipo)     H(rot)  DE(clash)    DE(int)     intcor
     17.15     -18.63       2.20        0.00     114.21       2.96       0.15       1.32       ----

> <Gold.Chemscore.Fitness>
17.1531

> <Gold.Chemscore.DG>
-18.6299

> <Gold.Chemscore.ZeroCoef>
-5.4800

> <Gold.Chemscore.Hbond>
2.2015

> <Gold.Chemscore.Metal>
0.0000

> <Gold.Chemscore.Lipo>
114.2142

> <Gold.Chemscore.Internal_Hbond>
0.0000

> <Gold.Chemscore.DEClash>
0.1521

> <Gold.Chemscore.DEInternal>
1.3247

> <Gold.Chemscore.Rot>
2.9555

> <Gold.Chemscore.Internal.Correction>
   9.000000E+99

> <Gold.Chemscore.Hbonds>
donor molecule, donor type, donor heavy atom, donor atom, acceptor molecule, acceptor atom, score
      L1  H    13    49       P1  8028  0.93
      P1  H  7997  8008       L1     7  0.84
      P1  H  8011  8017       L1    12  0.22

> <Gold.Chemscore.Hbond.Weighted>
-7.3529

> <Gold.Chemscore.Metal.Weighted>
-0.0000

> <Gold.Chemscore.Lipo.Weighted>
-13.3631

> <Gold.Chemscore.Internal_Hbond.Weighted>
0.0000

> <Gold.Chemscore.DEClash.Weighted>
0.1521

> <Gold.Chemscore.DEInternal.Weighted>
1.3247

> <Gold.Chemscore.Rot.Weighted>
7.5660

> <Gold.Chemscore.Internal.Correction.Weighted>
   9.000000E+99

> <Gold.Protein.RotatedTorsions>
[ 6907 6896 6895 6894 ] final   65.50 input  -60.11 | X-H torsion
[ 7974 7965 7964 7962 ] final   23.22 input  175.53 | X-H torsion
[ 8008 7997 7996 7995 ] final  -46.72 input   59.86 | X-H torsion
[ 10167 10162 10161 10158 ] final  -24.19 input  -65.29 | X-H torsion
[ 10718 10713 10712 10709 ] final  -47.61 input   66.30 | X-H torsion
[ 10763 10752 10751 10750 ] final  -76.67 input  -60.55 | X-H torsion
[ 11005 11000 10999 10996 ] final -115.43 input  -57.11 | X-H torsion

> <Gold.Protein.ActiveResidues>
 VAL166  LYS551  ARG553  GLY616  TRP617  ASP618  TYR619  PRO620  LYS621  CYS622 
 ASP623  PHE694  ASN695  SER759  ASP760  ASP761  ALA762  ILE779  LEU786  VAL792 
 PHE793  MET794  SER795  GLU796  ALA797  LYS798  CYS799  TRP800  GLU811  SER814 

> <Gold.Protein.RotatedAtoms>
  152.4412  134.5586  159.9887 H   0  0  0  0  0  0  0  0  0  0  0  0  # atno 6907 bound_to 6896
  151.5683  133.3387  159.2992 H   0  0  0  0  0  0  0  0  0  0  0  0  # atno 6908 bound_to 6896
  150.8319  134.7609  159.6924 H   0  0  0  0  0  0  0  0  0  0  0  0  # atno 6909 bound_to 6896
  146.1994  139.7775  142.8773 H   0  0  0  0  0  0  0  0  0  0  0  0  # atno 7974 bound_to 7965
  154.4010  140.1364  156.4058 H   0  0  0  0  0  0  0  0  0  0  0  0  # atno 8008 bound_to 7997
  155.7781  140.3482  155.5262 H   0  0  0  0  0  0  0  0  0  0  0  0  # atno 8009 bound_to 7997
  155.8701  140.0970  157.1546 H   0  0  0  0  0  0  0  0  0  0  0  0  # atno 8010 bound_to 7997
  140.7288  143.4375  151.0707 H   0  0  0  0  0  0  0  0  0  0  0  0  # atno 10167 bound_to 10162
  156.2067  130.4158  149.9168 H   0  0  0  0  0  0  0  0  0  0  0  0  # atno 10718 bound_to 10713
  154.5029  135.5790  153.6545 H   0  0  0  0  0  0  0  0  0  0  0  0  # atno 10763 bound_to 10752
  152.9882  135.6140  154.2979 H   0  0  0  0  0  0  0  0  0  0  0  0  # atno 10764 bound_to 10752
  154.2887  135.2849  155.2644 H   0  0  0  0  0  0  0  0  0  0  0  0  # atno 10765 bound_to 10752
  141.0488  133.9720  157.2872 H   0  0  0  0  0  0  0  0  0  0  0  0  # atno 11005 bound_to 11000
  145.3535  141.0312  143.3325 LP  0  0  0  0  0  0  0  0  0  0  0  0  # atno 17320 bound_to 7965
  144.8650  139.5121  143.6794 LP  0  0  0  0  0  0  0  0  0  0  0  0  # atno 17321 bound_to 7965
  139.8039  143.8046  152.3165 LP  0  0  0  0  0  0  0  0  0  0  0  0  # atno 17342 bound_to 10162
  139.8072  144.7350  150.9746 LP  0  0  0  0  0  0  0  0  0  0  0  0  # atno 17343 bound_to 10162
  156.6860  130.8877  151.3582 LP  0  0  0  0  0  0  0  0  0  0  0  0  # atno 17370 bound_to 10713
  157.7016  130.9339  150.0803 LP  0  0  0  0  0  0  0  0  0  0  0  0  # atno 17371 bound_to 10713
  139.9333  135.0198  156.8474 LP  0  0  0  0  0  0  0  0  0  0  0  0  # atno 17394 bound_to 11000
  140.6095  134.0096  155.7571 LP  0  0  0  0  0  0  0  0  0  0  0  0  # atno 17395 bound_to 11000

$$$$
