AV-unprocessed.smi:1843|AV-procd|sdf|7506|dock5
  -GOLD-   22720 9213D 1   1.00000     0.00000
 Structure written by MMmdl.
 36 38  0  0  0  0  0  0  0  0  2 V2000
  150.8369  140.6348  155.3306 O   0  0  0  0  0  0  0  0  0  0  0  0
  150.0190  141.5576  155.3212 C   0  0  0  0  0  0  0  0  0  0  0  0
  148.9162  141.6427  154.5428 N   0  5  0  0  0  0  0  0  0  0  0  0
  147.7297  141.9532  155.0907 C   0  0  0  0  0  0  0  0  0  0  0  0
  147.5016  141.8636  156.4086 N   0  0  0  0  0  0  0  0  0  0  0  0
  146.2131  142.2346  156.7644 N   0  0  0  0  0  0  0  0  0  0  0  0
  145.4874  142.6109  155.7089 C   0  0  0  0  0  0  0  0  0  0  0  0
  144.0689  143.0572  155.8325 C   0  0  0  0  0  0  0  0  0  0  0  0
  143.5662  144.3027  155.1358 C   0  0  0  0  0  0  0  0  0  0  0  0
  143.7126  144.2870  156.6359 C   0  0  0  0  0  0  0  0  0  0  0  0
  146.3400  142.5356  154.1750 S   0  0  0  0  0  0  0  0  0  0  0  0
  150.1868  142.6103  156.1344 N   0  0  0  0  0  0  0  0  0  0  0  0
  151.2895  142.8080  157.0737 C   0  0  2  0  0  0  0  0  0  0  0  0
  151.4215  141.5920  158.0109 C   0  0  0  0  0  0  0  0  0  0  0  0
  152.5819  141.7771  159.0016 C   0  0  0  0  0  0  0  0  0  0  0  0
  152.4261  143.0756  159.8090 C   0  0  0  0  0  0  0  0  0  0  0  0
  152.2806  144.2995  158.8861 C   0  0  0  0  0  0  0  0  0  0  0  0
  151.1366  144.1292  157.8675 C   0  0  2  0  0  0  0  0  0  0  0  0
  149.8978  144.1663  158.5524 O   0  0  0  0  0  0  0  0  0  0  0  0
  143.4003  142.2003  155.8857 H   0  0  0  0  0  0  0  0  0  0  0  0
  144.2792  144.9023  154.5735 H   0  0  0  0  0  0  0  0  0  0  0  0
  142.5575  144.2759  154.7289 H   0  0  0  0  0  0  0  0  0  0  0  0
  142.8023  144.2514  157.2305 H   0  0  0  0  0  0  0  0  0  0  0  0
  144.5284  144.8654  157.0648 H   0  0  0  0  0  0  0  0  0  0  0  0
  149.4900  143.3394  156.0939 H   0  0  0  0  0  0  0  0  0  0  0  0
  152.2137  142.8674  156.4957 H   0  0  0  0  0  0  0  0  0  0  0  0
  150.4920  141.4403  158.5612 H   0  0  0  0  0  0  0  0  0  0  0  0
  151.5829  140.6864  157.4249 H   0  0  0  0  0  0  0  0  0  0  0  0
  152.6328  140.9230  159.6773 H   0  0  0  0  0  0  0  0  0  0  0  0
  153.5268  141.7970  158.4571 H   0  0  0  0  0  0  0  0  0  0  0  0
  151.5526  142.9983  160.4577 H   0  0  0  0  0  0  0  0  0  0  0  0
  153.2850  143.2089  160.4671 H   0  0  0  0  0  0  0  0  0  0  0  0
  152.1263  145.2007  159.4806 H   0  0  0  0  0  0  0  0  0  0  0  0
  153.2168  144.4488  158.3467 H   0  0  0  0  0  0  0  0  0  0  0  0
  151.1504  144.9752  157.1796 H   0  0  0  0  0  0  0  0  0  0  0  0
  149.2664  144.5952  157.9941 H   0  0  0  0  0  0  0  0  0  0  0  0
  1  2  2  0  0  0  0
  2  3  1  0  0  0  0
  2 12  1  0  0  0  0
  3  4  1  0  0  0  0
  4 11  1  0  0  0  0
  4  5  2  0  0  0  0
  5  6  1  0  0  0  0
  6  7  2  0  0  0  0
  7  8  1  0  0  0  0
  7 11  1  0  0  0  0
  8 10  1  0  0  0  0
  8  9  1  0  0  0  0
  8 20  1  0  0  0  0
  9 10  1  0  0  0  0
  9 21  1  0  0  0  0
  9 22  1  0  0  0  0
 10 23  1  0  0  0  0
 10 24  1  0  0  0  0
 12 13  1  0  0  0  0
 12 25  1  0  0  0  0
 13 18  1  0  0  0  0
 13 14  1  0  0  0  0
 13 26  1  0  0  0  0
 14 15  1  0  0  0  0
 14 27  1  0  0  0  0
 14 28  1  0  0  0  0
 15 16  1  0  0  0  0
 15 29  1  0  0  0  0
 15 30  1  0  0  0  0
 16 17  1  0  0  0  0
 16 31  1  0  0  0  0
 16 32  1  0  0  0  0
 17 18  1  0  0  0  0
 17 33  1  0  0  0  0
 17 34  1  0  0  0  0
 18 19  1  0  0  0  0
 18 35  1  0  0  0  0
 19 36  1  0  0  0  0
M  CHG  1   3  -1
M  END
> <s_m_source_file>
AV-unprocessed.smi

> <i_m_source_file_index>
1843

> <i_lp_mmshare_version>
43012

> <i_f3d_flags>
0

> <s_epik_input>
W09IXVtDQEBIXTFbQ0gyXVtDSDJdW0NIMl1bQ0gyXVtDQEhdMVtOSF1DKD1PKVtOSF1jMm5uYyhzMilbQ0hdM1tDSDJdW0NIMl0z

> <s_epik_cmdline>
J2VwaWtfcHl0aG9uJywgJy1waCcsICc3LjAnLCAnLXRuJywgJzgnLCAnLW1hJywgJzIwMCcsICctbWV0YWxfYmluZGluZycsICctaW1hZScsICc8aW5maWxlLm1hZT4nLCAnLW9tYWUnLCAnPG91dGZpbGUubWFlPic=

> <r_lp_tautomer_probability>
1

> <r_epik_Ionization_Penalty>
4.7996

> <r_epik_Ionization_Penalty_Charging>
4.64516

> <r_epik_Ionization_Penalty_Neutral>
0.154442

> <r_epik_State_Penalty>
4.64493

> <r_epik_Charging_Adjusted_Penalty>
9.29009

> <i_epik_Tot_Q>
-1

> <i_epik_Tot_abs_Q>
1

> <r_epik_Metal_State_Penalty>
0.896144

> <b_epik_Metal_Only>
1

> <s_lp_Force_Field>
OPLS_2005

> <r_lp_Energy>
9.09011

> <b_lp_Chiralities_Consistent>
1

> <s_lp_Variant>
AV-unprocessed.smi:1843-7

> <Gold.Version>
5.8.1

> <Gold.Id.Protein>
6NUR|6NUR_protein|mol2

> <Gold.PLP.Fitness>
42.6056

> <Gold.PLP.PLP>
-36.1631

> <Gold.PLP.part.hbond>
-4.4657

> <Gold.PLP.part.metal>
0.0000

> <Gold.PLP.part.buried>
-3.4758

> <Gold.PLP.part.nonpolar>
-29.7407

> <Gold.PLP.part.repulsive>
0.6077

> <Gold.PLP.ligand.clash>
0.0281

> <Gold.PLP.ligand.torsion>
0.6790

> <Gold.PLP.Chemscore.Hbond>
2.5512

> <Gold.PLP.Chemscore.CHOScore>
0.0000

> <Gold.PLP.Chemscore.Metal>
0.0000

> <Gold.Chemscore.Hbonds>
donor molecule, donor type, donor heavy atom, donor atom, acceptor molecule, acceptor atom, score
      L1  H    12    25       P1  8028  1.00
      L1  H    19    36       P1  8029  0.72
      P1  H  7989  7998       L1     1  0.87

> <Gold.PLP.Chemscore.Internal.Correction>
0.1749

> <Gold.Rescore>
     Score         DG    S(hbond)    S(metal)    S(lipo)     H(rot)  DE(clash)    DE(int)     intcor
     14.44     -16.73       1.67        0.00      86.15       1.72       0.43       1.86       ----

> <Gold.Chemscore.Fitness>
14.4428

> <Gold.Chemscore.DG>
-16.7339

> <Gold.Chemscore.ZeroCoef>
-5.4800

> <Gold.Chemscore.Hbond>
1.6670

> <Gold.Chemscore.Metal>
0.0000

> <Gold.Chemscore.Lipo>
86.1471

> <Gold.Chemscore.Internal_Hbond>
0.0000

> <Gold.Chemscore.DEClash>
0.4271

> <Gold.Chemscore.DEInternal>
1.8640

> <Gold.Chemscore.Rot>
1.7160

> <Gold.Chemscore.Internal.Correction>
   9.000000E+99

> <Gold.Chemscore.Hbonds>
donor molecule, donor type, donor heavy atom, donor atom, acceptor molecule, acceptor atom, score
      L1  H    12    25       P1  8028  0.95
      L1  H    19    36       P1  8029  0.09
      P1  H  7989  7998       L1     1  0.18

> <Gold.Chemscore.Hbond.Weighted>
-5.5677

> <Gold.Chemscore.Metal.Weighted>
-0.0000

> <Gold.Chemscore.Lipo.Weighted>
-10.0792

> <Gold.Chemscore.Internal_Hbond.Weighted>
0.0000

> <Gold.Chemscore.DEClash.Weighted>
0.4271

> <Gold.Chemscore.DEInternal.Weighted>
1.8640

> <Gold.Chemscore.Rot.Weighted>
4.3930

> <Gold.Chemscore.Internal.Correction.Weighted>
   9.000000E+99

> <Gold.Protein.RotatedTorsions>
[ 6907 6896 6895 6894 ] final  133.04 input  -60.11 | X-H torsion
[ 7974 7965 7964 7962 ] final  142.21 input  175.53 | X-H torsion
[ 8008 7997 7996 7995 ] final  108.05 input   59.86 | X-H torsion
[ 10167 10162 10161 10158 ] final   19.12 input  -65.29 | X-H torsion
[ 10718 10713 10712 10709 ] final  -74.03 input   66.30 | X-H torsion
[ 10763 10752 10751 10750 ] final  102.87 input  -60.55 | X-H torsion
[ 11005 11000 10999 10996 ] final -129.72 input  -57.11 | X-H torsion

> <Gold.Protein.ActiveResidues>
 VAL166  LYS551  ARG553  GLY616  TRP617  ASP618  TYR619  PRO620  LYS621  CYS622 
 ASP623  PHE694  ASN695  SER759  ASP760  ASP761  ALA762  ILE779  LEU786  VAL792 
 PHE793  MET794  SER795  GLU796  ALA797  LYS798  CYS799  TRP800  GLU811  SER814 

> <Gold.Protein.RotatedAtoms>
  152.3261  133.5906  159.5777 H   0  0  0  0  0  0  0  0  0  0  0  0  # atno 6907 bound_to 6896
  150.7397  133.9938  159.3625 H   0  0  0  0  0  0  0  0  0  0  0  0  # atno 6908 bound_to 6896
  151.7818  135.0760  160.0426 H   0  0  0  0  0  0  0  0  0  0  0  0  # atno 6909 bound_to 6896
  144.9028  139.5399  143.5745 H   0  0  0  0  0  0  0  0  0  0  0  0  # atno 7974 bound_to 7965
  156.1873  140.3083  155.9263 H   0  0  0  0  0  0  0  0  0  0  0  0  # atno 8008 bound_to 7997
  155.3253  140.0458  157.3058 H   0  0  0  0  0  0  0  0  0  0  0  0  # atno 8009 bound_to 7997
  154.5410  140.2261  155.8650 H   0  0  0  0  0  0  0  0  0  0  0  0  # atno 8010 bound_to 7997
  140.5602  143.9350  150.6637 H   0  0  0  0  0  0  0  0  0  0  0  0  # atno 10167 bound_to 10162
  156.0258  130.4407  150.2831 H   0  0  0  0  0  0  0  0  0  0  0  0  # atno 10718 bound_to 10713
  153.3452  135.3996  155.1603 H   0  0  0  0  0  0  0  0  0  0  0  0  # atno 10763 bound_to 10752
  154.8651  135.3643  154.5294 H   0  0  0  0  0  0  0  0  0  0  0  0  # atno 10764 bound_to 10752
  153.5741  135.7078  153.5551 H   0  0  0  0  0  0  0  0  0  0  0  0  # atno 10765 bound_to 10752
  140.9407  134.1197  157.4153 H   0  0  0  0  0  0  0  0  0  0  0  0  # atno 11005 bound_to 11000
  146.3117  139.7772  142.9014 LP  0  0  0  0  0  0  0  0  0  0  0  0  # atno 17320 bound_to 7965
  145.3587  141.0321  143.3297 LP  0  0  0  0  0  0  0  0  0  0  0  0  # atno 17321 bound_to 7965
  140.2799  143.3396  152.1160 LP  0  0  0  0  0  0  0  0  0  0  0  0  # atno 17342 bound_to 10162
  139.5067  144.6818  151.5990 LP  0  0  0  0  0  0  0  0  0  0  0  0  # atno 17343 bound_to 10162
  157.0934  131.0176  151.3113 LP  0  0  0  0  0  0  0  0  0  0  0  0  # atno 17370 bound_to 10713
  157.4836  130.7780  149.7438 LP  0  0  0  0  0  0  0  0  0  0  0  0  # atno 17371 bound_to 10713
  139.8819  135.0035  156.6194 LP  0  0  0  0  0  0  0  0  0  0  0  0  # atno 17394 bound_to 11000
  140.7738  133.8717  155.8512 LP  0  0  0  0  0  0  0  0  0  0  0  0  # atno 17395 bound_to 11000

$$$$
