#       Name:                AV-unprocessed.smi:788
#       Creating user name   scv26
#       Creation time:       Fri Mar 27 01:17:04 2020


#       File generated by GOLD software.
#

@<TRIPOS>MOLECULE
AV-unprocessed.smi:788
    39    40     1
SMALL
NO_CHARGES


@<TRIPOS>ATOM
      1 ****        -0.3607   0.8820  -2.2410 C.3            1 S1                 0.0000
      2 ****        -0.9519   0.1198  -1.0408 C.3            1 S1                 0.0000
      3 ****        -2.4916   0.1099  -1.1145 C.3            1 S1                 0.0000
      4 ****        -3.1171  -0.6496   0.0640 C.3            1 S1                 0.0000
      5 ****        -2.6430  -0.0749   1.4077 C.3            1 S1                 0.0000
      6 ****        -1.1061  -0.0593   1.5260 C.3            1 S1                 0.0000
      7 ****        -0.5314  -1.4731   1.7550 C.3            1 S1                 0.0000
      8 ****        -0.4781   0.6925   0.3203 C.3            1 S1                 0.0000
      9 ****         0.9825   0.6871   0.3934 N.am           1 S1                 0.0000
     10 ****         1.7564   1.5011   1.1376 C.2            1 S1                 0.0000
     11 ****         1.2188   2.3382   1.8613 O.2            1 S1                 0.0000
     12 ****         3.1039   1.3489   1.0467 N.pl3          1 S1                -1.0000
     13 ****         3.6763   0.4548   0.2192 C.2            1 S1                 0.0000
     14 ****         4.0330  -0.7755   0.6222 N.2            1 S1                 0.0000
     15 ****         4.5958  -1.5397  -0.3909 N.2            1 S1                 0.0000
     16 ****         4.6603  -0.8586  -1.5349 C.2            1 S1                 0.0000
     17 ****         4.0370   0.7765  -1.4791 S.3            1 S1                 0.0000
     18 ****        -0.6304   1.9380  -2.2101 H              1 S1                 0.0000
     19 ****        -0.7268   0.4729  -3.1829 H              1 S1                 0.0000
     20 ****         0.7273   0.8171  -2.2647 H              1 S1                 0.0000
     21 ****        -0.6090  -0.9126  -1.1190 H              1 S1                 0.0000
     22 ****        -2.8651   1.1348  -1.1225 H              1 S1                 0.0000
     23 ****        -2.8179  -0.3430  -2.0514 H              1 S1                 0.0000
     24 ****        -4.2042  -0.5940   0.0026 H              1 S1                 0.0000
     25 ****        -2.8612  -1.7074  -0.0014 H              1 S1                 0.0000
     26 ****        -3.0181   0.9443   1.5075 H              1 S1                 0.0000
     27 ****        -3.0812  -0.6389   2.2319 H              1 S1                 0.0000
     28 ****        -0.8688   0.5105   2.4255 H              1 S1                 0.0000
     29 ****        -0.6797  -2.1217   0.8923 H              1 S1                 0.0000
     30 ****        -1.0073  -1.9520   2.6109 H              1 S1                 0.0000
     31 ****         0.5384  -1.4414   1.9628 H              1 S1                 0.0000
     32 ****        -0.8128   1.7310   0.3623 H              1 S1                 0.0000
     33 ****         1.4553   0.0038  -0.1795 H              1 S1                 0.0000
     34 ****         5.0781  -1.3214  -2.4164 H              1 S1                 0.0000
     35 ****         0.2216   2.4069   1.8910 LP             1 S1                 0.0000
     36 ****         1.7790   2.9499   2.4199 LP             1 S1                 0.0000
     37 ****         3.6924   1.9229   1.6161 LP             1 S1                 0.0000
     38 ****         3.9061  -1.1074   1.5569 LP             1 S1                 0.0000
     39 ****         4.9125  -2.4814  -0.2770 LP             1 S1                 0.0000
@<TRIPOS>BOND
    1    1    2 1     
    2    1   18 1     
    3    1   19 1     
    4    1   20 1     
    5    2    8 1     
    6    2    3 1     
    7    2   21 1     
    8    3    4 1     
    9    3   22 1     
   10    3   23 1     
   11    4    5 1     
   12    4   24 1     
   13    4   25 1     
   14    5    6 1     
   15    5   26 1     
   16    5   27 1     
   17    6    7 1     
   18    6    8 1     
   19    6   28 1     
   20    7   29 1     
   21    7   30 1     
   22    7   31 1     
   23    8    9 1     
   24    8   32 1     
   25    9   10 am    
   26    9   33 1     
   27   10   11 2     
   28   10   12 1     
   29   12   13 1     
   30   13   17 1     
   31   13   14 2     
   32   14   15 1     
   33   15   16 2     
   34   16   17 1     
   35   16   34 1     
   36   11   35 1     
   37   11   36 1     
   38   12   37 1     
   39   14   38 1     
   40   15   39 1     
@<TRIPOS>SUBSTRUCTURE
      1 S1             1
@<TRIPOS>SET
LONE_PAIRS      STATIC     ATOMS    <user>   **** ""
5 35 36 37 38 39
DONOR_HYDROGENS      STATIC     ATOMS    <user>   **** ""
1 33
ATOM$BLUE        STATIC     ATOMS    COLORGROUP SYSTEM
5 35 36 37 38 39
ATOM$RED        STATIC     ATOMS    COLORGROUP SYSTEM
1 33
