#       Name:                AV-unprocessed.smi:1283
#       Creating user name   scv26
#       Creation time:       Fri Mar 27 04:50:15 2020


#       File generated by GOLD software.
#

@<TRIPOS>MOLECULE
AV-unprocessed.smi:1283
    35    36     1
SMALL
NO_CHARGES


@<TRIPOS>ATOM
      1 ****        -5.4527   0.0442  -0.0892 C.3            1 S1                 0.0000
      2 ****        -3.9922  -0.0525  -0.0982 N.am           1 S1                 0.0000
      3 ****        -3.3653   1.1761  -0.1032 N.2            1 S1                 0.0000
      4 ****        -2.0784   1.2334  -0.1150 C.2            1 S1                 0.0000
      5 ****        -1.2377   0.0470  -0.1228 C.2            1 S1                 0.0000
      6 ****         0.1487   0.1144  -0.1386 N.pl3          1 S1                 0.0000
      7 ****         0.9885   1.3019  -0.1499 C.3            1 S1                 0.0000
      8 ****         2.4853   0.9566  -0.1028 C.3            1 S1                 0.0000
      9 ****         2.9472   0.1654   1.1232 C.3            1 S1                 0.0000
     10 ****         4.1931  -0.5053   0.5901 C.3            1 S1                 0.0000
     11 ****         3.7755  -0.8442  -0.8386 C.3            1 S1                 0.0000
     12 ****         2.8753   0.1866  -1.2374 O.3            1 S1                 0.0000
     13 ****        -1.8799  -1.1516  -0.1146 C.2            1 S1                 0.0000
     14 ****        -0.9723  -2.6273  -0.1189 Cl             1 S1                 0.0000
     15 ****        -3.3467  -1.2568  -0.1001 C.2            1 S1                 0.0000
     16 ****        -3.9462  -2.3326  -0.0904 O.2            1 S1                 0.0000
     17 ****        -5.9634  -0.9194  -0.0874 H              1 S1                 0.0000
     18 ****        -5.7966   0.5914  -0.9679 H              1 S1                 0.0000
     19 ****        -5.7855   0.5895   0.7948 H              1 S1                 0.0000
     20 ****        -1.5567   2.1901  -0.1208 H              1 S1                 0.0000
     21 ****         0.6516  -0.7620  -0.1407 H              1 S1                 0.0000
     22 ****         0.7720   1.8800  -1.0486 H              1 S1                 0.0000
     23 ****         0.7298   1.9278   0.7049 H              1 S1                 0.0000
     24 ****         3.0587   1.8837  -0.1451 H              1 S1                 0.0000
     25 ****         3.1381   0.7978   1.9906 H              1 S1                 0.0000
     26 ****         2.2167  -0.5926   1.4083 H              1 S1                 0.0000
     27 ****         5.0251   0.2004   0.5817 H              1 S1                 0.0000
     28 ****         4.4915  -1.3810   1.1671 H              1 S1                 0.0000
     29 ****         4.6269  -0.9157  -1.5157 H              1 S1                 0.0000
     30 ****         3.2430  -1.7957  -0.8619 H              1 S1                 0.0000
     31 ****        -3.9064   2.0170  -0.0977 LP             1 S1                 0.0000
     32 ****         3.3263   0.7815  -1.9026 LP             1 S1                 0.0000
     33 ****         2.0642  -0.2244  -1.6537 LP             1 S1                 0.0000
     34 ****        -4.9460  -2.3478  -0.0807 LP             1 S1                 0.0000
     35 ****        -3.4331  -3.1910  -0.0923 LP             1 S1                 0.0000
@<TRIPOS>BOND
    1    1    2 1     
    2    1   17 1     
    3    1   18 1     
    4    1   19 1     
    5    2   15 am    
    6    2    3 1     
    7    3    4 2     
    8    4    5 1     
    9    4   20 1     
   10    5    6 1     
   11    5   13 2     
   12    6    7 1     
   13    6   21 1     
   14    7    8 1     
   15    7   22 1     
   16    7   23 1     
   17    8   12 1     
   18    8    9 1     
   19    8   24 1     
   20    9   10 1     
   21    9   25 1     
   22    9   26 1     
   23   10   11 1     
   24   10   27 1     
   25   10   28 1     
   26   11   12 1     
   27   11   29 1     
   28   11   30 1     
   29   13   14 1     
   30   13   15 1     
   31   15   16 2     
   32    3   31 1     
   33   12   32 1     
   34   12   33 1     
   35   16   34 1     
   36   16   35 1     
@<TRIPOS>SUBSTRUCTURE
      1 S1             1
@<TRIPOS>SET
LONE_PAIRS      STATIC     ATOMS    <user>   **** ""
5 31 32 33 34 35
DONOR_HYDROGENS      STATIC     ATOMS    <user>   **** ""
1 21
ATOM$BLUE        STATIC     ATOMS    COLORGROUP SYSTEM
5 31 32 33 34 35
ATOM$RED        STATIC     ATOMS    COLORGROUP SYSTEM
1 21
