AV-unprocessed.smi:2187|AV-procd|sdf|8878|dock9
  -GOLD-   2272012 73D 1   1.00000     0.00000
 Structure written by MMmdl.
 42 43  0  0  0  0  0  0  0  0  1 V2000
  151.3566  145.6851  159.7105 C   0  0  0  0  0  0  0  0  0  0  0  0
  151.9226  144.3034  159.8747 C   0  0  0  0  0  0  0  0  0  0  0  0
  152.3429  143.9178  161.0679 N   0  0  0  0  0  0  0  0  0  0  0  0
  152.7725  142.6526  160.8902 N   0  0  0  0  0  0  0  0  0  0  0  0
  153.3024  141.9192  162.0232 C   0  0  0  0  0  0  0  0  0  0  0  0
  152.6176  142.2352  159.5823 C   0  0  0  0  0  0  0  0  0  0  0  0
  153.0070  140.8646  159.1304 C   0  0  0  0  0  0  0  0  0  0  0  0
  152.0717  143.2828  158.8891 C   0  0  0  0  0  0  0  0  0  0  0  0
  151.7014  143.3508  157.4288 C   0  0  0  0  0  0  0  0  0  0  0  0
  150.6813  142.2588  157.1094 C   0  0  0  0  0  0  0  0  0  0  0  0
  150.5396  141.3050  157.8745 O   0  0  0  0  0  0  0  0  0  0  0  0
  149.9758  142.4157  155.9785 N   0  0  0  0  0  0  0  0  0  0  0  0
  148.9179  141.5283  155.4979 C   0  0  2  0  0  0  0  0  0  0  0  0
  147.9986  141.0857  156.6653 C   0  0  0  0  0  0  0  0  0  0  0  0
  147.2344  139.7605  156.4612 C   0  0  0  0  0  0  0  0  0  0  0  0
  146.4077  139.6630  155.1627 C   0  0  0  0  0  0  0  0  0  0  0  0
  147.1643  139.9060  153.8341 C   0  0  0  0  0  0  0  0  0  0  0  0
  148.6049  139.6648  153.9051 N   0  0  0  0  0  0  0  0  0  0  0  0
  149.4783  140.3847  154.6301 C   0  0  0  0  0  0  0  0  0  0  0  0
  150.6822  140.1297  154.6233 O   0  0  0  0  0  0  0  0  0  0  0  0
  150.2712  145.6736  159.8067 H   0  0  0  0  0  0  0  0  0  0  0  0
  151.5986  146.0978  158.7315 H   0  0  0  0  0  0  0  0  0  0  0  0
  151.7488  146.3718  160.4614 H   0  0  0  0  0  0  0  0  0  0  0  0
  154.1768  141.3441  161.7183 H   0  0  0  0  0  0  0  0  0  0  0  0
  152.5417  141.2377  162.4038 H   0  0  0  0  0  0  0  0  0  0  0  0
  153.5964  142.6048  162.8190 H   0  0  0  0  0  0  0  0  0  0  0  0
  152.6325  140.6573  158.1281 H   0  0  0  0  0  0  0  0  0  0  0  0
  152.6013  140.1043  159.7981 H   0  0  0  0  0  0  0  0  0  0  0  0
  154.0916  140.7573  159.1128 H   0  0  0  0  0  0  0  0  0  0  0  0
  151.2855  144.3240  157.1655 H   0  0  0  0  0  0  0  0  0  0  0  0
  152.5739  143.2185  156.7882 H   0  0  0  0  0  0  0  0  0  0  0  0
  150.1600  143.2351  155.4177 H   0  0  0  0  0  0  0  0  0  0  0  0
  148.3133  142.1293  154.8176 H   0  0  0  0  0  0  0  0  0  0  0  0
  148.5927  140.9840  157.5747 H   0  0  0  0  0  0  0  0  0  0  0  0
  147.2833  141.8831  156.8709 H   0  0  0  0  0  0  0  0  0  0  0  0
  147.9369  138.9270  156.5037 H   0  0  0  0  0  0  0  0  0  0  0  0
  146.5676  139.6099  157.3110 H   0  0  0  0  0  0  0  0  0  0  0  0
  145.9692  138.6650  155.1289 H   0  0  0  0  0  0  0  0  0  0  0  0
  145.5615  140.3488  155.2168 H   0  0  0  0  0  0  0  0  0  0  0  0
  146.7472  139.2662  153.0562 H   0  0  0  0  0  0  0  0  0  0  0  0
  146.9914  140.9254  153.4872 H   0  0  0  0  0  0  0  0  0  0  0  0
  148.9692  138.9057  153.3476 H   0  0  0  0  0  0  0  0  0  0  0  0
  1  2  1  0  0  0  0
  1 21  1  0  0  0  0
  1 22  1  0  0  0  0
  1 23  1  0  0  0  0
  2  8  1  0  0  0  0
  2  3  2  0  0  0  0
  3  4  1  0  0  0  0
  4  5  1  0  0  0  0
  4  6  1  0  0  0  0
  5 24  1  0  0  0  0
  5 25  1  0  0  0  0
  5 26  1  0  0  0  0
  6  7  1  0  0  0  0
  6  8  2  0  0  0  0
  7 27  1  0  0  0  0
  7 28  1  0  0  0  0
  7 29  1  0  0  0  0
  8  9  1  0  0  0  0
  9 10  1  0  0  0  0
  9 30  1  0  0  0  0
  9 31  1  0  0  0  0
 10 11  2  0  0  0  0
 10 12  1  0  0  0  0
 12 13  1  0  0  0  0
 12 32  1  0  0  0  0
 13 19  1  0  0  0  0
 13 14  1  0  0  0  0
 13 33  1  0  0  0  0
 14 15  1  0  0  0  0
 14 34  1  0  0  0  0
 14 35  1  0  0  0  0
 15 16  1  0  0  0  0
 15 36  1  0  0  0  0
 15 37  1  0  0  0  0
 16 17  1  0  0  0  0
 16 38  1  0  0  0  0
 16 39  1  0  0  0  0
 17 18  1  0  0  0  0
 17 40  1  0  0  0  0
 17 41  1  0  0  0  0
 18 19  1  0  0  0  0
 18 42  1  0  0  0  0
 19 20  2  0  0  0  0
M  END
> <s_m_source_file>
AV-unprocessed.smi

> <i_m_source_file_index>
2187

> <i_lp_mmshare_version>
43012

> <i_f3d_flags>
0

> <s_epik_input>
W0NIM11jMW5uKFtDSDNdKWMoW0NIM10pYzFbQ0gyXUMoPU8pW05IXVtDQEBIXTJbQ0gyXVtDSDJdW0NIMl1bQ0gyXVtOSF1DMj1P

> <s_epik_cmdline>
J2VwaWtfcHl0aG9uJywgJy1waCcsICc3LjAnLCAnLXRuJywgJzgnLCAnLW1hJywgJzIwMCcsICctbWV0YWxfYmluZGluZycsICctaW1hZScsICc8aW5maWxlLm1hZT4nLCAnLW9tYWUnLCAnPG91dGZpbGUubWFlPic=

> <r_lp_tautomer_probability>
1

> <r_epik_Ionization_Penalty>
0.00280384

> <r_epik_Ionization_Penalty_Charging>
0

> <r_epik_Ionization_Penalty_Neutral>
0.00280384

> <r_epik_State_Penalty>
0.00195959

> <r_epik_Charging_Adjusted_Penalty>
0.00195959

> <i_epik_Tot_Q>
0

> <i_epik_Tot_abs_Q>
0

> <r_epik_Metal_State_Penalty>
-0

> <b_epik_Metal_Only>
0

> <s_lp_Force_Field>
OPLS_2005

> <r_lp_Energy>
9.17358

> <b_lp_Chiralities_Consistent>
1

> <s_lp_Variant>
AV-unprocessed.smi:2187-1

> <Gold.Version>
5.8.1

> <Gold.Id.Protein>
6NUR|6NUR_protein|mol2

> <Gold.PLP.Fitness>
44.4621

> <Gold.PLP.PLP>
-41.2677

> <Gold.PLP.part.hbond>
-2.9448

> <Gold.PLP.part.metal>
0.0000

> <Gold.PLP.part.buried>
-5.9541

> <Gold.PLP.part.nonpolar>
-32.7196

> <Gold.PLP.part.repulsive>
0.4455

> <Gold.PLP.ligand.clash>
0.0000

> <Gold.PLP.ligand.torsion>
0.5600

> <Gold.PLP.Chemscore.Hbond>
1.4207

> <Gold.PLP.Chemscore.CHOScore>
0.0000

> <Gold.PLP.Chemscore.Metal>
0.0000

> <Gold.Chemscore.Hbonds>
donor molecule, donor type, donor heavy atom, donor atom, acceptor molecule, acceptor atom, score
      L1  H    12    32       P1  8028  0.32
      P1  H  7989  7998       L1    20  1.00

> <Gold.PLP.Chemscore.Internal.Correction>
0.0524

> <Gold.Rescore>
     Score         DG    S(hbond)    S(metal)    S(lipo)     H(rot)  DE(clash)    DE(int)     intcor
     12.48     -17.16       1.47        0.00      89.85       1.46       0.14       4.55       ----

> <Gold.Chemscore.Fitness>
12.4789

> <Gold.Chemscore.DG>
-17.1643

> <Gold.Chemscore.ZeroCoef>
-5.4800

> <Gold.Chemscore.Hbond>
1.4684

> <Gold.Chemscore.Metal>
0.0000

> <Gold.Chemscore.Lipo>
89.8459

> <Gold.Chemscore.Internal_Hbond>
0.0000

> <Gold.Chemscore.DEClash>
0.1362

> <Gold.Chemscore.DEInternal>
4.5492

> <Gold.Chemscore.Rot>
1.4578

> <Gold.Chemscore.Internal.Correction>
   9.000000E+99

> <Gold.Chemscore.Hbonds>
donor molecule, donor type, donor heavy atom, donor atom, acceptor molecule, acceptor atom, score
      L1  H    12    32       P1  8028  0.32
      P1  H  7989  7998       L1    20  0.95

> <Gold.Chemscore.Hbond.Weighted>
-4.9044

> <Gold.Chemscore.Metal.Weighted>
-0.0000

> <Gold.Chemscore.Lipo.Weighted>
-10.5120

> <Gold.Chemscore.Internal_Hbond.Weighted>
0.0000

> <Gold.Chemscore.DEClash.Weighted>
0.1362

> <Gold.Chemscore.DEInternal.Weighted>
4.5492

> <Gold.Chemscore.Rot.Weighted>
3.7321

> <Gold.Chemscore.Internal.Correction.Weighted>
   9.000000E+99

> <Gold.Protein.RotatedTorsions>
[ 6907 6896 6895 6894 ] final  -12.49 input  -60.11 | X-H torsion
[ 7974 7965 7964 7962 ] final -138.37 input  175.53 | X-H torsion
[ 8008 7997 7996 7995 ] final  -79.00 input   59.86 | X-H torsion
[ 10167 10162 10161 10158 ] final  -59.83 input  -65.29 | X-H torsion
[ 10718 10713 10712 10709 ] final  -45.30 input   66.30 | X-H torsion
[ 10763 10752 10751 10750 ] final  -55.36 input  -60.55 | X-H torsion
[ 11005 11000 10999 10996 ] final   99.07 input  -57.11 | X-H torsion

> <Gold.Protein.ActiveResidues>
 VAL166  LYS551  ARG553  GLY616  TRP617  ASP618  TYR619  PRO620  LYS621  CYS622 
 ASP623  PHE694  ASN695  SER759  ASP760  ASP761  ALA762  ILE779  LEU786  VAL792 
 PHE793  MET794  SER795  GLU796  ALA797  LYS798  CYS799  TRP800  GLU811  SER814 

> <Gold.Protein.RotatedAtoms>
  151.3697  135.0920  159.9461 H   0  0  0  0  0  0  0  0  0  0  0  0  # atno 6907 bound_to 6896
  152.5139  133.9177  159.7529 H   0  0  0  0  0  0  0  0  0  0  0  0  # atno 6908 bound_to 6896
  150.9588  133.6413  159.2787 H   0  0  0  0  0  0  0  0  0  0  0  0  # atno 6909 bound_to 6896
  144.8764  140.6443  143.5234 H   0  0  0  0  0  0  0  0  0  0  0  0  # atno 7974 bound_to 7965
  154.5743  140.0685  156.9011 H   0  0  0  0  0  0  0  0  0  0  0  0  # atno 8008 bound_to 7997
  155.2577  140.3356  155.4258 H   0  0  0  0  0  0  0  0  0  0  0  0  # atno 8009 bound_to 7997
  156.2142  140.1771  156.7611 H   0  0  0  0  0  0  0  0  0  0  0  0  # atno 8010 bound_to 7997
  140.6110  143.2387  151.5709 H   0  0  0  0  0  0  0  0  0  0  0  0  # atno 10167 bound_to 10162
  156.2297  130.4172  149.8890 H   0  0  0  0  0  0  0  0  0  0  0  0  # atno 10718 bound_to 10713
  154.1895  135.6429  153.5056 H   0  0  0  0  0  0  0  0  0  0  0  0  # atno 10763 bound_to 10752
  153.0038  135.5425  154.6430 H   0  0  0  0  0  0  0  0  0  0  0  0  # atno 10764 bound_to 10752
  154.5815  135.2925  155.0701 H   0  0  0  0  0  0  0  0  0  0  0  0  # atno 10765 bound_to 10752
  139.8771  134.9078  156.4550 H   0  0  0  0  0  0  0  0  0  0  0  0  # atno 11005 bound_to 11000
  145.4035  139.1593  143.4164 LP  0  0  0  0  0  0  0  0  0  0  0  0  # atno 17320 bound_to 7965
  146.2965  140.4134  142.8720 LP  0  0  0  0  0  0  0  0  0  0  0  0  # atno 17321 bound_to 7965
  139.5361  144.2777  152.1254 LP  0  0  0  0  0  0  0  0  0  0  0  0  # atno 17342 bound_to 10162
  140.1976  144.4690  150.6447 LP  0  0  0  0  0  0  0  0  0  0  0  0  # atno 17343 bound_to 10162
  156.6508  130.8743  151.3531 LP  0  0  0  0  0  0  0  0  0  0  0  0  # atno 17370 bound_to 10713
  157.7127  130.9460  150.1146 LP  0  0  0  0  0  0  0  0  0  0  0  0  # atno 17371 bound_to 10713
  140.8905  133.7852  155.9566 LP  0  0  0  0  0  0  0  0  0  0  0  0  # atno 17394 bound_to 11000
  140.8759  134.2670  157.5168 LP  0  0  0  0  0  0  0  0  0  0  0  0  # atno 17395 bound_to 11000

$$$$
