AV-unprocessed.smi:1946|AV-procd|sdf|7861|dock1
  -GOLD-   2272010 13D 1   1.00000     0.00000
 Structure written by MMmdl.
 38 40  0  0  0  0  0  0  0  0  1 V2000
  146.1211  136.3787  159.2803 C   0  0  0  0  0  0  0  0  0  0  0  0
  147.7400  136.7433  160.0717 S   0  0  0  0  0  0  0  0  0  0  0  0
  147.4826  137.4743  161.3221 O   0  0  0  0  0  0  0  0  0  0  0  0
  148.5223  135.4976  160.1044 O   0  0  0  0  0  0  0  0  0  0  0  0
  148.5254  137.8667  158.9229 C   0  0  0  0  0  0  0  0  0  0  0  0
  147.7468  138.5546  157.9712 C   0  0  0  0  0  0  0  0  0  0  0  0
  148.3663  139.4619  157.0899 C   0  0  0  0  0  0  0  0  0  0  0  0
  149.7581  139.6940  157.1672 C   0  0  0  0  0  0  0  0  0  0  0  0
  150.4370  140.6652  156.2141 C   0  0  2  0  0  0  0  0  0  0  0  0
  150.5081  140.1618  154.8937 O   0  0  0  0  0  0  0  0  0  0  0  0
  151.8486  141.0379  156.7061 C   0  0  0  0  0  0  0  0  0  0  0  0
  151.8232  142.0736  157.7227 N   0  0  0  0  0  0  0  0  0  0  0  0
  151.2173  143.2746  157.6506 C   0  0  0  0  0  0  0  0  0  0  0  0
  151.3216  144.0738  158.7089 N   0  0  0  0  0  0  0  0  0  0  0  0
  152.0841  143.3012  159.5683 C   0  0  0  0  0  0  0  0  0  0  0  0
  152.5527  143.5710  160.8742 C   0  0  0  0  0  0  0  0  0  0  0  0
  153.3262  142.6163  161.5670 C   0  0  0  0  0  0  0  0  0  0  0  0
  153.6425  141.3798  160.9672 C   0  0  0  0  0  0  0  0  0  0  0  0
  153.1863  141.0879  159.6673 C   0  0  0  0  0  0  0  0  0  0  0  0
  152.4152  142.0435  158.9798 C   0  0  0  0  0  0  0  0  0  0  0  0
  150.5263  139.0069  158.1323 C   0  0  0  0  0  0  0  0  0  0  0  0
  149.9120  138.0976  159.0147 C   0  0  0  0  0  0  0  0  0  0  0  0
  145.5548  135.6948  159.9121 H   0  0  0  0  0  0  0  0  0  0  0  0
  146.2872  135.9193  158.3062 H   0  0  0  0  0  0  0  0  0  0  0  0
  145.5601  137.3045  159.1547 H   0  0  0  0  0  0  0  0  0  0  0  0
  146.6810  138.3904  157.9111 H   0  0  0  0  0  0  0  0  0  0  0  0
  147.7688  139.9798  156.3538 H   0  0  0  0  0  0  0  0  0  0  0  0
  149.8318  141.5717  156.1677 H   0  0  0  0  0  0  0  0  0  0  0  0
  149.8156  139.5294  154.7764 H   0  0  0  0  0  0  0  0  0  0  0  0
  152.3409  140.1623  157.1313 H   0  0  0  0  0  0  0  0  0  0  0  0
  152.4712  141.3737  155.8754 H   0  0  0  0  0  0  0  0  0  0  0  0
  150.6657  143.5780  156.7726 H   0  0  0  0  0  0  0  0  0  0  0  0
  152.3166  144.5143  161.3440 H   0  0  0  0  0  0  0  0  0  0  0  0
  153.6791  142.8344  162.5643 H   0  0  0  0  0  0  0  0  0  0  0  0
  154.2358  140.6556  161.5060 H   0  0  0  0  0  0  0  0  0  0  0  0
  153.4256  140.1422  159.2040 H   0  0  0  0  0  0  0  0  0  0  0  0
  151.5912  139.1757  158.2004 H   0  0  0  0  0  0  0  0  0  0  0  0
  150.5056  137.5826  159.7557 H   0  0  0  0  0  0  0  0  0  0  0  0
  1  2  1  0  0  0  0
  1 23  1  0  0  0  0
  1 24  1  0  0  0  0
  1 25  1  0  0  0  0
  2  3  2  0  0  0  0
  2  4  2  0  0  0  0
  2  5  1  0  0  0  0
  5 22  1  0  0  0  0
  5  6  2  0  0  0  0
  6  7  1  0  0  0  0
  6 26  1  0  0  0  0
  7  8  2  0  0  0  0
  7 27  1  0  0  0  0
  8  9  1  0  0  0  0
  8 21  1  0  0  0  0
  9 10  1  0  0  0  0
  9 11  1  0  0  0  0
  9 28  1  0  0  0  0
 10 29  1  0  0  0  0
 11 12  1  0  0  0  0
 11 30  1  0  0  0  0
 11 31  1  0  0  0  0
 12 20  1  0  0  0  0
 12 13  1  0  0  0  0
 13 14  2  0  0  0  0
 13 32  1  0  0  0  0
 14 15  1  0  0  0  0
 15 20  2  0  0  0  0
 15 16  1  0  0  0  0
 16 17  2  0  0  0  0
 16 33  1  0  0  0  0
 17 18  1  0  0  0  0
 17 34  1  0  0  0  0
 18 19  2  0  0  0  0
 18 35  1  0  0  0  0
 19 20  1  0  0  0  0
 19 36  1  0  0  0  0
 21 22  2  0  0  0  0
 21 37  1  0  0  0  0
 22 38  1  0  0  0  0
M  END
> <s_m_source_file>
AV-unprocessed.smi

> <i_m_source_file_index>
1946

> <i_lp_mmshare_version>
43012

> <i_f3d_flags>
0

> <s_epik_input>
W0NIM11TKD1PKSg9TyljMVtjSF1bY0hdYyhbY0hdW2NIXTEpW0NASF0oW09IXSlbQ0gyXW4oW2NIXW4yKWMoYzIzKVtjSF1bY0hdW2NIXVtjSF0z

> <s_epik_cmdline>
J2VwaWtfcHl0aG9uJywgJy1waCcsICc3LjAnLCAnLXRuJywgJzgnLCAnLW1hJywgJzIwMCcsICctbWV0YWxfYmluZGluZycsICctaW1hZScsICc8aW5maWxlLm1hZT4nLCAnLW9tYWUnLCAnPG91dGZpbGUubWFlPic=

> <r_epik_Ionization_Penalty>
0.0696512

> <r_epik_Ionization_Penalty_Charging>
0

> <r_epik_Ionization_Penalty_Neutral>
0.0696512

> <r_epik_State_Penalty>
0.0610247

> <r_epik_Charging_Adjusted_Penalty>
0.0610247

> <i_epik_Tot_Q>
0

> <i_epik_Tot_abs_Q>
0

> <r_epik_Metal_State_Penalty>
6.42746e-05

> <b_epik_Metal_Only>
0

> <s_lp_Force_Field>
OPLS_2005

> <r_lp_Energy>
7.3467

> <b_lp_Chiralities_Consistent>
1

> <s_lp_Variant>
AV-unprocessed.smi:1946-1

> <Gold.Version>
5.8.1

> <Gold.Id.Protein>
6NUR|6NUR_protein|mol2

> <Gold.PLP.Fitness>
50.3898

> <Gold.PLP.PLP>
-37.4150

> <Gold.PLP.part.hbond>
-4.0000

> <Gold.PLP.part.metal>
0.0000

> <Gold.PLP.part.buried>
-6.9182

> <Gold.PLP.part.nonpolar>
-26.9992

> <Gold.PLP.part.repulsive>
0.0823

> <Gold.PLP.ligand.clash>
0.0000

> <Gold.PLP.ligand.torsion>
1.8410

> <Gold.PLP.Chemscore.Hbond>
3.8576

> <Gold.PLP.Chemscore.CHOScore>
1.0000

> <Gold.PLP.Chemscore.Metal>
0.0000

> <Gold.Chemscore.Hbonds>
donor molecule, donor type, donor heavy atom, donor atom, acceptor molecule, acceptor atom, score
      P1  H  6896  6907       L1     4  0.09
      P1  H  6931  6943       L1     3  0.77
      P1  H  6934  6947       L1     3  0.88
      P1  H  7989  7998       L1    10  1.00
      L1  C    13    32       P1  8028  1.00

> <Gold.PLP.Chemscore.Internal.Correction>
2.0838

> <Gold.Rescore>
     Score         DG    S(hbond)    S(metal)    S(lipo)     H(rot)  DE(clash)    DE(int)     intcor
     20.05     -22.06       3.32        0.00      90.19       1.98       0.11       1.90       ----

> <Gold.Chemscore.Fitness>
20.0470

> <Gold.Chemscore.DG>
-22.0563

> <Gold.Chemscore.ZeroCoef>
-5.4800

> <Gold.Chemscore.Hbond>
3.3243

> <Gold.Chemscore.Metal>
0.0000

> <Gold.Chemscore.Lipo>
90.1906

> <Gold.Chemscore.Internal_Hbond>
0.0000

> <Gold.Chemscore.DEClash>
0.1133

> <Gold.Chemscore.DEInternal>
1.8960

> <Gold.Chemscore.Rot>
1.9840

> <Gold.Chemscore.Internal.Correction>
   9.000000E+99

> <Gold.Chemscore.Hbonds>
donor molecule, donor type, donor heavy atom, donor atom, acceptor molecule, acceptor atom, score
      P1  H  6896  6907       L1     4  0.11
      P1  H  6931  6943       L1     3  0.56
      P1  H  6934  6947       L1     3  0.56
      P1  H  7989  7998       L1    10  0.99

> <Gold.Chemscore.Hbond.Weighted>
-11.1031

> <Gold.Chemscore.Metal.Weighted>
-0.0000

> <Gold.Chemscore.Lipo.Weighted>
-10.5523

> <Gold.Chemscore.Internal_Hbond.Weighted>
0.0000

> <Gold.Chemscore.DEClash.Weighted>
0.1133

> <Gold.Chemscore.DEInternal.Weighted>
1.8960

> <Gold.Chemscore.Rot.Weighted>
5.0791

> <Gold.Chemscore.Internal.Correction.Weighted>
   9.000000E+99

> <Gold.Protein.RotatedTorsions>
[ 6907 6896 6895 6894 ] final  -70.78 input  -60.11 | X-H torsion
[ 7974 7965 7964 7962 ] final  -35.37 input  175.53 | X-H torsion
[ 8008 7997 7996 7995 ] final  -18.10 input   59.86 | X-H torsion
[ 10167 10162 10161 10158 ] final  179.11 input  -65.29 | X-H torsion
[ 10718 10713 10712 10709 ] final    0.95 input   66.30 | X-H torsion
[ 10763 10752 10751 10750 ] final  128.66 input  -60.55 | X-H torsion
[ 11005 11000 10999 10996 ] final  -49.47 input  -57.11 | X-H torsion

> <Gold.Protein.ActiveResidues>
 VAL166  LYS551  ARG553  GLY616  TRP617  ASP618  TYR619  PRO620  LYS621  CYS622 
 ASP623  PHE694  ASN695  SER759  ASP760  ASP761  ALA762  ILE779  LEU786  VAL792 
 PHE793  MET794  SER795  GLU796  ALA797  LYS798  CYS799  TRP800  GLU811  SER814 

> <Gold.Protein.RotatedAtoms>
  150.7242  134.5403  159.5743 H   0  0  0  0  0  0  0  0  0  0  0  0  # atno 6907 bound_to 6896
  152.2915  134.7713  160.0386 H   0  0  0  0  0  0  0  0  0  0  0  0  # atno 6908 bound_to 6896
  151.8324  133.3375  159.3654 H   0  0  0  0  0  0  0  0  0  0  0  0  # atno 6909 bound_to 6896
  146.0752  140.6151  142.8934 H   0  0  0  0  0  0  0  0  0  0  0  0  # atno 7974 bound_to 7965
  154.4930  140.2125  155.9507 H   0  0  0  0  0  0  0  0  0  0  0  0  # atno 8008 bound_to 7997
  156.1332  140.3193  155.8349 H   0  0  0  0  0  0  0  0  0  0  0  0  # atno 8009 bound_to 7997
  155.4258  140.0500  157.3013 H   0  0  0  0  0  0  0  0  0  0  0  0  # atno 8010 bound_to 7997
  139.5322  144.2600  152.0714 H   0  0  0  0  0  0  0  0  0  0  0  0  # atno 10167 bound_to 10162
  156.8410  130.5521  149.5677 H   0  0  0  0  0  0  0  0  0  0  0  0  # atno 10718 bound_to 10713
  153.7291  135.3241  155.3282 H   0  0  0  0  0  0  0  0  0  0  0  0  # atno 10763 bound_to 10752
  154.8332  135.4518  154.1140 H   0  0  0  0  0  0  0  0  0  0  0  0  # atno 10764 bound_to 10752
  153.2282  135.6956  153.8001 H   0  0  0  0  0  0  0  0  0  0  0  0  # atno 10765 bound_to 10752
  141.0761  133.6665  156.3590 H   0  0  0  0  0  0  0  0  0  0  0  0  # atno 11005 bound_to 11000
  144.7257  140.4516  143.6975 LP  0  0  0  0  0  0  0  0  0  0  0  0  # atno 17320 bound_to 7965
  145.6319  139.1537  143.2964 LP  0  0  0  0  0  0  0  0  0  0  0  0  # atno 17321 bound_to 7965
  140.2066  144.4605  150.6406 LP  0  0  0  0  0  0  0  0  0  0  0  0  # atno 17342 bound_to 10162
  140.6507  143.2224  151.6083 LP  0  0  0  0  0  0  0  0  0  0  0  0  # atno 17343 bound_to 10162
  156.0880  130.5874  150.9683 LP  0  0  0  0  0  0  0  0  0  0  0  0  # atno 17370 bound_to 10713
  157.6355  131.0916  150.8356 LP  0  0  0  0  0  0  0  0  0  0  0  0  # atno 17371 bound_to 10713
  140.5570  134.5971  157.5423 LP  0  0  0  0  0  0  0  0  0  0  0  0  # atno 17394 bound_to 11000
  139.9573  134.7512  156.0313 LP  0  0  0  0  0  0  0  0  0  0  0  0  # atno 17395 bound_to 11000

$$$$
