#       Name:                AV-unprocessed.smi:1999
#       Creating user name   scv26
#       Creation time:       Fri Mar 27 10:31:36 2020


#       File generated by GOLD software.
#

@<TRIPOS>MOLECULE
AV-unprocessed.smi:1999
    45    46     1
SMALL
NO_CHARGES


@<TRIPOS>ATOM
      1 ****        -5.1251   4.7585  -0.2865 C.3            1 S1                 0.0000
      2 ****        -4.2298   3.7087  -0.8498 C.2            1 S1                 0.0000
      3 ****        -4.0450   3.5440  -2.1618 N.2            1 S1                 0.0000
      4 ****        -3.1655   2.5075  -2.4394 N.2            1 S1                 0.0000
      5 ****        -2.6897   1.9116  -1.3368 C.2            1 S1                 0.0000
      6 ****        -1.8246   0.8854  -1.3893 N.pl3          1 S1                -1.0000
      7 ****        -0.5027   1.1063  -1.2066 C.2            1 S1                 0.0000
      8 ****         0.0313   2.1956  -0.9848 O.2            1 S1                 0.0000
      9 ****         0.2461  -0.0033  -1.2856 N.am           1 S1                 0.0000
     10 ****         1.6959  -0.0816  -1.1129 C.3            1 S1                 0.0000
     11 ****         2.4026   0.2295  -2.4413 C.3            1 S1                 0.0000
     12 ****         2.0887  -1.4776  -0.5868 C.3            1 S1                 0.0000
     13 ****         1.4308  -1.9004   0.6514 N.3            1 S1                 0.0000
     14 ****         1.8003  -1.0767   1.8003 C.3            1 S1                 0.0000
     15 ****         1.1167  -1.5557   3.0927 C.3            1 S1                 0.0000
     16 ****         1.4322  -2.9248   3.3241 O.3            1 S1                 0.0000
     17 ****         1.0404  -3.7664   2.2446 C.3            1 S1                 0.0000
     18 ****         1.7276  -3.2966   0.9509 C.3            1 S1                 0.0000
     19 ****        -3.3280   2.5912   0.1601 S.3            1 S1                 0.0000
     20 ****        -4.5874   5.7035  -0.2107 H              1 S1                 0.0000
     21 ****        -5.4680   4.4689   0.7069 H              1 S1                 0.0000
     22 ****        -5.9956   4.8992  -0.9278 H              1 S1                 0.0000
     23 ****        -0.2356  -0.8723  -1.4637 H              1 S1                 0.0000
     24 ****         2.0161   0.6676  -0.3880 H              1 S1                 0.0000
     25 ****         3.4859   0.1818  -2.3287 H              1 S1                 0.0000
     26 ****         2.1545   1.2301  -2.7962 H              1 S1                 0.0000
     27 ****         2.1165  -0.4797  -3.2188 H              1 S1                 0.0000
     28 ****         1.8580  -2.2030  -1.3686 H              1 S1                 0.0000
     29 ****         3.1709  -1.5193  -0.4549 H              1 S1                 0.0000
     30 ****         2.8827  -1.0931   1.9355 H              1 S1                 0.0000
     31 ****         1.5207  -0.0380   1.6274 H              1 S1                 0.0000
     32 ****         1.4552  -0.9631   3.9426 H              1 S1                 0.0000
     33 ****         0.0347  -1.4312   3.0254 H              1 S1                 0.0000
     34 ****         1.3237  -4.7939   2.4728 H              1 S1                 0.0000
     35 ****        -0.0448  -3.7490   2.1342 H              1 S1                 0.0000
     36 ****         1.4053  -3.9291   0.1231 H              1 S1                 0.0000
     37 ****         2.8059  -3.4332   1.0461 H              1 S1                 0.0000
     38 ****        -4.4888   4.1025  -2.8626 LP             1 S1                 0.0000
     39 ****        -2.9124   2.2330  -3.3671 LP             1 S1                 0.0000
     40 ****        -2.1577  -0.0414  -1.5633 LP             1 S1                 0.0000
     41 ****        -0.5269   3.0232  -0.9256 LP             1 S1                 0.0000
     42 ****         1.0224   2.2512  -0.8641 LP             1 S1                 0.0000
     43 ****         0.4499  -1.7869   0.4931 LP             1 S1                 0.0000
     44 ****         0.9610  -3.2266   4.1529 LP             1 S1                 0.0000
     45 ****         2.4203  -3.0085   3.4533 LP             1 S1                 0.0000
@<TRIPOS>BOND
    1    1    2 1     
    2    1   20 1     
    3    1   21 1     
    4    1   22 1     
    5    2   19 1     
    6    2    3 2     
    7    3    4 1     
    8    4    5 2     
    9    5    6 1     
   10    5   19 1     
   11    6    7 1     
   12    7    8 2     
   13    7    9 am    
   14    9   10 1     
   15    9   23 1     
   16   10   11 1     
   17   10   12 1     
   18   10   24 1     
   19   11   25 1     
   20   11   26 1     
   21   11   27 1     
   22   12   13 1     
   23   12   28 1     
   24   12   29 1     
   25   13   18 1     
   26   13   14 1     
   27   14   15 1     
   28   14   30 1     
   29   14   31 1     
   30   15   16 1     
   31   15   32 1     
   32   15   33 1     
   33   16   17 1     
   34   17   18 1     
   35   17   34 1     
   36   17   35 1     
   37   18   36 1     
   38   18   37 1     
   39    3   38 1     
   40    4   39 1     
   41    6   40 1     
   42    8   41 1     
   43    8   42 1     
   44   13   43 1     
   45   16   44 1     
   46   16   45 1     
@<TRIPOS>SUBSTRUCTURE
      1 S1             1
@<TRIPOS>SET
LONE_PAIRS      STATIC     ATOMS    <user>   **** ""
8 38 39 40 41 42 43 44 45
DONOR_HYDROGENS      STATIC     ATOMS    <user>   **** ""
1 23
ATOM$BLUE        STATIC     ATOMS    COLORGROUP SYSTEM
8 38 39 40 41 42 43 44 45
ATOM$RED        STATIC     ATOMS    COLORGROUP SYSTEM
1 23
