AV-unprocessed.smi:217|AV-procd|sdf|1661|dock7
  -GOLD-   2262020 53D 1   1.00000     0.00000
 Structure written by MMmdl.
 57 61  0  0  0  0  0  0  0  0  1 V2000
  145.3452  136.2965  149.9954 O   0  0  0  0  0  0  0  0  0  0  0  0
  144.4129  135.3866  150.5423 C   0  0  0  0  0  0  0  0  0  0  0  0
  144.2670  135.5810  152.0605 C   0  0  0  0  0  0  0  0  0  0  0  0
  143.0819  134.7366  152.5729 C   0  0  0  0  0  0  0  0  0  0  0  0
  143.2873  133.3572  152.3435 O   0  0  0  0  0  0  0  0  0  0  0  0
  145.5731  135.4441  152.8751 C   0  0  0  0  0  0  0  0  0  0  0  0
  145.1608  136.6478  153.7256 C   0  0  0  0  0  0  0  0  0  0  0  0
  146.1396  137.5463  154.2644 N   0  0  0  0  0  0  0  0  0  0  0  0
  146.3437  138.8576  153.8989 C   0  0  0  0  0  0  0  0  0  0  0  0
  147.2639  139.4878  154.5769 N   0  0  0  0  0  0  0  0  0  0  0  0
  147.7082  138.5498  155.5017 C   0  0  0  0  0  0  0  0  0  0  0  0
  148.6720  138.5688  156.5501 C   0  0  0  0  0  0  0  0  0  0  0  0
  149.4342  139.6576  156.8302 N   0  0  0  0  0  0  0  0  0  0  0  0
  148.7289  140.7334  157.5251 C   0  0  0  0  0  0  0  0  0  0  0  0
  149.7204  141.7365  158.1370 C   0  0  0  0  0  0  0  0  0  0  0  0
  150.6955  142.2856  157.0760 C   0  0  0  0  0  0  0  0  0  0  0  0
  151.7032  143.2776  157.6913 C   0  0  1  0  0  0  0  0  0  0  0  0
  151.0774  144.5308  158.3053 C   0  0  0  0  0  0  0  0  0  0  0  0
  152.1080  144.9808  159.3282 C   0  0  0  0  0  0  0  0  0  0  0  0
  152.9986  143.7508  159.5246 C   0  0  0  0  0  0  0  0  0  0  0  0
  152.3524  142.7030  158.8150 O   0  0  0  0  0  0  0  0  0  0  0  0
  151.3981  141.0970  156.3889 C   0  0  0  0  0  0  0  0  0  0  0  0
  150.3799  140.1039  155.8059 C   0  0  0  0  0  0  0  0  0  0  0  0
  148.8108  137.4352  157.2895 N   0  0  0  0  0  0  0  0  0  0  0  0
  148.0679  136.3575  157.0224 C   0  0  0  0  0  0  0  0  0  0  0  0
  147.1412  136.1971  156.0766 N   0  0  0  0  0  0  0  0  0  0  0  0
  146.9942  137.3294  155.3311 C   0  0  0  0  0  0  0  0  0  0  0  0
  144.2810  137.0497  152.5394 C   0  0  0  0  0  0  0  0  0  0  0  0
  144.8727  137.0355  149.6432 H   0  0  0  0  0  0  0  0  0  0  0  0
  143.4589  135.5030  150.0279 H   0  0  0  0  0  0  0  0  0  0  0  0
  144.7603  134.3785  150.3139 H   0  0  0  0  0  0  0  0  0  0  0  0
  142.9351  134.8739  153.6442 H   0  0  0  0  0  0  0  0  0  0  0  0
  142.1452  135.0352  152.1016 H   0  0  0  0  0  0  0  0  0  0  0  0
  143.0849  132.8879  153.1384 H   0  0  0  0  0  0  0  0  0  0  0  0
  145.6755  134.5135  153.4344 H   0  0  0  0  0  0  0  0  0  0  0  0
  146.4693  135.6417  152.2836 H   0  0  0  0  0  0  0  0  0  0  0  0
  144.5484  136.3297  154.5710 H   0  0  0  0  0  0  0  0  0  0  0  0
  145.7876  139.3360  153.1056 H   0  0  0  0  0  0  0  0  0  0  0  0
  148.0791  141.2426  156.8122 H   0  0  0  0  0  0  0  0  0  0  0  0
  148.0826  140.3449  158.3113 H   0  0  0  0  0  0  0  0  0  0  0  0
  149.1666  142.5532  158.6006 H   0  0  0  0  0  0  0  0  0  0  0  0
  150.2800  141.2500  158.9370 H   0  0  0  0  0  0  0  0  0  0  0  0
  150.1112  142.8176  156.3236 H   0  0  0  0  0  0  0  0  0  0  0  0
  152.4583  143.5611  156.9552 H   0  0  0  0  0  0  0  0  0  0  0  0
  150.8554  145.2995  157.5646 H   0  0  0  0  0  0  0  0  0  0  0  0
  150.1469  144.2760  158.8147 H   0  0  0  0  0  0  0  0  0  0  0  0
  152.6950  145.8219  158.9571 H   0  0  0  0  0  0  0  0  0  0  0  0
  151.6289  145.2894  160.2578 H   0  0  0  0  0  0  0  0  0  0  0  0
  153.9867  143.9203  159.0947 H   0  0  0  0  0  0  0  0  0  0  0  0
  153.1250  143.4894  160.5754 H   0  0  0  0  0  0  0  0  0  0  0  0
  152.0518  141.4478  155.5900 H   0  0  0  0  0  0  0  0  0  0  0  0
  152.0372  140.5816  157.1073 H   0  0  0  0  0  0  0  0  0  0  0  0
  150.9119  139.2474  155.3893 H   0  0  0  0  0  0  0  0  0  0  0  0
  149.8310  140.5728  154.9879 H   0  0  0  0  0  0  0  0  0  0  0  0
  148.2416  135.5007  157.6563 H   0  0  0  0  0  0  0  0  0  0  0  0
  144.7945  137.7172  151.8446 H   0  0  0  0  0  0  0  0  0  0  0  0
  143.3052  137.4506  152.8155 H   0  0  0  0  0  0  0  0  0  0  0  0
  1  2  1  0  0  0  0
  1 29  1  0  0  0  0
  2  3  1  0  0  0  0
  2 30  1  0  0  0  0
  2 31  1  0  0  0  0
  3 28  1  0  0  0  0
  3  4  1  0  0  0  0
  3  6  1  0  0  0  0
  4  5  1  0  0  0  0
  4 32  1  0  0  0  0
  4 33  1  0  0  0  0
  5 34  1  0  0  0  0
  6  7  1  0  0  0  0
  6 35  1  0  0  0  0
  6 36  1  0  0  0  0
  7  8  1  0  0  0  0
  7 28  1  0  0  0  0
  7 37  1  0  0  0  0
  8 27  1  0  0  0  0
  8  9  1  0  0  0  0
  9 10  2  0  0  0  0
  9 38  1  0  0  0  0
 10 11  1  0  0  0  0
 11 27  2  0  0  0  0
 11 12  1  0  0  0  0
 12 13  1  0  0  0  0
 12 24  2  0  0  0  0
 13 23  1  0  0  0  0
 13 14  1  0  0  0  0
 14 15  1  0  0  0  0
 14 39  1  0  0  0  0
 14 40  1  0  0  0  0
 15 16  1  0  0  0  0
 15 41  1  0  0  0  0
 15 42  1  0  0  0  0
 16 17  1  0  0  0  0
 16 22  1  0  0  0  0
 16 43  1  0  0  0  0
 17 21  1  0  0  0  0
 17 18  1  0  0  0  0
 17 44  1  0  0  0  0
 18 19  1  0  0  0  0
 18 45  1  0  0  0  0
 18 46  1  0  0  0  0
 19 20  1  0  0  0  0
 19 47  1  0  0  0  0
 19 48  1  0  0  0  0
 20 21  1  0  0  0  0
 20 49  1  0  0  0  0
 20 50  1  0  0  0  0
 22 23  1  0  0  0  0
 22 51  1  0  0  0  0
 22 52  1  0  0  0  0
 23 53  1  0  0  0  0
 23 54  1  0  0  0  0
 24 25  1  0  0  0  0
 25 26  2  0  0  0  0
 25 55  1  0  0  0  0
 26 27  1  0  0  0  0
 28 56  1  0  0  0  0
 28 57  1  0  0  0  0
M  END
> <s_m_source_file>
AV-unprocessed.smi

> <i_m_source_file_index>
217

> <i_lp_mmshare_version>
43012

> <i_f3d_flags>
0

> <s_epik_input>
W09IXVtDSDJdQzEoW0NIMl1bT0hdKVtDSDJdW0NIXShbQ0gyXTEpbihbY0hdbjIpYyhjMjMpbltjSF1uYzNONFtDSDJdW0NIMl1bQ0hdKFtDSDJdW0NIMl00KVtDQEBIXTVbQ0gyXVtDSDJdW0NIMl1PNQ==

> <s_epik_cmdline>
J2VwaWtfcHl0aG9uJywgJy1waCcsICc3LjAnLCAnLXRuJywgJzgnLCAnLW1hJywgJzIwMCcsICctbWV0YWxfYmluZGluZycsICctaW1hZScsICc8aW5maWxlLm1hZT4nLCAnLW9tYWUnLCAnPG91dGZpbGUubWFlPic=

> <r_lp_tautomer_probability>
1

> <r_epik_Ionization_Penalty>
0.0037022

> <r_epik_Ionization_Penalty_Charging>
0

> <r_epik_Ionization_Penalty_Neutral>
0.0037022

> <r_epik_State_Penalty>
0.00257654

> <r_epik_Charging_Adjusted_Penalty>
0.00257654

> <i_epik_Tot_Q>
0

> <i_epik_Tot_abs_Q>
0

> <r_epik_Metal_State_Penalty>
-0

> <b_epik_Metal_Only>
0

> <s_lp_Force_Field>
OPLS_2005

> <r_lp_Energy>
55.0996

> <b_lp_Chiralities_Consistent>
1

> <s_lp_Variant>
AV-unprocessed.smi:217-2

> <Gold.Version>
5.8.1

> <Gold.Id.Protein>
6NUR|6NUR_protein|mol2

> <Gold.PLP.Fitness>
47.5543

> <Gold.PLP.PLP>
-38.8456

> <Gold.PLP.part.hbond>
-3.0000

> <Gold.PLP.part.metal>
0.0000

> <Gold.PLP.part.buried>
-7.6502

> <Gold.PLP.part.nonpolar>
-29.3434

> <Gold.PLP.part.repulsive>
0.1209

> <Gold.PLP.ligand.clash>
0.0000

> <Gold.PLP.ligand.torsion>
0.5903

> <Gold.PLP.Chemscore.Hbond>
2.0000

> <Gold.PLP.Chemscore.CHOScore>
1.0000

> <Gold.PLP.Chemscore.Metal>
0.0000

> <Gold.Chemscore.Hbonds>
donor molecule, donor type, donor heavy atom, donor atom, acceptor molecule, acceptor atom, score
      L1  H     1    29       P1 10171  1.00
      L1  H     5    34       P1 10957  1.00
      L1  C     9    38       P1 10175  1.00

> <Gold.PLP.Chemscore.Internal.Correction>
0.8893

> <Gold.Rescore>
     Score         DG    S(hbond)    S(metal)    S(lipo)     H(rot)  DE(clash)    DE(int)     intcor
     14.60     -15.26       1.96        0.00      99.62       3.28       0.09       0.58       ----

> <Gold.Chemscore.Fitness>
14.5978

> <Gold.Chemscore.DG>
-15.2631

> <Gold.Chemscore.ZeroCoef>
-5.4800

> <Gold.Chemscore.Hbond>
1.9571

> <Gold.Chemscore.Metal>
0.0000

> <Gold.Chemscore.Lipo>
99.6210

> <Gold.Chemscore.Internal_Hbond>
0.0000

> <Gold.Chemscore.DEClash>
0.0901

> <Gold.Chemscore.DEInternal>
0.5751

> <Gold.Chemscore.Rot>
3.2848

> <Gold.Chemscore.Internal.Correction>
   9.000000E+99

> <Gold.Chemscore.Hbonds>
donor molecule, donor type, donor heavy atom, donor atom, acceptor molecule, acceptor atom, score
      L1  H     1    29       P1 10171  0.98
      L1  H     5    34       P1 10957  0.47

> <Gold.Chemscore.Hbond.Weighted>
-6.5366

> <Gold.Chemscore.Metal.Weighted>
-0.0000

> <Gold.Chemscore.Lipo.Weighted>
-11.6557

> <Gold.Chemscore.Internal_Hbond.Weighted>
0.0000

> <Gold.Chemscore.DEClash.Weighted>
0.0901

> <Gold.Chemscore.DEInternal.Weighted>
0.5751

> <Gold.Chemscore.Rot.Weighted>
8.4092

> <Gold.Chemscore.Internal.Correction.Weighted>
   9.000000E+99

> <Gold.Protein.RotatedTorsions>
[ 6907 6896 6895 6894 ] final   80.90 input  -60.11 | X-H torsion
[ 7974 7965 7964 7962 ] final   93.33 input  175.53 | X-H torsion
[ 8008 7997 7996 7995 ] final -150.43 input   59.86 | X-H torsion
[ 10167 10162 10161 10158 ] final -118.32 input  -65.29 | X-H torsion
[ 10718 10713 10712 10709 ] final  -21.35 input   66.30 | X-H torsion
[ 10763 10752 10751 10750 ] final  -41.09 input  -60.55 | X-H torsion
[ 11005 11000 10999 10996 ] final -154.77 input  -57.11 | X-H torsion

> <Gold.Protein.ActiveResidues>
 VAL166  LYS551  ARG553  GLY616  TRP617  ASP618  TYR619  PRO620  LYS621  CYS622 
 ASP623  PHE694  ASN695  SER759  ASP760  ASP761  ALA762  ILE779  LEU786  VAL792 
 PHE793  MET794  SER795  GLU796  ALA797  LYS798  CYS799  TRP800  GLU811  SER814 

> <Gold.Protein.RotatedAtoms>
  152.5250  134.3287  159.9174 H   0  0  0  0  0  0  0  0  0  0  0  0  # atno 6907 bound_to 6896
  151.3236  133.4023  159.2664 H   0  0  0  0  0  0  0  0  0  0  0  0  # atno 6908 bound_to 6896
  150.9938  134.9284  159.7972 H   0  0  0  0  0  0  0  0  0  0  0  0  # atno 6909 bound_to 6896
  145.4804  139.2279  143.2886 H   0  0  0  0  0  0  0  0  0  0  0  0  # atno 7974 bound_to 7965
  155.6235  140.0684  157.2671 H   0  0  0  0  0  0  0  0  0  0  0  0  # atno 8008 bound_to 7997
  154.4223  140.1780  156.1445 H   0  0  0  0  0  0  0  0  0  0  0  0  # atno 8009 bound_to 7997
  155.9990  140.3338  155.6830 H   0  0  0  0  0  0  0  0  0  0  0  0  # atno 8010 bound_to 7997
  140.0588  143.4988  152.2043 H   0  0  0  0  0  0  0  0  0  0  0  0  # atno 10167 bound_to 10162
  156.5194  130.4629  149.6605 H   0  0  0  0  0  0  0  0  0  0  0  0  # atno 10718 bound_to 10713
  153.9567  135.6744  153.4744 H   0  0  0  0  0  0  0  0  0  0  0  0  # atno 10763 bound_to 10752
  153.0858  135.4900  154.8590 H   0  0  0  0  0  0  0  0  0  0  0  0  # atno 10764 bound_to 10752
  154.7295  135.3135  154.8874 H   0  0  0  0  0  0  0  0  0  0  0  0  # atno 10765 bound_to 10752
  140.6937  134.4013  157.5217 H   0  0  0  0  0  0  0  0  0  0  0  0  # atno 11005 bound_to 11000
  146.2344  140.5590  142.8961 LP  0  0  0  0  0  0  0  0  0  0  0  0  # atno 17320 bound_to 7965
  144.7892  140.5998  143.6553 LP  0  0  0  0  0  0  0  0  0  0  0  0  # atno 17321 bound_to 7965
  139.5907  144.7549  151.3409 LP  0  0  0  0  0  0  0  0  0  0  0  0  # atno 17342 bound_to 10162
  140.7182  143.7209  150.7696 LP  0  0  0  0  0  0  0  0  0  0  0  0  # atno 17343 bound_to 10162
  156.3164  130.7257  151.2160 LP  0  0  0  0  0  0  0  0  0  0  0  0  # atno 17370 bound_to 10713
  157.7439  131.0467  150.4909 LP  0  0  0  0  0  0  0  0  0  0  0  0  # atno 17371 bound_to 10713
  139.8916  134.8775  156.2311 LP  0  0  0  0  0  0  0  0  0  0  0  0  # atno 17394 bound_to 11000
  141.0221  133.7036  156.1285 LP  0  0  0  0  0  0  0  0  0  0  0  0  # atno 17395 bound_to 11000

$$$$
