AV-unprocessed.smi:99|AV-procd|sdf|869|dock7
  -GOLD-   2262017323D 1   1.00000     0.00000
 Structure written by MMmdl.
 53 56  0  0  0  0  0  0  0  0  1 V2000
  150.6960  141.0027  155.3185 O   0  0  0  0  0  0  0  0  0  0  0  0
  150.9366  140.7214  156.4944 C   0  0  0  0  0  0  0  0  0  0  0  0
  150.8308  139.4762  156.9989 O   0  0  0  0  0  0  0  0  0  0  0  0
  150.4897  138.3948  156.1477 C   0  0  0  0  0  0  0  0  0  0  0  0
  150.1863  137.1508  156.9974 C   0  0  2  0  0  0  0  0  0  0  0  0
  150.9080  136.0409  156.4768 O   0  0  0  0  0  0  0  0  0  0  0  0
  150.1457  135.3836  155.5138 C   0  0  1  0  0  0  0  0  0  0  0  0
  150.3996  133.8983  155.6824 N   0  0  0  0  0  0  0  0  0  0  0  0
  151.2976  133.4255  156.6327 C   0  0  0  0  0  0  0  0  0  0  0  0
  151.6245  132.1184  156.7648 C   0  0  0  0  0  0  0  0  0  0  0  0
  151.0518  131.1196  155.8701 C   0  0  0  0  0  0  0  0  0  0  0  0
  151.2739  129.9117  155.9194 O   0  0  0  0  0  0  0  0  0  0  0  0
  150.1982  131.6405  154.8941 N   0  0  0  0  0  0  0  0  0  0  0  0
  149.8657  132.9877  154.7402 C   0  0  0  0  0  0  0  0  0  0  0  0
  149.1309  133.3283  153.8139 O   0  0  0  0  0  0  0  0  0  0  0  0
  148.6683  135.7817  155.7055 C   0  0  2  0  0  0  0  0  0  0  0  0
  148.1491  136.4743  154.5874 O   0  0  0  0  0  0  0  0  0  0  0  0
  148.7168  136.7265  156.9055 C   0  0  1  0  0  0  0  0  0  0  0  0
  148.3553  136.0566  158.1070 O   0  0  0  0  0  0  0  0  0  0  0  0
  148.4334  136.6796  159.3021 C   0  0  0  0  0  0  0  0  0  0  0  0
  148.8912  137.8138  159.4534 O   0  0  0  0  0  0  0  0  0  0  0  0
  147.8958  135.8516  160.4192 C   0  0  0  0  0  0  0  0  0  0  0  0
  147.4771  134.5255  160.1606 C   0  0  0  0  0  0  0  0  0  0  0  0
  146.9682  133.7193  161.1973 C   0  0  0  0  0  0  0  0  0  0  0  0
  146.8727  134.2288  162.5054 C   0  0  0  0  0  0  0  0  0  0  0  0
  147.2874  135.5458  162.7760 C   0  0  0  0  0  0  0  0  0  0  0  0
  147.7963  136.3539  161.7406 C   0  0  0  0  0  0  0  0  0  0  0  0
  151.3747  141.7245  157.5074 C   0  0  0  0  0  0  0  0  0  0  0  0
  151.1931  143.1018  157.2416 C   0  0  0  0  0  0  0  0  0  0  0  0
  151.5964  144.0728  158.1788 C   0  0  0  0  0  0  0  0  0  0  0  0
  152.1860  143.6782  159.3937 C   0  0  0  0  0  0  0  0  0  0  0  0
  152.3730  142.3113  159.6700 C   0  0  0  0  0  0  0  0  0  0  0  0
  151.9704  141.3387  158.7337 C   0  0  0  0  0  0  0  0  0  0  0  0
  149.7980  130.9879  154.2355 H   0  0  0  0  0  0  0  0  0  0  0  0
  149.6064  138.6705  155.5700 H   0  0  0  0  0  0  0  0  0  0  0  0
  151.2952  138.1968  155.4393 H   0  0  0  0  0  0  0  0  0  0  0  0
  150.4748  137.3424  158.0321 H   0  0  0  0  0  0  0  0  0  0  0  0
  150.4992  135.6681  154.5217 H   0  0  0  0  0  0  0  0  0  0  0  0
  151.7783  134.1177  157.3048 H   0  0  0  0  0  0  0  0  0  0  0  0
  152.3214  131.8115  157.5315 H   0  0  0  0  0  0  0  0  0  0  0  0
  148.0291  134.9148  155.8721 H   0  0  0  0  0  0  0  0  0  0  0  0
  148.6648  136.2518  153.8275 H   0  0  0  0  0  0  0  0  0  0  0  0
  148.0736  137.5986  156.7736 H   0  0  0  0  0  0  0  0  0  0  0  0
  147.5408  134.1124  159.1640 H   0  0  0  0  0  0  0  0  0  0  0  0
  146.6504  132.7086  160.9879 H   0  0  0  0  0  0  0  0  0  0  0  0
  146.4820  133.6105  163.3002 H   0  0  0  0  0  0  0  0  0  0  0  0
  147.2157  135.9378  163.7800 H   0  0  0  0  0  0  0  0  0  0  0  0
  148.1073  137.3596  161.9839 H   0  0  0  0  0  0  0  0  0  0  0  0
  150.7419  143.4290  156.3158 H   0  0  0  0  0  0  0  0  0  0  0  0
  151.4524  145.1216  157.9649 H   0  0  0  0  0  0  0  0  0  0  0  0
  152.4941  144.4232  160.1127 H   0  0  0  0  0  0  0  0  0  0  0  0
  152.8257  142.0071  160.6022 H   0  0  0  0  0  0  0  0  0  0  0  0
  152.1283  140.2982  158.9773 H   0  0  0  0  0  0  0  0  0  0  0  0
  1  2  2  0  0  0  0
  2  3  1  0  0  0  0
  2 28  1  0  0  0  0
  3  4  1  0  0  0  0
  4  5  1  0  0  0  0
  4 35  1  0  0  0  0
  4 36  1  0  0  0  0
  5 18  1  0  0  0  0
  5  6  1  0  0  0  0
  5 37  1  0  0  0  0
  6  7  1  0  0  0  0
  7  8  1  0  0  0  0
  7 16  1  0  0  0  0
  7 38  1  0  0  0  0
  8 14  1  0  0  0  0
  8  9  1  0  0  0  0
  9 10  2  0  0  0  0
  9 39  1  0  0  0  0
 10 11  1  0  0  0  0
 10 40  1  0  0  0  0
 11 12  2  0  0  0  0
 11 13  1  0  0  0  0
 13 34  1  0  0  0  0
 13 14  1  0  0  0  0
 14 15  2  0  0  0  0
 16 17  1  0  0  0  0
 16 18  1  0  0  0  0
 16 41  1  0  0  0  0
 17 42  1  0  0  0  0
 18 19  1  0  0  0  0
 18 43  1  0  0  0  0
 19 20  1  0  0  0  0
 20 21  2  0  0  0  0
 20 22  1  0  0  0  0
 22 27  1  0  0  0  0
 22 23  2  0  0  0  0
 23 24  1  0  0  0  0
 23 44  1  0  0  0  0
 24 25  2  0  0  0  0
 24 45  1  0  0  0  0
 25 26  1  0  0  0  0
 25 46  1  0  0  0  0
 26 27  2  0  0  0  0
 26 47  1  0  0  0  0
 27 48  1  0  0  0  0
 28 33  1  0  0  0  0
 28 29  2  0  0  0  0
 29 30  1  0  0  0  0
 29 49  1  0  0  0  0
 30 31  2  0  0  0  0
 30 50  1  0  0  0  0
 31 32  1  0  0  0  0
 31 51  1  0  0  0  0
 32 33  2  0  0  0  0
 32 52  1  0  0  0  0
 33 53  1  0  0  0  0
M  END
> <s_m_source_file>
AV-unprocessed.smi

> <i_m_source_file_index>
99

> <i_lp_mmshare_version>
43012

> <i_f3d_flags>
0

> <s_epik_input>
W2NIXTFbY0hdW2NIXVtjSF1bY0hdYzFDKD1PKU9bQ0gyXVtDQEBIXTJPW0NAQEhdKG4zW2NIXVtjSF1jKD1PKVtuSF1jMz1PKVtDQEBIXShbT0hdKVtDQEhdMk9DKD1PKWM0W2NIXVtjSF1bY0hdW2NIXVtjSF00

> <s_epik_cmdline>
J2VwaWtfcHl0aG9uJywgJy1waCcsICc3LjAnLCAnLXRuJywgJzgnLCAnLW1hJywgJzIwMCcsICctbWV0YWxfYmluZGluZycsICctaW1hZScsICc8aW5maWxlLm1hZT4nLCAnLW9tYWUnLCAnPG91dGZpbGUubWFlPic=

> <r_lp_tautomer_probability>
1

> <r_epik_Ionization_Penalty>
0.00454555

> <r_epik_Ionization_Penalty_Charging>
0.0045191

> <r_epik_Ionization_Penalty_Neutral>
2.64449e-05

> <r_epik_State_Penalty>
-0

> <r_epik_Charging_Adjusted_Penalty>
0.0045191

> <i_epik_Tot_Q>
0

> <i_epik_Tot_abs_Q>
0

> <r_epik_Metal_State_Penalty>
1.27877

> <b_epik_Metal_Only>
0

> <s_epik_Chemistry_Notes>
This compound has an ester and may undergo hydrolysis at high or low pH. This compound contains an acetal/aminal-like group ( X-CH(R)-Y where X, Y are N, S, or O) that may be acid/base labile, releasing an aldehyde.

> <s_lp_Force_Field>
OPLS_2005

> <r_lp_Energy>
32.4523

> <b_lp_Chiralities_Consistent>
1

> <s_lp_Variant>
AV-unprocessed.smi:99-5

> <Gold.Version>
5.8.1

> <Gold.Id.Protein>
6NUR|6NUR_protein|mol2

> <Gold.PLP.Fitness>
61.1805

> <Gold.PLP.PLP>
-57.6226

> <Gold.PLP.part.hbond>
-3.7618

> <Gold.PLP.part.metal>
0.0000

> <Gold.PLP.part.buried>
-6.4816

> <Gold.PLP.part.nonpolar>
-46.8960

> <Gold.PLP.part.repulsive>
0.2745

> <Gold.PLP.ligand.clash>
0.0000

> <Gold.PLP.ligand.torsion>
0.9650

> <Gold.PLP.Chemscore.Hbond>
1.7200

> <Gold.PLP.Chemscore.CHOScore>
0.0000

> <Gold.PLP.Chemscore.Metal>
0.0000

> <Gold.Chemscore.Hbonds>
donor molecule, donor type, donor heavy atom, donor atom, acceptor molecule, acceptor atom, score
      L1  H    17    42       P1  7948  1.00
      P1  H  7989  7998       L1     1  0.70

> <Gold.PLP.Chemscore.Internal.Correction>
0.3281

> <Gold.Rescore>
     Score         DG    S(hbond)    S(metal)    S(lipo)     H(rot)  DE(clash)    DE(int)     intcor
     15.38     -17.76       1.65        0.00     127.69       3.19       0.21       2.17       ----

> <Gold.Chemscore.Fitness>
15.3758

> <Gold.Chemscore.DG>
-17.7567

> <Gold.Chemscore.ZeroCoef>
-5.4800

> <Gold.Chemscore.Hbond>
1.6481

> <Gold.Chemscore.Metal>
0.0000

> <Gold.Chemscore.Lipo>
127.6863

> <Gold.Chemscore.Internal_Hbond>
0.0000

> <Gold.Chemscore.DEClash>
0.2087

> <Gold.Chemscore.DEInternal>
2.1722

> <Gold.Chemscore.Rot>
3.1903

> <Gold.Chemscore.Internal.Correction>
   9.000000E+99

> <Gold.Chemscore.Hbonds>
donor molecule, donor type, donor heavy atom, donor atom, acceptor molecule, acceptor atom, score
      L1  H    17    42       P1  7948  0.94
      P1  H  7989  7998       L1     1  0.66

> <Gold.Chemscore.Hbond.Weighted>
-5.5045

> <Gold.Chemscore.Metal.Weighted>
-0.0000

> <Gold.Chemscore.Lipo.Weighted>
-14.9393

> <Gold.Chemscore.Internal_Hbond.Weighted>
0.0000

> <Gold.Chemscore.DEClash.Weighted>
0.2087

> <Gold.Chemscore.DEInternal.Weighted>
2.1722

> <Gold.Chemscore.Rot.Weighted>
8.1671

> <Gold.Chemscore.Internal.Correction.Weighted>
   9.000000E+99

> <Gold.Protein.RotatedTorsions>
[ 6907 6896 6895 6894 ] final -174.01 input  -60.11 | X-H torsion
[ 7974 7965 7964 7962 ] final  133.02 input  175.53 | X-H torsion
[ 8008 7997 7996 7995 ] final  118.95 input   59.86 | X-H torsion
[ 10167 10162 10161 10158 ] final   95.36 input  -65.29 | X-H torsion
[ 10718 10713 10712 10709 ] final  132.80 input   66.30 | X-H torsion
[ 10763 10752 10751 10750 ] final  -22.51 input  -60.55 | X-H torsion
[ 11005 11000 10999 10996 ] final -124.37 input  -57.11 | X-H torsion

> <Gold.Protein.ActiveResidues>
 VAL166  LYS551  ARG553  GLY616  TRP617  ASP618  TYR619  PRO620  LYS621  CYS622 
 ASP623  PHE694  ASN695  SER759  ASP760  ASP761  ALA762  ILE779  LEU786  VAL792 
 PHE793  MET794  SER795  GLU796  ALA797  LYS798  CYS799  TRP800  GLU811  SER814 

> <Gold.Protein.RotatedAtoms>
  151.5654  133.3397  159.2978 H   0  0  0  0  0  0  0  0  0  0  0  0  # atno 6907 bound_to 6896
  150.8398  134.7689  159.6934 H   0  0  0  0  0  0  0  0  0  0  0  0  # atno 6908 bound_to 6896
  152.4468  134.5485  159.9911 H   0  0  0  0  0  0  0  0  0  0  0  0  # atno 6909 bound_to 6896
  144.9909  139.4408  143.5340 H   0  0  0  0  0  0  0  0  0  0  0  0  # atno 7974 bound_to 7965
  156.2572  140.2863  156.0915 H   0  0  0  0  0  0  0  0  0  0  0  0  # atno 8008 bound_to 7997
  155.1457  140.0396  157.2826 H   0  0  0  0  0  0  0  0  0  0  0  0  # atno 8009 bound_to 7997
  154.6497  140.2541  155.7234 H   0  0  0  0  0  0  0  0  0  0  0  0  # atno 8010 bound_to 7997
  139.7996  144.6819  150.9782 H   0  0  0  0  0  0  0  0  0  0  0  0  # atno 10167 bound_to 10162
  157.4835  131.1087  150.9650 H   0  0  0  0  0  0  0  0  0  0  0  0  # atno 10718 bound_to 10713
  153.6531  135.6980  153.5202 H   0  0  0  0  0  0  0  0  0  0  0  0  # atno 10763 bound_to 10752
  153.2691  135.4220  155.0969 H   0  0  0  0  0  0  0  0  0  0  0  0  # atno 10764 bound_to 10752
  154.8471  135.3574  154.6075 H   0  0  0  0  0  0  0  0  0  0  0  0  # atno 10765 bound_to 10752
  140.9846  134.0624  157.3725 H   0  0  0  0  0  0  0  0  0  0  0  0  # atno 11005 bound_to 11000
  146.3431  139.9239  142.8763 LP  0  0  0  0  0  0  0  0  0  0  0  0  # atno 17320 bound_to 7965
  145.2288  140.9964  143.4003 LP  0  0  0  0  0  0  0  0  0  0  0  0  # atno 17321 bound_to 7965
  140.7820  143.4295  151.0716 LP  0  0  0  0  0  0  0  0  0  0  0  0  # atno 17342 bound_to 10162
  139.7968  143.8141  152.3158 LP  0  0  0  0  0  0  0  0  0  0  0  0  # atno 17343 bound_to 10162
  157.0376  130.5736  149.5351 LP  0  0  0  0  0  0  0  0  0  0  0  0  # atno 17370 bound_to 10713
  156.0134  130.5227  150.8060 LP  0  0  0  0  0  0  0  0  0  0  0  0  # atno 17371 bound_to 10713
  139.8965  135.0146  156.7054 LP  0  0  0  0  0  0  0  0  0  0  0  0  # atno 17394 bound_to 11000
  140.7134  133.9204  155.8099 LP  0  0  0  0  0  0  0  0  0  0  0  0  # atno 17395 bound_to 11000

$$$$
