#       Name:                AV-unprocessed.smi:691
#       Creating user name   scv26
#       Creation time:       Fri Mar 27 00:34:30 2020


#       File generated by GOLD software.
#

@<TRIPOS>MOLECULE
AV-unprocessed.smi:691
    42    43     1
SMALL
NO_CHARGES


@<TRIPOS>ATOM
      1 ****        -1.1244   3.2243  -1.4994 C.3            1 S1                 0.0000
      2 ****        -0.6736   1.7448  -1.5644 C.3            1 S1                 0.0000
      3 ****         0.8768   1.6768  -1.5233 C.3            1 S1                 0.0000
      4 ****         1.4627   2.3865  -2.5965 O.3            1 S1                 0.0000
      5 ****        -1.2435   1.0715  -2.8253 C.3            1 S1                 0.0000
      6 ****        -2.6972   0.7224  -2.4968 C.3            1 S1                 0.0000
      7 ****        -2.7637   0.5728  -0.9714 C.3            1 S1                 0.0000
      8 ****        -1.3753   0.9554  -0.4233 C.3            1 S1                 0.0000
      9 ****        -0.6615  -0.2664  -0.0418 N.am           1 S1                 0.0000
     10 ****         0.0457  -0.4437   1.0838 C.2            1 S1                 0.0000
     11 ****         0.1788   0.4235   1.9464 O.2            1 S1                 0.0000
     12 ****         0.5705  -1.6802   1.1324 N.am           1 S1                 0.0000
     13 ****         1.3792  -2.2726   2.1413 C.ar           1 S1                 0.0000
     14 ****         2.0482  -1.5560   3.1640 C.ar           1 S1                 0.0000
     15 ****         2.8294  -2.2683   4.0946 C.ar           1 S1                 0.0000
     16 ****         2.9184  -3.6679   3.9676 C.ar           1 S1                 0.0000
     17 ****         2.2962  -4.3627   2.9924 N.ar           1 S1                 0.0000
     18 ****         1.5496  -3.6730   2.1038 C.ar           1 S1                 0.0000
     19 ****        -0.7758   3.7919  -2.3625 H              1 S1                 0.0000
     20 ****        -0.7335   3.7136  -0.6067 H              1 S1                 0.0000
     21 ****        -2.2097   3.3226  -1.4715 H              1 S1                 0.0000
     22 ****         1.2514   2.0885  -0.5856 H              1 S1                 0.0000
     23 ****         1.2341   0.6488  -1.5845 H              1 S1                 0.0000
     24 ****         2.4026   2.3256  -2.5194 H              1 S1                 0.0000
     25 ****        -1.1596   1.6957  -3.7157 H              1 S1                 0.0000
     26 ****        -0.6968   0.1496  -3.0287 H              1 S1                 0.0000
     27 ****        -3.3561   1.5308  -2.8167 H              1 S1                 0.0000
     28 ****        -3.0197  -0.1823  -3.0132 H              1 S1                 0.0000
     29 ****        -3.5227   1.2468  -0.5722 H              1 S1                 0.0000
     30 ****        -3.0601  -0.4365  -0.6817 H              1 S1                 0.0000
     31 ****        -1.4997   1.5884   0.4574 H              1 S1                 0.0000
     32 ****        -0.7162  -1.0380  -0.6903 H              1 S1                 0.0000
     33 ****         0.3243  -2.2920   0.3679 H              1 S1                 0.0000
     34 ****         1.9924  -0.4828   3.2515 H              1 S1                 0.0000
     35 ****         3.3514  -1.7517   4.8865 H              1 S1                 0.0000
     36 ****         3.5097  -4.2435   4.6645 H              1 S1                 0.0000
     37 ****         1.0689  -4.2623   1.3365 H              1 S1                 0.0000
     38 ****         1.1827   3.3458  -2.5591 LP             1 S1                 0.0000
     39 ****         1.1690   1.9872  -3.4650 LP             1 S1                 0.0000
     40 ****        -0.2529   1.3176   1.8273 LP             1 S1                 0.0000
     41 ****         0.7186   0.2342   2.7666 LP             1 S1                 0.0000
     42 ****         2.3852  -5.3568   2.9299 LP             1 S1                 0.0000
@<TRIPOS>BOND
    1    1    2 1     
    2    1   19 1     
    3    1   20 1     
    4    1   21 1     
    5    2    8 1     
    6    2    3 1     
    7    2    5 1     
    8    3    4 1     
    9    3   22 1     
   10    3   23 1     
   11    4   24 1     
   12    5    6 1     
   13    5   25 1     
   14    5   26 1     
   15    6    7 1     
   16    6   27 1     
   17    6   28 1     
   18    7    8 1     
   19    7   29 1     
   20    7   30 1     
   21    8    9 1     
   22    8   31 1     
   23    9   10 am    
   24    9   32 1     
   25   10   11 2     
   26   10   12 am    
   27   12   13 1     
   28   12   33 1     
   29   13   18 ar    
   30   13   14 ar    
   31   14   15 ar    
   32   14   34 1     
   33   15   16 ar    
   34   15   35 1     
   35   16   17 ar    
   36   16   36 1     
   37   17   18 ar    
   38   18   37 1     
   39    4   38 1     
   40    4   39 1     
   41   11   40 1     
   42   11   41 1     
   43   17   42 1     
@<TRIPOS>SUBSTRUCTURE
      1 S1             1
@<TRIPOS>SET
LONE_PAIRS      STATIC     ATOMS    <user>   **** ""
5 38 39 40 41 42
DONOR_HYDROGENS      STATIC     ATOMS    <user>   **** ""
3 24 32 33
ATOM$BLUE        STATIC     ATOMS    COLORGROUP SYSTEM
5 38 39 40 41 42
ATOM$RED        STATIC     ATOMS    COLORGROUP SYSTEM
3 24 32 33
