AV-unprocessed.smi:677|AV-procd|sdf|3312|dock3
  -GOLD-   22720 0273D 1   1.00000     0.00000
 Structure written by MMmdl.
 44 45  0  0  0  0  0  0  0  0  2 V2000
  151.3925  145.2792  159.1402 C   0  0  0  0  0  0  0  0  0  0  0  0
  152.1330  144.2079  159.9123 C   0  0  0  0  0  0  0  0  0  0  0  0
  152.1395  144.1610  161.3230 C   0  0  0  0  0  0  0  0  0  0  0  0
  152.8521  143.1330  161.9747 C   0  0  0  0  0  0  0  0  0  0  0  0
  153.5439  142.1726  161.2037 C   0  0  0  0  0  0  0  0  0  0  0  0
  154.3275  141.0590  161.8747 C   0  0  0  0  0  0  0  0  0  0  0  0
  154.6361  139.9546  160.8640 C   0  0  0  0  0  0  0  0  0  0  0  0
  155.5054  140.1313  160.0106 O   0  0  0  0  0  0  0  0  0  0  0  0
  153.9357  138.8164  160.9868 N   0  0  0  0  0  0  0  0  0  0  0  0
  154.0993  137.6277  160.1552 C   0  0  0  0  0  0  0  0  0  0  0  0
  153.0119  137.5216  159.0660 C   0  0  0  0  0  0  0  0  0  0  0  0
  153.3633  136.5261  157.9430 C   0  0  0  0  0  0  0  0  0  0  0  0
  152.2903  136.5250  156.8396 C   0  0  0  0  0  0  0  0  0  0  0  0
  152.1370  137.8645  156.2718 N   0  0  0  0  0  0  0  0  0  0  0  0
  151.1611  137.8071  155.1885 C   0  0  0  0  0  0  0  0  0  0  0  0
  150.7499  139.1430  154.7247 C   0  0  0  0  0  0  0  0  0  0  0  0
  150.4268  140.1929  154.3610 N   0  0  0  0  0  0  0  0  0  0  0  0
  151.6827  138.7909  157.3113 C   0  0  0  0  0  0  0  0  0  0  0  0
  152.7354  138.8932  158.4284 C   0  0  0  0  0  0  0  0  0  0  0  0
  153.5014  142.2704  159.7959 C   0  0  0  0  0  0  0  0  0  0  0  0
  152.8079  143.2706  159.2099 N   0  3  0  0  0  0  0  0  0  0  0  0
  150.8877  145.9722  159.8139 H   0  0  0  0  0  0  0  0  0  0  0  0
  150.6419  144.8288  158.4900 H   0  0  0  0  0  0  0  0  0  0  0  0
  152.0867  145.8497  158.5224 H   0  0  0  0  0  0  0  0  0  0  0  0
  151.6070  144.9022  161.9010 H   0  0  0  0  0  0  0  0  0  0  0  0
  152.8689  143.0859  163.0540 H   0  0  0  0  0  0  0  0  0  0  0  0
  155.2479  141.4578  162.3048 H   0  0  0  0  0  0  0  0  0  0  0  0
  153.7485  140.6415  162.6993 H   0  0  0  0  0  0  0  0  0  0  0  0
  153.2394  138.7651  161.7165 H   0  0  0  0  0  0  0  0  0  0  0  0
  155.0808  137.6940  159.6850 H   0  0  0  0  0  0  0  0  0  0  0  0
  154.1187  136.7215  160.7633 H   0  0  0  0  0  0  0  0  0  0  0  0
  152.0900  137.1825  159.5414 H   0  0  0  0  0  0  0  0  0  0  0  0
  154.3327  136.7787  157.5109 H   0  0  0  0  0  0  0  0  0  0  0  0
  153.4577  135.5171  158.3444 H   0  0  0  0  0  0  0  0  0  0  0  0
  152.5831  135.8299  156.0521 H   0  0  0  0  0  0  0  0  0  0  0  0
  151.3362  136.1747  157.2367 H   0  0  0  0  0  0  0  0  0  0  0  0
  151.5921  137.2946  154.3278 H   0  0  0  0  0  0  0  0  0  0  0  0
  150.2721  137.2512  155.4902 H   0  0  0  0  0  0  0  0  0  0  0  0
  151.5220  139.7802  156.8826 H   0  0  0  0  0  0  0  0  0  0  0  0
  150.7259  138.4602  157.7186 H   0  0  0  0  0  0  0  0  0  0  0  0
  152.3924  139.5953  159.1889 H   0  0  0  0  0  0  0  0  0  0  0  0
  153.6586  139.3078  158.0202 H   0  0  0  0  0  0  0  0  0  0  0  0
  154.0028  141.5874  159.1254 H   0  0  0  0  0  0  0  0  0  0  0  0
  152.7948  143.3217  158.1911 H   0  0  0  0  0  0  0  0  0  0  0  0
  1  2  1  0  0  0  0
  1 22  1  0  0  0  0
  1 23  1  0  0  0  0
  1 24  1  0  0  0  0
  2 21  1  0  0  0  0
  2  3  2  0  0  0  0
  3  4  1  0  0  0  0
  3 25  1  0  0  0  0
  4  5  2  0  0  0  0
  4 26  1  0  0  0  0
  5  6  1  0  0  0  0
  5 20  1  0  0  0  0
  6  7  1  0  0  0  0
  6 27  1  0  0  0  0
  6 28  1  0  0  0  0
  7  8  2  0  0  0  0
  7  9  1  0  0  0  0
  9 10  1  0  0  0  0
  9 29  1  0  0  0  0
 10 11  1  0  0  0  0
 10 30  1  0  0  0  0
 10 31  1  0  0  0  0
 11 19  1  0  0  0  0
 11 12  1  0  0  0  0
 11 32  1  0  0  0  0
 12 13  1  0  0  0  0
 12 33  1  0  0  0  0
 12 34  1  0  0  0  0
 13 14  1  0  0  0  0
 13 35  1  0  0  0  0
 13 36  1  0  0  0  0
 14 15  1  0  0  0  0
 14 18  1  0  0  0  0
 15 16  1  0  0  0  0
 15 37  1  0  0  0  0
 15 38  1  0  0  0  0
 16 17  3  0  0  0  0
 18 19  1  0  0  0  0
 18 39  1  0  0  0  0
 18 40  1  0  0  0  0
 19 41  1  0  0  0  0
 19 42  1  0  0  0  0
 20 21  2  0  0  0  0
 20 43  1  0  0  0  0
 21 44  1  0  0  0  0
M  CHG  1  21   1
M  END
> <s_m_source_file>
AV-unprocessed.smi

> <i_m_source_file_index>
677

> <i_lp_mmshare_version>
43012

> <i_f3d_flags>
0

> <s_epik_input>
W0NIM11jMVtjSF1bY0hdYyhbY0hdbjEpW0NIMl1DKD1PKVtOSF1bQ0gyXVtDSF0yW0NIMl1bQ0gyXU4oW0NIMl1DI04pW0NIMl1bQ0gyXTI=

> <s_epik_cmdline>
J2VwaWtfcHl0aG9uJywgJy1waCcsICc3LjAnLCAnLXRuJywgJzgnLCAnLW1hJywgJzIwMCcsICctbWV0YWxfYmluZGluZycsICctaW1hZScsICc8aW5maWxlLm1hZT4nLCAnLW9tYWUnLCAnPG91dGZpbGUubWFlPic=

> <r_epik_Ionization_Penalty>
2.12868

> <r_epik_Ionization_Penalty_Charging>
2.12771

> <r_epik_Ionization_Penalty_Neutral>
0.000970756

> <r_epik_State_Penalty>
2.26584

> <r_epik_Charging_Adjusted_Penalty>
4.39355

> <i_epik_Tot_Q>
1

> <i_epik_Tot_abs_Q>
1

> <r_epik_Metal_State_Penalty>
2.28211

> <b_epik_Metal_Only>
0

> <s_lp_Force_Field>
OPLS_2005

> <r_lp_Energy>
22.0212

> <b_lp_Chiralities_Consistent>
1

> <s_lp_Variant>
AV-unprocessed.smi:677-2

> <Gold.Version>
5.8.1

> <Gold.Id.Protein>
6NUR|6NUR_protein|mol2

> <Gold.PLP.Fitness>
44.8137

> <Gold.PLP.PLP>
-43.2052

> <Gold.PLP.part.hbond>
-1.0000

> <Gold.PLP.part.metal>
0.0000

> <Gold.PLP.part.buried>
-5.6405

> <Gold.PLP.part.nonpolar>
-35.3871

> <Gold.PLP.part.repulsive>
0.1647

> <Gold.PLP.ligand.clash>
0.0000

> <Gold.PLP.ligand.torsion>
0.7168

> <Gold.PLP.Chemscore.Hbond>
1.0000

> <Gold.PLP.Chemscore.CHOScore>
0.0000

> <Gold.PLP.Chemscore.Metal>
0.0000

> <Gold.Chemscore.Hbonds>
donor molecule, donor type, donor heavy atom, donor atom, acceptor molecule, acceptor atom, score
      P1  H  7989  7998       L1    17  1.00

> <Gold.PLP.Chemscore.Internal.Correction>
0.0421

> <Gold.Rescore>
     Score         DG    S(hbond)    S(metal)    S(lipo)     H(rot)  DE(clash)    DE(int)     intcor
     15.86     -17.49       0.99        0.00     115.13       1.86       0.01       1.61       ----

> <Gold.Chemscore.Fitness>
15.8644

> <Gold.Chemscore.DG>
-17.4912

> <Gold.Chemscore.ZeroCoef>
-5.4800

> <Gold.Chemscore.Hbond>
0.9885

> <Gold.Chemscore.Metal>
0.0000

> <Gold.Chemscore.Lipo>
115.1280

> <Gold.Chemscore.Internal_Hbond>
0.0000

> <Gold.Chemscore.DEClash>
0.0136

> <Gold.Chemscore.DEInternal>
1.6133

> <Gold.Chemscore.Rot>
1.8595

> <Gold.Chemscore.Internal.Correction>
   9.000000E+99

> <Gold.Chemscore.Hbonds>
donor molecule, donor type, donor heavy atom, donor atom, acceptor molecule, acceptor atom, score
      P1  H  7989  7998       L1    17  0.73

> <Gold.Chemscore.Hbond.Weighted>
-3.3016

> <Gold.Chemscore.Metal.Weighted>
-0.0000

> <Gold.Chemscore.Lipo.Weighted>
-13.4700

> <Gold.Chemscore.Internal_Hbond.Weighted>
0.0000

> <Gold.Chemscore.DEClash.Weighted>
0.0136

> <Gold.Chemscore.DEInternal.Weighted>
1.6133

> <Gold.Chemscore.Rot.Weighted>
4.7603

> <Gold.Chemscore.Internal.Correction.Weighted>
   9.000000E+99

> <Gold.Protein.RotatedTorsions>
[ 6907 6896 6895 6894 ] final -131.38 input  -60.11 | X-H torsion
[ 7974 7965 7964 7962 ] final  -62.86 input  175.53 | X-H torsion
[ 8008 7997 7996 7995 ] final   95.33 input   59.86 | X-H torsion
[ 10167 10162 10161 10158 ] final   42.15 input  -65.29 | X-H torsion
[ 10718 10713 10712 10709 ] final -104.20 input   66.30 | X-H torsion
[ 10763 10752 10751 10750 ] final  122.15 input  -60.55 | X-H torsion
[ 11005 11000 10999 10996 ] final  169.41 input  -57.11 | X-H torsion

> <Gold.Protein.ActiveResidues>
 VAL166  LYS551  ARG553  GLY616  TRP617  ASP618  TYR619  PRO620  LYS621  CYS622 
 ASP623  PHE694  ASN695  SER759  ASP760  ASP761  ALA762  ILE779  LEU786  VAL792 
 PHE793  MET794  SER795  GLU796  ALA797  LYS798  CYS799  TRP800  GLU811  SER814 

> <Gold.Protein.RotatedAtoms>
  150.9503  133.6557  159.2773 H   0  0  0  0  0  0  0  0  0  0  0  0  # atno 6907 bound_to 6896
  151.3915  135.0955  159.9537 H   0  0  0  0  0  0  0  0  0  0  0  0  # atno 6908 bound_to 6896
  152.5107  133.9016  159.7499 H   0  0  0  0  0  0  0  0  0  0  0  0  # atno 6909 bound_to 6896
  145.7861  140.8735  143.0305 H   0  0  0  0  0  0  0  0  0  0  0  0  # atno 7974 bound_to 7965
  156.0676  140.3288  155.7537 H   0  0  0  0  0  0  0  0  0  0  0  0  # atno 8008 bound_to 7997
  155.5356  140.0597  157.2898 H   0  0  0  0  0  0  0  0  0  0  0  0  # atno 8009 bound_to 7997
  154.4513  140.1920  156.0527 H   0  0  0  0  0  0  0  0  0  0  0  0  # atno 8010 bound_to 7997
  140.3572  144.2275  150.6141 H   0  0  0  0  0  0  0  0  0  0  0  0  # atno 10167 bound_to 10162
  156.0295  130.5503  150.7362 H   0  0  0  0  0  0  0  0  0  0  0  0  # atno 10718 bound_to 10713
  153.6252  135.3406  155.3024 H   0  0  0  0  0  0  0  0  0  0  0  0  # atno 10763 bound_to 10752
  154.8592  135.4282  154.2164 H   0  0  0  0  0  0  0  0  0  0  0  0  # atno 10764 bound_to 10752
  153.3047  135.7027  153.7244 H   0  0  0  0  0  0  0  0  0  0  0  0  # atno 10765 bound_to 10752
  140.2974  134.7623  157.3888 H   0  0  0  0  0  0  0  0  0  0  0  0  # atno 11005 bound_to 11000
  144.6789  140.0058  143.7484 LP  0  0  0  0  0  0  0  0  0  0  0  0  # atno 17320 bound_to 7965
  146.0024  139.3102  143.0919 LP  0  0  0  0  0  0  0  0  0  0  0  0  # atno 17321 bound_to 7965
  140.5162  143.2277  151.8459 LP  0  0  0  0  0  0  0  0  0  0  0  0  # atno 17342 bound_to 10162
  139.4818  144.4891  151.9208 LP  0  0  0  0  0  0  0  0  0  0  0  0  # atno 17343 bound_to 10162
  157.4942  131.0913  151.0391 LP  0  0  0  0  0  0  0  0  0  0  0  0  # atno 17370 bound_to 10713
  157.0790  130.5895  149.5417 LP  0  0  0  0  0  0  0  0  0  0  0  0  # atno 17371 bound_to 10713
  140.1140  134.5308  155.8241 LP  0  0  0  0  0  0  0  0  0  0  0  0  # atno 17394 bound_to 11000
  141.2135  133.6734  156.6742 LP  0  0  0  0  0  0  0  0  0  0  0  0  # atno 17395 bound_to 11000

$$$$
