AV-unprocessed.smi:1019|AV-procd|sdf|4450|dock9
  -GOLD-   22720 2413D 1   1.00000     0.00000
 Structure written by MMmdl.
 45 47  0  0  0  0  0  0  0  0  3 V2000
  146.5695  140.4156  152.0552 C   0  0  0  0  0  0  0  0  0  0  0  0
  146.4576  139.6167  153.2989 N   0  3  2  0  0  0  0  0  0  0  0  0
  147.1168  140.2687  154.4604 C   0  0  0  0  0  0  0  0  0  0  0  0
  146.3589  141.4977  154.9303 C   0  0  0  0  0  0  0  0  0  0  0  0
  146.2105  142.6140  154.0794 C   0  0  0  0  0  0  0  0  0  0  0  0
  145.5020  143.7490  154.5188 C   0  0  0  0  0  0  0  0  0  0  0  0
  144.9415  143.7736  155.8105 C   0  0  0  0  0  0  0  0  0  0  0  0
  145.0905  142.6631  156.6635 C   0  0  0  0  0  0  0  0  0  0  0  0
  145.7988  141.5274  156.2249 C   0  0  0  0  0  0  0  0  0  0  0  0
  146.8950  138.2115  153.0942 C   0  0  0  0  0  0  0  0  0  0  0  0
  145.8789  137.3877  152.2775 C   0  0  1  0  0  0  0  0  0  0  0  0
  146.0378  137.6960  150.9057 O   0  0  0  0  0  0  0  0  0  0  0  0
  146.0786  135.8730  152.4837 C   0  0  0  0  0  0  0  0  0  0  0  0
  145.0322  135.0624  151.8463 N   0  0  0  0  0  0  0  0  0  0  0  0
  143.8112  135.4280  151.3682 C   0  0  0  0  0  0  0  0  0  0  0  0
  143.2145  134.3112  150.8665 N   0  3  0  0  0  0  0  0  0  0  0  0
  144.0663  133.2161  151.0244 C   0  0  0  0  0  0  0  0  0  0  0  0
  143.9073  131.8793  150.6730 C   0  0  0  0  0  0  0  0  0  0  0  0
  144.9790  131.0137  150.9759 C   0  0  0  0  0  0  0  0  0  0  0  0
  146.1499  131.4858  151.6044 C   0  0  0  0  0  0  0  0  0  0  0  0
  146.3002  132.8433  151.9573 C   0  0  0  0  0  0  0  0  0  0  0  0
  145.2366  133.6921  151.6532 C   0  0  0  0  0  0  0  0  0  0  0  0
  147.6105  140.5072  151.7429 H   0  0  0  0  0  0  0  0  0  0  0  0
  146.1625  141.4179  152.1864 H   0  0  0  0  0  0  0  0  0  0  0  0
  146.0099  139.9479  151.2445 H   0  0  0  0  0  0  0  0  0  0  0  0
  147.1780  139.5810  155.3035 H   0  0  0  0  0  0  0  0  0  0  0  0
  148.1456  140.5303  154.2070 H   0  0  0  0  0  0  0  0  0  0  0  0
  146.6354  142.6026  153.0863 H   0  0  0  0  0  0  0  0  0  0  0  0
  145.3879  144.6012  153.8649 H   0  0  0  0  0  0  0  0  0  0  0  0
  144.3981  144.6443  156.1469 H   0  0  0  0  0  0  0  0  0  0  0  0
  144.6615  142.6830  157.6547 H   0  0  0  0  0  0  0  0  0  0  0  0
  145.9088  140.6786  156.8842 H   0  0  0  0  0  0  0  0  0  0  0  0
  147.8520  138.1916  152.5701 H   0  0  0  0  0  0  0  0  0  0  0  0
  147.0748  137.7480  154.0656 H   0  0  0  0  0  0  0  0  0  0  0  0
  144.8604  137.6489  152.5626 H   0  0  0  0  0  0  0  0  0  0  0  0
  145.2445  138.1030  150.5914 H   0  0  0  0  0  0  0  0  0  0  0  0
  147.0353  135.5559  152.0658 H   0  0  0  0  0  0  0  0  0  0  0  0
  146.1086  135.6235  153.5452 H   0  0  0  0  0  0  0  0  0  0  0  0
  143.3905  136.4231  151.3837 H   0  0  0  0  0  0  0  0  0  0  0  0
  143.0119  131.5148  150.1907 H   0  0  0  0  0  0  0  0  0  0  0  0
  144.9017  129.9667  150.7202 H   0  0  0  0  0  0  0  0  0  0  0  0
  146.9498  130.7919  151.8192 H   0  0  0  0  0  0  0  0  0  0  0  0
  147.2010  133.1948  152.4376 H   0  0  0  0  0  0  0  0  0  0  0  0
  145.4714  139.5695  153.5141 H   0  0  0  0  0  0  0  0  0  0  0  0
  142.2939  134.3005  150.4459 H   0  0  0  0  0  0  0  0  0  0  0  0
  1  2  1  0  0  0  0
  1 23  1  0  0  0  0
  1 24  1  0  0  0  0
  1 25  1  0  0  0  0
  2  3  1  0  0  0  0
  2 10  1  0  0  0  0
  2 44  1  0  0  0  0
  3  4  1  0  0  0  0
  3 26  1  0  0  0  0
  3 27  1  0  0  0  0
  4  9  1  0  0  0  0
  4  5  2  0  0  0  0
  5  6  1  0  0  0  0
  5 28  1  0  0  0  0
  6  7  2  0  0  0  0
  6 29  1  0  0  0  0
  7  8  1  0  0  0  0
  7 30  1  0  0  0  0
  8  9  2  0  0  0  0
  8 31  1  0  0  0  0
  9 32  1  0  0  0  0
 10 11  1  0  0  0  0
 10 33  1  0  0  0  0
 10 34  1  0  0  0  0
 11 12  1  0  0  0  0
 11 13  1  0  0  0  0
 11 35  1  0  0  0  0
 12 36  1  0  0  0  0
 13 14  1  0  0  0  0
 13 37  1  0  0  0  0
 13 38  1  0  0  0  0
 14 22  1  0  0  0  0
 14 15  1  0  0  0  0
 15 16  2  0  0  0  0
 15 39  1  0  0  0  0
 16 17  1  0  0  0  0
 16 45  1  0  0  0  0
 17 22  2  0  0  0  0
 17 18  1  0  0  0  0
 18 19  2  0  0  0  0
 18 40  1  0  0  0  0
 19 20  1  0  0  0  0
 19 41  1  0  0  0  0
 20 21  2  0  0  0  0
 20 42  1  0  0  0  0
 21 22  1  0  0  0  0
 21 43  1  0  0  0  0
M  CHG  1   2   1
M  CHG  1  16   1
M  END
> <s_m_source_file>
AV-unprocessed.smi

> <i_m_source_file_index>
1019

> <i_lp_mmshare_version>
43012

> <i_f3d_flags>
0

> <s_epik_input>
W2NIXTFbY0hdW2NIXVtjSF1bY0hdYzFbQ0gyXU4oW0NIM10pW0NIMl1bQ0BIXShbT0hdKVtDSDJdbihbY0hdbjIpYyhjMjMpW2NIXVtjSF1bY0hdW2NIXTM=

> <s_epik_cmdline>
J2VwaWtfcHl0aG9uJywgJy1waCcsICc3LjAnLCAnLXRuJywgJzgnLCAnLW1hJywgJzIwMCcsICctbWV0YWxfYmluZGluZycsICctaW1hZScsICc8aW5maWxlLm1hZT4nLCAnLW9tYWUnLCAnPG91dGZpbGUubWFlPic=

> <r_epik_Ionization_Penalty>
1.5198

> <r_epik_Ionization_Penalty_Charging>
1.5198

> <r_epik_Ionization_Penalty_Neutral>
3.13312e-06

> <r_epik_State_Penalty>
1.624

> <r_epik_Charging_Adjusted_Penalty>
3.1438

> <i_epik_Tot_Q>
2

> <i_epik_Tot_abs_Q>
2

> <r_epik_Metal_State_Penalty>
5.67392

> <b_epik_Metal_Only>
0

> <s_lp_Force_Field>
OPLS_2005

> <r_lp_Energy>
24.6792

> <b_lp_Chiralities_Consistent>
1

> <s_lp_Variant>
AV-unprocessed.smi:1019-8

> <Gold.Version>
5.8.1

> <Gold.Id.Protein>
6NUR|6NUR_protein|mol2

> <Gold.PLP.Fitness>
61.4298

> <Gold.PLP.PLP>
-41.5771

> <Gold.PLP.part.hbond>
-5.0000

> <Gold.PLP.part.metal>
0.0000

> <Gold.PLP.part.buried>
-2.4654

> <Gold.PLP.part.nonpolar>
-34.5673

> <Gold.PLP.part.repulsive>
0.0224

> <Gold.PLP.ligand.clash>
0.0000

> <Gold.PLP.ligand.torsion>
0.6714

> <Gold.PLP.Chemscore.Hbond>
6.0000

> <Gold.PLP.Chemscore.CHOScore>
1.0000

> <Gold.PLP.Chemscore.Metal>
0.0000

> <Gold.Chemscore.Hbonds>
donor molecule, donor type, donor heavy atom, donor atom, acceptor molecule, acceptor atom, score
      L1  H     2    44       P1 10175  0.53
      L1  H    12    36       P1 10171  1.00
      L1  H    16    45       P1 10186  2.00
      P1  H  7954  7966       L1    12  0.18
      L1  C    15    39       P1 10171  0.57

> <Gold.PLP.Chemscore.Internal.Correction>
0.1956

> <Gold.Rescore>
     Score         DG    S(hbond)    S(metal)    S(lipo)     H(rot)  DE(clash)    DE(int)     intcor
     20.02     -24.50       3.78        0.00     108.46       2.46       2.54       1.94       ----

> <Gold.Chemscore.Fitness>
20.0219

> <Gold.Chemscore.DG>
-24.4968

> <Gold.Chemscore.ZeroCoef>
-5.4800

> <Gold.Chemscore.Hbond>
3.7760

> <Gold.Chemscore.Metal>
0.0000

> <Gold.Chemscore.Lipo>
108.4643

> <Gold.Chemscore.Internal_Hbond>
0.0000

> <Gold.Chemscore.DEClash>
2.5368

> <Gold.Chemscore.DEInternal>
1.9381

> <Gold.Chemscore.Rot>
2.4552

> <Gold.Chemscore.Internal.Correction>
   9.000000E+99

> <Gold.Chemscore.Hbonds>
donor molecule, donor type, donor heavy atom, donor atom, acceptor molecule, acceptor atom, score
      L1  H     2    44       P1 10175  0.27
      L1  H    12    36       P1 10171  1.00
      L1  H    16    45       P1 10186  0.48
      P1  H  7954  7966       L1    12  0.18

> <Gold.Chemscore.Hbond.Weighted>
-12.6119

> <Gold.Chemscore.Metal.Weighted>
-0.0000

> <Gold.Chemscore.Lipo.Weighted>
-12.6903

> <Gold.Chemscore.Internal_Hbond.Weighted>
0.0000

> <Gold.Chemscore.DEClash.Weighted>
2.5368

> <Gold.Chemscore.DEInternal.Weighted>
1.9381

> <Gold.Chemscore.Rot.Weighted>
6.2854

> <Gold.Chemscore.Internal.Correction.Weighted>
   9.000000E+99

> <Gold.Protein.RotatedTorsions>
[ 6907 6896 6895 6894 ] final  -99.30 input  -60.11 | X-H torsion
[ 7974 7965 7964 7962 ] final   73.71 input  175.53 | X-H torsion
[ 8008 7997 7996 7995 ] final -112.46 input   59.86 | X-H torsion
[ 10167 10162 10161 10158 ] final   56.47 input  -65.29 | X-H torsion
[ 10718 10713 10712 10709 ] final   -7.10 input   66.30 | X-H torsion
[ 10763 10752 10751 10750 ] final    0.43 input  -60.55 | X-H torsion
[ 11005 11000 10999 10996 ] final   60.81 input  -57.11 | X-H torsion

> <Gold.Protein.ActiveResidues>
 VAL166  LYS551  ARG553  GLY616  TRP617  ASP618  TYR619  PRO620  LYS621  CYS622 
 ASP623  PHE694  ASN695  SER759  ASP760  ASP761  ALA762  ILE779  LEU786  VAL792 
 PHE793  MET794  SER795  GLU796  ALA797  LYS798  CYS799  TRP800  GLU811  SER814 

> <Gold.Protein.RotatedAtoms>
  150.7075  134.1062  159.3983 H   0  0  0  0  0  0  0  0  0  0  0  0  # atno 6907 bound_to 6896
  151.9049  135.0361  160.0519 H   0  0  0  0  0  0  0  0  0  0  0  0  # atno 6908 bound_to 6896
  152.2384  133.5079  159.5292 H   0  0  0  0  0  0  0  0  0  0  0  0  # atno 6909 bound_to 6896
  145.7374  139.2707  143.1506 H   0  0  0  0  0  0  0  0  0  0  0  0  # atno 7974 bound_to 7965
  155.0056  140.0394  157.2378 H   0  0  0  0  0  0  0  0  0  0  0  0  # atno 8008 bound_to 7997
  154.7505  140.2766  155.6273 H   0  0  0  0  0  0  0  0  0  0  0  0  # atno 8009 bound_to 7997
  156.2884  140.2648  156.2258 H   0  0  0  0  0  0  0  0  0  0  0  0  # atno 8010 bound_to 7997
  140.2084  144.3915  150.6499 H   0  0  0  0  0  0  0  0  0  0  0  0  # atno 10167 bound_to 10162
  156.7221  130.5154  149.5865 H   0  0  0  0  0  0  0  0  0  0  0  0  # atno 10718 bound_to 10713
  153.3208  135.6969  153.7032 H   0  0  0  0  0  0  0  0  0  0  0  0  # atno 10763 bound_to 10752
  153.5873  135.3486  155.2898 H   0  0  0  0  0  0  0  0  0  0  0  0  # atno 10764 bound_to 10752
  154.8597  135.4309  154.2371 H   0  0  0  0  0  0  0  0  0  0  0  0  # atno 10765 bound_to 10752
  140.0205  134.6159  155.9646 H   0  0  0  0  0  0  0  0  0  0  0  0  # atno 11005 bound_to 11000
  146.0480  140.8098  142.9795 LP  0  0  0  0  0  0  0  0  0  0  0  0  # atno 17320 bound_to 7965
  144.6878  140.3010  143.7263 LP  0  0  0  0  0  0  0  0  0  0  0  0  # atno 17321 bound_to 7965
  140.6341  143.2192  151.6433 LP  0  0  0  0  0  0  0  0  0  0  0  0  # atno 17342 bound_to 10162
  139.5189  144.3269  152.0861 LP  0  0  0  0  0  0  0  0  0  0  0  0  # atno 17343 bound_to 10162
  156.1587  130.6359  151.0691 LP  0  0  0  0  0  0  0  0  0  0  0  0  # atno 17370 bound_to 10713
  157.6893  131.0815  150.7152 LP  0  0  0  0  0  0  0  0  0  0  0  0  # atno 17371 bound_to 10713
  141.1771  133.6541  156.4871 LP  0  0  0  0  0  0  0  0  0  0  0  0  # atno 17394 bound_to 11000
  140.4395  134.7028  157.4984 LP  0  0  0  0  0  0  0  0  0  0  0  0  # atno 17395 bound_to 11000

$$$$
