AV-unprocessed.smi:1701|AV-procd|sdf|6834|dock1
  -GOLD-   22720 8 13D 1   1.00000     0.00000
 Structure written by MMmdl.
 54 56  0  0  0  0  0  0  0  0  2 V2000
  151.8185  145.3973  159.6959 C   0  0  0  0  0  0  0  0  0  0  0  0
  152.5101  144.4893  158.6724 C   0  0  0  0  0  0  0  0  0  0  0  0
  152.4288  143.0809  159.0536 N   0  0  0  0  0  0  0  0  0  0  0  0
  153.4418  142.5581  159.9715 C   0  0  0  0  0  0  0  0  0  0  0  0
  152.9730  142.5468  161.4347 C   0  0  0  0  0  0  0  0  0  0  0  0
  151.7880  142.2099  158.1450 C   0  0  0  0  0  0  0  0  0  0  0  0
  152.1433  140.8413  158.0970 C   0  0  0  0  0  0  0  0  0  0  0  0
  151.4876  139.9889  157.1879 C   0  0  0  0  0  0  0  0  0  0  0  0
  150.4902  140.5280  156.3413 C   0  0  0  0  0  0  0  0  0  0  0  0
  149.7373  139.7883  155.3886 N   0  0  0  0  0  0  0  0  0  0  0  0
  148.5367  140.0605  154.8398 C   0  0  0  0  0  0  0  0  0  0  0  0
  147.8352  141.0292  155.1190 O   0  0  0  0  0  0  0  0  0  0  0  0
  148.1308  139.1514  153.9355 N   0  0  0  0  0  0  0  0  0  0  0  0
  146.8887  139.1453  153.1613 C   0  0  1  0  0  0  0  0  0  0  0  0
  147.1003  139.0915  151.6351 C   0  0  0  0  0  0  0  0  0  0  0  0
  146.0001  138.1528  151.1012 C   0  0  0  0  0  0  0  0  0  0  0  0
  145.1651  137.8273  152.2729 N   0  3  1  0  0  0  0  0  0  0  0  0
  144.3808  136.5745  152.2177 C   0  0  0  0  0  0  0  0  0  0  0  0
  143.5207  136.4584  153.4925 C   0  0  0  0  0  0  0  0  0  0  0  0
  144.3702  136.5987  154.7729 C   0  0  0  0  0  0  0  0  0  0  0  0
  145.2362  137.8727  154.7299 C   0  0  0  0  0  0  0  0  0  0  0  0
  146.0645  137.8879  153.4349 C   0  0  2  0  0  0  0  0  0  0  0  0
  150.2062  141.9027  156.4647 C   0  0  0  0  0  0  0  0  0  0  0  0
  150.8316  142.7224  157.3341 N   0  0  0  0  0  0  0  0  0  0  0  0
  151.9005  146.4432  159.4002 H   0  0  0  0  0  0  0  0  0  0  0  0
  152.2655  145.2965  160.6852 H   0  0  0  0  0  0  0  0  0  0  0  0
  150.7584  145.1571  159.7808 H   0  0  0  0  0  0  0  0  0  0  0  0
  152.0909  144.6633  157.6813 H   0  0  0  0  0  0  0  0  0  0  0  0
  153.5619  144.7667  158.5973 H   0  0  0  0  0  0  0  0  0  0  0  0
  153.7373  141.5553  159.6614 H   0  0  0  0  0  0  0  0  0  0  0  0
  154.3403  143.1716  159.8962 H   0  0  0  0  0  0  0  0  0  0  0  0
  153.7699  142.1952  162.0898 H   0  0  0  0  0  0  0  0  0  0  0  0
  152.1142  141.8930  161.5856 H   0  0  0  0  0  0  0  0  0  0  0  0
  152.6927  143.5477  161.7633 H   0  0  0  0  0  0  0  0  0  0  0  0
  152.9134  140.4417  158.7408 H   0  0  0  0  0  0  0  0  0  0  0  0
  151.7645  138.9471  157.1714 H   0  0  0  0  0  0  0  0  0  0  0  0
  150.1671  138.9266  155.0866 H   0  0  0  0  0  0  0  0  0  0  0  0
  148.7533  138.3717  153.7770 H   0  0  0  0  0  0  0  0  0  0  0  0
  146.2818  140.0179  153.4123 H   0  0  0  0  0  0  0  0  0  0  0  0
  147.0304  140.0875  151.1963 H   0  0  0  0  0  0  0  0  0  0  0  0
  148.0832  138.6913  151.3812 H   0  0  0  0  0  0  0  0  0  0  0  0
  145.4026  138.6146  150.3149 H   0  0  0  0  0  0  0  0  0  0  0  0
  146.4484  137.2437  150.6973 H   0  0  0  0  0  0  0  0  0  0  0  0
  143.7437  136.5790  151.3327 H   0  0  0  0  0  0  0  0  0  0  0  0
  145.0514  135.7183  152.1293 H   0  0  0  0  0  0  0  0  0  0  0  0
  142.7569  137.2373  153.4829 H   0  0  0  0  0  0  0  0  0  0  0  0
  142.9881  135.5069  153.4992 H   0  0  0  0  0  0  0  0  0  0  0  0
  143.7250  136.6131  155.6517 H   0  0  0  0  0  0  0  0  0  0  0  0
  145.0152  135.7252  154.8771 H   0  0  0  0  0  0  0  0  0  0  0  0
  144.5979  138.7560  154.7794 H   0  0  0  0  0  0  0  0  0  0  0  0
  145.8921  137.9103  155.6003 H   0  0  0  0  0  0  0  0  0  0  0  0
  146.7209  137.0146  153.4115 H   0  0  0  0  0  0  0  0  0  0  0  0
  149.4505  142.3635  155.8452 H   0  0  0  0  0  0  0  0  0  0  0  0
  144.5092  138.5882  152.3786 H   0  0  0  0  0  0  0  0  0  0  0  0
  1  2  1  0  0  0  0
  1 25  1  0  0  0  0
  1 26  1  0  0  0  0
  1 27  1  0  0  0  0
  2  3  1  0  0  0  0
  2 28  1  0  0  0  0
  2 29  1  0  0  0  0
  3  4  1  0  0  0  0
  3  6  1  0  0  0  0
  4  5  1  0  0  0  0
  4 30  1  0  0  0  0
  4 31  1  0  0  0  0
  5 32  1  0  0  0  0
  5 33  1  0  0  0  0
  5 34  1  0  0  0  0
  6 24  1  0  0  0  0
  6  7  2  0  0  0  0
  7  8  1  0  0  0  0
  7 35  1  0  0  0  0
  8  9  2  0  0  0  0
  8 36  1  0  0  0  0
  9 10  1  0  0  0  0
  9 23  1  0  0  0  0
 10 11  1  0  0  0  0
 10 37  1  0  0  0  0
 11 12  2  0  0  0  0
 11 13  1  0  0  0  0
 13 14  1  0  0  0  0
 13 38  1  0  0  0  0
 14 22  1  0  0  0  0
 14 15  1  0  0  0  0
 14 39  1  0  0  0  0
 15 16  1  0  0  0  0
 15 40  1  0  0  0  0
 15 41  1  0  0  0  0
 16 17  1  0  0  0  0
 16 42  1  0  0  0  0
 16 43  1  0  0  0  0
 17 22  1  0  0  0  0
 17 18  1  0  0  0  0
 17 54  1  0  0  0  0
 18 19  1  0  0  0  0
 18 44  1  0  0  0  0
 18 45  1  0  0  0  0
 19 20  1  0  0  0  0
 19 46  1  0  0  0  0
 19 47  1  0  0  0  0
 20 21  1  0  0  0  0
 20 48  1  0  0  0  0
 20 49  1  0  0  0  0
 21 22  1  0  0  0  0
 21 50  1  0  0  0  0
 21 51  1  0  0  0  0
 22 52  1  0  0  0  0
 23 24  2  0  0  0  0
 23 53  1  0  0  0  0
M  CHG  1  17   1
M  END
> <s_m_source_file>
AV-unprocessed.smi

> <i_m_source_file_index>
1701

> <i_lp_mmshare_version>
43012

> <i_f3d_flags>
0

> <s_epik_input>
W0NIM11bQ0gyXU4oW0NIMl1bQ0gzXSljMVtjSF1bY0hdYyhbY0hdbjEpW05IXUMoPU8pW05IXVtDQEhdKFtDSDJdW0NIMl0yKVtDQEBIXShOMjMpW0NIMl1bQ0gyXVtDSDJdW0NIMl0z

> <s_epik_cmdline>
J2VwaWtfcHl0aG9uJywgJy1waCcsICc3LjAnLCAnLXRuJywgJzgnLCAnLW1hJywgJzIwMCcsICctbWV0YWxfYmluZGluZycsICctaW1hZScsICc8aW5maWxlLm1hZT4nLCAnLW9tYWUnLCAnPG91dGZpbGUubWFlPic=

> <r_lp_tautomer_probability>
1

> <r_epik_Ionization_Penalty>
0.56662

> <r_epik_Ionization_Penalty_Charging>
0.000974069

> <r_epik_Ionization_Penalty_Neutral>
0.565646

> <r_epik_State_Penalty>
2.0247

> <r_epik_Charging_Adjusted_Penalty>
2.02568

> <i_epik_Tot_Q>
1

> <i_epik_Tot_abs_Q>
1

> <r_epik_Metal_State_Penalty>
1.51504

> <b_epik_Metal_Only>
0

> <s_lp_Force_Field>
OPLS_2005

> <r_lp_Energy>
54.5744

> <b_lp_Chiralities_Consistent>
1

> <s_lp_Variant>
AV-unprocessed.smi:1701-14

> <Gold.Version>
5.8.1

> <Gold.Id.Protein>
6NUR|6NUR_protein|mol2

> <Gold.PLP.Fitness>
51.9515

> <Gold.PLP.PLP>
-43.5246

> <Gold.PLP.part.hbond>
-2.0000

> <Gold.PLP.part.metal>
0.0000

> <Gold.PLP.part.buried>
1.9553

> <Gold.PLP.part.nonpolar>
-44.6115

> <Gold.PLP.part.repulsive>
0.2830

> <Gold.PLP.ligand.clash>
0.0000

> <Gold.PLP.ligand.torsion>
0.6649

> <Gold.PLP.Chemscore.Hbond>
2.0000

> <Gold.PLP.Chemscore.CHOScore>
0.9666

> <Gold.PLP.Chemscore.Metal>
0.0000

> <Gold.Chemscore.Hbonds>
donor molecule, donor type, donor heavy atom, donor atom, acceptor molecule, acceptor atom, score
      L1  H    17    54       P1 10175  1.95
      L1  C    23    53       P1  8028  0.97

> <Gold.PLP.Chemscore.Internal.Correction>
0.8570

> <Gold.Rescore>
     Score         DG    S(hbond)    S(metal)    S(lipo)     H(rot)  DE(clash)    DE(int)     intcor
     15.01     -18.80       1.00        0.00     113.48       1.28       1.78       2.01       ----

> <Gold.Chemscore.Fitness>
15.0083

> <Gold.Chemscore.DG>
-18.8003

> <Gold.Chemscore.ZeroCoef>
-5.4800

> <Gold.Chemscore.Hbond>
0.9968

> <Gold.Chemscore.Metal>
0.0000

> <Gold.Chemscore.Lipo>
113.4825

> <Gold.Chemscore.Internal_Hbond>
0.0000

> <Gold.Chemscore.DEClash>
1.7786

> <Gold.Chemscore.DEInternal>
2.0135

> <Gold.Chemscore.Rot>
1.2838

> <Gold.Chemscore.Internal.Correction>
   9.000000E+99

> <Gold.Chemscore.Hbonds>
donor molecule, donor type, donor heavy atom, donor atom, acceptor molecule, acceptor atom, score
      L1  H    17    54       P1 10175  0.92

> <Gold.Chemscore.Hbond.Weighted>
-3.3294

> <Gold.Chemscore.Metal.Weighted>
-0.0000

> <Gold.Chemscore.Lipo.Weighted>
-13.2775

> <Gold.Chemscore.Internal_Hbond.Weighted>
0.0000

> <Gold.Chemscore.DEClash.Weighted>
1.7786

> <Gold.Chemscore.DEInternal.Weighted>
2.0135

> <Gold.Chemscore.Rot.Weighted>
3.2865

> <Gold.Chemscore.Internal.Correction.Weighted>
   9.000000E+99

> <Gold.Protein.RotatedTorsions>
[ 6907 6896 6895 6894 ] final  161.50 input  -60.11 | X-H torsion
[ 7974 7965 7964 7962 ] final  160.17 input  175.53 | X-H torsion
[ 8008 7997 7996 7995 ] final  -56.78 input   59.86 | X-H torsion
[ 10167 10162 10161 10158 ] final  161.16 input  -65.29 | X-H torsion
[ 10718 10713 10712 10709 ] final  -35.74 input   66.30 | X-H torsion
[ 10763 10752 10751 10750 ] final -176.95 input  -60.55 | X-H torsion
[ 11005 11000 10999 10996 ] final  127.13 input  -57.11 | X-H torsion

> <Gold.Protein.ActiveResidues>
 VAL166  LYS551  ARG553  GLY616  TRP617  ASP618  TYR619  PRO620  LYS621  CYS622 
 ASP623  PHE694  ASN695  SER759  ASP760  ASP761  ALA762  ILE779  LEU786  VAL792 
 PHE793  MET794  SER795  GLU796  ALA797  LYS798  CYS799  TRP800  GLU811  SER814 

> <Gold.Protein.RotatedAtoms>
  151.9546  133.3676  159.4012 H   0  0  0  0  0  0  0  0  0  0  0  0  # atno 6907 bound_to 6896
  150.6974  134.4304  159.5255 H   0  0  0  0  0  0  0  0  0  0  0  0  # atno 6908 bound_to 6896
  152.1983  134.8610  160.0561 H   0  0  0  0  0  0  0  0  0  0  0  0  # atno 6909 bound_to 6896
  144.7751  139.7719  143.6282 H   0  0  0  0  0  0  0  0  0  0  0  0  # atno 7974 bound_to 7965
  154.4243  140.1122  156.5692 H   0  0  0  0  0  0  0  0  0  0  0  0  # atno 8008 bound_to 7997
  155.6230  140.3495  155.4639 H   0  0  0  0  0  0  0  0  0  0  0  0  # atno 8009 bound_to 7997
  156.0009  140.1199  157.0538 H   0  0  0  0  0  0  0  0  0  0  0  0  # atno 8010 bound_to 7997
  139.4846  144.4563  151.8763 H   0  0  0  0  0  0  0  0  0  0  0  0  # atno 10167 bound_to 10162
  156.3351  130.4285  149.7837 H   0  0  0  0  0  0  0  0  0  0  0  0  # atno 10718 bound_to 10713
  154.5661  135.2824  155.0872 H   0  0  0  0  0  0  0  0  0  0  0  0  # atno 10763 bound_to 10752
  154.2262  135.6382  153.5164 H   0  0  0  0  0  0  0  0  0  0  0  0  # atno 10764 bound_to 10752
  153.0043  135.5526  154.6270 H   0  0  0  0  0  0  0  0  0  0  0  0  # atno 10765 bound_to 10752
  139.9492  134.9625  156.8810 H   0  0  0  0  0  0  0  0  0  0  0  0  # atno 11005 bound_to 11000
  146.1925  139.5173  142.9796 LP  0  0  0  0  0  0  0  0  0  0  0  0  # atno 17320 bound_to 7965
  145.6209  141.0322  143.1915 LP  0  0  0  0  0  0  0  0  0  0  0  0  # atno 17321 bound_to 7965
  140.4023  144.2477  150.5892 LP  0  0  0  0  0  0  0  0  0  0  0  0  # atno 17342 bound_to 10162
  140.5045  143.2308  151.8628 LP  0  0  0  0  0  0  0  0  0  0  0  0  # atno 17343 bound_to 10162
  156.5095  130.8165  151.3163 LP  0  0  0  0  0  0  0  0  0  0  0  0  # atno 17370 bound_to 10713
  157.7437  130.9918  150.2615 LP  0  0  0  0  0  0  0  0  0  0  0  0  # atno 17371 bound_to 10713
  140.5761  134.0397  155.7447 LP  0  0  0  0  0  0  0  0  0  0  0  0  # atno 17394 bound_to 11000
  141.1150  133.9554  157.2839 LP  0  0  0  0  0  0  0  0  0  0  0  0  # atno 17395 bound_to 11000

$$$$
