#       Name:                AV-unprocessed.smi:75
#       Creating user name   scv26
#       Creation time:       Thu Mar 26 17:10:44 2020


#       File generated by GOLD software.
#

@<TRIPOS>MOLECULE
AV-unprocessed.smi:75
    63    66     1
SMALL
NO_CHARGES


@<TRIPOS>ATOM
      1 ****        -3.8476   2.3815  -3.4779 N.am           1 S1                 0.0000
      2 ****        -3.8650   2.0156  -2.1941 C.2            1 S1                 0.0000
      3 ****        -4.2858   2.7638  -1.3143 O.2            1 S1                 0.0000
      4 ****        -3.3247   0.6108  -1.8778 C.3            1 S1                 0.0000
      5 ****        -3.6972   0.0112  -0.4908 C.3            1 S1                 0.0000
      6 ****        -5.2185  -0.2330  -0.3583 C.3            1 S1                 0.0000
      7 ****        -5.5063  -0.8381   0.8972 O.3            1 S1                 0.0000
      8 ****        -5.1342   0.0001   1.9844 C.3            1 S1                 0.0000
      9 ****        -3.6172   0.2360   1.9447 C.3            1 S1                 0.0000
     10 ****        -3.2241   0.7967   0.6574 N.3            1 S1                 0.0000
     11 ****        -1.9197   1.1531   0.6601 C.ar           1 S1                 0.0000
     12 ****        -1.6422   2.4641   0.8641 N.ar           1 S1                 0.0000
     13 ****        -0.3742   2.8847   0.8766 C.ar           1 S1                 0.0000
     14 ****         0.7436   2.1733   0.7146 N.ar           1 S1                 0.0000
     15 ****         0.4683   0.8510   0.5207 C.ar           1 S1                 0.0000
     16 ****        -0.8257   0.2585   0.4834 C.ar           1 S1                 0.0000
     17 ****        -0.7128  -1.1114   0.2809 N.2            1 S1                 0.0000
     18 ****         0.5730  -1.3169   0.1996 C.2            1 S1                 0.0000
     19 ****         1.3578  -0.1919   0.3231 N.pl3          1 S1                 0.0000
     20 ****         2.7917  -0.1380   0.2876 C.3            1 S1                 0.0000
     21 ****         3.5921  -0.8964  -0.7755 C.3            1 S1                 0.0000
     22 ****         4.7144  -1.1400   0.2616 C.3            1 S1                 0.0000
     23 ****         5.3773  -2.5318   0.2738 C.3            1 S1                 0.0000
     24 ****         4.4313  -3.5821   0.3095 O.3            1 S1                 0.0000
     25 ****         5.8463  -0.0954   0.2672 C.3            1 S1                 0.0000
     26 ****         6.5865  -0.1230  -0.9364 O.3            1 S1                 0.0000
     27 ****         3.6231  -0.8905   1.3285 C.3            1 S1                 0.0000
     28 ****        -4.1883   3.2948  -3.7415 H              1 S1                 0.0000
     29 ****        -3.4930   1.7486  -4.1800 H              1 S1                 0.0000
     30 ****        -3.6811  -0.0695  -2.6525 H              1 S1                 0.0000
     31 ****        -2.2411   0.6375  -1.9956 H              1 S1                 0.0000
     32 ****        -3.2251  -0.9693  -0.4286 H              1 S1                 0.0000
     33 ****        -5.7884   0.6920  -0.4545 H              1 S1                 0.0000
     34 ****        -5.5626  -0.8993  -1.1496 H              1 S1                 0.0000
     35 ****        -5.6780   0.9451   1.9368 H              1 S1                 0.0000
     36 ****        -5.4147  -0.4840   2.9198 H              1 S1                 0.0000
     37 ****        -3.3282   0.9116   2.7510 H              1 S1                 0.0000
     38 ****        -3.0911  -0.7055   2.1091 H              1 S1                 0.0000
     39 ****        -0.2353   3.9433   1.0398 H              1 S1                 0.0000
     40 ****         0.9861  -2.3039   0.0497 H              1 S1                 0.0000
     41 ****         3.0694   0.9171   0.2748 H              1 S1                 0.0000
     42 ****         3.0991  -1.8117  -1.1050 H              1 S1                 0.0000
     43 ****         3.8808  -0.2878  -1.6328 H              1 S1                 0.0000
     44 ****         5.9985  -2.6806  -0.6097 H              1 S1                 0.0000
     45 ****         6.0309  -2.6413   1.1398 H              1 S1                 0.0000
     46 ****         4.8966  -4.4046   0.3263 H              1 S1                 0.0000
     47 ****         5.4541   0.9140   0.3931 H              1 S1                 0.0000
     48 ****         6.5291  -0.2624   1.1011 H              1 S1                 0.0000
     49 ****         6.0037   0.0808  -1.6519 H              1 S1                 0.0000
     50 ****         3.9407  -0.2791   2.1737 H              1 S1                 0.0000
     51 ****         3.1283  -1.7988   1.6756 H              1 S1                 0.0000
     52 ****        -4.6270   3.6732  -1.5523 LP             1 S1                 0.0000
     53 ****        -4.2869   2.4632  -0.3605 LP             1 S1                 0.0000
     54 ****        -5.0022  -1.6991   0.9649 LP             1 S1                 0.0000
     55 ****        -6.4879  -1.0214   0.9509 LP             1 S1                 0.0000
     56 ****        -3.7141   1.6578   0.5215 LP             1 S1                 0.0000
     57 ****        -2.3867   3.1166   1.0053 LP             1 S1                 0.0000
     58 ****         1.6655   2.5602   0.7330 LP             1 S1                 0.0000
     59 ****        -1.4485  -1.7853   0.2131 LP             1 S1                 0.0000
     60 ****         3.8498  -3.5400  -0.5030 LP             1 S1                 0.0000
     61 ****         3.8649  -3.4982   1.1294 LP             1 S1                 0.0000
     62 ****         6.9792  -1.0329  -1.0700 LP             1 S1                 0.0000
     63 ****         7.3210   0.5545  -0.8962 LP             1 S1                 0.0000
@<TRIPOS>BOND
    1    1    2 am    
    2    1   28 1     
    3    1   29 1     
    4    2    3 2     
    5    2    4 1     
    6    4    5 1     
    7    4   30 1     
    8    4   31 1     
    9    5   10 1     
   10    5    6 1     
   11    5   32 1     
   12    6    7 1     
   13    6   33 1     
   14    6   34 1     
   15    7    8 1     
   16    8    9 1     
   17    8   35 1     
   18    8   36 1     
   19    9   10 1     
   20    9   37 1     
   21    9   38 1     
   22   10   11 1     
   23   11   16 ar    
   24   11   12 ar    
   25   12   13 ar    
   26   13   14 ar    
   27   13   39 1     
   28   14   15 ar    
   29   15   19 1     
   30   15   16 ar    
   31   16   17 1     
   32   17   18 2     
   33   18   19 1     
   34   18   40 1     
   35   19   20 1     
   36   20   27 1     
   37   20   21 1     
   38   20   41 1     
   39   21   22 1     
   40   21   42 1     
   41   21   43 1     
   42   22   23 1     
   43   22   25 1     
   44   22   27 1     
   45   23   24 1     
   46   23   44 1     
   47   23   45 1     
   48   24   46 1     
   49   25   26 1     
   50   25   47 1     
   51   25   48 1     
   52   26   49 1     
   53   27   50 1     
   54   27   51 1     
   55    3   52 1     
   56    3   53 1     
   57    7   54 1     
   58    7   55 1     
   59   10   56 1     
   60   12   57 1     
   61   14   58 1     
   62   17   59 1     
   63   24   60 1     
   64   24   61 1     
   65   26   62 1     
   66   26   63 1     
@<TRIPOS>SUBSTRUCTURE
      1 S1             1
@<TRIPOS>SET
LONE_PAIRS      STATIC     ATOMS    <user>   **** ""
12 52 53 54 55 56 57 58 59 60 61 62 63
DONOR_HYDROGENS      STATIC     ATOMS    <user>   **** ""
4 28 29 46 49
ATOM$BLUE        STATIC     ATOMS    COLORGROUP SYSTEM
12 52 53 54 55 56 57 58 59 60 61 62 63
ATOM$RED        STATIC     ATOMS    COLORGROUP SYSTEM
4 28 29 46 49
