AV-unprocessed.smi:1691|AV-procd|sdf|6777|dock8
  -GOLD-   22720 7533D 1   1.00000     0.00000
 Structure written by MMmdl.
 43 44  0  0  0  0  0  0  0  0  1 V2000
  146.3232  139.4749  157.1332 C   0  0  0  0  0  0  0  0  0  0  0  0
  146.2142  139.6539  155.6059 C   0  0  0  0  0  0  0  0  0  0  0  0
  144.8194  139.2494  155.0986 C   0  0  0  0  0  0  0  0  0  0  0  0
  147.3619  139.0406  154.7416 C   0  0  1  0  0  0  0  0  0  0  0  0
  147.1466  139.1976  153.2091 C   0  0  0  0  0  0  0  0  0  0  0  0
  147.0951  137.9181  152.5086 N   0  0  0  0  0  0  0  0  0  0  0  0
  145.9702  137.2831  152.1514 C   0  0  0  0  0  0  0  0  0  0  0  0
  144.8411  137.7142  152.3873 O   0  0  0  0  0  0  0  0  0  0  0  0
  146.2406  136.1345  151.5101 N   0  0  0  0  0  0  0  0  0  0  0  0
  145.3103  135.2070  150.9763 C   0  0  0  0  0  0  0  0  0  0  0  0
  145.5195  133.8032  150.9008 C   0  0  0  0  0  0  0  0  0  0  0  0
  144.4805  133.1880  150.3545 N   0  0  0  0  0  0  0  0  0  0  0  0
  143.6100  134.1857  150.0802 N   0  0  0  0  0  0  0  0  0  0  0  0
  144.0726  135.4318  150.4418 C   0  0  0  0  0  0  0  0  0  0  0  0
  148.7278  139.3516  155.2074 N   0  0  0  0  0  0  0  0  0  0  0  0
  149.1013  140.7649  155.1677 C   0  0  0  0  0  0  0  0  0  0  0  0
  150.5032  140.9990  155.7573 C   0  0  0  0  0  0  0  0  0  0  0  0
  151.4563  140.1963  155.0684 O   0  0  0  0  0  0  0  0  0  0  0  0
  151.1497  138.8073  155.1296 C   0  0  0  0  0  0  0  0  0  0  0  0
  149.7550  138.5626  154.5298 C   0  0  0  0  0  0  0  0  0  0  0  0
  142.7137  134.0023  149.6518 H   0  0  0  0  0  0  0  0  0  0  0  0
  146.0924  138.4619  157.4545 H   0  0  0  0  0  0  0  0  0  0  0  0
  145.6084  140.1255  157.6376 H   0  0  0  0  0  0  0  0  0  0  0  0
  147.3090  139.7391  157.5132 H   0  0  0  0  0  0  0  0  0  0  0  0
  146.2714  140.7311  155.4453 H   0  0  0  0  0  0  0  0  0  0  0  0
  144.6232  138.1900  155.2678 H   0  0  0  0  0  0  0  0  0  0  0  0
  144.7184  139.4411  154.0300 H   0  0  0  0  0  0  0  0  0  0  0  0
  144.0380  139.8135  155.6083 H   0  0  0  0  0  0  0  0  0  0  0  0
  147.2442  137.9717  154.9251 H   0  0  0  0  0  0  0  0  0  0  0  0
  146.2152  139.7235  153.0018 H   0  0  0  0  0  0  0  0  0  0  0  0
  147.9343  139.8036  152.7613 H   0  0  0  0  0  0  0  0  0  0  0  0
  147.9796  137.4916  152.2741 H   0  0  0  0  0  0  0  0  0  0  0  0
  147.2145  135.8997  151.3873 H   0  0  0  0  0  0  0  0  0  0  0  0
  146.3730  133.2224  151.2180 H   0  0  0  0  0  0  0  0  0  0  0  0
  143.4939  136.3304  150.2881 H   0  0  0  0  0  0  0  0  0  0  0  0
  149.0867  141.1290  154.1401 H   0  0  0  0  0  0  0  0  0  0  0  0
  148.3936  141.3687  155.7260 H   0  0  0  0  0  0  0  0  0  0  0  0
  150.7844  142.0478  155.6608 H   0  0  0  0  0  0  0  0  0  0  0  0
  150.5184  140.7601  156.8218 H   0  0  0  0  0  0  0  0  0  0  0  0
  151.9044  138.2504  154.5742 H   0  0  0  0  0  0  0  0  0  0  0  0
  151.1919  138.4626  156.1640 H   0  0  0  0  0  0  0  0  0  0  0  0
  149.5177  137.5006  154.6008 H   0  0  0  0  0  0  0  0  0  0  0  0
  149.7833  138.8076  153.4682 H   0  0  0  0  0  0  0  0  0  0  0  0
  1  2  1  0  0  0  0
  1 22  1  0  0  0  0
  1 23  1  0  0  0  0
  1 24  1  0  0  0  0
  2  3  1  0  0  0  0
  2  4  1  0  0  0  0
  2 25  1  0  0  0  0
  3 26  1  0  0  0  0
  3 27  1  0  0  0  0
  3 28  1  0  0  0  0
  4  5  1  0  0  0  0
  4 15  1  0  0  0  0
  4 29  1  0  0  0  0
  5  6  1  0  0  0  0
  5 30  1  0  0  0  0
  5 31  1  0  0  0  0
  6  7  1  0  0  0  0
  6 32  1  0  0  0  0
  7  8  2  0  0  0  0
  7  9  1  0  0  0  0
  9 10  1  0  0  0  0
  9 33  1  0  0  0  0
 10 14  2  0  0  0  0
 10 11  1  0  0  0  0
 11 12  2  0  0  0  0
 11 34  1  0  0  0  0
 12 13  1  0  0  0  0
 13 21  1  0  0  0  0
 13 14  1  0  0  0  0
 14 35  1  0  0  0  0
 15 20  1  0  0  0  0
 15 16  1  0  0  0  0
 16 17  1  0  0  0  0
 16 36  1  0  0  0  0
 16 37  1  0  0  0  0
 17 18  1  0  0  0  0
 17 38  1  0  0  0  0
 17 39  1  0  0  0  0
 18 19  1  0  0  0  0
 19 20  1  0  0  0  0
 19 40  1  0  0  0  0
 19 41  1  0  0  0  0
 20 42  1  0  0  0  0
 20 43  1  0  0  0  0
M  END
> <s_m_source_file>
AV-unprocessed.smi

> <i_m_source_file_index>
1691

> <i_lp_mmshare_version>
43012

> <i_f3d_flags>
0

> <s_epik_input>
W0NIMl0xW0NIMl1PW0NIMl1bQ0gyXU4xW0NASF0oW0NIXShbQ0gzXSlbQ0gzXSlbQ0gyXVtOSF1DKD1PKVtOSF1jMltjSF1uW25IXVtjSF0y

> <s_epik_cmdline>
J2VwaWtfcHl0aG9uJywgJy1waCcsICc3LjAnLCAnLXRuJywgJzgnLCAnLW1hJywgJzIwMCcsICctbWV0YWxfYmluZGluZycsICctaW1hZScsICc8aW5maWxlLm1hZT4nLCAnLW9tYWUnLCAnPG91dGZpbGUubWFlPic=

> <r_lp_tautomer_probability>
0.5

> <r_epik_Ionization_Penalty>
0.462189

> <r_epik_Ionization_Penalty_Charging>
0

> <r_epik_Ionization_Penalty_Neutral>
0.462189

> <r_epik_State_Penalty>
0.465733

> <r_epik_Charging_Adjusted_Penalty>
0.465733

> <i_epik_Tot_Q>
0

> <i_epik_Tot_abs_Q>
0

> <r_epik_Metal_State_Penalty>
0.465732

> <b_epik_Metal_Only>
0

> <s_lp_Force_Field>
OPLS_2005

> <r_lp_Energy>
41.1245

> <b_lp_Chiralities_Consistent>
1

> <s_lp_Variant>
AV-unprocessed.smi:1691-4

> <Gold.Version>
5.8.1

> <Gold.Id.Protein>
6NUR|6NUR_protein|mol2

> <Gold.PLP.Fitness>
39.9577

> <Gold.PLP.PLP>
-27.2525

> <Gold.PLP.part.hbond>
-3.9436

> <Gold.PLP.part.metal>
0.0000

> <Gold.PLP.part.buried>
-5.6704

> <Gold.PLP.part.nonpolar>
-20.2800

> <Gold.PLP.part.repulsive>
0.8717

> <Gold.PLP.ligand.clash>
0.0000

> <Gold.PLP.ligand.torsion>
1.2041

> <Gold.PLP.Chemscore.Hbond>
3.9040

> <Gold.PLP.Chemscore.CHOScore>
1.0000

> <Gold.PLP.Chemscore.Metal>
0.0000

> <Gold.Chemscore.Hbonds>
donor molecule, donor type, donor heavy atom, donor atom, acceptor molecule, acceptor atom, score
      L1  H     6    32       P1  7948  1.00
      L1  H     9    33       P1  7948  0.98
      L1  H    13    21       P1 10186  0.94
      P1  H  7989  7998       L1    18  1.00
      L1  C    14    35       P1 10171  1.00

> <Gold.PLP.Chemscore.Internal.Correction>
0.4014

> <Gold.Rescore>
     Score         DG    S(hbond)    S(metal)    S(lipo)     H(rot)  DE(clash)    DE(int)     intcor
     17.67     -19.05       3.63        0.00      51.57       1.79       0.16       1.23       ----

> <Gold.Chemscore.Fitness>
17.6665

> <Gold.Chemscore.DG>
-19.0519

> <Gold.Chemscore.ZeroCoef>
-5.4800

> <Gold.Chemscore.Hbond>
3.6283

> <Gold.Chemscore.Metal>
0.0000

> <Gold.Chemscore.Lipo>
51.5711

> <Gold.Chemscore.Internal_Hbond>
0.0000

> <Gold.Chemscore.DEClash>
0.1563

> <Gold.Chemscore.DEInternal>
1.2292

> <Gold.Chemscore.Rot>
1.7893

> <Gold.Chemscore.Internal.Correction>
   9.000000E+99

> <Gold.Chemscore.Hbonds>
donor molecule, donor type, donor heavy atom, donor atom, acceptor molecule, acceptor atom, score
      L1  H     6    32       P1  7948  0.97
      L1  H     9    33       P1  7948  0.93
      L1  H    13    21       P1 10186  0.91
      P1  H  7989  7998       L1    18  0.55

> <Gold.Chemscore.Hbond.Weighted>
-12.1186

> <Gold.Chemscore.Metal.Weighted>
-0.0000

> <Gold.Chemscore.Lipo.Weighted>
-6.0338

> <Gold.Chemscore.Internal_Hbond.Weighted>
0.0000

> <Gold.Chemscore.DEClash.Weighted>
0.1563

> <Gold.Chemscore.DEInternal.Weighted>
1.2292

> <Gold.Chemscore.Rot.Weighted>
4.5805

> <Gold.Chemscore.Internal.Correction.Weighted>
   9.000000E+99

> <Gold.Protein.RotatedTorsions>
[ 6907 6896 6895 6894 ] final   86.71 input  -60.11 | X-H torsion
[ 7974 7965 7964 7962 ] final  -82.54 input  175.53 | X-H torsion
[ 8008 7997 7996 7995 ] final -163.85 input   59.86 | X-H torsion
[ 10167 10162 10161 10158 ] final  -81.12 input  -65.29 | X-H torsion
[ 10718 10713 10712 10709 ] final  132.17 input   66.30 | X-H torsion
[ 10763 10752 10751 10750 ] final   66.77 input  -60.55 | X-H torsion
[ 11005 11000 10999 10996 ] final  169.63 input  -57.11 | X-H torsion

> <Gold.Protein.ActiveResidues>
 VAL166  LYS551  ARG553  GLY616  TRP617  ASP618  TYR619  PRO620  LYS621  CYS622 
 ASP623  PHE694  ASN695  SER759  ASP760  ASP761  ALA762  ILE779  LEU786  VAL792 
 PHE793  MET794  SER795  GLU796  ALA797  LYS798  CYS799  TRP800  GLU811  SER814 

> <Gold.Protein.RotatedAtoms>
  152.5399  134.2389  159.8854 H   0  0  0  0  0  0  0  0  0  0  0  0  # atno 6907 bound_to 6896
  151.2358  133.4419  159.2613 H   0  0  0  0  0  0  0  0  0  0  0  0  # atno 6908 bound_to 6896
  151.0673  134.9789  159.8347 H   0  0  0  0  0  0  0  0  0  0  0  0  # atno 6909 bound_to 6896
  145.5320  140.9520  143.1598 H   0  0  0  0  0  0  0  0  0  0  0  0  # atno 7974 bound_to 7965
  155.8272  140.0928  157.1814 H   0  0  0  0  0  0  0  0  0  0  0  0  # atno 8008 bound_to 7997
  154.3979  140.1426  156.3631 H   0  0  0  0  0  0  0  0  0  0  0  0  # atno 8009 bound_to 7997
  155.8204  140.3446  155.5513 H   0  0  0  0  0  0  0  0  0  0  0  0  # atno 8010 bound_to 7997
  140.4441  143.2505  151.8584 H   0  0  0  0  0  0  0  0  0  0  0  0  # atno 10167 bound_to 10162
  157.4897  131.1090  150.9573 H   0  0  0  0  0  0  0  0  0  0  0  0  # atno 10718 bound_to 10713
  153.0155  135.5308  154.6875 H   0  0  0  0  0  0  0  0  0  0  0  0  # atno 10763 bound_to 10752
  154.6019  135.2869  155.0529 H   0  0  0  0  0  0  0  0  0  0  0  0  # atno 10764 bound_to 10752
  154.1583  135.6552  153.5032 H   0  0  0  0  0  0  0  0  0  0  0  0  # atno 10765 bound_to 10752
  140.2998  134.7605  157.3907 H   0  0  0  0  0  0  0  0  0  0  0  0  # atno 11005 bound_to 11000
  144.7621  139.6932  143.7230 LP  0  0  0  0  0  0  0  0  0  0  0  0  # atno 17320 bound_to 7965
  146.2038  139.5349  142.9726 LP  0  0  0  0  0  0  0  0  0  0  0  0  # atno 17321 bound_to 7965
  139.4791  144.5195  151.8821 LP  0  0  0  0  0  0  0  0  0  0  0  0  # atno 17342 bound_to 10162
  140.4284  144.2149  150.5887 LP  0  0  0  0  0  0  0  0  0  0  0  0  # atno 17343 bound_to 10162
  157.0279  130.5699  149.5339 LP  0  0  0  0  0  0  0  0  0  0  0  0  # atno 17370 bound_to 10713
  156.0166  130.5261  150.8154 LP  0  0  0  0  0  0  0  0  0  0  0  0  # atno 17371 bound_to 10713
  140.1120  134.5333  155.8258 LP  0  0  0  0  0  0  0  0  0  0  0  0  # atno 17394 bound_to 11000
  141.2130  133.6727  156.6706 LP  0  0  0  0  0  0  0  0  0  0  0  0  # atno 17395 bound_to 11000

$$$$
