AV-unprocessed.smi:2154|AV-procd|sdf|8772|dock2
  -GOLD-   2272011553D 1   1.00000     0.00000
 Structure written by MMmdl.
 32 33  0  0  0  0  0  0  0  0  1 V2000
  152.9517  142.5378  160.2711 C   0  0  0  0  0  0  0  0  0  0  0  0
  152.8813  143.7100  159.3127 C   0  0  2  0  0  0  0  0  0  0  0  0
  151.8661  144.8110  159.5139 C   0  0  0  0  0  0  0  0  0  0  0  0
  151.7453  143.8868  158.3244 C   0  0  2  0  0  0  0  0  0  0  0  0
  150.6016  142.8917  158.2208 C   0  0  0  0  0  0  0  0  0  0  0  0
  149.9951  142.7935  156.8997 N   0  0  0  0  0  0  0  0  0  0  0  0
  150.0995  141.7368  156.0800 C   0  0  0  0  0  0  0  0  0  0  0  0
  150.7095  140.7094  156.3790 O   0  0  0  0  0  0  0  0  0  0  0  0
  149.3860  141.8581  154.7261 C   0  0  0  0  0  0  0  0  0  0  0  0
  148.6333  140.6479  154.3651 N   0  0  0  0  0  0  0  0  0  0  0  0
  147.2466  140.6425  154.4161 C   0  0  0  0  0  0  0  0  0  0  0  0
  146.4934  139.5614  154.1039 C   0  0  0  0  0  0  0  0  0  0  0  0
  147.1270  138.3148  153.6874 C   0  0  0  0  0  0  0  0  0  0  0  0
  146.5315  137.2838  153.3827 O   0  0  0  0  0  0  0  0  0  0  0  0
  148.5232  138.3591  153.6517 N   0  0  0  0  0  0  0  0  0  0  0  0
  149.3054  139.4693  153.9735 C   0  0  0  0  0  0  0  0  0  0  0  0
  150.5323  139.4001  153.9113 O   0  0  0  0  0  0  0  0  0  0  0  0
  149.0066  137.5182  153.3714 H   0  0  0  0  0  0  0  0  0  0  0  0
  151.9762  142.3205  160.7054 H   0  0  0  0  0  0  0  0  0  0  0  0
  153.6429  142.7636  161.0830 H   0  0  0  0  0  0  0  0  0  0  0  0
  153.3083  141.6493  159.7498 H   0  0  0  0  0  0  0  0  0  0  0  0
  153.8590  144.0240  158.9522 H   0  0  0  0  0  0  0  0  0  0  0  0
  151.1452  144.6948  160.3211 H   0  0  0  0  0  0  0  0  0  0  0  0
  152.1878  145.8330  159.3235 H   0  0  0  0  0  0  0  0  0  0  0  0
  152.0458  144.2992  157.3628 H   0  0  0  0  0  0  0  0  0  0  0  0
  150.9633  141.9102  158.5312 H   0  0  0  0  0  0  0  0  0  0  0  0
  149.8150  143.1647  158.9235 H   0  0  0  0  0  0  0  0  0  0  0  0
  149.4710  143.5942  156.5778 H   0  0  0  0  0  0  0  0  0  0  0  0
  148.7193  142.7203  154.7721 H   0  0  0  0  0  0  0  0  0  0  0  0
  150.1091  142.0952  153.9428 H   0  0  0  0  0  0  0  0  0  0  0  0
  146.7341  141.5432  154.7233 H   0  0  0  0  0  0  0  0  0  0  0  0
  145.4161  139.6188  154.1633 H   0  0  0  0  0  0  0  0  0  0  0  0
  1  2  1  0  0  0  0
  1 19  1  0  0  0  0
  1 20  1  0  0  0  0
  1 21  1  0  0  0  0
  2  4  1  0  0  0  0
  2  3  1  0  0  0  0
  2 22  1  0  0  0  0
  3  4  1  0  0  0  0
  3 23  1  0  0  0  0
  3 24  1  0  0  0  0
  4  5  1  0  0  0  0
  4 25  1  0  0  0  0
  5  6  1  0  0  0  0
  5 26  1  0  0  0  0
  5 27  1  0  0  0  0
  6  7  1  0  0  0  0
  6 28  1  0  0  0  0
  7  8  2  0  0  0  0
  7  9  1  0  0  0  0
  9 10  1  0  0  0  0
  9 29  1  0  0  0  0
  9 30  1  0  0  0  0
 10 16  1  0  0  0  0
 10 11  1  0  0  0  0
 11 12  2  0  0  0  0
 11 31  1  0  0  0  0
 12 13  1  0  0  0  0
 12 32  1  0  0  0  0
 13 14  2  0  0  0  0
 13 15  1  0  0  0  0
 15 18  1  0  0  0  0
 15 16  1  0  0  0  0
 16 17  2  0  0  0  0
M  END
> <s_m_source_file>
AV-unprocessed.smi

> <i_m_source_file_index>
2154

> <i_lp_mmshare_version>
43012

> <i_f3d_flags>
0

> <s_epik_input>
W0NIM11bQ0BASF0xW0NIMl1bQ0BIXTFbQ0gyXVtOSF1DKD1PKVtDSDJdbjJbY0hdW2NIXWMoPU8pW25IXWMyPU8=

> <s_epik_cmdline>
J2VwaWtfcHl0aG9uJywgJy1waCcsICc3LjAnLCAnLXRuJywgJzgnLCAnLW1hJywgJzIwMCcsICctbWV0YWxfYmluZGluZycsICctaW1hZScsICc8aW5maWxlLm1hZT4nLCAnLW9tYWUnLCAnPG91dGZpbGUubWFlPic=

> <r_lp_tautomer_probability>
0.999537

> <r_epik_Ionization_Penalty>
0.00305319

> <r_epik_Ionization_Penalty_Charging>
0.00305317

> <r_epik_Ionization_Penalty_Neutral>
2.06703e-08

> <r_epik_State_Penalty>
0.00214626

> <r_epik_Charging_Adjusted_Penalty>
0.00519944

> <i_epik_Tot_Q>
0

> <i_epik_Tot_abs_Q>
0

> <r_epik_Metal_State_Penalty>
0.361976

> <b_epik_Metal_Only>
0

> <s_lp_Force_Field>
OPLS_2005

> <r_lp_Energy>
15.9584

> <b_lp_Chiralities_Consistent>
1

> <s_lp_Variant>
AV-unprocessed.smi:2154-3

> <Gold.Version>
5.8.1

> <Gold.Id.Protein>
6NUR|6NUR_protein|mol2

> <Gold.PLP.Fitness>
40.5252

> <Gold.PLP.PLP>
-33.9764

> <Gold.PLP.part.hbond>
-3.0000

> <Gold.PLP.part.metal>
0.0000

> <Gold.PLP.part.buried>
-0.8171

> <Gold.PLP.part.nonpolar>
-30.0300

> <Gold.PLP.part.repulsive>
0.5290

> <Gold.PLP.ligand.clash>
0.0000

> <Gold.PLP.ligand.torsion>
0.8673

> <Gold.PLP.Chemscore.Hbond>
2.5834

> <Gold.PLP.Chemscore.CHOScore>
0.0000

> <Gold.PLP.Chemscore.Metal>
0.0000

> <Gold.Chemscore.Hbonds>
donor molecule, donor type, donor heavy atom, donor atom, acceptor molecule, acceptor atom, score
      L1  H     6    28       P1  8028  1.00
      L1  H    15    18       P1  7948  0.77
      P1  H  7989  7998       L1    17  1.00

> <Gold.PLP.Chemscore.Internal.Correction>
0.5332

> <Gold.Rescore>
     Score         DG    S(hbond)    S(metal)    S(lipo)     H(rot)  DE(clash)    DE(int)     intcor
     16.43     -18.12       2.72        0.00      74.13       2.01       0.69       0.99       ----

> <Gold.Chemscore.Fitness>
16.4300

> <Gold.Chemscore.DG>
-18.1157

> <Gold.Chemscore.ZeroCoef>
-5.4800

> <Gold.Chemscore.Hbond>
2.7243

> <Gold.Chemscore.Metal>
0.0000

> <Gold.Chemscore.Lipo>
74.1293

> <Gold.Chemscore.Internal_Hbond>
0.0000

> <Gold.Chemscore.DEClash>
0.6929

> <Gold.Chemscore.DEInternal>
0.9928

> <Gold.Chemscore.Rot>
2.0065

> <Gold.Chemscore.Internal.Correction>
   9.000000E+99

> <Gold.Chemscore.Hbonds>
donor molecule, donor type, donor heavy atom, donor atom, acceptor molecule, acceptor atom, score
      L1  H     6    28       P1  8028  0.96
      L1  H    15    18       P1  7948  0.74
      P1  H  7989  7998       L1    17  0.97

> <Gold.Chemscore.Hbond.Weighted>
-9.0992

> <Gold.Chemscore.Metal.Weighted>
-0.0000

> <Gold.Chemscore.Lipo.Weighted>
-8.6731

> <Gold.Chemscore.Internal_Hbond.Weighted>
0.0000

> <Gold.Chemscore.DEClash.Weighted>
0.6929

> <Gold.Chemscore.DEInternal.Weighted>
0.9928

> <Gold.Chemscore.Rot.Weighted>
5.1366

> <Gold.Chemscore.Internal.Correction.Weighted>
   9.000000E+99

> <Gold.Protein.RotatedTorsions>
[ 6907 6896 6895 6894 ] final  131.17 input  -60.11 | X-H torsion
[ 7974 7965 7964 7962 ] final  -62.00 input  175.53 | X-H torsion
[ 8008 7997 7996 7995 ] final  170.71 input   59.86 | X-H torsion
[ 10167 10162 10161 10158 ] final  161.34 input  -65.29 | X-H torsion
[ 10718 10713 10712 10709 ] final -123.83 input   66.30 | X-H torsion
[ 10763 10752 10751 10750 ] final  -25.12 input  -60.55 | X-H torsion
[ 11005 11000 10999 10996 ] final  -34.87 input  -57.11 | X-H torsion

> <Gold.Protein.ActiveResidues>
 VAL166  LYS551  ARG553  GLY616  TRP617  ASP618  TYR619  PRO620  LYS621  CYS622 
 ASP623  PHE694  ASN695  SER759  ASP760  ASP761  ALA762  ILE779  LEU786  VAL792 
 PHE793  MET794  SER795  GLU796  ALA797  LYS798  CYS799  TRP800  GLU811  SER814 

> <Gold.Protein.RotatedAtoms>
  152.3453  133.6115  159.5905 H   0  0  0  0  0  0  0  0  0  0  0  0  # atno 6907 bound_to 6896
  150.7504  133.9658  159.3539 H   0  0  0  0  0  0  0  0  0  0  0  0  # atno 6908 bound_to 6896
  151.7517  135.0832  160.0383 H   0  0  0  0  0  0  0  0  0  0  0  0  # atno 6909 bound_to 6896
  145.7966  140.8679  143.0253 H   0  0  0  0  0  0  0  0  0  0  0  0  # atno 7974 bound_to 7965
  156.1340  140.1531  156.9022 H   0  0  0  0  0  0  0  0  0  0  0  0  # atno 8008 bound_to 7997
  154.4932  140.0845  156.7680 H   0  0  0  0  0  0  0  0  0  0  0  0  # atno 8009 bound_to 7997
  155.4203  140.3423  155.4273 H   0  0  0  0  0  0  0  0  0  0  0  0  # atno 8010 bound_to 7997
  139.4848  144.4546  151.8785 H   0  0  0  0  0  0  0  0  0  0  0  0  # atno 10167 bound_to 10162
  156.1536  130.6552  150.9949 H   0  0  0  0  0  0  0  0  0  0  0  0  # atno 10718 bound_to 10713
  153.6948  135.6959  153.5079 H   0  0  0  0  0  0  0  0  0  0  0  0  # atno 10763 bound_to 10752
  153.2386  135.4313  155.0672 H   0  0  0  0  0  0  0  0  0  0  0  0  # atno 10764 bound_to 10752
  154.8362  135.3502  154.6489 H   0  0  0  0  0  0  0  0  0  0  0  0  # atno 10765 bound_to 10752
  140.9751  133.7088  156.1588 H   0  0  0  0  0  0  0  0  0  0  0  0  # atno 11005 bound_to 11000
  144.6774  140.0200  143.7484 LP  0  0  0  0  0  0  0  0  0  0  0  0  # atno 17320 bound_to 7965
  145.9921  139.3023  143.0978 LP  0  0  0  0  0  0  0  0  0  0  0  0  # atno 17321 bound_to 7965
  140.4005  144.2499  150.5893 LP  0  0  0  0  0  0  0  0  0  0  0  0  # atno 17342 bound_to 10162
  140.5061  143.2303  151.8605 LP  0  0  0  0  0  0  0  0  0  0  0  0  # atno 17343 bound_to 10162
  157.6677  131.0868  150.7689 LP  0  0  0  0  0  0  0  0  0  0  0  0  # atno 17370 bound_to 10713
  156.7756  130.4843  149.5410 LP  0  0  0  0  0  0  0  0  0  0  0  0  # atno 17371 bound_to 10713
  140.7271  134.4295  157.5569 LP  0  0  0  0  0  0  0  0  0  0  0  0  # atno 17394 bound_to 11000
  139.8927  134.8748  156.2258 LP  0  0  0  0  0  0  0  0  0  0  0  0  # atno 17395 bound_to 11000

$$$$
