#       Name:                AV-unprocessed.smi:2189
#       Creating user name   scv26
#       Creation time:       Fri Mar 27 12:08:54 2020


#       File generated by GOLD software.
#

@<TRIPOS>MOLECULE
AV-unprocessed.smi:2189
    43    45     1
SMALL
NO_CHARGES


@<TRIPOS>ATOM
      1 ****         1.2403   1.6036  -0.5045 O.2            1 S1                 0.0000
      2 ****         0.7725   0.7490   0.2592 C.2            1 S1                 0.0000
      3 ****         1.5065  -0.1458   0.9897 N.pl3          1 S1                -1.0000
      4 ****         2.9655  -0.2721   0.9696 C.3            1 S1                 0.0000
      5 ****         3.3646  -1.7574   0.8264 C.3            1 S1                 0.0000
      6 ****         2.8984  -2.4210  -0.4664 C.ar           1 S1                 0.0000
      7 ****         1.7497  -3.2436  -0.5112 C.ar           1 S1                 0.0000
      8 ****         1.3625  -3.8271  -1.7348 C.ar           1 S1                 0.0000
      9 ****         2.1345  -3.5849  -2.8896 C.ar           1 S1                 0.0000
     10 ****         3.2752  -2.7626  -2.7908 C.ar           1 S1                 0.0000
     11 ****         3.6130  -2.2206  -1.6004 N.pl3          1 S1                 1.0000
     12 ****        -0.6911   0.6395   0.3942 C.2            1 S1                 0.0000
     13 ****        -1.2447  -0.6005   0.4398 C.2            1 S1                 0.0000
     14 ****        -2.6657  -0.7933   0.5868 C.2            1 S1                 0.0000
     15 ****        -3.4434   0.2929   0.6491 C.2            1 S1                 0.0000
     16 ****        -2.9468   1.5936   0.5779 N.pl3          1 S1                 0.0000
     17 ****        -3.9254   2.6755   0.5665 C.3            1 S1                 0.0000
     18 ****        -3.4458   3.8320   1.4245 C.3            1 S1                 0.0000
     19 ****        -1.9209   4.4472   0.6243 S.o2           1 S1                 0.0000
     20 ****        -2.2639   4.8786  -0.7400 O.2            1 S1                 0.0000
     21 ****        -1.2774   5.4000   1.5415 O.2            1 S1                 0.0000
     22 ****        -1.0261   3.0335   0.5487 N.2            1 S1                 0.0000
     23 ****        -1.5467   1.8397   0.4975 C.2            1 S1                 0.0000
     24 ****         3.4305   0.2899   0.1585 H              1 S1                 0.0000
     25 ****         3.4043   0.1205   1.8869 H              1 S1                 0.0000
     26 ****         4.4504  -1.8424   0.8818 H              1 S1                 0.0000
     27 ****         2.9794  -2.3250   1.6747 H              1 S1                 0.0000
     28 ****         1.1655  -3.4138   0.3815 H              1 S1                 0.0000
     29 ****         0.4828  -4.4514  -1.7864 H              1 S1                 0.0000
     30 ****         1.8545  -4.0213  -3.8371 H              1 S1                 0.0000
     31 ****         3.9214  -2.5210  -3.6218 H              1 S1                 0.0000
     32 ****        -0.6300  -1.4856   0.3581 H              1 S1                 0.0000
     33 ****        -3.0887  -1.7852   0.6458 H              1 S1                 0.0000
     34 ****        -4.5151   0.2130   0.7584 H              1 S1                 0.0000
     35 ****        -4.0967   2.9973  -0.4612 H              1 S1                 0.0000
     36 ****        -4.8862   2.3298   0.9492 H              1 S1                 0.0000
     37 ****        -4.1745   4.6413   1.4605 H              1 S1                 0.0000
     38 ****        -3.2196   3.5207   2.4450 H              1 S1                 0.0000
     39 ****         4.4379  -1.6222  -1.5532 H              1 S1                 0.0000
     40 ****         2.2302   1.6784  -0.6249 LP             1 S1                 0.0000
     41 ****         0.6283   2.2192  -1.0010 LP             1 S1                 0.0000
     42 ****         1.0027  -0.7676   1.5895 LP             1 S1                 0.0000
     43 ****        -0.0291   3.1102   0.5425 LP             1 S1                 0.0000
@<TRIPOS>BOND
    1    1    2 2     
    2    2    3 1     
    3    2   12 1     
    4    3    4 1     
    5    4    5 1     
    6    4   24 1     
    7    4   25 1     
    8    5    6 1     
    9    5   26 1     
   10    5   27 1     
   11    6   11 ar    
   12    6    7 ar    
   13    7    8 ar    
   14    7   28 1     
   15    8    9 ar    
   16    8   29 1     
   17    9   10 ar    
   18    9   30 1     
   19   10   11 ar    
   20   10   31 1     
   21   11   39 1     
   22   12   23 1     
   23   12   13 2     
   24   13   14 1     
   25   13   32 1     
   26   14   15 2     
   27   14   33 1     
   28   15   16 1     
   29   15   34 1     
   30   16   23 1     
   31   16   17 1     
   32   17   18 1     
   33   17   35 1     
   34   17   36 1     
   35   18   19 1     
   36   18   37 1     
   37   18   38 1     
   38   19   20 2     
   39   19   21 2     
   40   19   22 1     
   41   22   23 2     
   42    1   40 1     
   43    1   41 1     
   44    3   42 1     
   45   22   43 1     
@<TRIPOS>SUBSTRUCTURE
      1 S1             1
@<TRIPOS>SET
LONE_PAIRS      STATIC     ATOMS    <user>   **** ""
6 40 41 42 20 21 43
DONOR_HYDROGENS      STATIC     ATOMS    <user>   **** ""
1 39
ATOM$BLUE        STATIC     ATOMS    COLORGROUP SYSTEM
6 40 41 42 20 21 43
ATOM$RED        STATIC     ATOMS    COLORGROUP SYSTEM
1 39
