AV-unprocessed.smi:254|AV-procd|sdf|1948|dock8
  -GOLD-   2262021 83D 1   1.00000     0.00000
 Structure written by MMmdl.
 50 53  0  0  0  0  0  0  0  0  1 V2000
  155.8909  140.2358  164.9280 O   0  0  0  0  0  0  0  0  0  0  0  0
  155.3034  140.0708  163.8599 C   0  0  0  0  0  0  0  0  0  0  0  0
  154.6904  141.2105  163.0669 C   0  0  0  0  0  0  0  0  0  0  0  0
  154.1525  140.5007  161.9129 N   0  0  0  0  0  0  0  0  0  0  0  0
  153.5012  141.1219  160.8959 C   0  0  0  0  0  0  0  0  0  0  0  0
  153.4532  142.4802  160.9015 N   0  0  0  0  0  0  0  0  0  0  0  0
  152.8247  143.1432  159.9271 C   0  0  0  0  0  0  0  0  0  0  0  0
  152.1853  142.6535  158.8645 N   0  0  0  0  0  0  0  0  0  0  0  0
  152.2290  141.2913  158.8477 C   0  0  0  0  0  0  0  0  0  0  0  0
  152.8569  140.4516  159.8131 C   0  0  0  0  0  0  0  0  0  0  0  0
  152.6810  139.1194  159.4518 N   0  0  0  0  0  0  0  0  0  0  0  0
  151.9911  139.1693  158.3457 C   0  0  0  0  0  0  0  0  0  0  0  0
  151.6849  140.4362  157.9059 N   0  0  0  0  0  0  0  0  0  0  0  0
  150.9315  140.7888  156.7143 C   0  0  0  0  0  0  0  0  0  0  0  0
  149.5297  140.1290  156.6469 C   0  0  1  0  0  0  0  0  0  0  0  0
  148.5304  140.8412  157.5949 C   0  0  0  0  0  0  0  0  0  0  0  0
  147.5734  139.9472  158.1224 O   0  0  0  0  0  0  0  0  0  0  0  0
  149.0216  140.0876  155.1788 C   0  0  1  0  0  0  0  0  0  0  0  0
  147.6306  139.5005  154.9995 C   0  0  0  0  0  0  0  0  0  0  0  0
  147.2387  139.9949  153.6115 C   0  0  0  0  0  0  0  0  0  0  0  0
  147.8856  141.2515  153.4538 O   0  0  0  0  0  0  0  0  0  0  0  0
  148.8204  141.4522  154.5088 C   0  0  0  0  0  0  0  0  0  0  0  0
  154.4061  139.0679  161.9694 C   0  0  0  0  0  0  0  0  0  0  0  0
  155.1139  138.9066  163.2288 N   0  0  0  0  0  0  0  0  0  0  0  0
  155.5723  137.5902  163.6669 C   0  0  0  0  0  0  0  0  0  0  0  0
  154.4257  136.5670  163.7529 C   0  0  0  0  0  0  0  0  0  0  0  0
  154.8112  135.5495  164.5216 F   0  0  0  0  0  0  0  0  0  0  0  0
  153.3326  137.1101  164.2881 F   0  0  0  0  0  0  0  0  0  0  0  0
  154.1329  136.0961  162.5406 F   0  0  0  0  0  0  0  0  0  0  0  0
  153.9043  141.7045  163.6392 H   0  0  0  0  0  0  0  0  0  0  0  0
  155.4513  141.9356  162.7761 H   0  0  0  0  0  0  0  0  0  0  0  0
  152.8367  144.2199  160.0105 H   0  0  0  0  0  0  0  0  0  0  0  0
  151.6911  138.2778  157.8141 H   0  0  0  0  0  0  0  0  0  0  0  0
  150.8371  141.8746  156.6713 H   0  0  0  0  0  0  0  0  0  0  0  0
  151.5396  140.4971  155.8583 H   0  0  0  0  0  0  0  0  0  0  0  0
  149.6423  139.1009  156.9944 H   0  0  0  0  0  0  0  0  0  0  0  0
  149.0360  141.2787  158.4546 H   0  0  0  0  0  0  0  0  0  0  0  0
  148.0233  141.6579  157.0801 H   0  0  0  0  0  0  0  0  0  0  0  0
  146.7950  139.9900  157.5882 H   0  0  0  0  0  0  0  0  0  0  0  0
  149.7184  139.5055  154.5732 H   0  0  0  0  0  0  0  0  0  0  0  0
  147.6067  138.4126  155.0678 H   0  0  0  0  0  0  0  0  0  0  0  0
  146.9476  139.9057  155.7478 H   0  0  0  0  0  0  0  0  0  0  0  0
  147.6124  139.3145  152.8456 H   0  0  0  0  0  0  0  0  0  0  0  0
  146.1590  140.0828  153.4898 H   0  0  0  0  0  0  0  0  0  0  0  0
  148.3910  142.1681  155.2111 H   0  0  0  0  0  0  0  0  0  0  0  0
  149.7505  141.8707  154.1236 H   0  0  0  0  0  0  0  0  0  0  0  0
  153.4745  138.5005  161.9780 H   0  0  0  0  0  0  0  0  0  0  0  0
  155.0273  138.7429  161.1335 H   0  0  0  0  0  0  0  0  0  0  0  0
  156.3319  137.2307  162.9714 H   0  0  0  0  0  0  0  0  0  0  0  0
  156.0662  137.6801  164.6358 H   0  0  0  0  0  0  0  0  0  0  0  0
  1  2  2  0  0  0  0
  2 24  1  0  0  0  0
  2  3  1  0  0  0  0
  3  4  1  0  0  0  0
  3 30  1  0  0  0  0
  3 31  1  0  0  0  0
  4  5  1  0  0  0  0
  4 23  1  0  0  0  0
  5 10  1  0  0  0  0
  5  6  2  0  0  0  0
  6  7  1  0  0  0  0
  7  8  2  0  0  0  0
  7 32  1  0  0  0  0
  8  9  1  0  0  0  0
  9 13  1  0  0  0  0
  9 10  2  0  0  0  0
 10 11  1  0  0  0  0
 11 12  2  0  0  0  0
 12 13  1  0  0  0  0
 12 33  1  0  0  0  0
 13 14  1  0  0  0  0
 14 15  1  0  0  0  0
 14 34  1  0  0  0  0
 14 35  1  0  0  0  0
 15 16  1  0  0  0  0
 15 18  1  0  0  0  0
 15 36  1  0  0  0  0
 16 17  1  0  0  0  0
 16 37  1  0  0  0  0
 16 38  1  0  0  0  0
 17 39  1  0  0  0  0
 18 22  1  0  0  0  0
 18 19  1  0  0  0  0
 18 40  1  0  0  0  0
 19 20  1  0  0  0  0
 19 41  1  0  0  0  0
 19 42  1  0  0  0  0
 20 21  1  0  0  0  0
 20 43  1  0  0  0  0
 20 44  1  0  0  0  0
 21 22  1  0  0  0  0
 22 45  1  0  0  0  0
 22 46  1  0  0  0  0
 23 24  1  0  0  0  0
 23 47  1  0  0  0  0
 23 48  1  0  0  0  0
 24 25  1  0  0  0  0
 25 26  1  0  0  0  0
 25 49  1  0  0  0  0
 25 50  1  0  0  0  0
 26 27  1  0  0  0  0
 26 28  1  0  0  0  0
 26 29  1  0  0  0  0
M  END
> <s_m_source_file>
AV-unprocessed.smi

> <i_m_source_file_index>
254

> <i_lp_mmshare_version>
43012

> <i_f3d_flags>
0

> <s_epik_input>
RkMoRikoRilbQ0gyXU4xW0NIMl1OKFtDSDJdQzE9TyljKG5bY0hdbjIpYyhjMjMpbltjSF1uM1tDSDJdW0NASF0oW0NIMl1bT0hdKVtDQEBIXTRbQ0gyXVtDSDJdT1tDSDJdNA==

> <s_epik_cmdline>
J2VwaWtfcHl0aG9uJywgJy1waCcsICc3LjAnLCAnLXRuJywgJzgnLCAnLW1hJywgJzIwMCcsICctbWV0YWxfYmluZGluZycsICctaW1hZScsICc8aW5maWxlLm1hZT4nLCAnLW9tYWUnLCAnPG91dGZpbGUubWFlPic=

> <r_lp_tautomer_probability>
1

> <r_epik_Ionization_Penalty>
0.000292924

> <r_epik_Ionization_Penalty_Charging>
0

> <r_epik_Ionization_Penalty_Neutral>
0.000292924

> <r_epik_State_Penalty>
-0

> <r_epik_Charging_Adjusted_Penalty>
0

> <i_epik_Tot_Q>
0

> <i_epik_Tot_abs_Q>
0

> <r_epik_Metal_State_Penalty>
-0

> <b_epik_Metal_Only>
0

> <s_epik_Chemistry_Notes>
This compound contains an acetal/aminal-like group ( X-CH(R)-Y where X, Y are N, S, or O) that may be acid/base labile, releasing an aldehyde.

> <s_lp_Force_Field>
OPLS_2005

> <r_lp_Energy>
39.6801

> <b_lp_Chiralities_Consistent>
1

> <s_lp_Variant>
AV-unprocessed.smi:254-4

> <Gold.Version>
5.8.1

> <Gold.Id.Protein>
6NUR|6NUR_protein|mol2

> <Gold.PLP.Fitness>
43.9134

> <Gold.PLP.PLP>
-45.4282

> <Gold.PLP.part.hbond>
-1.0000

> <Gold.PLP.part.metal>
0.0000

> <Gold.PLP.part.buried>
-4.6664

> <Gold.PLP.part.nonpolar>
-40.1513

> <Gold.PLP.part.repulsive>
0.6353

> <Gold.PLP.ligand.clash>
0.0000

> <Gold.PLP.ligand.torsion>
0.8763

> <Gold.PLP.Chemscore.Hbond>
0.0000

> <Gold.PLP.Chemscore.CHOScore>
0.0000

> <Gold.PLP.Chemscore.Metal>
0.0000

> <Gold.PLP.Chemscore.Internal.Correction>
0.2377

> <Gold.Rescore>
     Score         DG    S(hbond)    S(metal)    S(lipo)     H(rot)  DE(clash)    DE(int)     intcor
      2.69      -4.55       0.04        0.00      63.01       3.30       0.03       1.83       ----

> <Gold.Chemscore.Fitness>
2.6874

> <Gold.Chemscore.DG>
-4.5512

> <Gold.Chemscore.ZeroCoef>
-5.4800

> <Gold.Chemscore.Hbond>
0.0419

> <Gold.Chemscore.Metal>
0.0000

> <Gold.Chemscore.Lipo>
63.0134

> <Gold.Chemscore.Internal_Hbond>
0.0000

> <Gold.Chemscore.DEClash>
0.0299

> <Gold.Chemscore.DEInternal>
1.8339

> <Gold.Chemscore.Rot>
3.2974

> <Gold.Chemscore.Internal.Correction>
   9.000000E+99

> <Gold.Chemscore.Hbond.Weighted>
-0.1401

> <Gold.Chemscore.Metal.Weighted>
-0.0000

> <Gold.Chemscore.Lipo.Weighted>
-7.3726

> <Gold.Chemscore.Internal_Hbond.Weighted>
0.0000

> <Gold.Chemscore.DEClash.Weighted>
0.0299

> <Gold.Chemscore.DEInternal.Weighted>
1.8339

> <Gold.Chemscore.Rot.Weighted>
8.4414

> <Gold.Chemscore.Internal.Correction.Weighted>
   9.000000E+99

> <Gold.Protein.RotatedTorsions>
[ 6907 6896 6895 6894 ] final  159.12 input  -60.11 | X-H torsion
[ 7974 7965 7964 7962 ] final   99.31 input  175.53 | X-H torsion
[ 8008 7997 7996 7995 ] final -111.15 input   59.86 | X-H torsion
[ 10167 10162 10161 10158 ] final  -59.97 input  -65.29 | X-H torsion
[ 10718 10713 10712 10709 ] final -114.91 input   66.30 | X-H torsion
[ 10763 10752 10751 10750 ] final  156.08 input  -60.55 | X-H torsion
[ 11005 11000 10999 10996 ] final  112.95 input  -57.11 | X-H torsion

> <Gold.Protein.ActiveResidues>
 VAL166  LYS551  ARG553  GLY616  TRP617  ASP618  TYR619  PRO620  LYS621  CYS622 
 ASP623  PHE694  ASN695  SER759  ASP760  ASP761  ALA762  ILE779  LEU786  VAL792 
 PHE793  MET794  SER795  GLU796  ALA797  LYS798  CYS799  TRP800  GLU811  SER814 

> <Gold.Protein.RotatedAtoms>
  151.9902  133.3788  159.4141 H   0  0  0  0  0  0  0  0  0  0  0  0  # atno 6907 bound_to 6896
  150.6923  134.3945  159.5100 H   0  0  0  0  0  0  0  0  0  0  0  0  # atno 6908 bound_to 6896
  152.1677  134.8860  160.0587 H   0  0  0  0  0  0  0  0  0  0  0  0  # atno 6909 bound_to 6896
  145.4006  139.2348  143.3302 H   0  0  0  0  0  0  0  0  0  0  0  0  # atno 7974 bound_to 7965
  154.9854  140.0396  157.2296 H   0  0  0  0  0  0  0  0  0  0  0  0  # atno 8008 bound_to 7997
  154.7676  140.2796  155.6141 H   0  0  0  0  0  0  0  0  0  0  0  0  # atno 8009 bound_to 7997
  156.2915  140.2616  156.2471 H   0  0  0  0  0  0  0  0  0  0  0  0  # atno 8010 bound_to 7997
  140.6101  143.2385  151.5729 H   0  0  0  0  0  0  0  0  0  0  0  0  # atno 10167 bound_to 10162
  156.0861  130.6052  150.8837 H   0  0  0  0  0  0  0  0  0  0  0  0  # atno 10718 bound_to 10713
  154.1787  135.2800  155.3059 H   0  0  0  0  0  0  0  0  0  0  0  0  # atno 10763 bound_to 10752
  154.6019  135.5527  153.7387 H   0  0  0  0  0  0  0  0  0  0  0  0  # atno 10764 bound_to 10752
  153.0144  135.6394  154.1926 H   0  0  0  0  0  0  0  0  0  0  0  0  # atno 10765 bound_to 10752
  139.8940  134.9540  156.6664 H   0  0  0  0  0  0  0  0  0  0  0  0  # atno 11005 bound_to 11000
  146.2753  140.4703  142.8798 LP  0  0  0  0  0  0  0  0  0  0  0  0  # atno 17320 bound_to 7965
  144.8376  140.6807  143.6250 LP  0  0  0  0  0  0  0  0  0  0  0  0  # atno 17321 bound_to 7965
  139.5355  144.2794  152.1241 LP  0  0  0  0  0  0  0  0  0  0  0  0  # atno 17342 bound_to 10162
  140.1992  144.4675  150.6440 LP  0  0  0  0  0  0  0  0  0  0  0  0  # atno 17343 bound_to 10162
  157.5996  131.0942  150.8983 LP  0  0  0  0  0  0  0  0  0  0  0  0  # atno 17370 bound_to 10713
  156.9143  130.5292  149.5280 LP  0  0  0  0  0  0  0  0  0  0  0  0  # atno 17371 bound_to 10713
  140.7407  133.8980  155.8276 LP  0  0  0  0  0  0  0  0  0  0  0  0  # atno 17394 bound_to 11000
  141.0080  134.1060  157.4251 LP  0  0  0  0  0  0  0  0  0  0  0  0  # atno 17395 bound_to 11000

$$$$
