AV-unprocessed.smi:2705|AV-procd|sdf|10443|dock1
  -GOLD-   2272014483D 1   1.00000     0.00000
 Structure written by MMmdl.
 36 37  0  0  0  0  0  0  0  0  1 V2000
  149.7044  140.9126  158.2838 C   0  0  0  0  0  0  0  0  0  0  0  0
  151.1282  141.4454  158.0011 C   0  0  0  0  0  0  0  0  0  0  0  0
  151.9172  140.4005  157.3336 N   0  0  0  0  0  0  0  0  0  0  0  0
  151.7615  139.8862  156.1000 C   0  0  0  0  0  0  0  0  0  0  0  0
  150.9138  140.2670  155.2939 O   0  0  0  0  0  0  0  0  0  0  0  0
  152.7062  138.7452  155.7256 C   0  0  0  0  0  0  0  0  0  0  0  0
  152.5475  137.6278  156.6379 N   0  0  0  0  0  0  0  0  0  0  0  0
  152.6796  137.5510  157.9642 C   0  0  0  0  0  0  0  0  0  0  0  0
  152.4330  136.3292  158.4108 N   0  0  0  0  0  0  0  0  0  0  0  0
  152.1322  135.6273  157.2555 N   0  0  0  0  0  0  0  0  0  0  0  0
  152.1982  136.3925  156.2006 N   0  0  0  0  0  0  0  0  0  0  0  0
  151.0055  142.6182  156.9946 C   0  0  0  0  0  0  0  0  0  0  0  0
  152.2453  143.5207  156.8577 C   0  0  0  0  0  0  0  0  0  0  0  0
  152.2198  144.7081  157.8359 C   0  0  0  0  0  0  0  0  0  0  0  0
  152.4578  144.3369  159.3075 C   0  0  0  0  0  0  0  0  0  0  0  0
  151.5085  143.2615  159.8660 C   0  0  0  0  0  0  0  0  0  0  0  0
  151.8273  141.8537  159.3303 C   0  0  0  0  0  0  0  0  0  0  0  0
  149.0741  141.6843  158.7263 H   0  0  0  0  0  0  0  0  0  0  0  0
  149.7058  140.0712  158.9768 H   0  0  0  0  0  0  0  0  0  0  0  0
  149.2162  140.5798  157.3669 H   0  0  0  0  0  0  0  0  0  0  0  0
  152.6570  140.0019  157.8934 H   0  0  0  0  0  0  0  0  0  0  0  0
  152.5068  138.4136  154.7053 H   0  0  0  0  0  0  0  0  0  0  0  0
  153.7427  139.0837  155.7590 H   0  0  0  0  0  0  0  0  0  0  0  0
  152.9476  138.3846  158.5969 H   0  0  0  0  0  0  0  0  0  0  0  0
  150.7635  142.2098  156.0119 H   0  0  0  0  0  0  0  0  0  0  0  0
  150.1458  143.2408  157.2464 H   0  0  0  0  0  0  0  0  0  0  0  0
  153.1685  142.9482  156.9549 H   0  0  0  0  0  0  0  0  0  0  0  0
  152.2545  143.9286  155.8463 H   0  0  0  0  0  0  0  0  0  0  0  0
  152.9851  145.4248  157.5366 H   0  0  0  0  0  0  0  0  0  0  0  0
  151.2712  145.2383  157.7427 H   0  0  0  0  0  0  0  0  0  0  0  0
  153.4923  144.0185  159.4410 H   0  0  0  0  0  0  0  0  0  0  0  0
  152.3514  145.2416  159.9071 H   0  0  0  0  0  0  0  0  0  0  0  0
  151.6368  143.2437  160.9487 H   0  0  0  0  0  0  0  0  0  0  0  0
  150.4645  143.5273  159.6976 H   0  0  0  0  0  0  0  0  0  0  0  0
  151.5619  141.1304  160.1026 H   0  0  0  0  0  0  0  0  0  0  0  0
  152.9101  141.7616  159.2295 H   0  0  0  0  0  0  0  0  0  0  0  0
  1  2  1  0  0  0  0
  1 18  1  0  0  0  0
  1 19  1  0  0  0  0
  1 20  1  0  0  0  0
  2 17  1  0  0  0  0
  2  3  1  0  0  0  0
  2 12  1  0  0  0  0
  3  4  1  0  0  0  0
  3 21  1  0  0  0  0
  4  5  2  0  0  0  0
  4  6  1  0  0  0  0
  6  7  1  0  0  0  0
  6 22  1  0  0  0  0
  6 23  1  0  0  0  0
  7 11  1  0  0  0  0
  7  8  1  0  0  0  0
  8  9  2  0  0  0  0
  8 24  1  0  0  0  0
  9 10  1  0  0  0  0
 10 11  2  0  0  0  0
 12 13  1  0  0  0  0
 12 25  1  0  0  0  0
 12 26  1  0  0  0  0
 13 14  1  0  0  0  0
 13 27  1  0  0  0  0
 13 28  1  0  0  0  0
 14 15  1  0  0  0  0
 14 29  1  0  0  0  0
 14 30  1  0  0  0  0
 15 16  1  0  0  0  0
 15 31  1  0  0  0  0
 15 32  1  0  0  0  0
 16 17  1  0  0  0  0
 16 33  1  0  0  0  0
 16 34  1  0  0  0  0
 17 35  1  0  0  0  0
 17 36  1  0  0  0  0
M  END
> <s_m_source_file>
AV-unprocessed.smi

> <i_m_source_file_index>
2705

> <i_lp_mmshare_version>
43012

> <i_f3d_flags>
0

> <s_epik_input>
W0NIMl0xW0NIMl1bQ0gyXVtDSDJdW0NIMl1bQ0gyXUMxKFtDSDNdKVtOSF1DKD1PKVtDSDJdbjJbY0hdbm5uMg==

> <s_epik_cmdline>
J2VwaWtfcHl0aG9uJywgJy1waCcsICc3LjAnLCAnLXRuJywgJzgnLCAnLW1hJywgJzIwMCcsICctbWV0YWxfYmluZGluZycsICctaW1hZScsICc8aW5maWxlLm1hZT4nLCAnLW9tYWUnLCAnPG91dGZpbGUubWFlPic=

> <r_lp_tautomer_probability>
1

> <r_epik_Ionization_Penalty>
4.39395e-07

> <r_epik_Ionization_Penalty_Charging>
0

> <r_epik_Ionization_Penalty_Neutral>
4.39395e-07

> <r_epik_State_Penalty>
-0

> <r_epik_Charging_Adjusted_Penalty>
0

> <i_epik_Tot_Q>
0

> <i_epik_Tot_abs_Q>
0

> <r_epik_Metal_State_Penalty>
-0

> <b_epik_Metal_Only>
0

> <s_lp_Force_Field>
OPLS_2005

> <r_lp_Energy>
20.5987

> <b_lp_Chiralities_Consistent>
1

> <s_lp_Variant>
AV-unprocessed.smi:2705-1

> <Gold.Version>
5.8.1

> <Gold.Id.Protein>
6NUR|6NUR_protein|mol2

> <Gold.PLP.Fitness>
34.3160

> <Gold.PLP.PLP>
-27.1505

> <Gold.PLP.part.hbond>
-3.8327

> <Gold.PLP.part.metal>
0.0000

> <Gold.PLP.part.buried>
-4.2279

> <Gold.PLP.part.nonpolar>
-19.8434

> <Gold.PLP.part.repulsive>
0.1337

> <Gold.PLP.ligand.clash>
0.0000

> <Gold.PLP.ligand.torsion>
0.1259

> <Gold.PLP.Chemscore.Hbond>
2.4685

> <Gold.PLP.Chemscore.CHOScore>
0.0000

> <Gold.PLP.Chemscore.Metal>
0.0000

> <Gold.Chemscore.Hbonds>
donor molecule, donor type, donor heavy atom, donor atom, acceptor molecule, acceptor atom, score
      P1  H  6896  6908       L1     9  0.44
      P1  H  7989  7998       L1     5  1.00
      P1  H 10752 10765       L1    11  1.00

> <Gold.PLP.Chemscore.Internal.Correction>
0.0117

> <Gold.Rescore>
     Score         DG    S(hbond)    S(metal)    S(lipo)     H(rot)  DE(clash)    DE(int)     intcor
     14.54     -18.33       2.25        0.00      87.35       1.91       2.53       1.26       ----

> <Gold.Chemscore.Fitness>
14.5394

> <Gold.Chemscore.DG>
-18.3324

> <Gold.Chemscore.ZeroCoef>
-5.4800

> <Gold.Chemscore.Hbond>
2.2490

> <Gold.Chemscore.Metal>
0.0000

> <Gold.Chemscore.Lipo>
87.3468

> <Gold.Chemscore.Internal_Hbond>
0.0000

> <Gold.Chemscore.DEClash>
2.5341

> <Gold.Chemscore.DEInternal>
1.2589

> <Gold.Chemscore.Rot>
1.9058

> <Gold.Chemscore.Internal.Correction>
   9.000000E+99

> <Gold.Chemscore.Hbonds>
donor molecule, donor type, donor heavy atom, donor atom, acceptor molecule, acceptor atom, score
      P1  H  6896  6908       L1     9  0.24
      P1  H  7989  7998       L1     5  0.83
      P1  H 10752 10765       L1    11  0.34

> <Gold.Chemscore.Hbond.Weighted>
-7.5116

> <Gold.Chemscore.Metal.Weighted>
-0.0000

> <Gold.Chemscore.Lipo.Weighted>
-10.2196

> <Gold.Chemscore.Internal_Hbond.Weighted>
0.0000

> <Gold.Chemscore.DEClash.Weighted>
2.5341

> <Gold.Chemscore.DEInternal.Weighted>
1.2589

> <Gold.Chemscore.Rot.Weighted>
4.8788

> <Gold.Chemscore.Internal.Correction.Weighted>
   9.000000E+99

> <Gold.Protein.RotatedTorsions>
[ 6907 6896 6895 6894 ] final -106.59 input  -60.11 | X-H torsion
[ 7974 7965 7964 7962 ] final  134.97 input  175.53 | X-H torsion
[ 8008 7997 7996 7995 ] final  -69.50 input   59.86 | X-H torsion
[ 10167 10162 10161 10158 ] final -116.75 input  -65.29 | X-H torsion
[ 10718 10713 10712 10709 ] final  -77.97 input   66.30 | X-H torsion
[ 10763 10752 10751 10750 ] final -142.25 input  -60.55 | X-H torsion
[ 11005 11000 10999 10996 ] final  -39.34 input  -57.11 | X-H torsion

> <Gold.Protein.ActiveResidues>
 VAL166  LYS551  ARG553  GLY616  TRP617  ASP618  TYR619  PRO620  LYS621  CYS622 
 ASP623  PHE694  ASN695  SER759  ASP760  ASP761  ALA762  ILE779  LEU786  VAL792 
 PHE793  MET794  SER795  GLU796  ALA797  LYS798  CYS799  TRP800  GLU811  SER814 

> <Gold.Protein.RotatedAtoms>
  150.7398  133.9953  159.3620 H   0  0  0  0  0  0  0  0  0  0  0  0  # atno 6907 bound_to 6896
  151.7903  135.0735  160.0395 H   0  0  0  0  0  0  0  0  0  0  0  0  # atno 6908 bound_to 6896
  152.3212  133.5819  159.5782 H   0  0  0  0  0  0  0  0  0  0  0  0  # atno 6909 bound_to 6896
  144.9710  139.4605  143.5433 H   0  0  0  0  0  0  0  0  0  0  0  0  # atno 7974 bound_to 7965
  154.4943  140.0852  156.7663 H   0  0  0  0  0  0  0  0  0  0  0  0  # atno 8008 bound_to 7997
  155.4154  140.3443  155.4249 H   0  0  0  0  0  0  0  0  0  0  0  0  # atno 8009 bound_to 7997
  156.1373  140.1519  156.8963 H   0  0  0  0  0  0  0  0  0  0  0  0  # atno 8010 bound_to 7997
  140.0758  143.4834  152.1954 H   0  0  0  0  0  0  0  0  0  0  0  0  # atno 10167 bound_to 10162
  156.0130  130.4505  150.3425 H   0  0  0  0  0  0  0  0  0  0  0  0  # atno 10718 bound_to 10713
  154.8516  135.3501  154.5998 H   0  0  0  0  0  0  0  0  0  0  0  0  # atno 10763 bound_to 10752
  153.6607  135.6990  153.5183 H   0  0  0  0  0  0  0  0  0  0  0  0  # atno 10764 bound_to 10752
  153.2820  135.4260  155.1045 H   0  0  0  0  0  0  0  0  0  0  0  0  # atno 10765 bound_to 10752
  141.0094  133.6915  156.2173 H   0  0  0  0  0  0  0  0  0  0  0  0  # atno 11005 bound_to 11000
  146.3382  139.8922  142.8807 LP  0  0  0  0  0  0  0  0  0  0  0  0  # atno 17320 bound_to 7965
  145.2559  141.0060  143.3854 LP  0  0  0  0  0  0  0  0  0  0  0  0  # atno 17321 bound_to 7965
  139.5808  144.7509  151.3644 LP  0  0  0  0  0  0  0  0  0  0  0  0  # atno 17342 bound_to 10162
  140.7102  143.7409  150.7554 LP  0  0  0  0  0  0  0  0  0  0  0  0  # atno 17343 bound_to 10162
  157.1520  131.0323  151.2880 LP  0  0  0  0  0  0  0  0  0  0  0  0  # atno 17370 bound_to 10713
  157.4384  130.7530  149.7048 LP  0  0  0  0  0  0  0  0  0  0  0  0  # atno 17371 bound_to 10713
  140.6758  134.4819  157.5588 LP  0  0  0  0  0  0  0  0  0  0  0  0  # atno 17394 bound_to 11000
  139.9081  134.8404  156.1628 LP  0  0  0  0  0  0  0  0  0  0  0  0  # atno 17395 bound_to 11000

$$$$
