AV-unprocessed.smi:1688|AV-procd|sdf|6770|dock2
  -GOLD-   22720 7533D 1   1.00000     0.00000
 Structure written by MMmdl.
 35 37  0  0  0  0  0  0  0  0  1 V2000
  149.5798  140.9383  153.6983 O   0  0  0  0  0  0  0  0  0  0  0  0
  150.0302  140.5398  154.9809 C   0  0  0  0  0  0  0  0  0  0  0  0
  150.3789  141.8226  155.7788 C   0  0  0  0  0  0  0  0  0  0  0  0
  150.9191  141.5740  157.1072 N   0  0  0  0  0  0  0  0  0  0  0  0
  151.0715  140.3784  157.7097 C   0  0  0  0  0  0  0  0  0  0  0  0
  151.5849  140.3727  158.9363 N   0  0  0  0  0  0  0  0  0  0  0  0
  151.7830  141.7238  159.1615 C   0  0  0  0  0  0  0  0  0  0  0  0
  152.3050  142.3976  160.2890 C   0  0  0  0  0  0  0  0  0  0  0  0
  152.4111  143.8038  160.2951 C   0  0  0  0  0  0  0  0  0  0  0  0
  151.9971  144.5568  159.1771 C   0  0  0  0  0  0  0  0  0  0  0  0
  151.4737  143.9078  158.0425 C   0  0  0  0  0  0  0  0  0  0  0  0
  151.3720  142.5039  158.0384 C   0  0  0  0  0  0  0  0  0  0  0  0
  148.8764  139.7829  155.6808 C   0  0  0  0  0  0  0  0  0  0  0  0
  148.5369  138.4414  155.0069 C   0  0  0  0  0  0  0  0  0  0  0  0
  149.7785  137.5470  154.8919 C   0  0  0  0  0  0  0  0  0  0  0  0
  150.9022  138.2670  154.1341 C   0  0  0  0  0  0  0  0  0  0  0  0
  151.2572  139.6115  154.7947 C   0  0  0  0  0  0  0  0  0  0  0  0
  149.6146  140.1903  153.1220 H   0  0  0  0  0  0  0  0  0  0  0  0
  151.0981  142.4296  155.2271 H   0  0  0  0  0  0  0  0  0  0  0  0
  149.4872  142.4410  155.8911 H   0  0  0  0  0  0  0  0  0  0  0  0
  150.7940  139.4584  157.2162 H   0  0  0  0  0  0  0  0  0  0  0  0
  152.6239  141.8309  161.1511 H   0  0  0  0  0  0  0  0  0  0  0  0
  152.8120  144.3076  161.1622 H   0  0  0  0  0  0  0  0  0  0  0  0
  152.0832  145.6335  159.1909 H   0  0  0  0  0  0  0  0  0  0  0  0
  151.1580  144.4821  157.1843 H   0  0  0  0  0  0  0  0  0  0  0  0
  149.1538  139.5872  156.7175 H   0  0  0  0  0  0  0  0  0  0  0  0
  147.9836  140.4081  155.7221 H   0  0  0  0  0  0  0  0  0  0  0  0
  147.7617  137.9273  155.5760 H   0  0  0  0  0  0  0  0  0  0  0  0
  148.1206  138.6197  154.0149 H   0  0  0  0  0  0  0  0  0  0  0  0
  150.1254  137.2697  155.8882 H   0  0  0  0  0  0  0  0  0  0  0  0
  149.5223  136.6178  154.3823 H   0  0  0  0  0  0  0  0  0  0  0  0
  151.7870  137.6312  154.0924 H   0  0  0  0  0  0  0  0  0  0  0  0
  150.5969  138.4342  153.1005 H   0  0  0  0  0  0  0  0  0  0  0  0
  152.0269  140.1052  154.2006 H   0  0  0  0  0  0  0  0  0  0  0  0
  151.7064  139.4139  155.7687 H   0  0  0  0  0  0  0  0  0  0  0  0
  1  2  1  0  0  0  0
  1 18  1  0  0  0  0
  2 17  1  0  0  0  0
  2  3  1  0  0  0  0
  2 13  1  0  0  0  0
  3  4  1  0  0  0  0
  3 19  1  0  0  0  0
  3 20  1  0  0  0  0
  4 12  1  0  0  0  0
  4  5  1  0  0  0  0
  5  6  2  0  0  0  0
  5 21  1  0  0  0  0
  6  7  1  0  0  0  0
  7 12  2  0  0  0  0
  7  8  1  0  0  0  0
  8  9  2  0  0  0  0
  8 22  1  0  0  0  0
  9 10  1  0  0  0  0
  9 23  1  0  0  0  0
 10 11  2  0  0  0  0
 10 24  1  0  0  0  0
 11 12  1  0  0  0  0
 11 25  1  0  0  0  0
 13 14  1  0  0  0  0
 13 26  1  0  0  0  0
 13 27  1  0  0  0  0
 14 15  1  0  0  0  0
 14 28  1  0  0  0  0
 14 29  1  0  0  0  0
 15 16  1  0  0  0  0
 15 30  1  0  0  0  0
 15 31  1  0  0  0  0
 16 17  1  0  0  0  0
 16 32  1  0  0  0  0
 16 33  1  0  0  0  0
 17 34  1  0  0  0  0
 17 35  1  0  0  0  0
M  END
> <s_m_source_file>
AV-unprocessed.smi

> <i_m_source_file_index>
1688

> <i_lp_mmshare_version>
43012

> <i_f3d_flags>
0

> <s_epik_input>
W0NIMl0xW0NIMl1bQ0gyXVtDSDJdW0NIMl1DMShbT0hdKVtDSDJdbihbY0hdbjIpYyhjMjMpW2NIXVtjSF1bY0hdW2NIXTM=

> <s_epik_cmdline>
J2VwaWtfcHl0aG9uJywgJy1waCcsICc3LjAnLCAnLXRuJywgJzgnLCAnLW1hJywgJzIwMCcsICctbWV0YWxfYmluZGluZycsICctaW1hZScsICc8aW5maWxlLm1hZT4nLCAnLW9tYWUnLCAnPG91dGZpbGUubWFlPic=

> <r_epik_Ionization_Penalty>
0.118875

> <r_epik_Ionization_Penalty_Charging>
0

> <r_epik_Ionization_Penalty_Neutral>
0.118875

> <r_epik_State_Penalty>
0.108446

> <r_epik_Charging_Adjusted_Penalty>
0.108446

> <i_epik_Tot_Q>
0

> <i_epik_Tot_abs_Q>
0

> <r_epik_Metal_State_Penalty>
0.000118993

> <b_epik_Metal_Only>
0

> <s_lp_Force_Field>
OPLS_2005

> <r_lp_Energy>
14.7103

> <b_lp_Chiralities_Consistent>
1

> <s_lp_Variant>
AV-unprocessed.smi:1688-1

> <Gold.Version>
5.8.1

> <Gold.Id.Protein>
6NUR|6NUR_protein|mol2

> <Gold.PLP.Fitness>
43.8304

> <Gold.PLP.PLP>
-38.9944

> <Gold.PLP.part.hbond>
-3.0000

> <Gold.PLP.part.metal>
0.0000

> <Gold.PLP.part.buried>
-1.1842

> <Gold.PLP.part.nonpolar>
-34.1409

> <Gold.PLP.part.repulsive>
0.0000

> <Gold.PLP.ligand.clash>
0.0000

> <Gold.PLP.ligand.torsion>
0.0200

> <Gold.PLP.Chemscore.Hbond>
1.6240

> <Gold.PLP.Chemscore.CHOScore>
0.0000

> <Gold.PLP.Chemscore.Metal>
0.0000

> <Gold.Chemscore.Hbonds>
donor molecule, donor type, donor heavy atom, donor atom, acceptor molecule, acceptor atom, score
      L1  H     1    18       P1  7957  0.64
      P1  H  8011  8017       L1     1  0.95

> <Gold.PLP.Chemscore.Internal.Correction>
0.0040

> <Gold.Rescore>
     Score         DG    S(hbond)    S(metal)    S(lipo)     H(rot)  DE(clash)    DE(int)     intcor
     15.40     -17.28       0.91        0.00     110.35       1.62       0.71       1.17       ----

> <Gold.Chemscore.Fitness>
15.4020

> <Gold.Chemscore.DG>
-17.2824

> <Gold.Chemscore.ZeroCoef>
-5.4800

> <Gold.Chemscore.Hbond>
0.9070

> <Gold.Chemscore.Metal>
0.0000

> <Gold.Chemscore.Lipo>
110.3473

> <Gold.Chemscore.Internal_Hbond>
0.0000

> <Gold.Chemscore.DEClash>
0.7060

> <Gold.Chemscore.DEInternal>
1.1745

> <Gold.Chemscore.Rot>
1.6162

> <Gold.Chemscore.Internal.Correction>
   9.000000E+99

> <Gold.Chemscore.Hbonds>
donor molecule, donor type, donor heavy atom, donor atom, acceptor molecule, acceptor atom, score
      L1  H     1    18       P1  7957  0.63
      P1  H  8011  8017       L1     1  0.19

> <Gold.Chemscore.Hbond.Weighted>
-3.0293

> <Gold.Chemscore.Metal.Weighted>
-0.0000

> <Gold.Chemscore.Lipo.Weighted>
-12.9106

> <Gold.Chemscore.Internal_Hbond.Weighted>
0.0000

> <Gold.Chemscore.DEClash.Weighted>
0.7060

> <Gold.Chemscore.DEInternal.Weighted>
1.1745

> <Gold.Chemscore.Rot.Weighted>
4.1374

> <Gold.Chemscore.Internal.Correction.Weighted>
   9.000000E+99

> <Gold.Protein.RotatedTorsions>
[ 6907 6896 6895 6894 ] final  -94.39 input  -60.11 | X-H torsion
[ 7974 7965 7964 7962 ] final  -24.53 input  175.53 | X-H torsion
[ 8008 7997 7996 7995 ] final  154.30 input   59.86 | X-H torsion
[ 10167 10162 10161 10158 ] final  -88.23 input  -65.29 | X-H torsion
[ 10718 10713 10712 10709 ] final -155.23 input   66.30 | X-H torsion
[ 10763 10752 10751 10750 ] final  150.18 input  -60.55 | X-H torsion
[ 11005 11000 10999 10996 ] final -103.71 input  -57.11 | X-H torsion

> <Gold.Protein.ActiveResidues>
 VAL166  LYS551  ARG553  GLY616  TRP617  ASP618  TYR619  PRO620  LYS621  CYS622 
 ASP623  PHE694  ASN695  SER759  ASP760  ASP761  ALA762  ILE779  LEU786  VAL792 
 PHE793  MET794  SER795  GLU796  ALA797  LYS798  CYS799  TRP800  GLU811  SER814 

> <Gold.Protein.RotatedAtoms>
  150.6941  134.1819  159.4251 H   0  0  0  0  0  0  0  0  0  0  0  0  # atno 6907 bound_to 6896
  151.9793  135.0034  160.0566 H   0  0  0  0  0  0  0  0  0  0  0  0  # atno 6908 bound_to 6896
  152.1769  133.4646  159.4975 H   0  0  0  0  0  0  0  0  0  0  0  0  # atno 6909 bound_to 6896
  146.1548  140.4765  142.8596 H   0  0  0  0  0  0  0  0  0  0  0  0  # atno 7974 bound_to 7965
  156.2538  140.1970  156.6624 H   0  0  0  0  0  0  0  0  0  0  0  0  # atno 8008 bound_to 7997
  154.6454  140.0578  156.9920 H   0  0  0  0  0  0  0  0  0  0  0  0  # atno 8009 bound_to 7997
  155.1498  140.3250  155.4436 H   0  0  0  0  0  0  0  0  0  0  0  0  # atno 8010 bound_to 7997
  140.3767  143.2768  151.9435 H   0  0  0  0  0  0  0  0  0  0  0  0  # atno 10167 bound_to 10162
  156.5100  130.8430  151.2642 H   0  0  0  0  0  0  0  0  0  0  0  0  # atno 10718 bound_to 10713
  154.0833  135.2858  155.3286 H   0  0  0  0  0  0  0  0  0  0  0  0  # atno 10763 bound_to 10752
  154.6669  135.5314  153.8092 H   0  0  0  0  0  0  0  0  0  0  0  0  # atno 10764 bound_to 10752
  153.0441  135.6548  154.1006 H   0  0  0  0  0  0  0  0  0  0  0  0  # atno 10765 bound_to 10752
  141.1134  133.8662  157.1520 H   0  0  0  0  0  0  0  0  0  0  0  0  # atno 11005 bound_to 11000
  144.7950  140.6105  143.6516 LP  0  0  0  0  0  0  0  0  0  0  0  0  # atno 17320 bound_to 7965
  145.4734  139.1501  143.3801 LP  0  0  0  0  0  0  0  0  0  0  0  0  # atno 17321 bound_to 7965
  139.4799  144.5857  151.7857 LP  0  0  0  0  0  0  0  0  0  0  0  0  # atno 17342 bound_to 10162
  140.4979  144.1213  150.5964 LP  0  0  0  0  0  0  0  0  0  0  0  0  # atno 17343 bound_to 10162
  157.7452  130.9953  150.2738 LP  0  0  0  0  0  0  0  0  0  0  0  0  # atno 17370 bound_to 10713
  156.3250  130.3791  149.7541 LP  0  0  0  0  0  0  0  0  0  0  0  0  # atno 17371 bound_to 10713
  140.0040  135.0016  157.0253 LP  0  0  0  0  0  0  0  0  0  0  0  0  # atno 17394 bound_to 11000
  140.4714  134.1383  155.7203 LP  0  0  0  0  0  0  0  0  0  0  0  0  # atno 17395 bound_to 11000

$$$$
