AV-unprocessed.smi:54|AV-procd|sdf|535|dock4
  -GOLD-   2262016413D 1   1.00000     0.00000
 Structure written by MMmdl.
 44 46  0  0  0  0  0  0  0  0  1 V2000
  143.7864  136.6498  161.7740 C   0  0  0  0  0  0  0  0  0  0  0  0
  145.0655  135.9568  161.2769 C   0  0  0  0  0  0  0  0  0  0  0  0
  145.8080  135.2610  162.4292 C   0  0  0  0  0  0  0  0  0  0  0  0
  145.9829  136.9621  160.5727 C   0  0  0  0  0  0  0  0  0  0  0  0
  145.6359  138.1220  160.3488 O   0  0  0  0  0  0  0  0  0  0  0  0
  147.2921  136.4648  160.2000 N   0  0  0  0  0  0  0  0  0  0  0  0
  148.2487  137.1663  159.5544 C   0  0  0  0  0  0  0  0  0  0  0  0
  147.9630  138.0238  158.5859 N   0  0  0  0  0  0  0  0  0  0  0  0
  149.0470  138.6437  158.0252 C   0  0  0  0  0  0  0  0  0  0  0  0
  150.3667  138.4412  158.3819 C   0  0  0  0  0  0  0  0  0  0  0  0
  151.2027  139.2444  157.6186 N   0  0  0  0  0  0  0  0  0  0  0  0
  150.3871  139.8905  156.8364 C   0  0  0  0  0  0  0  0  0  0  0  0
  149.0589  139.5728  156.9945 N   0  0  0  0  0  0  0  0  0  0  0  0
  147.9136  140.1739  156.2244 C   0  0  2  0  0  0  0  0  0  0  0  0
  147.4197  139.2220  155.3365 O   0  0  0  0  0  0  0  0  0  0  0  0
  147.9650  139.4304  154.0415 C   0  0  1  0  0  0  0  0  0  0  0  0
  147.0178  138.8524  152.9791 C   0  0  0  0  0  0  0  0  0  0  0  0
  147.6515  138.8365  151.7179 O   0  0  0  0  0  0  0  0  0  0  0  0
  148.1051  140.9588  153.9592 C   0  0  2  0  0  0  0  0  0  0  0  0
  149.2183  141.3081  153.1620 O   0  0  0  0  0  0  0  0  0  0  0  0
  148.3110  141.4140  155.4062 C   0  0  1  0  0  0  0  0  0  0  0  0
  147.4634  142.5082  155.6939 O   0  0  0  0  0  0  0  0  0  0  0  0
  150.6922  137.5000  159.4151 C   0  0  0  0  0  0  0  0  0  0  0  0
  151.8028  137.1932  159.8436 O   0  0  0  0  0  0  0  0  0  0  0  0
  149.5537  136.8915  159.9547 N   0  0  0  0  0  0  0  0  0  0  0  0
  147.1680  140.3859  156.9923 H   0  0  0  0  0  0  0  0  0  0  0  0
  148.9392  138.9476  153.9792 H   0  0  0  0  0  0  0  0  0  0  0  0
  147.1982  141.3978  153.5395 H   0  0  0  0  0  0  0  0  0  0  0  0
  149.3375  141.7082  155.6244 H   0  0  0  0  0  0  0  0  0  0  0  0
  143.2676  137.1580  160.9601 H   0  0  0  0  0  0  0  0  0  0  0  0
  144.0048  137.3918  162.5433 H   0  0  0  0  0  0  0  0  0  0  0  0
  143.0926  135.9260  162.2020 H   0  0  0  0  0  0  0  0  0  0  0  0
  144.7755  135.1952  160.5515 H   0  0  0  0  0  0  0  0  0  0  0  0
  146.7183  134.7735  162.0782 H   0  0  0  0  0  0  0  0  0  0  0  0
  145.1833  134.4938  162.8871 H   0  0  0  0  0  0  0  0  0  0  0  0
  146.0888  135.9679  163.2111 H   0  0  0  0  0  0  0  0  0  0  0  0
  147.5297  135.5355  160.5148 H   0  0  0  0  0  0  0  0  0  0  0  0
  150.7360  140.6128  156.1126 H   0  0  0  0  0  0  0  0  0  0  0  0
  146.6801  137.8513  153.2491 H   0  0  0  0  0  0  0  0  0  0  0  0
  146.1313  139.4809  152.8889 H   0  0  0  0  0  0  0  0  0  0  0  0
  148.4411  139.3528  151.7716 H   0  0  0  0  0  0  0  0  0  0  0  0
  149.4219  140.5772  152.5974 H   0  0  0  0  0  0  0  0  0  0  0  0
  147.9153  143.3057  155.4642 H   0  0  0  0  0  0  0  0  0  0  0  0
  149.7058  136.2180  160.6910 H   0  0  0  0  0  0  0  0  0  0  0  0
  1  2  1  0  0  0  0
  1 30  1  0  0  0  0
  1 31  1  0  0  0  0
  1 32  1  0  0  0  0
  2  3  1  0  0  0  0
  2  4  1  0  0  0  0
  2 33  1  0  0  0  0
  3 34  1  0  0  0  0
  3 35  1  0  0  0  0
  3 36  1  0  0  0  0
  4  5  2  0  0  0  0
  4  6  1  0  0  0  0
  6 37  1  0  0  0  0
  6  7  1  0  0  0  0
  7 25  1  0  0  0  0
  7  8  2  0  0  0  0
  8  9  1  0  0  0  0
  9 13  1  0  0  0  0
  9 10  2  0  0  0  0
 10 11  1  0  0  0  0
 10 23  1  0  0  0  0
 11 12  2  0  0  0  0
 12 13  1  0  0  0  0
 12 38  1  0  0  0  0
 13 14  1  0  0  0  0
 14 26  1  0  0  0  0
 14 21  1  0  0  0  0
 14 15  1  0  0  0  0
 15 16  1  0  0  0  0
 16 27  1  0  0  0  0
 16 17  1  0  0  0  0
 16 19  1  0  0  0  0
 17 18  1  0  0  0  0
 17 39  1  0  0  0  0
 17 40  1  0  0  0  0
 18 41  1  0  0  0  0
 19 28  1  0  0  0  0
 19 20  1  0  0  0  0
 19 21  1  0  0  0  0
 20 42  1  0  0  0  0
 21 29  1  0  0  0  0
 21 22  1  0  0  0  0
 22 43  1  0  0  0  0
 23 24  2  0  0  0  0
 23 25  1  0  0  0  0
 25 44  1  0  0  0  0
M  END
> <s_m_source_file>
AV-unprocessed.smi

> <i_m_source_file_index>
54

> <i_lp_mmshare_version>
43012

> <i_f3d_flags>
0

> <s_epik_input>
W0NIM11bQ0hdKFtDSDNdKUMoPU8pW05IXWMobjEpW25IXWMoPU8pYyhjMTIpbltjSF1uMltDQEBIXTNPW0NASF0oW0NIMl1bT0hdKVtDQEBIXShbT0hdKVtDQEhdM1tPSF0=

> <s_epik_cmdline>
J2VwaWtfcHl0aG9uJywgJy1waCcsICc3LjAnLCAnLXRuJywgJzgnLCAnLW1hJywgJzIwMCcsICctbWV0YWxfYmluZGluZycsICctaW1hZScsICc8aW5maWxlLm1hZT4nLCAnLW9tYWUnLCAnPG91dGZpbGUubWFlPic=

> <r_lp_tautomer_probability>
0.85571

> <r_epik_Ionization_Penalty>
0.0316551

> <r_epik_Ionization_Penalty_Charging>
0.0316043

> <r_epik_Ionization_Penalty_Neutral>
5.07097e-05

> <r_epik_State_Penalty>
3.15494e-07

> <r_epik_Charging_Adjusted_Penalty>
0.0316047

> <i_epik_Tot_Q>
0

> <i_epik_Tot_abs_Q>
0

> <r_epik_Metal_State_Penalty>
0.421206

> <b_epik_Metal_Only>
0

> <s_epik_Chemistry_Notes>
This compound contains an acetal/aminal-like group ( X-CH(R)-Y where X, Y are N, S, or O) that may be acid/base labile, releasing an aldehyde.

> <s_lp_Force_Field>
OPLS_2005

> <r_lp_Energy>
37.5812

> <b_lp_Chiralities_Consistent>
1

> <s_lp_Variant>
AV-unprocessed.smi:54-7

> <Gold.Version>
5.8.1

> <Gold.Id.Protein>
6NUR|6NUR_protein|mol2

> <Gold.PLP.Fitness>
46.7805

> <Gold.PLP.PLP>
-29.6480

> <Gold.PLP.part.hbond>
-8.2701

> <Gold.PLP.part.metal>
0.0000

> <Gold.PLP.part.buried>
-5.2924

> <Gold.PLP.part.nonpolar>
-18.2264

> <Gold.PLP.part.repulsive>
0.4968

> <Gold.PLP.ligand.clash>
0.0000

> <Gold.PLP.ligand.torsion>
0.8094

> <Gold.PLP.Chemscore.Hbond>
6.2387

> <Gold.PLP.Chemscore.CHOScore>
0.0000

> <Gold.PLP.Chemscore.Metal>
0.0000

> <Gold.Chemscore.Hbonds>
donor molecule, donor type, donor heavy atom, donor atom, acceptor molecule, acceptor atom, score
      L1  H    18    41       P1  7957  0.81
      L1  H    20    42       P1  7957  0.94
      L1  H    22    43       P1  8028  1.00
      P1  H  6896  6907       L1    24  0.91
      P1  H  6934  6947       L1     5  0.82
      P1  H  7954  7966       L1    18  0.48
      P1  H  8011  8017       L1    20  0.86

> <Gold.PLP.Chemscore.Internal.Correction>
0.0352

> <Gold.Rescore>
     Score         DG    S(hbond)    S(metal)    S(lipo)     H(rot)  DE(clash)    DE(int)     intcor
     12.51     -15.26       4.53        0.00      42.80       4.05       0.81       1.95       ----

> <Gold.Chemscore.Fitness>
12.5051

> <Gold.Chemscore.DG>
-15.2607

> <Gold.Chemscore.ZeroCoef>
-5.4800

> <Gold.Chemscore.Hbond>
4.5327

> <Gold.Chemscore.Metal>
0.0000

> <Gold.Chemscore.Lipo>
42.8016

> <Gold.Chemscore.Internal_Hbond>
0.0000

> <Gold.Chemscore.DEClash>
0.8069

> <Gold.Chemscore.DEInternal>
1.9488

> <Gold.Chemscore.Rot>
4.0493

> <Gold.Chemscore.Internal.Correction>
   9.000000E+99

> <Gold.Chemscore.Hbonds>
donor molecule, donor type, donor heavy atom, donor atom, acceptor molecule, acceptor atom, score
      L1  H    18    41       P1  7957  0.76
      L1  H    20    42       P1  7957  0.86
      L1  H    22    43       P1  8028  0.55
      P1  H  6896  6907       L1    24  0.52
      P1  H  6934  6947       L1     5  0.24
      P1  H  7954  7966       L1    18  0.05
      P1  H  8011  8017       L1    20  0.19

> <Gold.Chemscore.Hbond.Weighted>
-15.1392

> <Gold.Chemscore.Metal.Weighted>
-0.0000

> <Gold.Chemscore.Lipo.Weighted>
-5.0078

> <Gold.Chemscore.Internal_Hbond.Weighted>
0.0000

> <Gold.Chemscore.DEClash.Weighted>
0.8069

> <Gold.Chemscore.DEInternal.Weighted>
1.9488

> <Gold.Chemscore.Rot.Weighted>
10.3662

> <Gold.Chemscore.Internal.Correction.Weighted>
   9.000000E+99

> <Gold.Protein.RotatedTorsions>
[ 6907 6896 6895 6894 ] final   15.90 input  -60.11 | X-H torsion
[ 7974 7965 7964 7962 ] final   19.92 input  175.53 | X-H torsion
[ 8008 7997 7996 7995 ] final   62.07 input   59.86 | X-H torsion
[ 10167 10162 10161 10158 ] final  106.53 input  -65.29 | X-H torsion
[ 10718 10713 10712 10709 ] final   72.09 input   66.30 | X-H torsion
[ 10763 10752 10751 10750 ] final  -39.41 input  -60.55 | X-H torsion
[ 11005 11000 10999 10996 ] final   80.92 input  -57.11 | X-H torsion

> <Gold.Protein.ActiveResidues>
 VAL166  LYS551  ARG553  GLY616  TRP617  ASP618  TYR619  PRO620  LYS621  CYS622 
 ASP623  PHE694  ASN695  SER759  ASP760  ASP761  ALA762  ILE779  LEU786  VAL792 
 PHE793  MET794  SER795  GLU796  ALA797  LYS798  CYS799  TRP800  GLU811  SER814 

> <Gold.Protein.RotatedAtoms>
  151.8254  135.0638  160.0430 H   0  0  0  0  0  0  0  0  0  0  0  0  # atno 6907 bound_to 6896
  152.2920  133.5566  159.5572 H   0  0  0  0  0  0  0  0  0  0  0  0  # atno 6908 bound_to 6896
  150.7234  134.0331  159.3782 H   0  0  0  0  0  0  0  0  0  0  0  0  # atno 6909 bound_to 6896
  146.2131  139.8244  142.8673 H   0  0  0  0  0  0  0  0  0  0  0  0  # atno 7974 bound_to 7965
  155.6084  140.3494  155.4615 H   0  0  0  0  0  0  0  0  0  0  0  0  # atno 8008 bound_to 7997
  156.0173  140.1246  157.0417 H   0  0  0  0  0  0  0  0  0  0  0  0  # atno 8009 bound_to 7997
  154.4302  140.1069  156.5900 H   0  0  0  0  0  0  0  0  0  0  0  0  # atno 8010 bound_to 7997
  139.7001  144.7095  151.1199 H   0  0  0  0  0  0  0  0  0  0  0  0  # atno 10167 bound_to 10162
  157.6484  130.9561  150.0881 H   0  0  0  0  0  0  0  0  0  0  0  0  # atno 10718 bound_to 10713
  153.9289  135.6774  153.4746 H   0  0  0  0  0  0  0  0  0  0  0  0  # atno 10763 bound_to 10752
  153.0989  135.4837  154.8828 H   0  0  0  0  0  0  0  0  0  0  0  0  # atno 10764 bound_to 10752
  154.7438  135.3167  154.8638 H   0  0  0  0  0  0  0  0  0  0  0  0  # atno 10765 bound_to 10752
  139.9117  134.7957  156.1972 H   0  0  0  0  0  0  0  0  0  0  0  0  # atno 11005 bound_to 11000
  145.3062  141.0208  143.3580 LP  0  0  0  0  0  0  0  0  0  0  0  0  # atno 17320 bound_to 7965
  144.8969  139.4700  143.6651 LP  0  0  0  0  0  0  0  0  0  0  0  0  # atno 17321 bound_to 7965
  140.7707  143.5435  150.9285 LP  0  0  0  0  0  0  0  0  0  0  0  0  # atno 17342 bound_to 10162
  139.9117  143.6713  152.3114 LP  0  0  0  0  0  0  0  0  0  0  0  0  # atno 17343 bound_to 10162
  156.1838  130.3651  149.9000 LP  0  0  0  0  0  0  0  0  0  0  0  0  # atno 17370 bound_to 10713
  156.6946  130.8909  151.3592 LP  0  0  0  0  0  0  0  0  0  0  0  0  # atno 17371 bound_to 10713
  141.0547  133.6871  156.1838 LP  0  0  0  0  0  0  0  0  0  0  0  0  # atno 17394 bound_to 11000
  140.6755  134.4822  157.5588 LP  0  0  0  0  0  0  0  0  0  0  0  0  # atno 17395 bound_to 11000

$$$$
