#       Name:                AV-unprocessed.smi:2009
#       Creating user name   scv26
#       Creation time:       Fri Mar 27 10:38:29 2020


#       File generated by GOLD software.
#

@<TRIPOS>MOLECULE
AV-unprocessed.smi:2009
    41    42     1
SMALL
NO_CHARGES


@<TRIPOS>ATOM
      1 ****        -2.4810  -1.8258   1.7934 C.3            1 S1                 0.0000
      2 ****        -2.4357  -0.5388   0.9556 C.3            1 S1                 0.0000
      3 ****        -3.0913  -0.6881  -0.4363 C.3            1 S1                 0.0000
      4 ****        -2.4518  -1.6863  -1.2784 N.pl3          1 S1                 0.0000
      5 ****        -1.3649  -1.5302  -2.1133 C.2            1 S1                 0.0000
      6 ****        -1.1245  -2.7395  -2.6995 C.2            1 S1                 0.0000
      7 ****        -2.1336  -3.5835  -2.1575 C.2            1 S1                 0.0000
      8 ****        -2.9282  -2.9503  -1.3096 N.2            1 S1                 0.0000
      9 ****        -1.0430  -0.0967   0.8357 N.3            1 S1                 0.0000
     10 ****        -0.6771   1.5665   0.5600 S.o2           1 S1                 0.0000
     11 ****        -1.1069   1.9319  -0.7984 O.2            1 S1                 0.0000
     12 ****        -1.1369   2.3308   1.7296 O.2            1 S1                 0.0000
     13 ****         1.0530   1.4811   0.5836 N.3            1 S1                 0.0000
     14 ****         1.7744   2.7326   0.8895 C.3            1 S1                 0.0000
     15 ****         3.2476   2.4654   1.2402 C.3            1 S1                 0.0000
     16 ****         3.9463   1.6698   0.1346 C.3            1 S1                 0.0000
     17 ****         3.1761   0.3701  -0.1135 C.3            1 S1                 0.0000
     18 ****         1.7035   0.6515  -0.4541 C.3            1 S1                 0.0000
     19 ****        -3.5037  -2.1897   1.8941 H              1 S1                 0.0000
     20 ****        -2.0933  -1.6526   2.7977 H              1 S1                 0.0000
     21 ****        -1.8868  -2.6222   1.3444 H              1 S1                 0.0000
     22 ****        -2.9835   0.2279   1.5047 H              1 S1                 0.0000
     23 ****        -4.1425  -0.9561  -0.3189 H              1 S1                 0.0000
     24 ****        -3.0875   0.2624  -0.9694 H              1 S1                 0.0000
     25 ****        -0.8579  -0.5818  -2.2160 H              1 S1                 0.0000
     26 ****        -0.3475  -2.9839  -3.4084 H              1 S1                 0.0000
     27 ****        -2.3120  -4.6303  -2.3544 H              1 S1                 0.0000
     28 ****        -0.4193  -0.5284   1.5172 H              1 S1                 0.0000
     29 ****         1.7027   3.4011   0.0306 H              1 S1                 0.0000
     30 ****         1.2920   3.2392   1.7255 H              1 S1                 0.0000
     31 ****         3.7671   3.4099   1.4040 H              1 S1                 0.0000
     32 ****         3.3046   1.9147   2.1801 H              1 S1                 0.0000
     33 ****         3.9883   2.2600  -0.7816 H              1 S1                 0.0000
     34 ****         4.9761   1.4515   0.4185 H              1 S1                 0.0000
     35 ****         3.6434  -0.1902  -0.9238 H              1 S1                 0.0000
     36 ****         3.2309  -0.2641   0.7723 H              1 S1                 0.0000
     37 ****         1.1737  -0.2942  -0.5646 H              1 S1                 0.0000
     38 ****         1.6296   1.1647  -1.4138 H              1 S1                 0.0000
     39 ****        -3.7067  -3.3236  -0.8051 LP             1 S1                 0.0000
     40 ****        -0.8487  -0.4650  -0.0734 LP             1 S1                 0.0000
     41 ****         1.1678   0.9330   1.4121 LP             1 S1                 0.0000
@<TRIPOS>BOND
    1    1    2 1     
    2    1   19 1     
    3    1   20 1     
    4    1   21 1     
    5    2    3 1     
    6    2    9 1     
    7    2   22 1     
    8    3    4 1     
    9    3   23 1     
   10    3   24 1     
   11    4    8 1     
   12    4    5 1     
   13    5    6 2     
   14    5   25 1     
   15    6    7 1     
   16    6   26 1     
   17    7    8 2     
   18    7   27 1     
   19    9   10 1     
   20    9   28 1     
   21   10   11 2     
   22   10   12 2     
   23   10   13 1     
   24   13   18 1     
   25   13   14 1     
   26   14   15 1     
   27   14   29 1     
   28   14   30 1     
   29   15   16 1     
   30   15   31 1     
   31   15   32 1     
   32   16   17 1     
   33   16   33 1     
   34   16   34 1     
   35   17   18 1     
   36   17   35 1     
   37   17   36 1     
   38   18   37 1     
   39   18   38 1     
   40    8   39 1     
   41    9   40 1     
   42   13   41 1     
@<TRIPOS>SUBSTRUCTURE
      1 S1             1
@<TRIPOS>SET
LONE_PAIRS      STATIC     ATOMS    <user>   **** ""
5 39 40 11 12 41
DONOR_HYDROGENS      STATIC     ATOMS    <user>   **** ""
1 28
ATOM$BLUE        STATIC     ATOMS    COLORGROUP SYSTEM
5 39 40 11 12 41
ATOM$RED        STATIC     ATOMS    COLORGROUP SYSTEM
1 28
