AV-unprocessed.smi:1088|AV-procd|sdf|4731|dock6
  -GOLD-   22720 3263D 1   1.00000     0.00000
 Structure written by MMmdl.
 48 49  0  0  0  0  0  0  0  0  2 V2000
  145.8527  130.5833  156.2873 C   0  0  0  0  0  0  0  0  0  0  0  0
  144.9900  131.7022  156.1795 O   0  0  0  0  0  0  0  0  0  0  0  0
  143.8347  131.5782  156.9919 C   0  0  0  0  0  0  0  0  0  0  0  0
  142.9282  132.7948  156.7561 C   0  0  0  0  0  0  0  0  0  0  0  0
  141.6122  132.6535  157.4257 N   0  3  1  0  0  0  0  0  0  0  0  0
  140.7557  131.5704  156.8983 C   0  0  0  0  0  0  0  0  0  0  0  0
  139.7964  131.2383  158.0337 C   0  0  0  0  0  0  0  0  0  0  0  0
  140.6691  131.4000  159.2726 C   0  0  0  0  0  0  0  0  0  0  0  0
  141.6915  132.4926  158.8994 C   0  0  2  0  0  0  0  0  0  0  0  0
  141.4360  133.8458  159.5968 C   0  0  0  0  0  0  0  0  0  0  0  0
  142.1509  133.9590  160.8631 N   0  0  0  0  0  0  0  0  0  0  0  0
  141.8869  134.8675  161.8137 C   0  0  0  0  0  0  0  0  0  0  0  0
  140.9682  135.6835  161.7302 O   0  0  0  0  0  0  0  0  0  0  0  0
  142.7952  134.8416  163.0493 C   0  0  0  0  0  0  0  0  0  0  0  0
  144.1655  135.2725  162.7459 N   0  0  0  0  0  0  0  0  0  0  0  0
  144.5009  136.6114  162.8335 C   0  0  0  0  0  0  0  0  0  0  0  0
  145.7366  137.0884  162.5676 C   0  0  0  0  0  0  0  0  0  0  0  0
  146.8131  136.1939  162.1592 C   0  0  0  0  0  0  0  0  0  0  0  0
  147.9579  136.5843  161.9275 O   0  0  0  0  0  0  0  0  0  0  0  0
  146.4390  134.8320  162.0619 N   0  0  0  0  0  0  0  0  0  0  0  0
  147.4435  133.8622  161.6769 C   0  0  0  0  0  0  0  0  0  0  0  0
  145.1493  134.3373  162.3572 C   0  0  0  0  0  0  0  0  0  0  0  0
  144.8793  133.1354  162.2848 O   0  0  0  0  0  0  0  0  0  0  0  0
  146.7232  130.7295  155.6479 H   0  0  0  0  0  0  0  0  0  0  0  0
  145.3519  129.6678  155.9695 H   0  0  0  0  0  0  0  0  0  0  0  0
  146.2053  130.4529  157.3111 H   0  0  0  0  0  0  0  0  0  0  0  0
  143.3078  130.6474  156.7774 H   0  0  0  0  0  0  0  0  0  0  0  0
  144.1309  131.5453  158.0415 H   0  0  0  0  0  0  0  0  0  0  0  0
  143.4193  133.7046  157.1043 H   0  0  0  0  0  0  0  0  0  0  0  0
  142.7739  132.9161  155.6826 H   0  0  0  0  0  0  0  0  0  0  0  0
  140.2327  131.8736  155.9907 H   0  0  0  0  0  0  0  0  0  0  0  0
  141.3630  130.6942  156.6646 H   0  0  0  0  0  0  0  0  0  0  0  0
  138.9817  131.9633  158.0561 H   0  0  0  0  0  0  0  0  0  0  0  0
  139.3616  130.2424  157.9460 H   0  0  0  0  0  0  0  0  0  0  0  0
  140.0808  131.6309  160.1613 H   0  0  0  0  0  0  0  0  0  0  0  0
  141.1949  130.4646  159.4691 H   0  0  0  0  0  0  0  0  0  0  0  0
  142.6852  132.1291  159.1687 H   0  0  0  0  0  0  0  0  0  0  0  0
  141.7228  134.6718  158.9435 H   0  0  0  0  0  0  0  0  0  0  0  0
  140.3708  133.9675  159.7966 H   0  0  0  0  0  0  0  0  0  0  0  0
  142.9171  133.3190  161.0168 H   0  0  0  0  0  0  0  0  0  0  0  0
  142.3554  135.4905  163.8078 H   0  0  0  0  0  0  0  0  0  0  0  0
  142.8096  133.8416  163.4874 H   0  0  0  0  0  0  0  0  0  0  0  0
  143.7373  137.3161  163.1293 H   0  0  0  0  0  0  0  0  0  0  0  0
  145.9319  138.1469  162.6590 H   0  0  0  0  0  0  0  0  0  0  0  0
  146.9901  133.1492  160.9862 H   0  0  0  0  0  0  0  0  0  0  0  0
  147.7788  133.3736  162.5929 H   0  0  0  0  0  0  0  0  0  0  0  0
  148.2727  134.3509  161.1657 H   0  0  0  0  0  0  0  0  0  0  0  0
  141.1064  133.5145  157.2724 H   0  0  0  0  0  0  0  0  0  0  0  0
  1  2  1  0  0  0  0
  1 24  1  0  0  0  0
  1 25  1  0  0  0  0
  1 26  1  0  0  0  0
  2  3  1  0  0  0  0
  3  4  1  0  0  0  0
  3 27  1  0  0  0  0
  3 28  1  0  0  0  0
  4  5  1  0  0  0  0
  4 29  1  0  0  0  0
  4 30  1  0  0  0  0
  5  9  1  0  0  0  0
  5  6  1  0  0  0  0
  5 48  1  0  0  0  0
  6  7  1  0  0  0  0
  6 31  1  0  0  0  0
  6 32  1  0  0  0  0
  7  8  1  0  0  0  0
  7 33  1  0  0  0  0
  7 34  1  0  0  0  0
  8  9  1  0  0  0  0
  8 35  1  0  0  0  0
  8 36  1  0  0  0  0
  9 10  1  0  0  0  0
  9 37  1  0  0  0  0
 10 11  1  0  0  0  0
 10 38  1  0  0  0  0
 10 39  1  0  0  0  0
 11 12  1  0  0  0  0
 11 40  1  0  0  0  0
 12 13  2  0  0  0  0
 12 14  1  0  0  0  0
 14 15  1  0  0  0  0
 14 41  1  0  0  0  0
 14 42  1  0  0  0  0
 15 22  1  0  0  0  0
 15 16  1  0  0  0  0
 16 17  2  0  0  0  0
 16 43  1  0  0  0  0
 17 18  1  0  0  0  0
 17 44  1  0  0  0  0
 18 19  2  0  0  0  0
 18 20  1  0  0  0  0
 20 21  1  0  0  0  0
 20 22  1  0  0  0  0
 21 45  1  0  0  0  0
 21 46  1  0  0  0  0
 21 47  1  0  0  0  0
 22 23  2  0  0  0  0
M  CHG  1   5   1
M  END
> <s_m_source_file>
AV-unprocessed.smi

> <i_m_source_file_index>
1088

> <i_lp_mmshare_version>
43012

> <i_f3d_flags>
0

> <s_epik_input>
W0NIM11PW0NIMl1bQ0gyXU4xW0NIMl1bQ0gyXVtDSDJdW0NASF0xW0NIMl1bTkhdQyg9TylbQ0gyXW4yW2NIXVtjSF1jKD1PKW4oW0NIM10pYzI9Tw==

> <s_epik_cmdline>
J2VwaWtfcHl0aG9uJywgJy1waCcsICc3LjAnLCAnLXRuJywgJzgnLCAnLW1hJywgJzIwMCcsICctbWV0YWxfYmluZGluZycsICctaW1hZScsICc8aW5maWxlLm1hZT4nLCAnLW9tYWUnLCAnPG91dGZpbGUubWFlPic=

> <r_lp_tautomer_probability>
1

> <r_epik_Ionization_Penalty>
0.0127388

> <r_epik_Ionization_Penalty_Charging>
0.0127387

> <r_epik_Ionization_Penalty_Neutral>
8.26414e-08

> <r_epik_State_Penalty>
0.00987716

> <r_epik_Charging_Adjusted_Penalty>
0.0226159

> <i_epik_Tot_Q>
1

> <i_epik_Tot_abs_Q>
1

> <r_epik_Metal_State_Penalty>
0.00987836

> <b_epik_Metal_Only>
0

> <s_lp_Force_Field>
OPLS_2005

> <r_lp_Energy>
36.9775

> <b_lp_Chiralities_Consistent>
1

> <s_lp_Variant>
AV-unprocessed.smi:1088-4

> <Gold.Version>
5.8.1

> <Gold.Id.Protein>
6NUR|6NUR_protein|mol2

> <Gold.PLP.Fitness>
45.2249

> <Gold.PLP.PLP>
-42.0656

> <Gold.PLP.part.hbond>
-3.0000

> <Gold.PLP.part.metal>
0.0000

> <Gold.PLP.part.buried>
-7.9659

> <Gold.PLP.part.nonpolar>
-31.0525

> <Gold.PLP.part.repulsive>
0.1546

> <Gold.PLP.ligand.clash>
0.0000

> <Gold.PLP.ligand.torsion>
0.9645

> <Gold.PLP.Chemscore.Hbond>
1.6776

> <Gold.PLP.Chemscore.CHOScore>
0.0000

> <Gold.PLP.Chemscore.Metal>
0.0000

> <Gold.Chemscore.Hbonds>
donor molecule, donor type, donor heavy atom, donor atom, acceptor molecule, acceptor atom, score
      P1  H  6931  6943       L1    19  1.00

> <Gold.PLP.Chemscore.Internal.Correction>
0.0555

> <Gold.Rescore>
     Score         DG    S(hbond)    S(metal)    S(lipo)     H(rot)  DE(clash)    DE(int)     intcor
      9.41     -11.77       1.63        0.00      63.53       2.57       0.04       2.32       ----

> <Gold.Chemscore.Fitness>
9.4055

> <Gold.Chemscore.DG>
-11.7654

> <Gold.Chemscore.ZeroCoef>
-5.4800

> <Gold.Chemscore.Hbond>
1.6256

> <Gold.Chemscore.Metal>
0.0000

> <Gold.Chemscore.Lipo>
63.5297

> <Gold.Chemscore.Internal_Hbond>
0.0000

> <Gold.Chemscore.DEClash>
0.0402

> <Gold.Chemscore.DEInternal>
2.3196

> <Gold.Chemscore.Rot>
2.5692

> <Gold.Chemscore.Internal.Correction>
   9.000000E+99

> <Gold.Chemscore.Hbonds>
donor molecule, donor type, donor heavy atom, donor atom, acceptor molecule, acceptor atom, score
      P1  H  6931  6943       L1    19  0.98

> <Gold.Chemscore.Hbond.Weighted>
-5.4296

> <Gold.Chemscore.Metal.Weighted>
-0.0000

> <Gold.Chemscore.Lipo.Weighted>
-7.4330

> <Gold.Chemscore.Internal_Hbond.Weighted>
0.0000

> <Gold.Chemscore.DEClash.Weighted>
0.0402

> <Gold.Chemscore.DEInternal.Weighted>
2.3196

> <Gold.Chemscore.Rot.Weighted>
6.5772

> <Gold.Chemscore.Internal.Correction.Weighted>
   9.000000E+99

> <Gold.Protein.RotatedTorsions>
[ 6907 6896 6895 6894 ] final  -91.47 input  -60.11 | X-H torsion
[ 7974 7965 7964 7962 ] final -168.05 input  175.53 | X-H torsion
[ 8008 7997 7996 7995 ] final  144.01 input   59.86 | X-H torsion
[ 10167 10162 10161 10158 ] final  107.25 input  -65.29 | X-H torsion
[ 10718 10713 10712 10709 ] final   54.20 input   66.30 | X-H torsion
[ 10763 10752 10751 10750 ] final  151.41 input  -60.55 | X-H torsion
[ 11005 11000 10999 10996 ] final -151.72 input  -57.11 | X-H torsion

> <Gold.Protein.ActiveResidues>
 VAL166  LYS551  ARG553  GLY616  TRP617  ASP618  TYR619  PRO620  LYS621  CYS622 
 ASP623  PHE694  ASN695  SER759  ASP760  ASP761  ALA762  ILE779  LEU786  VAL792 
 PHE793  MET794  SER795  GLU796  ALA797  LYS798  CYS799  TRP800  GLU811  SER814 

> <Gold.Protein.RotatedAtoms>
  150.6893  134.2271  159.4419 H   0  0  0  0  0  0  0  0  0  0  0  0  # atno 6907 bound_to 6896
  152.0224  134.9812  160.0580 H   0  0  0  0  0  0  0  0  0  0  0  0  # atno 6908 bound_to 6896
  152.1384  133.4414  159.4791 H   0  0  0  0  0  0  0  0  0  0  0  0  # atno 6909 bound_to 6896
  144.7211  140.2428  143.6289 H   0  0  0  0  0  0  0  0  0  0  0  0  # atno 7974 bound_to 7965
  156.2917  140.2247  156.4984 H   0  0  0  0  0  0  0  0  0  0  0  0  # atno 8008 bound_to 7997
  154.7710  140.0466  157.1073 H   0  0  0  0  0  0  0  0  0  0  0  0  # atno 8009 bound_to 7997
  154.9873  140.3086  155.4924 H   0  0  0  0  0  0  0  0  0  0  0  0  # atno 8010 bound_to 7997
  139.6943  144.7103  151.1295 H   0  0  0  0  0  0  0  0  0  0  0  0  # atno 10167 bound_to 10162
  157.5235  130.8581  149.8591 H   0  0  0  0  0  0  0  0  0  0  0  0  # atno 10718 bound_to 10713
  154.1034  135.2844  155.3246 H   0  0  0  0  0  0  0  0  0  0  0  0  # atno 10763 bound_to 10752
  154.6540  135.5359  153.7939 H   0  0  0  0  0  0  0  0  0  0  0  0  # atno 10764 bound_to 10752
  153.0371  135.6517  154.1196 H   0  0  0  0  0  0  0  0  0  0  0  0  # atno 10765 bound_to 10752
  140.7266  134.3668  157.5174 H   0  0  0  0  0  0  0  0  0  0  0  0  # atno 11005 bound_to 11000
  145.8303  139.2083  143.1886 LP  0  0  0  0  0  0  0  0  0  0  0  0  # atno 17320 bound_to 7965
  146.0436  140.8140  142.9816 LP  0  0  0  0  0  0  0  0  0  0  0  0  # atno 17321 bound_to 7965
  140.7692  143.5515  150.9200 LP  0  0  0  0  0  0  0  0  0  0  0  0  # atno 17342 bound_to 10162
  139.9193  143.6625  152.3100 LP  0  0  0  0  0  0  0  0  0  0  0  0  # atno 17343 bound_to 10162
  156.0370  130.3748  150.1533 LP  0  0  0  0  0  0  0  0  0  0  0  0  # atno 17370 bound_to 10713
  156.9720  130.9837  151.3456 LP  0  0  0  0  0  0  0  0  0  0  0  0  # atno 17371 bound_to 10713
  139.8836  134.8990  156.2757 LP  0  0  0  0  0  0  0  0  0  0  0  0  # atno 17394 bound_to 11000
  140.9958  133.7181  156.0883 LP  0  0  0  0  0  0  0  0  0  0  0  0  # atno 17395 bound_to 11000

$$$$
