#       Name:                AV-unprocessed.smi:2450
#       Creating user name   scv26
#       Creation time:       Fri Mar 27 13:30:39 2020


#       File generated by GOLD software.
#

@<TRIPOS>MOLECULE
AV-unprocessed.smi:2450
    45    46     1
SMALL
NO_CHARGES


@<TRIPOS>ATOM
      1 ****        -4.0011  -0.5507   2.7063 C.3            1 S1                 0.0000
      2 ****        -4.2621  -1.2990   1.3911 C.3            1 S1                 0.0000
      3 ****        -3.7482  -0.5553   0.1440 C.3            1 S1                 0.0000
      4 ****        -4.1261  -1.2891  -1.1504 C.3            1 S1                 0.0000
      5 ****        -2.2953  -0.4025   0.2089 N.am           1 S1                 0.0000
      6 ****        -1.6207   0.7550   0.1506 C.2            1 S1                 0.0000
      7 ****        -2.1557   1.8548   0.0131 O.2            1 S1                 0.0000
      8 ****        -0.2968   0.5471   0.2464 N.am           1 S1                 0.0000
      9 ****         0.7523   1.5100   0.2233 C.ar           1 S1                 0.0000
     10 ****         0.5757   2.8464   0.6651 C.ar           1 S1                 0.0000
     11 ****         1.6636   3.7414   0.6353 C.ar           1 S1                 0.0000
     12 ****         2.9126   3.2869   0.1738 C.ar           1 S1                 0.0000
     13 ****         3.0521   2.0056  -0.2255 N.pl3          1 S1                 1.0000
     14 ****         2.0385   1.1051  -0.2171 C.ar           1 S1                 0.0000
     15 ****         2.2923  -0.2087  -0.6479 N.3            1 S1                 0.0000
     16 ****         2.7968  -0.3416  -2.0044 C.3            1 S1                 0.0000
     17 ****         3.3354  -1.7707  -2.0963 C.3            1 S1                 0.0000
     18 ****         3.6409  -2.1686  -0.6469 C.3            1 S1                 0.0000
     19 ****         3.2003  -0.9676   0.1958 C.3            1 S1                 0.0000
     20 ****        -4.4278  -1.0920   3.5508 H              1 S1                 0.0000
     21 ****        -4.4500   0.4428   2.6876 H              1 S1                 0.0000
     22 ****        -2.9343  -0.4332   2.8969 H              1 S1                 0.0000
     23 ****        -3.8092  -2.2899   1.4442 H              1 S1                 0.0000
     24 ****        -5.3360  -1.4623   1.2931 H              1 S1                 0.0000
     25 ****        -4.2307   0.4234   0.1185 H              1 S1                 0.0000
     26 ****        -5.2074  -1.3999  -1.2367 H              1 S1                 0.0000
     27 ****        -3.6862  -2.2865  -1.1864 H              1 S1                 0.0000
     28 ****        -3.7822  -0.7405  -2.0278 H              1 S1                 0.0000
     29 ****        -1.7624  -1.2528   0.3185 H              1 S1                 0.0000
     30 ****        -0.0001  -0.4178   0.2604 H              1 S1                 0.0000
     31 ****        -0.3723   3.1990   1.0417 H              1 S1                 0.0000
     32 ****         1.5414   4.7620   0.9680 H              1 S1                 0.0000
     33 ****         3.7993   3.9020   0.1190 H              1 S1                 0.0000
     34 ****         2.0086  -0.1620  -2.7361 H              1 S1                 0.0000
     35 ****         3.5996   0.3732  -2.1900 H              1 S1                 0.0000
     36 ****         2.5742  -2.4341  -2.5088 H              1 S1                 0.0000
     37 ****         4.2132  -1.8315  -2.7403 H              1 S1                 0.0000
     38 ****         3.0691  -3.0571  -0.3758 H              1 S1                 0.0000
     39 ****         4.6966  -2.3950  -0.4946 H              1 S1                 0.0000
     40 ****         4.0657  -0.3617   0.4683 H              1 S1                 0.0000
     41 ****         2.7080  -1.2835   1.1161 H              1 S1                 0.0000
     42 ****         3.9695   1.6992  -0.5498 H              1 S1                 0.0000
     43 ****        -3.1507   1.9209  -0.0624 LP             1 S1                 0.0000
     44 ****        -1.5955   2.6823  -0.0232 LP             1 S1                 0.0000
     45 ****         1.3670  -0.5840  -0.5937 LP             1 S1                 0.0000
@<TRIPOS>BOND
    1    1    2 1     
    2    1   20 1     
    3    1   21 1     
    4    1   22 1     
    5    2    3 1     
    6    2   23 1     
    7    2   24 1     
    8    3    4 1     
    9    3    5 1     
   10    3   25 1     
   11    4   26 1     
   12    4   27 1     
   13    4   28 1     
   14    5    6 am    
   15    5   29 1     
   16    6    7 2     
   17    6    8 am    
   18    8    9 1     
   19    8   30 1     
   20    9   14 ar    
   21    9   10 ar    
   22   10   11 ar    
   23   10   31 1     
   24   11   12 ar    
   25   11   32 1     
   26   12   13 ar    
   27   12   33 1     
   28   13   14 ar    
   29   13   42 1     
   30   14   15 1     
   31   15   19 1     
   32   15   16 1     
   33   16   17 1     
   34   16   34 1     
   35   16   35 1     
   36   17   18 1     
   37   17   36 1     
   38   17   37 1     
   39   18   19 1     
   40   18   38 1     
   41   18   39 1     
   42   19   40 1     
   43   19   41 1     
   44    7   43 1     
   45    7   44 1     
   46   15   45 1     
@<TRIPOS>SUBSTRUCTURE
      1 S1             1
@<TRIPOS>SET
LONE_PAIRS      STATIC     ATOMS    <user>   **** ""
3 43 44 45
DONOR_HYDROGENS      STATIC     ATOMS    <user>   **** ""
3 29 30 42
ATOM$BLUE        STATIC     ATOMS    COLORGROUP SYSTEM
3 43 44 45
ATOM$RED        STATIC     ATOMS    COLORGROUP SYSTEM
3 29 30 42
