AV-unprocessed.smi:3303|AV-procd|sdf|12680|dock6
  -GOLD-   2272019 13D 1   1.00000     0.00000
 Structure written by MMmdl.
 44 45  0  0  0  0  0  0  0  0  2 V2000
  147.8587  141.7149  155.4273 C   0  0  0  0  0  0  0  0  0  0  0  0
  149.0489  140.8276  155.8308 C   0  0  1  0  0  0  0  0  0  0  0  0
  149.2219  139.6802  154.8163 C   0  0  0  0  0  0  0  0  0  0  0  0
  150.3190  138.7856  155.1947 N   0  0  0  0  0  0  0  0  0  0  0  0
  150.3250  137.6807  154.2393 C   0  0  0  0  0  0  0  0  0  0  0  0
  151.5963  139.5190  155.1991 C   0  0  2  0  0  0  0  0  0  0  0  0
  152.7918  138.6042  155.5356 C   0  0  0  0  0  0  0  0  0  0  0  0
  151.5168  140.6611  156.2339 C   0  0  0  0  0  0  0  0  0  0  0  0
  150.3608  141.6281  155.9436 C   0  0  2  0  0  0  0  0  0  0  0  0
  150.2747  142.6372  157.0230 N   0  3  0  0  0  0  0  0  0  0  0  0
  151.5430  143.3297  157.3266 C   0  0  0  0  0  0  0  0  0  0  0  0
  151.4572  144.0722  158.6670 C   0  0  0  0  0  0  0  0  0  0  0  0
  152.0494  143.2679  159.8084 C   0  0  0  0  0  0  0  0  0  0  0  0
  152.7615  142.0757  159.5571 C   0  0  0  0  0  0  0  0  0  0  0  0
  153.2853  141.3637  160.6537 C   0  0  0  0  0  0  0  0  0  0  0  0
  153.0776  141.8684  161.9517 C   0  0  0  0  0  0  0  0  0  0  0  0
  152.3515  143.0674  162.0967 C   0  0  0  0  0  0  0  0  0  0  0  0
  151.8428  143.7566  161.0519 N   0  0  0  0  0  0  0  0  0  0  0  0
  148.0361  142.2052  154.4694 H   0  0  0  0  0  0  0  0  0  0  0  0
  147.6664  142.4910  156.1682 H   0  0  0  0  0  0  0  0  0  0  0  0
  146.9462  141.1257  155.3333 H   0  0  0  0  0  0  0  0  0  0  0  0
  148.8229  140.3857  156.8029 H   0  0  0  0  0  0  0  0  0  0  0  0
  148.2938  139.1085  154.7696 H   0  0  0  0  0  0  0  0  0  0  0  0
  149.3963  140.0812  153.8161 H   0  0  0  0  0  0  0  0  0  0  0  0
  151.0318  136.9049  154.5318 H   0  0  0  0  0  0  0  0  0  0  0  0
  150.5822  138.0231  153.2359 H   0  0  0  0  0  0  0  0  0  0  0  0
  149.3444  137.2051  154.1947 H   0  0  0  0  0  0  0  0  0  0  0  0
  151.7603  139.9500  154.2097 H   0  0  0  0  0  0  0  0  0  0  0  0
  153.7038  139.1886  155.6605 H   0  0  0  0  0  0  0  0  0  0  0  0
  152.9951  137.8833  154.7439 H   0  0  0  0  0  0  0  0  0  0  0  0
  152.6254  138.0535  156.4622 H   0  0  0  0  0  0  0  0  0  0  0  0
  151.4029  140.2381  157.2337 H   0  0  0  0  0  0  0  0  0  0  0  0
  152.4563  141.2156  156.2417 H   0  0  0  0  0  0  0  0  0  0  0  0
  150.5578  142.1199  154.9889 H   0  0  0  0  0  0  0  0  0  0  0  0
  149.5899  143.3284  156.7523 H   0  0  0  0  0  0  0  0  0  0  0  0
  152.3513  142.5976  157.3510 H   0  0  0  0  0  0  0  0  0  0  0  0
  151.7683  144.0360  156.5263 H   0  0  0  0  0  0  0  0  0  0  0  0
  151.9771  145.0287  158.5973 H   0  0  0  0  0  0  0  0  0  0  0  0
  150.4171  144.3042  158.9012 H   0  0  0  0  0  0  0  0  0  0  0  0
  152.9044  141.7127  158.5498 H   0  0  0  0  0  0  0  0  0  0  0  0
  153.8357  140.4469  160.5018 H   0  0  0  0  0  0  0  0  0  0  0  0
  153.4655  141.3493  162.8158 H   0  0  0  0  0  0  0  0  0  0  0  0
  152.1736  143.4832  163.0775 H   0  0  0  0  0  0  0  0  0  0  0  0
  149.9511  142.1789  157.8629 H   0  0  0  0  0  0  0  0  0  0  0  0
  1  2  1  0  0  0  0
  1 19  1  0  0  0  0
  1 20  1  0  0  0  0
  1 21  1  0  0  0  0
  2  9  1  0  0  0  0
  2  3  1  0  0  0  0
  2 22  1  0  0  0  0
  3  4  1  0  0  0  0
  3 23  1  0  0  0  0
  3 24  1  0  0  0  0
  4  5  1  0  0  0  0
  4  6  1  0  0  0  0
  5 25  1  0  0  0  0
  5 26  1  0  0  0  0
  5 27  1  0  0  0  0
  6  7  1  0  0  0  0
  6  8  1  0  0  0  0
  6 28  1  0  0  0  0
  7 29  1  0  0  0  0
  7 30  1  0  0  0  0
  7 31  1  0  0  0  0
  8  9  1  0  0  0  0
  8 32  1  0  0  0  0
  8 33  1  0  0  0  0
  9 10  1  0  0  0  0
  9 34  1  0  0  0  0
 10 11  1  0  0  0  0
 10 35  1  0  0  0  0
 10 44  1  0  0  0  0
 11 12  1  0  0  0  0
 11 36  1  0  0  0  0
 11 37  1  0  0  0  0
 12 13  1  0  0  0  0
 12 38  1  0  0  0  0
 12 39  1  0  0  0  0
 13 18  1  0  0  0  0
 13 14  2  0  0  0  0
 14 15  1  0  0  0  0
 14 40  1  0  0  0  0
 15 16  2  0  0  0  0
 15 41  1  0  0  0  0
 16 17  1  0  0  0  0
 16 42  1  0  0  0  0
 17 18  2  0  0  0  0
 17 43  1  0  0  0  0
M  CHG  1  10   1
M  END
> <s_m_source_file>
AV-unprocessed.smi

> <i_m_source_file_index>
3303

> <i_lp_mmshare_version>
43012

> <i_f3d_flags>
0

> <s_epik_input>
W0NIM11bQ0BASF0xW0NIMl1OKFtDSDNdKVtDQEBIXShbQ0gzXSlbQ0gyXVtDQEhdMVtOSF1bQ0gyXVtDSDJdYzJbY0hdW2NIXVtjSF1bY0hdbjI=

> <s_epik_cmdline>
J2VwaWtfcHl0aG9uJywgJy1waCcsICc3LjAnLCAnLXRuJywgJzgnLCAnLW1hJywgJzIwMCcsICctbWV0YWxfYmluZGluZycsICctaW1hZScsICc8aW5maWxlLm1hZT4nLCAnLW9tYWUnLCAnPG91dGZpbGUubWFlPic=

> <r_epik_Ionization_Penalty>
1.37325

> <r_epik_Ionization_Penalty_Charging>
0.000251572

> <r_epik_Ionization_Penalty_Neutral>
1.373

> <r_epik_State_Penalty>
1.46343

> <r_epik_Charging_Adjusted_Penalty>
1.46368

> <i_epik_Tot_Q>
1

> <i_epik_Tot_abs_Q>
1

> <r_epik_Metal_State_Penalty>
1.46331

> <b_epik_Metal_Only>
0

> <s_lp_Force_Field>
OPLS_2005

> <r_lp_Energy>
21.6133

> <b_lp_Chiralities_Consistent>
1

> <s_lp_Variant>
AV-unprocessed.smi:3303-24

> <Gold.Version>
5.8.1

> <Gold.Id.Protein>
6NUR|6NUR_protein|mol2

> <Gold.PLP.Fitness>
49.6833

> <Gold.PLP.PLP>
-44.5128

> <Gold.PLP.part.hbond>
-1.0000

> <Gold.PLP.part.metal>
0.0000

> <Gold.PLP.part.buried>
-2.3556

> <Gold.PLP.part.nonpolar>
-40.2168

> <Gold.PLP.part.repulsive>
0.2055

> <Gold.PLP.ligand.clash>
0.0000

> <Gold.PLP.ligand.torsion>
0.4175

> <Gold.PLP.Chemscore.Hbond>
2.0000

> <Gold.PLP.Chemscore.CHOScore>
0.0000

> <Gold.PLP.Chemscore.Metal>
0.0000

> <Gold.Chemscore.Hbonds>
donor molecule, donor type, donor heavy atom, donor atom, acceptor molecule, acceptor atom, score
      L1  H    10    35       P1  8028  2.00

> <Gold.PLP.Chemscore.Internal.Correction>
0.0055

> <Gold.Rescore>
     Score         DG    S(hbond)    S(metal)    S(lipo)     H(rot)  DE(clash)    DE(int)     intcor
     19.81     -20.75       0.99        0.00     131.32       1.33       0.37       0.57       ----

> <Gold.Chemscore.Fitness>
19.8120

> <Gold.Chemscore.DG>
-20.7487

> <Gold.Chemscore.ZeroCoef>
-5.4800

> <Gold.Chemscore.Hbond>
0.9906

> <Gold.Chemscore.Metal>
0.0000

> <Gold.Chemscore.Lipo>
131.3203

> <Gold.Chemscore.Internal_Hbond>
0.0000

> <Gold.Chemscore.DEClash>
0.3657

> <Gold.Chemscore.DEInternal>
0.5710

> <Gold.Chemscore.Rot>
1.3298

> <Gold.Chemscore.Internal.Correction>
   9.000000E+99

> <Gold.Chemscore.Hbonds>
donor molecule, donor type, donor heavy atom, donor atom, acceptor molecule, acceptor atom, score
      L1  H    10    35       P1  8028  0.98

> <Gold.Chemscore.Hbond.Weighted>
-3.3086

> <Gold.Chemscore.Metal.Weighted>
-0.0000

> <Gold.Chemscore.Lipo.Weighted>
-15.3645

> <Gold.Chemscore.Internal_Hbond.Weighted>
0.0000

> <Gold.Chemscore.DEClash.Weighted>
0.3657

> <Gold.Chemscore.DEInternal.Weighted>
0.5710

> <Gold.Chemscore.Rot.Weighted>
3.4043

> <Gold.Chemscore.Internal.Correction.Weighted>
   9.000000E+99

> <Gold.Protein.RotatedTorsions>
[ 6907 6896 6895 6894 ] final  -55.46 input  -60.11 | X-H torsion
[ 7974 7965 7964 7962 ] final -115.98 input  175.53 | X-H torsion
[ 8008 7997 7996 7995 ] final   16.75 input   59.86 | X-H torsion
[ 10167 10162 10161 10158 ] final  148.74 input  -65.29 | X-H torsion
[ 10718 10713 10712 10709 ] final  -39.64 input   66.30 | X-H torsion
[ 10763 10752 10751 10750 ] final -140.59 input  -60.55 | X-H torsion
[ 11005 11000 10999 10996 ] final   96.21 input  -57.11 | X-H torsion

> <Gold.Protein.ActiveResidues>
 VAL166  LYS551  ARG553  GLY616  TRP617  ASP618  TYR619  PRO620  LYS621  CYS622 
 ASP623  PHE694  ASN695  SER759  ASP760  ASP761  ALA762  ILE779  LEU786  VAL792 
 PHE793  MET794  SER795  GLU796  ALA797  LYS798  CYS799  TRP800  GLU811  SER814 

> <Gold.Protein.RotatedAtoms>
  150.8250  134.7476  159.6804 H   0  0  0  0  0  0  0  0  0  0  0  0  # atno 6907 bound_to 6896
  152.4362  134.5679  159.9922 H   0  0  0  0  0  0  0  0  0  0  0  0  # atno 6908 bound_to 6896
  151.5853  133.3335  159.3052 H   0  0  0  0  0  0  0  0  0  0  0  0  # atno 6909 bound_to 6896
  145.1020  140.8558  143.3920 H   0  0  0  0  0  0  0  0  0  0  0  0  # atno 7974 bound_to 7965
  154.8815  140.2973  155.5422 H   0  0  0  0  0  0  0  0  0  0  0  0  # atno 8008 bound_to 7997
  156.3022  140.2441  156.3752 H   0  0  0  0  0  0  0  0  0  0  0  0  # atno 8009 bound_to 7997
  154.8712  140.0401  157.1715 H   0  0  0  0  0  0  0  0  0  0  0  0  # atno 8010 bound_to 7997
  139.4871  144.5656  151.7151 H   0  0  0  0  0  0  0  0  0  0  0  0  # atno 10167 bound_to 10162
  156.2902  130.4227  149.8246 H   0  0  0  0  0  0  0  0  0  0  0  0  # atno 10718 bound_to 10713
  154.8573  135.3549  154.5732 H   0  0  0  0  0  0  0  0  0  0  0  0  # atno 10763 bound_to 10752
  153.6344  135.7001  153.5268 H   0  0  0  0  0  0  0  0  0  0  0  0  # atno 10764 bound_to 10752
  153.3023  135.4203  155.1222 H   0  0  0  0  0  0  0  0  0  0  0  0  # atno 10765 bound_to 10752
  139.8783  134.8939  156.4125 H   0  0  0  0  0  0  0  0  0  0  0  0  # atno 11005 bound_to 11000
  145.0944  139.2867  143.5718 LP  0  0  0  0  0  0  0  0  0  0  0  0  # atno 17320 bound_to 7965
  146.3529  140.0491  142.8637 LP  0  0  0  0  0  0  0  0  0  0  0  0  # atno 17321 bound_to 7965
  140.5234  144.0844  150.6030 LP  0  0  0  0  0  0  0  0  0  0  0  0  # atno 17342 bound_to 10162
  140.3809  143.2803  152.0171 LP  0  0  0  0  0  0  0  0  0  0  0  0  # atno 17343 bound_to 10162
  156.5662  130.8405  151.3343 LP  0  0  0  0  0  0  0  0  0  0  0  0  # atno 17370 bound_to 10713
  157.7340  130.9739  150.2007 LP  0  0  0  0  0  0  0  0  0  0  0  0  # atno 17371 bound_to 10713
  140.9190  133.7658  155.9883 LP  0  0  0  0  0  0  0  0  0  0  0  0  # atno 17394 bound_to 11000
  140.8461  134.3010  157.5294 LP  0  0  0  0  0  0  0  0  0  0  0  0  # atno 17395 bound_to 11000

$$$$
