#       Name:                AV-unprocessed.smi:2664
#       Creating user name   scv26
#       Creation time:       Fri Mar 27 14:34:35 2020


#       File generated by GOLD software.
#

@<TRIPOS>MOLECULE
AV-unprocessed.smi:2664
    48    49     1
SMALL
NO_CHARGES


@<TRIPOS>ATOM
      1 ****        -0.6245  -1.9162   0.6382 O.2            1 S1                 0.0000
      2 ****        -0.2509  -1.4046  -0.4169 C.2            1 S1                 0.0000
      3 ****        -0.5805  -1.8318  -1.6481 N.am           1 S1                 0.0000
      4 ****        -1.3534  -2.9652  -2.0209 C.ar           1 S1                 0.0000
      5 ****        -1.8831  -2.9960  -3.3276 C.ar           1 S1                 0.0000
      6 ****        -2.6373  -4.1165  -3.7295 C.ar           1 S1                 0.0000
      7 ****        -2.8757  -5.1759  -2.9282 N.ar           1 S1                 0.0000
      8 ****        -2.3570  -5.1511  -1.6821 C.ar           1 S1                 0.0000
      9 ****        -1.5895  -4.0806  -1.1812 C.ar           1 S1                 0.0000
     10 ****         0.5346  -0.3183  -0.4797 N.am           1 S1                 0.0000
     11 ****         1.0881   0.4136   0.6631 C.3            1 S1                 0.0000
     12 ****         2.6350   0.3245   0.6138 C.3            1 S1                 0.0000
     13 ****         3.2087  -1.1050   0.5899 C.3            1 S1                 0.0000
     14 ****         2.9057  -1.7819   1.7913 O.3            1 S1                 0.0000
     15 ****         0.5478   1.8735   0.6724 C.3            1 S1                 0.0000
     16 ****         1.0440   2.6810   1.8973 C.3            1 S1                 0.0000
     17 ****         0.4984   4.1182   1.9142 C.3            1 S1                 0.0000
     18 ****        -1.0339   4.1362   1.8611 C.3            1 S1                 0.0000
     19 ****        -1.5415   3.3649   0.6370 C.3            1 S1                 0.0000
     20 ****        -1.0014   1.9262   0.6217 C.3            1 S1                 0.0000
     21 ****        -0.2676  -1.2537  -2.4140 H              1 S1                 0.0000
     22 ****        -1.7210  -2.1761  -4.0119 H              1 S1                 0.0000
     23 ****        -3.0581  -4.1637  -4.7230 H              1 S1                 0.0000
     24 ****        -2.5536  -6.0159  -1.0657 H              1 S1                 0.0000
     25 ****        -1.1932  -4.1448  -0.1797 H              1 S1                 0.0000
     26 ****         0.7780   0.0325  -1.3944 H              1 S1                 0.0000
     27 ****         0.7622  -0.0564   1.5926 H              1 S1                 0.0000
     28 ****         2.9930   0.8580  -0.2675 H              1 S1                 0.0000
     29 ****         3.0720   0.8347   1.4708 H              1 S1                 0.0000
     30 ****         2.8327  -1.6781  -0.2575 H              1 S1                 0.0000
     31 ****         4.2931  -1.0657   0.4846 H              1 S1                 0.0000
     32 ****         3.2737  -2.6515   1.7488 H              1 S1                 0.0000
     33 ****         0.9210   2.3710  -0.2243 H              1 S1                 0.0000
     34 ****         0.7512   2.1711   2.8161 H              1 S1                 0.0000
     35 ****         2.1310   2.7398   1.9091 H              1 S1                 0.0000
     36 ****         0.8434   4.6345   2.8104 H              1 S1                 0.0000
     37 ****         0.9011   4.6717   1.0649 H              1 S1                 0.0000
     38 ****        -1.4386   3.6905   2.7705 H              1 S1                 0.0000
     39 ****        -1.3948   5.1647   1.8311 H              1 S1                 0.0000
     40 ****        -2.6317   3.3518   0.6337 H              1 S1                 0.0000
     41 ****        -1.2361   3.8800  -0.2746 H              1 S1                 0.0000
     42 ****        -1.3781   1.4352  -0.2752 H              1 S1                 0.0000
     43 ****        -1.4134   1.3745   1.4681 H              1 S1                 0.0000
     44 ****        -1.2232  -2.7170   0.6211 LP             1 S1                 0.0000
     45 ****        -0.3294  -1.5311   1.5127 LP             1 S1                 0.0000
     46 ****        -3.4183  -5.9531  -3.2467 LP             1 S1                 0.0000
     47 ****         1.9138  -1.8410   1.9037 LP             1 S1                 0.0000
     48 ****         3.2999  -1.2868   2.5656 LP             1 S1                 0.0000
@<TRIPOS>BOND
    1    1    2 2     
    2    2    3 am    
    3    2   10 am    
    4    3    4 1     
    5    3   21 1     
    6    4    9 ar    
    7    4    5 ar    
    8    5    6 ar    
    9    5   22 1     
   10    6    7 ar    
   11    6   23 1     
   12    7    8 ar    
   13    8    9 ar    
   14    8   24 1     
   15    9   25 1     
   16   10   11 1     
   17   10   26 1     
   18   11   12 1     
   19   11   15 1     
   20   11   27 1     
   21   12   13 1     
   22   12   28 1     
   23   12   29 1     
   24   13   14 1     
   25   13   30 1     
   26   13   31 1     
   27   14   32 1     
   28   15   20 1     
   29   15   16 1     
   30   15   33 1     
   31   16   17 1     
   32   16   34 1     
   33   16   35 1     
   34   17   18 1     
   35   17   36 1     
   36   17   37 1     
   37   18   19 1     
   38   18   38 1     
   39   18   39 1     
   40   19   20 1     
   41   19   40 1     
   42   19   41 1     
   43   20   42 1     
   44   20   43 1     
   45    1   44 1     
   46    1   45 1     
   47    7   46 1     
   48   14   47 1     
   49   14   48 1     
@<TRIPOS>SUBSTRUCTURE
      1 S1             1
@<TRIPOS>SET
LONE_PAIRS      STATIC     ATOMS    <user>   **** ""
5 44 45 46 47 48
DONOR_HYDROGENS      STATIC     ATOMS    <user>   **** ""
3 21 26 32
ATOM$BLUE        STATIC     ATOMS    COLORGROUP SYSTEM
5 44 45 46 47 48
ATOM$RED        STATIC     ATOMS    COLORGROUP SYSTEM
3 21 26 32
