AV-unprocessed.smi:53|AV-procd|sdf|527|dock1
  -GOLD-   2262016403D 1   1.00000     0.00000
 Structure written by MMmdl.
 30 31  0  0  0  0  0  0  0  0  1 V2000
  152.8090  141.2250  158.8228 N   0  0  0  0  0  0  0  0  0  0  0  0
  152.0402  141.0906  157.7332 C   0  0  0  0  0  0  0  0  0  0  0  0
  150.8946  141.9488  157.5375 C   0  0  0  0  0  0  0  0  0  0  0  0
  150.1651  141.7494  156.4176 C   0  0  0  0  0  0  0  0  0  0  0  0
  150.4748  140.7543  155.4968 N   0  0  0  0  0  0  0  0  0  0  0  0
  149.6765  140.5433  154.2201 C   0  0  2  0  0  0  0  0  0  0  0  0
  148.8568  141.6471  153.9808 O   0  0  0  0  0  0  0  0  0  0  0  0
  147.5698  141.4107  154.5363 C   0  0  1  0  0  0  0  0  0  0  0  0
  146.5440  142.3623  153.9035 C   0  0  0  0  0  0  0  0  0  0  0  0
  145.2544  142.0818  154.4047 O   0  0  0  0  0  0  0  0  0  0  0  0
  147.3433  139.9391  154.1872 C   0  0  2  0  0  0  0  0  0  0  0  0
  146.4325  139.3523  155.0954 O   0  0  0  0  0  0  0  0  0  0  0  0
  148.7325  139.3232  154.3391 C   0  0  1  0  0  0  0  0  0  0  0  0
  148.9638  138.3794  153.3130 O   0  0  0  0  0  0  0  0  0  0  0  0
  151.6270  139.9559  155.7018 C   0  0  0  0  0  0  0  0  0  0  0  0
  151.9743  139.1012  154.8871 O   0  0  0  0  0  0  0  0  0  0  0  0
  152.3513  140.1690  156.8433 N   0  0  0  0  0  0  0  0  0  0  0  0
  150.4274  140.4662  153.4311 H   0  0  0  0  0  0  0  0  0  0  0  0
  147.6011  141.5316  155.6211 H   0  0  0  0  0  0  0  0  0  0  0  0
  146.9793  139.8449  153.1624 H   0  0  0  0  0  0  0  0  0  0  0  0
  148.8495  138.8482  155.3147 H   0  0  0  0  0  0  0  0  0  0  0  0
  153.6120  140.6271  158.9542 H   0  0  0  0  0  0  0  0  0  0  0  0
  152.5828  141.9277  159.5121 H   0  0  0  0  0  0  0  0  0  0  0  0
  150.6073  142.7240  158.2335 H   0  0  0  0  0  0  0  0  0  0  0  0
  149.3193  142.4030  156.2670 H   0  0  0  0  0  0  0  0  0  0  0  0
  146.8050  143.4054  154.0841 H   0  0  0  0  0  0  0  0  0  0  0  0
  146.5144  142.2172  152.8232 H   0  0  0  0  0  0  0  0  0  0  0  0
  144.8177  141.5000  153.8015 H   0  0  0  0  0  0  0  0  0  0  0  0
  146.8171  138.5567  155.4304 H   0  0  0  0  0  0  0  0  0  0  0  0
  149.3468  138.8318  152.5761 H   0  0  0  0  0  0  0  0  0  0  0  0
  1  2  1  0  0  0  0
  1 22  1  0  0  0  0
  1 23  1  0  0  0  0
  2 17  2  0  0  0  0
  2  3  1  0  0  0  0
  3  4  2  0  0  0  0
  3 24  1  0  0  0  0
  4  5  1  0  0  0  0
  4 25  1  0  0  0  0
  5  6  1  0  0  0  0
  5 15  1  0  0  0  0
  6 18  1  0  0  0  0
  6 13  1  0  0  0  0
  6  7  1  0  0  0  0
  7  8  1  0  0  0  0
  8 19  1  0  0  0  0
  8  9  1  0  0  0  0
  8 11  1  0  0  0  0
  9 10  1  0  0  0  0
  9 26  1  0  0  0  0
  9 27  1  0  0  0  0
 10 28  1  0  0  0  0
 11 20  1  0  0  0  0
 11 12  1  0  0  0  0
 11 13  1  0  0  0  0
 12 29  1  0  0  0  0
 13 21  1  0  0  0  0
 13 14  1  0  0  0  0
 14 30  1  0  0  0  0
 15 16  2  0  0  0  0
 15 17  1  0  0  0  0
M  END
> <s_m_source_file>
AV-unprocessed.smi

> <i_m_source_file_index>
53

> <i_lp_mmshare_version>
43012

> <i_f3d_flags>
0

> <s_epik_input>
W05IMl1jMVtjSF1bY0hdbihjKD1PKW4xKVtDQEBIXTJPW0NASF0oW0NIMl1bT0hdKVtDQEBIXShbT0hdKVtDQEBIXTJbT0hd

> <s_epik_cmdline>
J2VwaWtfcHl0aG9uJywgJy1waCcsICc3LjAnLCAnLXRuJywgJzgnLCAnLW1hJywgJzIwMCcsICctbWV0YWxfYmluZGluZycsICctaW1hZScsICc8aW5maWxlLm1hZT4nLCAnLW9tYWUnLCAnPG91dGZpbGUubWFlPic=

> <r_lp_tautomer_probability>
0.99996

> <r_epik_Ionization_Penalty>
0.00069087

> <r_epik_Ionization_Penalty_Charging>
2.61959e-08

> <r_epik_Ionization_Penalty_Neutral>
0.000690844

> <r_epik_State_Penalty>
1.15523e-05

> <r_epik_Charging_Adjusted_Penalty>
1.15785e-05

> <i_epik_Tot_Q>
0

> <i_epik_Tot_abs_Q>
0

> <r_epik_Metal_State_Penalty>
-0

> <b_epik_Metal_Only>
0

> <s_epik_Chemistry_Notes>
This compound contains an acetal/aminal-like group ( X-CH(R)-Y where X, Y are N, S, or O) that may be acid/base labile, releasing an aldehyde.

> <s_lp_Force_Field>
OPLS_2005

> <r_lp_Energy>
26.1744

> <b_lp_Chiralities_Consistent>
1

> <s_lp_Variant>
AV-unprocessed.smi:53-15

> <Gold.Version>
5.8.1

> <Gold.Id.Protein>
6NUR|6NUR_protein|mol2

> <Gold.PLP.Fitness>
42.4697

> <Gold.PLP.PLP>
-29.7015

> <Gold.PLP.part.hbond>
-5.5887

> <Gold.PLP.part.metal>
0.0000

> <Gold.PLP.part.buried>
-2.9452

> <Gold.PLP.part.nonpolar>
-22.1868

> <Gold.PLP.part.repulsive>
0.3084

> <Gold.PLP.ligand.clash>
0.0000

> <Gold.PLP.ligand.torsion>
0.4749

> <Gold.PLP.Chemscore.Hbond>
3.5609

> <Gold.PLP.Chemscore.CHOScore>
1.0000

> <Gold.PLP.Chemscore.Metal>
0.0000

> <Gold.Chemscore.Hbonds>
donor molecule, donor type, donor heavy atom, donor atom, acceptor molecule, acceptor atom, score
      L1  H    10    28       P1 10175  0.90
      L1  H    14    30       P1  7957  1.00
      P1  H  7997  8009       L1    17  1.00
      P1  H  8011  8017       L1     7  0.59
      L1  C     4    25       P1  8028  1.00

> <Gold.PLP.Chemscore.Internal.Correction>
0.0352

> <Gold.Rescore>
     Score         DG    S(hbond)    S(metal)    S(lipo)     H(rot)  DE(clash)    DE(int)     intcor
      7.33      -8.11       2.50        0.00      32.28       3.71       0.49       0.29       ----

> <Gold.Chemscore.Fitness>
7.3277

> <Gold.Chemscore.DG>
-8.1121

> <Gold.Chemscore.ZeroCoef>
-5.4800

> <Gold.Chemscore.Hbond>
2.5005

> <Gold.Chemscore.Metal>
0.0000

> <Gold.Chemscore.Lipo>
32.2811

> <Gold.Chemscore.Internal_Hbond>
0.0000

> <Gold.Chemscore.DEClash>
0.4937

> <Gold.Chemscore.DEInternal>
0.2907

> <Gold.Chemscore.Rot>
3.7095

> <Gold.Chemscore.Internal.Correction>
   9.000000E+99

> <Gold.Chemscore.Hbonds>
donor molecule, donor type, donor heavy atom, donor atom, acceptor molecule, acceptor atom, score
      L1  H    10    28       P1 10175  0.17
      L1  H    14    30       P1  7957  0.90
      P1  H  7997  8009       L1    17  0.62
      P1  H  8011  8017       L1     7  0.14

> <Gold.Chemscore.Hbond.Weighted>
-8.3515

> <Gold.Chemscore.Metal.Weighted>
-0.0000

> <Gold.Chemscore.Lipo.Weighted>
-3.7769

> <Gold.Chemscore.Internal_Hbond.Weighted>
0.0000

> <Gold.Chemscore.DEClash.Weighted>
0.4937

> <Gold.Chemscore.DEInternal.Weighted>
0.2907

> <Gold.Chemscore.Rot.Weighted>
9.4964

> <Gold.Chemscore.Internal.Correction.Weighted>
   9.000000E+99

> <Gold.Protein.RotatedTorsions>
[ 6907 6896 6895 6894 ] final  102.35 input  -60.11 | X-H torsion
[ 7974 7965 7964 7962 ] final -147.00 input  175.53 | X-H torsion
[ 8008 7997 7996 7995 ] final -174.13 input   59.86 | X-H torsion
[ 10167 10162 10161 10158 ] final -150.98 input  -65.29 | X-H torsion
[ 10718 10713 10712 10709 ] final  -41.68 input   66.30 | X-H torsion
[ 10763 10752 10751 10750 ] final  173.70 input  -60.55 | X-H torsion
[ 11005 11000 10999 10996 ] final  167.80 input  -57.11 | X-H torsion

> <Gold.Protein.ActiveResidues>
 VAL166  LYS551  ARG553  GLY616  TRP617  ASP618  TYR619  PRO620  LYS621  CYS622 
 ASP623  PHE694  ASN695  SER759  ASP760  ASP761  ALA762  ILE779  LEU786  VAL792 
 PHE793  MET794  SER795  GLU796  ALA797  LYS798  CYS799  TRP800  GLU811  SER814 

> <Gold.Protein.RotatedAtoms>
  152.5326  133.9989  159.7885 H   0  0  0  0  0  0  0  0  0  0  0  0  # atno 6907 bound_to 6896
  151.0211  133.5868  159.2678 H   0  0  0  0  0  0  0  0  0  0  0  0  # atno 6908 bound_to 6896
  151.2907  135.0748  159.9256 H   0  0  0  0  0  0  0  0  0  0  0  0  # atno 6909 bound_to 6896
  144.8122  140.5384  143.5634 H   0  0  0  0  0  0  0  0  0  0  0  0  # atno 7974 bound_to 7965
  155.9662  140.1154  157.0853 H   0  0  0  0  0  0  0  0  0  0  0  0  # atno 8008 bound_to 7997
  154.4144  140.1172  156.5312 H   0  0  0  0  0  0  0  0  0  0  0  0  # atno 8009 bound_to 7997
  155.6656  140.3473  155.4801 H   0  0  0  0  0  0  0  0  0  0  0  0  # atno 8010 bound_to 7997
  139.7307  143.8813  152.2533 H   0  0  0  0  0  0  0  0  0  0  0  0  # atno 10167 bound_to 10162
  156.2677  130.4203  149.8472 H   0  0  0  0  0  0  0  0  0  0  0  0  # atno 10718 bound_to 10713
  154.4437  135.2763  155.1829 H   0  0  0  0  0  0  0  0  0  0  0  0  # atno 10763 bound_to 10752
  154.3685  135.6114  153.5731 H   0  0  0  0  0  0  0  0  0  0  0  0  # atno 10764 bound_to 10752
  152.9842  135.5851  154.4770 H   0  0  0  0  0  0  0  0  0  0  0  0  # atno 10765 bound_to 10752
  140.2805  134.7754  157.3754 H   0  0  0  0  0  0  0  0  0  0  0  0  # atno 11005 bound_to 11000
  145.5297  139.1475  143.3507 LP  0  0  0  0  0  0  0  0  0  0  0  0  # atno 17320 bound_to 7965
  146.2422  140.5437  142.8929 LP  0  0  0  0  0  0  0  0  0  0  0  0  # atno 17321 bound_to 7965
  139.8735  144.7055  150.8960 LP  0  0  0  0  0  0  0  0  0  0  0  0  # atno 17342 bound_to 10162
  140.7770  143.3719  151.1634 LP  0  0  0  0  0  0  0  0  0  0  0  0  # atno 17343 bound_to 10162
  156.5964  130.8528  151.3421 LP  0  0  0  0  0  0  0  0  0  0  0  0  # atno 17370 bound_to 10713
  157.7273  130.9641  150.1693 LP  0  0  0  0  0  0  0  0  0  0  0  0  # atno 17371 bound_to 10713
  140.1287  134.5123  155.8123 LP  0  0  0  0  0  0  0  0  0  0  0  0  # atno 17394 bound_to 11000
  141.2163  133.6782  156.7000 LP  0  0  0  0  0  0  0  0  0  0  0  0  # atno 17395 bound_to 11000

$$$$
