AV-unprocessed.smi:1247|AV-procd|sdf|5245|dock9
  -GOLD-   22720 4353D 1   1.00000     0.00000
 Structure written by MMmdl.
 46 47  0  0  0  0  0  0  0  0  1 V2000
  153.0181  141.8042  161.4284 C   0  0  0  0  0  0  0  0  0  0  0  0
  152.2223  142.4080  160.3093 C   0  0  0  0  0  0  0  0  0  0  0  0
  151.6899  141.7559  159.1597 C   0  0  0  0  0  0  0  0  0  0  0  0
  151.0717  142.7777  158.4915 C   0  0  0  0  0  0  0  0  0  0  0  0
  150.3930  142.7385  157.3137 N   0  0  0  0  0  0  0  0  0  0  0  0
  150.2344  141.7041  156.4691 C   0  0  0  0  0  0  0  0  0  0  0  0
  150.6887  140.5717  156.6335 O   0  0  0  0  0  0  0  0  0  0  0  0
  149.5096  142.0586  155.3981 N   0  0  0  0  0  0  0  0  0  0  0  0
  149.1697  141.1728  154.2905 C   0  0  0  0  0  0  0  0  0  0  0  0
  148.4473  139.9065  154.7878 C   0  0  0  0  0  0  0  0  0  0  0  0
  149.3268  138.8410  155.2645 N   0  0  0  0  0  0  0  0  0  0  0  0
  148.7060  137.5218  155.1923 C   0  0  0  0  0  0  0  0  0  0  0  0
  149.6443  136.4160  155.7106 C   0  0  1  0  0  0  0  0  0  0  0  0
  149.0346  135.0193  155.5514 C   0  0  0  0  0  0  0  0  0  0  0  0
  150.8700  136.4487  154.9816 O   0  0  0  0  0  0  0  0  0  0  0  0
  151.5384  137.7109  154.9723 C   0  0  2  0  0  0  0  0  0  0  0  0
  152.2098  138.0127  156.3229 C   0  0  0  0  0  0  0  0  0  0  0  0
  150.5742  138.8202  154.5073 C   0  0  0  0  0  0  0  0  0  0  0  0
  151.2337  143.9415  159.2124 N   0  0  0  0  0  0  0  0  0  0  0  0
  150.7747  145.2871  158.9271 C   0  0  0  0  0  0  0  0  0  0  0  0
  151.9485  143.7073  160.3339 N   0  0  0  0  0  0  0  0  0  0  0  0
  153.1303  140.7279  161.2962 H   0  0  0  0  0  0  0  0  0  0  0  0
  152.5333  141.9707  162.3906 H   0  0  0  0  0  0  0  0  0  0  0  0
  154.0171  142.2379  161.4777 H   0  0  0  0  0  0  0  0  0  0  0  0
  151.7637  140.7130  158.8905 H   0  0  0  0  0  0  0  0  0  0  0  0
  149.9609  143.6079  157.0377 H   0  0  0  0  0  0  0  0  0  0  0  0
  149.1723  143.0083  155.3415 H   0  0  0  0  0  0  0  0  0  0  0  0
  148.5536  141.7042  153.5629 H   0  0  0  0  0  0  0  0  0  0  0  0
  150.0991  140.9151  153.7836 H   0  0  0  0  0  0  0  0  0  0  0  0
  147.7352  140.1747  155.5695 H   0  0  0  0  0  0  0  0  0  0  0  0
  147.8501  139.5167  153.9623 H   0  0  0  0  0  0  0  0  0  0  0  0
  147.7914  137.5025  155.7838 H   0  0  0  0  0  0  0  0  0  0  0  0
  148.4180  137.3049  154.1623 H   0  0  0  0  0  0  0  0  0  0  0  0
  149.8489  136.5800  156.7690 H   0  0  0  0  0  0  0  0  0  0  0  0
  148.0998  134.9332  156.1060 H   0  0  0  0  0  0  0  0  0  0  0  0
  149.7143  134.2535  155.9255 H   0  0  0  0  0  0  0  0  0  0  0  0
  148.8258  134.7965  154.5045 H   0  0  0  0  0  0  0  0  0  0  0  0
  152.3356  137.6293  154.2330 H   0  0  0  0  0  0  0  0  0  0  0  0
  152.8073  138.9227  156.2633 H   0  0  0  0  0  0  0  0  0  0  0  0
  152.8741  137.1999  156.6170 H   0  0  0  0  0  0  0  0  0  0  0  0
  151.4812  138.1546  157.1206 H   0  0  0  0  0  0  0  0  0  0  0  0
  150.3517  138.6708  153.4495 H   0  0  0  0  0  0  0  0  0  0  0  0
  151.0723  139.7878  154.5806 H   0  0  0  0  0  0  0  0  0  0  0  0
  149.9367  145.2645  158.2305 H   0  0  0  0  0  0  0  0  0  0  0  0
  151.5884  145.8641  158.4869 H   0  0  0  0  0  0  0  0  0  0  0  0
  150.4493  145.7735  159.8475 H   0  0  0  0  0  0  0  0  0  0  0  0
  1  2  1  0  0  0  0
  1 22  1  0  0  0  0
  1 23  1  0  0  0  0
  1 24  1  0  0  0  0
  2 21  2  0  0  0  0
  2  3  1  0  0  0  0
  3  4  2  0  0  0  0
  3 25  1  0  0  0  0
  4  5  1  0  0  0  0
  4 19  1  0  0  0  0
  5  6  1  0  0  0  0
  5 26  1  0  0  0  0
  6  7  2  0  0  0  0
  6  8  1  0  0  0  0
  8  9  1  0  0  0  0
  8 27  1  0  0  0  0
  9 10  1  0  0  0  0
  9 28  1  0  0  0  0
  9 29  1  0  0  0  0
 10 11  1  0  0  0  0
 10 30  1  0  0  0  0
 10 31  1  0  0  0  0
 11 18  1  0  0  0  0
 11 12  1  0  0  0  0
 12 13  1  0  0  0  0
 12 32  1  0  0  0  0
 12 33  1  0  0  0  0
 13 14  1  0  0  0  0
 13 15  1  0  0  0  0
 13 34  1  0  0  0  0
 14 35  1  0  0  0  0
 14 36  1  0  0  0  0
 14 37  1  0  0  0  0
 15 16  1  0  0  0  0
 16 17  1  0  0  0  0
 16 18  1  0  0  0  0
 16 38  1  0  0  0  0
 17 39  1  0  0  0  0
 17 40  1  0  0  0  0
 17 41  1  0  0  0  0
 18 42  1  0  0  0  0
 18 43  1  0  0  0  0
 19 20  1  0  0  0  0
 19 21  1  0  0  0  0
 20 44  1  0  0  0  0
 20 45  1  0  0  0  0
 20 46  1  0  0  0  0
M  END
> <s_m_source_file>
AV-unprocessed.smi

> <i_m_source_file_index>
1247

> <i_lp_mmshare_version>
43012

> <i_f3d_flags>
0

> <s_epik_input>
W0NIM11jMVtjSF1jKG4objEpW0NIM10pW05IXUMoPU8pW05IXVtDSDJdW0NIMl1OMltDSDJdW0NAQEhdKFtDSDNdKU9bQ0BASF0oW0NIM10pW0NIMl0y

> <s_epik_cmdline>
J2VwaWtfcHl0aG9uJywgJy1waCcsICc3LjAnLCAnLXRuJywgJzgnLCAnLW1hJywgJzIwMCcsICctbWV0YWxfYmluZGluZycsICctaW1hZScsICc8aW5maWxlLm1hZT4nLCAnLW9tYWUnLCAnPG91dGZpbGUubWFlPic=

> <r_lp_tautomer_probability>
1

> <r_epik_Ionization_Penalty>
0.233972

> <r_epik_Ionization_Penalty_Charging>
0

> <r_epik_Ionization_Penalty_Neutral>
0.233972

> <r_epik_State_Penalty>
0.224627

> <r_epik_Charging_Adjusted_Penalty>
0.224627

> <i_epik_Tot_Q>
0

> <i_epik_Tot_abs_Q>
0

> <r_epik_Metal_State_Penalty>
0.224624

> <b_epik_Metal_Only>
0

> <s_lp_Force_Field>
OPLS_2005

> <r_lp_Energy>
23.3755

> <b_lp_Chiralities_Consistent>
1

> <s_lp_Variant>
AV-unprocessed.smi:1247-3

> <Gold.Version>
5.8.1

> <Gold.Id.Protein>
6NUR|6NUR_protein|mol2

> <Gold.PLP.Fitness>
49.5830

> <Gold.PLP.PLP>
-41.5841

> <Gold.PLP.part.hbond>
-3.0000

> <Gold.PLP.part.metal>
0.0000

> <Gold.PLP.part.buried>
-6.9466

> <Gold.PLP.part.nonpolar>
-33.5956

> <Gold.PLP.part.repulsive>
1.1346

> <Gold.PLP.ligand.clash>
0.0499

> <Gold.PLP.ligand.torsion>
0.4198

> <Gold.PLP.Chemscore.Hbond>
2.9600

> <Gold.PLP.Chemscore.CHOScore>
0.0000

> <Gold.PLP.Chemscore.Metal>
0.0000

> <Gold.Chemscore.Hbonds>
donor molecule, donor type, donor heavy atom, donor atom, acceptor molecule, acceptor atom, score
      L1  H     5    26       P1  8028  0.93
      L1  H     8    27       P1  8028  1.00
      P1  H 10752 10765       L1    15  0.02

> <Gold.PLP.Chemscore.Internal.Correction>
0.0083

> <Gold.Rescore>
     Score         DG    S(hbond)    S(metal)    S(lipo)     H(rot)  DE(clash)    DE(int)     intcor
     15.70     -18.63       1.97        0.00      88.64       1.48       0.17       2.76       ----

> <Gold.Chemscore.Fitness>
15.7013

> <Gold.Chemscore.DG>
-18.6307

> <Gold.Chemscore.ZeroCoef>
-5.4800

> <Gold.Chemscore.Hbond>
1.9695

> <Gold.Chemscore.Metal>
0.0000

> <Gold.Chemscore.Lipo>
88.6407

> <Gold.Chemscore.Internal_Hbond>
0.0000

> <Gold.Chemscore.DEClash>
0.1703

> <Gold.Chemscore.DEInternal>
2.7592

> <Gold.Chemscore.Rot>
1.4838

> <Gold.Chemscore.Internal.Correction>
   9.000000E+99

> <Gold.Chemscore.Hbonds>
donor molecule, donor type, donor heavy atom, donor atom, acceptor molecule, acceptor atom, score
      L1  H     5    26       P1  8028  0.83
      L1  H     8    27       P1  8028  1.00

> <Gold.Chemscore.Hbond.Weighted>
-6.5782

> <Gold.Chemscore.Metal.Weighted>
-0.0000

> <Gold.Chemscore.Lipo.Weighted>
-10.3710

> <Gold.Chemscore.Internal_Hbond.Weighted>
0.0000

> <Gold.Chemscore.DEClash.Weighted>
0.1703

> <Gold.Chemscore.DEInternal.Weighted>
2.7592

> <Gold.Chemscore.Rot.Weighted>
3.7985

> <Gold.Chemscore.Internal.Correction.Weighted>
   9.000000E+99

> <Gold.Protein.RotatedTorsions>
[ 6907 6896 6895 6894 ] final  113.47 input  -60.11 | X-H torsion
[ 7974 7965 7964 7962 ] final   96.62 input  175.53 | X-H torsion
[ 8008 7997 7996 7995 ] final -105.37 input   59.86 | X-H torsion
[ 10167 10162 10161 10158 ] final -111.11 input  -65.29 | X-H torsion
[ 10718 10713 10712 10709 ] final -136.15 input   66.30 | X-H torsion
[ 10763 10752 10751 10750 ] final  154.97 input  -60.55 | X-H torsion
[ 11005 11000 10999 10996 ] final   22.68 input  -57.11 | X-H torsion

> <Gold.Protein.ActiveResidues>
 VAL166  LYS551  ARG553  GLY616  TRP617  ASP618  TYR619  PRO620  LYS621  CYS622 
 ASP623  PHE694  ASN695  SER759  ASP760  ASP761  ALA762  ILE779  LEU786  VAL792 
 PHE793  MET794  SER795  GLU796  ALA797  LYS798  CYS799  TRP800  GLU811  SER814 

> <Gold.Protein.RotatedAtoms>
  152.4859  133.8371  159.7133 H   0  0  0  0  0  0  0  0  0  0  0  0  # atno 6907 bound_to 6896
  150.8945  133.7190  159.2902 H   0  0  0  0  0  0  0  0  0  0  0  0  # atno 6908 bound_to 6896
  151.4652  135.1045  159.9788 H   0  0  0  0  0  0  0  0  0  0  0  0  # atno 6909 bound_to 6896
  145.4364  139.2305  143.3116 H   0  0  0  0  0  0  0  0  0  0  0  0  # atno 7974 bound_to 7965
  154.8989  140.0413  157.1882 H   0  0  0  0  0  0  0  0  0  0  0  0  # atno 8008 bound_to 7997
  154.8464  140.2922  155.5605 H   0  0  0  0  0  0  0  0  0  0  0  0  # atno 8009 bound_to 7997
  156.2994  140.2473  156.3415 H   0  0  0  0  0  0  0  0  0  0  0  0  # atno 8010 bound_to 7997
  140.1371  143.4310  152.1587 H   0  0  0  0  0  0  0  0  0  0  0  0  # atno 10167 bound_to 10162
  156.2739  130.7281  151.1257 H   0  0  0  0  0  0  0  0  0  0  0  0  # atno 10718 bound_to 10713
  154.1608  135.2810  155.3109 H   0  0  0  0  0  0  0  0  0  0  0  0  # atno 10763 bound_to 10752
  154.6148  135.5487  153.7515 H   0  0  0  0  0  0  0  0  0  0  0  0  # atno 10764 bound_to 10752
  153.0193  135.6424  154.1750 H   0  0  0  0  0  0  0  0  0  0  0  0  # atno 10765 bound_to 10752
  140.3779  134.1952  155.7664 H   0  0  0  0  0  0  0  0  0  0  0  0  # atno 11005 bound_to 11000
  146.2580  140.5107  142.8865 LP  0  0  0  0  0  0  0  0  0  0  0  0  # atno 17320 bound_to 7965
  144.8149  140.6451  143.6391 LP  0  0  0  0  0  0  0  0  0  0  0  0  # atno 17321 bound_to 7965
  139.5490  144.7322  151.4493 LP  0  0  0  0  0  0  0  0  0  0  0  0  # atno 17342 bound_to 10162
  140.6782  143.8141  150.7086 LP  0  0  0  0  0  0  0  0  0  0  0  0  # atno 17343 bound_to 10162
  157.7293  131.0625  150.5781 LP  0  0  0  0  0  0  0  0  0  0  0  0  # atno 17370 bound_to 10713
  156.5880  130.4321  149.5949 LP  0  0  0  0  0  0  0  0  0  0  0  0  # atno 17371 bound_to 10713
  141.1933  133.8153  157.0804 LP  0  0  0  0  0  0  0  0  0  0  0  0  # atno 17394 bound_to 11000
  140.0501  134.9810  157.1121 LP  0  0  0  0  0  0  0  0  0  0  0  0  # atno 17395 bound_to 11000

$$$$
