#       Name:                AV-unprocessed.smi:497
#       Creating user name   scv26
#       Creation time:       Thu Mar 26 23:17:29 2020


#       File generated by GOLD software.
#

@<TRIPOS>MOLECULE
AV-unprocessed.smi:497
    46    48     1
SMALL
NO_CHARGES


@<TRIPOS>ATOM
      1 ****        -1.8081   1.7102  -1.9166 C.3            1 S1                 0.0000
      2 ****        -1.1678   0.4499  -1.8273 O.3            1 S1                 0.0000
      3 ****        -1.5922  -0.2941  -0.6971 C.3            1 S1                 0.0000
      4 ****        -0.8044  -1.6107  -0.5933 C.3            1 S1                 0.0000
      5 ****         0.6554  -1.3958  -0.4889 N.pl3          1 S1                 0.0000
      6 ****         1.4778  -1.2315   0.5994 C.2            1 S1                 0.0000
      7 ****         1.1206  -1.2287   2.0584 C.3            1 S1                 0.0000
      8 ****         0.3397  -0.0462   2.4051 N.pl3          1 S1                -1.0000
      9 ****        -0.8372  -0.0777   3.0910 C.2            1 S1                 0.0000
     10 ****        -1.4047  -1.0271   3.6416 O.2            1 S1                 0.0000
     11 ****        -1.4981   1.2480   3.1319 C.2            1 S1                 0.0000
     12 ****        -2.6750   1.6268   3.7211 C.2            1 S1                 0.0000
     13 ****        -2.8503   3.0100   3.4394 C.2            1 S1                 0.0000
     14 ****        -1.7672   3.3819   2.6968 C.2            1 S1                 0.0000
     15 ****        -0.9352   2.3241   2.4999 O.3            1 S1                 0.0000
     16 ****         2.7411  -1.0525   0.1205 N.pl3          1 S1                 1.0000
     17 ****         2.7386  -1.1041  -1.2724 C.ar           1 S1                 0.0000
     18 ****         3.7779  -0.9759  -2.1887 C.ar           1 S1                 0.0000
     19 ****         3.4348  -1.0757  -3.5528 C.ar           1 S1                 0.0000
     20 ****         2.1028  -1.2935  -3.9596 C.ar           1 S1                 0.0000
     21 ****         1.0587  -1.4218  -3.0202 C.ar           1 S1                 0.0000
     22 ****         1.4050  -1.3239  -1.6719 C.ar           1 S1                 0.0000
     23 ****        -1.4481   2.2417  -2.7971 H              1 S1                 0.0000
     24 ****        -1.5924   2.3248  -1.0416 H              1 S1                 0.0000
     25 ****        -2.8890   1.5978  -2.0084 H              1 S1                 0.0000
     26 ****        -1.4474   0.2986   0.2058 H              1 S1                 0.0000
     27 ****        -2.6593  -0.5069  -0.7732 H              1 S1                 0.0000
     28 ****        -1.1319  -2.1698   0.2833 H              1 S1                 0.0000
     29 ****        -1.0108  -2.2550  -1.4475 H              1 S1                 0.0000
     30 ****         0.6005  -2.1636   2.2711 H              1 S1                 0.0000
     31 ****         2.0443  -1.2737   2.6364 H              1 S1                 0.0000
     32 ****        -3.3334   0.9824   4.2847 H              1 S1                 0.0000
     33 ****        -3.6659   3.6503   3.7404 H              1 S1                 0.0000
     34 ****        -1.4465   4.3103   2.2482 H              1 S1                 0.0000
     35 ****         4.7981  -0.8065  -1.8773 H              1 S1                 0.0000
     36 ****         4.2079  -0.9814  -4.3014 H              1 S1                 0.0000
     37 ****         1.8759  -1.3616  -5.0135 H              1 S1                 0.0000
     38 ****         0.0410  -1.5803  -3.3445 H              1 S1                 0.0000
     39 ****         3.5437  -0.8983   0.7166 H              1 S1                 0.0000
     40 ****        -0.1804   0.5952  -1.7636 LP             1 S1                 0.0000
     41 ****        -1.3749  -0.0746  -2.6531 LP             1 S1                 0.0000
     42 ****         0.6912   0.8458   2.1208 LP             1 S1                 0.0000
     43 ****        -0.9923  -1.9378   3.6183 LP             1 S1                 0.0000
     44 ****        -2.2763  -0.8848   4.1107 LP             1 S1                 0.0000
     45 ****        -0.8423   2.1378   1.5218 LP             1 S1                 0.0000
     46 ****        -0.0348   2.5184   2.8892 LP             1 S1                 0.0000
@<TRIPOS>BOND
    1    1    2 1     
    2    1   23 1     
    3    1   24 1     
    4    1   25 1     
    5    2    3 1     
    6    3    4 1     
    7    3   26 1     
    8    3   27 1     
    9    4    5 1     
   10    4   28 1     
   11    4   29 1     
   12    5   22 1     
   13    5    6 1     
   14    6    7 1     
   15    6   16 2     
   16    7    8 1     
   17    7   30 1     
   18    7   31 1     
   19    8    9 1     
   20    9   10 2     
   21    9   11 1     
   22   11   15 1     
   23   11   12 2     
   24   12   13 1     
   25   12   32 1     
   26   13   14 2     
   27   13   33 1     
   28   14   15 1     
   29   14   34 1     
   30   16   17 1     
   31   16   39 1     
   32   17   22 ar    
   33   17   18 ar    
   34   18   19 ar    
   35   18   35 1     
   36   19   20 ar    
   37   19   36 1     
   38   20   21 ar    
   39   20   37 1     
   40   21   22 ar    
   41   21   38 1     
   42    2   40 1     
   43    2   41 1     
   44    8   42 1     
   45   10   43 1     
   46   10   44 1     
   47   15   45 1     
   48   15   46 1     
@<TRIPOS>SUBSTRUCTURE
      1 S1             1
@<TRIPOS>SET
LONE_PAIRS      STATIC     ATOMS    <user>   **** ""
7 40 41 42 43 44 45 46
DONOR_HYDROGENS      STATIC     ATOMS    <user>   **** ""
1 39
ATOM$BLUE        STATIC     ATOMS    COLORGROUP SYSTEM
7 40 41 42 43 44 45 46
ATOM$RED        STATIC     ATOMS    COLORGROUP SYSTEM
1 39
