#       Name:                AV-unprocessed.smi:113
#       Creating user name   scv26
#       Creation time:       Thu Mar 26 18:21:57 2020


#       File generated by GOLD software.
#

@<TRIPOS>MOLECULE
AV-unprocessed.smi:113
    63    66     1
SMALL
NO_CHARGES


@<TRIPOS>ATOM
      1 ****        -1.2358  -0.2861   4.0965 C.3            1 S1                 0.0000
      2 ****        -1.6493  -1.0529   2.8583 C.ar           1 S1                 0.0000
      3 ****        -1.4896  -0.5290   1.5608 C.ar           1 S1                 0.0000
      4 ****        -1.8907  -1.2916   0.4357 C.ar           1 S1                 0.0000
      5 ****        -1.7294  -0.7478  -0.9880 C.3            1 S1                 0.0000
      6 ****        -1.1815   0.5946  -1.1226 N.am           1 S1                 0.0000
      7 ****        -2.0873   1.6830  -1.1051 C.2            1 S1                 0.0000
      8 ****        -3.3013   1.5084  -0.9798 O.2            1 S1                 0.0000
      9 ****        -1.4714   3.0071  -1.2200 C.2            1 S1                 0.0000
     10 ****        -2.3819   4.2249  -1.2047 C.3            1 S1                 0.0000
     11 ****        -0.1253   3.1155  -1.3302 C.2            1 S1                 0.0000
     12 ****         0.7376   2.0340  -1.3505 N.am           1 S1                 0.0000
     13 ****         2.2304   2.2697  -1.4199 C.3            1 S1                 0.0000
     14 ****         2.9051   1.6056  -2.6332 C.3            1 S1                 0.0000
     15 ****         4.0995   0.8818  -2.0198 C.3            1 S1                 0.0000
     16 ****         3.9133  -0.5195  -2.0783 O.3            1 S1                 0.0000
     17 ****         4.1599   1.4157  -0.5767 C.3            1 S1                 0.0000
     18 ****         4.7502   0.4808   0.4939 C.3            1 S1                 0.0000
     19 ****         6.1217   0.2541   0.2471 O.3            1 S1                 0.0000
     20 ****         2.8136   1.7436  -0.2713 O.3            1 S1                 0.0000
     21 ****         0.2221   0.7266  -1.2122 C.2            1 S1                 0.0000
     22 ****         0.9684  -0.2525  -1.1512 O.2            1 S1                 0.0000
     23 ****        -2.4481  -2.5808   0.6593 C.ar           1 S1                 0.0000
     24 ****        -2.8731  -3.4136  -0.4037 C.2            1 S1                 0.0000
     25 ****        -3.4217  -4.6845  -0.1415 C.2            1 S1                 0.0000
     26 ****        -3.5539  -5.1415   1.1830 C.2            1 S1                 0.0000
     27 ****        -3.1356  -4.3271   2.2517 C.2            1 S1                 0.0000
     28 ****        -2.5857  -3.0558   1.9916 C.ar           1 S1                 0.0000
     29 ****        -2.1841  -2.2801   3.0207 N.pl3          1 S1                 1.0000
     30 ****        -0.9952   0.7496   3.8549 H              1 S1                 0.0000
     31 ****        -0.3558  -0.7446   4.5481 H              1 S1                 0.0000
     32 ****        -2.0402  -0.2843   4.8327 H              1 S1                 0.0000
     33 ****        -1.0584   0.4540   1.4449 H              1 S1                 0.0000
     34 ****        -1.0991  -1.4169  -1.5764 H              1 S1                 0.0000
     35 ****        -2.6893  -0.7588  -1.5066 H              1 S1                 0.0000
     36 ****        -1.8194   5.1542  -1.3002 H              1 S1                 0.0000
     37 ****        -2.9436   4.2701  -0.2709 H              1 S1                 0.0000
     38 ****        -3.0928   4.1800  -2.0308 H              1 S1                 0.0000
     39 ****         0.2961   4.1076  -1.4083 H              1 S1                 0.0000
     40 ****         2.3738   3.3510  -1.4218 H              1 S1                 0.0000
     41 ****         2.2294   0.9384  -3.1698 H              1 S1                 0.0000
     42 ****         3.2224   2.3865  -3.3248 H              1 S1                 0.0000
     43 ****         5.0204   1.1145  -2.5554 H              1 S1                 0.0000
     44 ****         4.6468  -0.9372  -1.6526 H              1 S1                 0.0000
     45 ****         4.7175   2.3545  -0.5764 H              1 S1                 0.0000
     46 ****         4.6510   0.9359   1.4796 H              1 S1                 0.0000
     47 ****         4.2190  -0.4705   0.5321 H              1 S1                 0.0000
     48 ****         6.5767   1.0812   0.2918 H              1 S1                 0.0000
     49 ****        -2.7872  -3.0979  -1.4323 H              1 S1                 0.0000
     50 ****        -3.7420  -5.3111  -0.9611 H              1 S1                 0.0000
     51 ****        -3.9754  -6.1169   1.3786 H              1 S1                 0.0000
     52 ****        -3.2387  -4.6835   3.2665 H              1 S1                 0.0000
     53 ****        -2.2898  -2.6403   3.9689 H              1 S1                 0.0000
     54 ****        -3.6664   0.5820  -0.8876 LP             1 S1                 0.0000
     55 ****        -3.9210   2.2932  -0.9703 LP             1 S1                 0.0000
     56 ****         3.8647  -0.8138  -3.0328 LP             1 S1                 0.0000
     57 ****         3.0653  -0.7670  -1.6096 LP             1 S1                 0.0000
     58 ****         6.2388  -0.1462  -0.6618 LP             1 S1                 0.0000
     59 ****         6.4893  -0.3703   0.9362 LP             1 S1                 0.0000
     60 ****         2.3202   0.9221   0.0145 LP             1 S1                 0.0000
     61 ****         2.7872   2.4210   0.4639 LP             1 S1                 0.0000
     62 ****         0.5834  -1.1681  -1.0356 LP             1 S1                 0.0000
     63 ****         1.9588  -0.1311  -1.2174 LP             1 S1                 0.0000
@<TRIPOS>BOND
    1    1    2 1     
    2    1   30 1     
    3    1   31 1     
    4    1   32 1     
    5    2   29 ar    
    6    2    3 ar    
    7    3    4 ar    
    8    3   33 1     
    9    4    5 1     
   10    4   23 ar    
   11    5    6 1     
   12    5   34 1     
   13    5   35 1     
   14    6   21 am    
   15    6    7 am    
   16    7    8 2     
   17    7    9 1     
   18    9   10 1     
   19    9   11 2     
   20   10   36 1     
   21   10   37 1     
   22   10   38 1     
   23   11   12 1     
   24   11   39 1     
   25   12   13 1     
   26   12   21 am    
   27   13   20 1     
   28   13   14 1     
   29   13   40 1     
   30   14   15 1     
   31   14   41 1     
   32   14   42 1     
   33   15   16 1     
   34   15   17 1     
   35   15   43 1     
   36   16   44 1     
   37   17   18 1     
   38   17   20 1     
   39   17   45 1     
   40   18   19 1     
   41   18   46 1     
   42   18   47 1     
   43   19   48 1     
   44   21   22 2     
   45   23   28 ar    
   46   23   24 1     
   47   24   25 2     
   48   24   49 1     
   49   25   26 1     
   50   25   50 1     
   51   26   27 2     
   52   26   51 1     
   53   27   28 1     
   54   27   52 1     
   55   28   29 ar    
   56   29   53 1     
   57    8   54 1     
   58    8   55 1     
   59   16   56 1     
   60   16   57 1     
   61   19   58 1     
   62   19   59 1     
   63   20   60 1     
   64   20   61 1     
   65   22   62 1     
   66   22   63 1     
@<TRIPOS>SUBSTRUCTURE
      1 S1             1
@<TRIPOS>SET
LONE_PAIRS      STATIC     ATOMS    <user>   **** ""
10 54 55 56 57 58 59 60 61 62 63
DONOR_HYDROGENS      STATIC     ATOMS    <user>   **** ""
3 44 48 53
ATOM$BLUE        STATIC     ATOMS    COLORGROUP SYSTEM
10 54 55 56 57 58 59 60 61 62 63
ATOM$RED        STATIC     ATOMS    COLORGROUP SYSTEM
3 44 48 53
