#       Name:                AV-unprocessed.smi:2062
#       Creating user name   scv26
#       Creation time:       Fri Mar 27 11:09:35 2020


#       File generated by GOLD software.
#

@<TRIPOS>MOLECULE
AV-unprocessed.smi:2062
    48    49     1
SMALL
NO_CHARGES


@<TRIPOS>ATOM
      1 ****        -5.4724   0.9300   1.6296 C.3            1 S1                 0.0000
      2 ****        -3.9485   1.1130   1.6798 C.3            1 S1                 0.0000
      3 ****        -3.5607   2.5256   1.2131 C.3            1 S1                 0.0000
      4 ****        -3.2470   0.0212   0.8429 C.3            1 S1                 0.0000
      5 ****        -1.7847   0.0094   0.9059 N.3            1 S1                 0.0000
      6 ****        -1.2767  -0.3751   2.2209 C.3            1 S1                 0.0000
      7 ****         0.2603  -0.4159   2.2518 C.3            1 S1                 0.0000
      8 ****         0.7328  -1.2988   1.2409 O.3            1 S1                 0.0000
      9 ****         0.3125  -0.9195  -0.0679 C.3            1 S1                 0.0000
     10 ****         0.8871  -1.9256  -1.0798 C.3            1 S1                 0.0000
     11 ****         2.3455  -1.8884  -1.1133 N.am           1 S1                 0.0000
     12 ****         3.0931  -0.9854  -1.7636 C.2            1 S1                 0.0000
     13 ****         2.5489  -0.0883  -2.4118 O.2            1 S1                 0.0000
     14 ****         4.4244  -1.1767  -1.6207 N.pl3          1 S1                -1.0000
     15 ****         5.2914  -0.3388  -2.2120 C.2            1 S1                 0.0000
     16 ****         5.9214  -0.6285  -3.3566 N.2            1 S1                 0.0000
     17 ****         6.7828   0.3823  -3.7874 C.2            1 S1                 0.0000
     18 ****         6.8169   1.4630  -2.9463 C.2            1 S1                 0.0000
     19 ****         5.7609   1.2424  -1.5804 S.3            1 S1                 0.0000
     20 ****        -1.2282  -0.8922  -0.0978 C.3            1 S1                 0.0000
     21 ****        -5.8505   1.0277   0.6114 H              1 S1                 0.0000
     22 ****        -5.9791   1.6741   2.2450 H              1 S1                 0.0000
     23 ****        -5.7627  -0.0536   1.9997 H              1 S1                 0.0000
     24 ****        -3.6576   1.0103   2.7246 H              1 S1                 0.0000
     25 ****        -3.8351   2.6876   0.1704 H              1 S1                 0.0000
     26 ****        -2.4872   2.6936   1.3046 H              1 S1                 0.0000
     27 ****        -4.0608   3.2877   1.8112 H              1 S1                 0.0000
     28 ****        -3.6247  -0.9584   1.1401 H              1 S1                 0.0000
     29 ****        -3.5548   0.1520  -0.1957 H              1 S1                 0.0000
     30 ****        -1.6177   0.3261   2.9813 H              1 S1                 0.0000
     31 ****        -1.6686  -1.3551   2.4976 H              1 S1                 0.0000
     32 ****         0.6773   0.5808   2.0995 H              1 S1                 0.0000
     33 ****         0.6111  -0.7655   3.2228 H              1 S1                 0.0000
     34 ****         0.6916   0.0794  -0.2917 H              1 S1                 0.0000
     35 ****         0.5758  -2.9375  -0.8195 H              1 S1                 0.0000
     36 ****         0.4921  -1.7291  -2.0778 H              1 S1                 0.0000
     37 ****         2.8320  -2.6028  -0.5917 H              1 S1                 0.0000
     38 ****         7.3349   0.2471  -4.7055 H              1 S1                 0.0000
     39 ****         7.3950   2.3692  -3.0448 H              1 S1                 0.0000
     40 ****        -1.6117  -1.9015   0.0606 H              1 S1                 0.0000
     41 ****        -1.5607  -0.5859  -1.0904 H              1 S1                 0.0000
     42 ****        -1.4940   0.9488   0.7239 LP             1 S1                 0.0000
     43 ****         0.3880  -2.2176   1.4331 LP             1 S1                 0.0000
     44 ****         1.7325  -1.3061   1.2654 LP             1 S1                 0.0000
     45 ****         1.5512  -0.0351  -2.4518 LP             1 S1                 0.0000
     46 ****         3.1055   0.5859  -2.8973 LP             1 S1                 0.0000
     47 ****         4.7634  -1.9426  -1.0743 LP             1 S1                 0.0000
     48 ****         5.7882  -1.4853  -3.8547 LP             1 S1                 0.0000
@<TRIPOS>BOND
    1    1    2 1     
    2    1   21 1     
    3    1   22 1     
    4    1   23 1     
    5    2    3 1     
    6    2    4 1     
    7    2   24 1     
    8    3   25 1     
    9    3   26 1     
   10    3   27 1     
   11    4    5 1     
   12    4   28 1     
   13    4   29 1     
   14    5   20 1     
   15    5    6 1     
   16    6    7 1     
   17    6   30 1     
   18    6   31 1     
   19    7    8 1     
   20    7   32 1     
   21    7   33 1     
   22    8    9 1     
   23    9   10 1     
   24    9   20 1     
   25    9   34 1     
   26   10   11 1     
   27   10   35 1     
   28   10   36 1     
   29   11   12 am    
   30   11   37 1     
   31   12   13 2     
   32   12   14 1     
   33   14   15 1     
   34   15   19 1     
   35   15   16 2     
   36   16   17 1     
   37   17   18 2     
   38   17   38 1     
   39   18   19 1     
   40   18   39 1     
   41   20   40 1     
   42   20   41 1     
   43    5   42 1     
   44    8   43 1     
   45    8   44 1     
   46   13   45 1     
   47   13   46 1     
   48   14   47 1     
   49   16   48 1     
@<TRIPOS>SUBSTRUCTURE
      1 S1             1
@<TRIPOS>SET
LONE_PAIRS      STATIC     ATOMS    <user>   **** ""
7 42 43 44 45 46 47 48
DONOR_HYDROGENS      STATIC     ATOMS    <user>   **** ""
1 37
ATOM$BLUE        STATIC     ATOMS    COLORGROUP SYSTEM
7 42 43 44 45 46 47 48
ATOM$RED        STATIC     ATOMS    COLORGROUP SYSTEM
1 37
