AV-unprocessed.smi:852|AV-procd|sdf|3952|dock5
  -GOLD-   22720 1423D 1   1.00000     0.00000
 Structure written by MMmdl.
 30 31  0  0  0  0  0  0  0  0  1 V2000
  151.1366  142.4872  156.4188 C   0  0  0  0  0  0  0  0  0  0  0  0
  150.8863  140.9749  156.5797 C   0  0  2  0  0  0  0  0  0  0  0  0
  151.8521  140.2319  155.7429 C   0  0  0  0  0  0  0  0  0  0  0  0
  152.6090  139.6504  155.0879 N   0  0  0  0  0  0  0  0  0  0  0  0
  149.5127  140.6672  156.1772 N   0  0  0  0  0  0  0  0  0  0  0  0
  148.9374  140.8974  154.9836 C   0  0  0  0  0  0  0  0  0  0  0  0
  149.5063  141.4625  154.0510 O   0  0  0  0  0  0  0  0  0  0  0  0
  147.4913  140.4229  154.8164 C   0  0  0  0  0  0  0  0  0  0  0  0
  146.5854  141.5327  154.5749 N   0  0  0  0  0  0  0  0  0  0  0  0
  145.5239  141.9543  155.2703 C   0  0  0  0  0  0  0  0  0  0  0  0
  144.9120  143.0045  154.7379 N   0  0  0  0  0  0  0  0  0  0  0  0
  145.7118  143.1845  153.6468 C   0  0  0  0  0  0  0  0  0  0  0  0
  145.4625  144.2494  152.6903 C   0  0  0  0  0  0  0  0  0  0  0  0
  145.2635  145.0976  151.9286 N   0  0  0  0  0  0  0  0  0  0  0  0
  146.7288  142.3389  153.4946 N   0  0  0  0  0  0  0  0  0  0  0  0
  151.0919  140.6025  158.0465 C   0  0  0  0  0  0  0  0  0  0  0  0
  151.3956  141.6300  159.1146 C   0  0  0  0  0  0  0  0  0  0  0  0
  152.4502  140.6223  158.7111 C   0  0  0  0  0  0  0  0  0  0  0  0
  152.1345  142.7571  156.7659 H   0  0  0  0  0  0  0  0  0  0  0  0
  150.4189  143.0733  156.9941 H   0  0  0  0  0  0  0  0  0  0  0  0
  151.0637  142.8037  155.3780 H   0  0  0  0  0  0  0  0  0  0  0  0
  148.9488  140.2010  156.8728 H   0  0  0  0  0  0  0  0  0  0  0  0
  147.4304  139.7260  153.9797 H   0  0  0  0  0  0  0  0  0  0  0  0
  147.1643  139.8855  155.7082 H   0  0  0  0  0  0  0  0  0  0  0  0
  145.1887  141.4788  156.1804 H   0  0  0  0  0  0  0  0  0  0  0  0
  150.4385  139.7926  158.3671 H   0  0  0  0  0  0  0  0  0  0  0  0
  151.5463  142.6639  158.8107 H   0  0  0  0  0  0  0  0  0  0  0  0
  150.9215  141.4982  160.0850 H   0  0  0  0  0  0  0  0  0  0  0  0
  152.6738  139.8212  159.4124 H   0  0  0  0  0  0  0  0  0  0  0  0
  153.3011  140.9855  158.1387 H   0  0  0  0  0  0  0  0  0  0  0  0
  1  2  1  0  0  0  0
  1 19  1  0  0  0  0
  1 20  1  0  0  0  0
  1 21  1  0  0  0  0
  2  3  1  0  0  0  0
  2  5  1  0  0  0  0
  2 16  1  0  0  0  0
  3  4  3  0  0  0  0
  5  6  1  0  0  0  0
  5 22  1  0  0  0  0
  6  7  2  0  0  0  0
  6  8  1  0  0  0  0
  8  9  1  0  0  0  0
  8 23  1  0  0  0  0
  8 24  1  0  0  0  0
  9 15  1  0  0  0  0
  9 10  1  0  0  0  0
 10 11  2  0  0  0  0
 10 25  1  0  0  0  0
 11 12  1  0  0  0  0
 12 13  1  0  0  0  0
 12 15  2  0  0  0  0
 13 14  3  0  0  0  0
 16 18  1  0  0  0  0
 16 17  1  0  0  0  0
 16 26  1  0  0  0  0
 17 18  1  0  0  0  0
 17 27  1  0  0  0  0
 17 28  1  0  0  0  0
 18 29  1  0  0  0  0
 18 30  1  0  0  0  0
M  END
> <s_m_source_file>
AV-unprocessed.smi

> <i_m_source_file_index>
852

> <i_lp_mmshare_version>
43012

> <i_f3d_flags>
0

> <s_epik_input>
W0NIMl0xW0NIMl1bQ0hdMVtDQF0oW0NIM10pKEMjTilbTkhdQyg9TylbQ0gyXW4yW2NIXW5jKG4yKUMjTg==

> <s_epik_cmdline>
J2VwaWtfcHl0aG9uJywgJy1waCcsICc3LjAnLCAnLXRuJywgJzgnLCAnLW1hJywgJzIwMCcsICctbWV0YWxfYmluZGluZycsICctaW1hZScsICc8aW5maWxlLm1hZT4nLCAnLW9tYWUnLCAnPG91dGZpbGUubWFlPic=

> <r_lp_tautomer_probability>
1

> <r_epik_Ionization_Penalty>
2.64294e-06

> <r_epik_Ionization_Penalty_Charging>
0

> <r_epik_Ionization_Penalty_Neutral>
2.64294e-06

> <r_epik_State_Penalty>
-0

> <r_epik_Charging_Adjusted_Penalty>
0

> <i_epik_Tot_Q>
0

> <i_epik_Tot_abs_Q>
0

> <r_epik_Metal_State_Penalty>
-0

> <b_epik_Metal_Only>
0

> <s_lp_Force_Field>
OPLS_2005

> <r_lp_Energy>
16.3367

> <b_lp_Chiralities_Consistent>
1

> <s_lp_Variant>
AV-unprocessed.smi:852-2

> <Gold.Version>
5.8.1

> <Gold.Id.Protein>
6NUR|6NUR_protein|mol2

> <Gold.PLP.Fitness>
34.2890

> <Gold.PLP.PLP>
-30.5716

> <Gold.PLP.part.hbond>
-4.3518

> <Gold.PLP.part.metal>
0.0000

> <Gold.PLP.part.buried>
-3.5311

> <Gold.PLP.part.nonpolar>
-22.8466

> <Gold.PLP.part.repulsive>
0.8036

> <Gold.PLP.ligand.clash>
0.0000

> <Gold.PLP.ligand.torsion>
1.1935

> <Gold.PLP.Chemscore.Hbond>
1.5304

> <Gold.PLP.Chemscore.CHOScore>
0.0000

> <Gold.PLP.Chemscore.Metal>
0.0000

> <Gold.Chemscore.Hbonds>
donor molecule, donor type, donor heavy atom, donor atom, acceptor molecule, acceptor atom, score
      P1  H  7989  7998       L1     7  0.12
      P1  H  7997  8008       L1     4  0.88
      P1  H  8011  8017       L1     7  0.67

> <Gold.PLP.Chemscore.Internal.Correction>
1.5134

> <Gold.Rescore>
     Score         DG    S(hbond)    S(metal)    S(lipo)     H(rot)  DE(clash)    DE(int)     intcor
      4.97      -8.56       1.46        0.00      38.27       2.46       0.24       3.35       ----

> <Gold.Chemscore.Fitness>
4.9691

> <Gold.Chemscore.DG>
-8.5566

> <Gold.Chemscore.ZeroCoef>
-5.4800

> <Gold.Chemscore.Hbond>
1.4638

> <Gold.Chemscore.Metal>
0.0000

> <Gold.Chemscore.Lipo>
38.2695

> <Gold.Chemscore.Internal_Hbond>
0.0000

> <Gold.Chemscore.DEClash>
0.2393

> <Gold.Chemscore.DEInternal>
3.3482

> <Gold.Chemscore.Rot>
2.4571

> <Gold.Chemscore.Internal.Correction>
   9.000000E+99

> <Gold.Chemscore.Hbonds>
donor molecule, donor type, donor heavy atom, donor atom, acceptor molecule, acceptor atom, score
      P1  H  7989  7998       L1     7  0.12
      P1  H  7997  8008       L1     4  0.30
      P1  H  8011  8017       L1     7  0.66

> <Gold.Chemscore.Hbond.Weighted>
-4.8892

> <Gold.Chemscore.Metal.Weighted>
-0.0000

> <Gold.Chemscore.Lipo.Weighted>
-4.4775

> <Gold.Chemscore.Internal_Hbond.Weighted>
0.0000

> <Gold.Chemscore.DEClash.Weighted>
0.2393

> <Gold.Chemscore.DEInternal.Weighted>
3.3482

> <Gold.Chemscore.Rot.Weighted>
6.2901

> <Gold.Chemscore.Internal.Correction.Weighted>
   9.000000E+99

> <Gold.Protein.RotatedTorsions>
[ 6907 6896 6895 6894 ] final  -24.55 input  -60.11 | X-H torsion
[ 7974 7965 7964 7962 ] final  122.66 input  175.53 | X-H torsion
[ 8008 7997 7996 7995 ] final  -18.47 input   59.86 | X-H torsion
[ 10167 10162 10161 10158 ] final  -72.54 input  -65.29 | X-H torsion
[ 10718 10713 10712 10709 ] final   95.40 input   66.30 | X-H torsion
[ 10763 10752 10751 10750 ] final   84.94 input  -60.55 | X-H torsion
[ 11005 11000 10999 10996 ] final  161.81 input  -57.11 | X-H torsion

> <Gold.Protein.ActiveResidues>
 VAL166  LYS551  ARG553  GLY616  TRP617  ASP618  TYR619  PRO620  LYS621  CYS622 
 ASP623  PHE694  ASN695  SER759  ASP760  ASP761  ALA762  ILE779  LEU786  VAL792 
 PHE793  MET794  SER795  GLU796  ALA797  LYS798  CYS799  TRP800  GLU811  SER814 

> <Gold.Protein.RotatedAtoms>
  151.1879  135.0390  159.8819 H   0  0  0  0  0  0  0  0  0  0  0  0  # atno 6907 bound_to 6896
  152.5441  134.0989  159.8319 H   0  0  0  0  0  0  0  0  0  0  0  0  # atno 6908 bound_to 6896
  151.1114  133.5123  159.2637 H   0  0  0  0  0  0  0  0  0  0  0  0  # atno 6909 bound_to 6896
  145.1050  139.3492  143.4792 H   0  0  0  0  0  0  0  0  0  0  0  0  # atno 7974 bound_to 7965
  154.4904  140.2115  155.9562 H   0  0  0  0  0  0  0  0  0  0  0  0  # atno 8008 bound_to 7997
  156.1297  140.3199  155.8298 H   0  0  0  0  0  0  0  0  0  0  0  0  # atno 8009 bound_to 7997
  155.4319  140.0504  157.3008 H   0  0  0  0  0  0  0  0  0  0  0  0  # atno 8010 bound_to 7997
  140.5184  143.2335  151.7473 H   0  0  0  0  0  0  0  0  0  0  0  0  # atno 10167 bound_to 10162
  157.6939  131.0544  150.4334 H   0  0  0  0  0  0  0  0  0  0  0  0  # atno 10718 bound_to 10713
  153.1428  135.4636  154.9521 H   0  0  0  0  0  0  0  0  0  0  0  0  # atno 10763 bound_to 10752
  154.7761  135.3173  154.8091 H   0  0  0  0  0  0  0  0  0  0  0  0  # atno 10764 bound_to 10752
  153.8611  135.6912  153.4837 H   0  0  0  0  0  0  0  0  0  0  0  0  # atno 10765 bound_to 10752
  140.2195  134.8207  157.3206 H   0  0  0  0  0  0  0  0  0  0  0  0  # atno 11005 bound_to 11000
  146.3528  140.0944  142.8611 LP  0  0  0  0  0  0  0  0  0  0  0  0  # atno 17320 bound_to 7965
  145.0912  140.9285  143.4768 LP  0  0  0  0  0  0  0  0  0  0  0  0  # atno 17321 bound_to 7965
  139.4916  144.4290  151.9893 LP  0  0  0  0  0  0  0  0  0  0  0  0  # atno 17342 bound_to 10162
  140.3386  144.3231  150.5972 LP  0  0  0  0  0  0  0  0  0  0  0  0  # atno 17343 bound_to 10162
  156.4698  130.4050  149.6525 LP  0  0  0  0  0  0  0  0  0  0  0  0  # atno 17370 bound_to 10713
  156.3609  130.7481  151.2453 LP  0  0  0  0  0  0  0  0  0  0  0  0  # atno 17371 bound_to 10713
  140.1864  134.4425  155.7741 LP  0  0  0  0  0  0  0  0  0  0  0  0  # atno 17394 bound_to 11000
  141.2223  133.7007  156.7955 LP  0  0  0  0  0  0  0  0  0  0  0  0  # atno 17395 bound_to 11000

$$$$
