AV-unprocessed.smi:2821|AV-procd|sdf|10858|dock9
  -GOLD-   2272015303D 1   1.00000     0.00000
 Structure written by MMmdl.
 36 37  0  0  0  0  0  0  0  0  1 V2000
  152.9009  142.2196  162.2884 C   0  0  0  0  0  0  0  0  0  0  0  0
  153.8179  141.8033  161.1358 C   0  0  0  0  0  0  0  0  0  0  0  0
  153.0127  141.3901  160.0359 O   0  0  0  0  0  0  0  0  0  0  0  0
  152.3158  142.3539  159.3369 C   0  0  0  0  0  0  0  0  0  0  0  0
  152.4178  143.7064  159.7265 C   0  0  0  0  0  0  0  0  0  0  0  0
  151.7582  144.6898  159.0757 N   0  0  0  0  0  0  0  0  0  0  0  0
  150.9910  144.3143  158.0284 C   0  0  0  0  0  0  0  0  0  0  0  0
  150.8783  142.9645  157.6270 C   0  0  0  0  0  0  0  0  0  0  0  0
  150.0607  142.6381  156.5352 N   0  0  0  0  0  0  0  0  0  0  0  0
  149.9690  141.2759  156.0157 C   0  0  2  0  0  0  0  0  0  0  0  0
  151.3642  140.6962  155.7273 C   0  0  0  0  0  0  0  0  0  0  0  0
  149.0714  141.2201  154.7635 C   0  0  1  0  0  0  0  0  0  0  0  0
  148.8052  139.8190  154.2070 C   0  0  0  0  0  0  0  0  0  0  0  0
  147.5103  140.0376  153.4578 C   0  0  0  0  0  0  0  0  0  0  0  0
  146.7760  141.0024  154.3844 C   0  0  0  0  0  0  0  0  0  0  0  0
  147.7867  141.7909  155.0070 O   0  0  0  0  0  0  0  0  0  0  0  0
  151.5421  141.9841  158.2852 N   0  0  0  0  0  0  0  0  0  0  0  0
  153.4830  142.5445  163.1510 H   0  0  0  0  0  0  0  0  0  0  0  0
  152.2691  141.3895  162.6053 H   0  0  0  0  0  0  0  0  0  0  0  0
  152.2505  143.0436  161.9941 H   0  0  0  0  0  0  0  0  0  0  0  0
  154.4507  142.6446  160.8479 H   0  0  0  0  0  0  0  0  0  0  0  0
  154.4665  140.9888  161.4626 H   0  0  0  0  0  0  0  0  0  0  0  0
  153.0323  144.0005  160.5647 H   0  0  0  0  0  0  0  0  0  0  0  0
  150.4627  145.1000  157.5081 H   0  0  0  0  0  0  0  0  0  0  0  0
  149.6111  143.3774  156.0141 H   0  0  0  0  0  0  0  0  0  0  0  0
  149.4946  140.6489  156.7717 H   0  0  0  0  0  0  0  0  0  0  0  0
  151.2934  139.6716  155.3620 H   0  0  0  0  0  0  0  0  0  0  0  0
  151.9849  140.6784  156.6232 H   0  0  0  0  0  0  0  0  0  0  0  0
  151.8890  141.2824  154.9721 H   0  0  0  0  0  0  0  0  0  0  0  0
  149.5318  141.8098  153.9689 H   0  0  0  0  0  0  0  0  0  0  0  0
  149.6123  139.4551  153.5704 H   0  0  0  0  0  0  0  0  0  0  0  0
  148.6495  139.0935  155.0064 H   0  0  0  0  0  0  0  0  0  0  0  0
  147.7091  140.5154  152.4975 H   0  0  0  0  0  0  0  0  0  0  0  0
  146.9567  139.1164  153.2751 H   0  0  0  0  0  0  0  0  0  0  0  0
  146.0544  141.6240  153.8536 H   0  0  0  0  0  0  0  0  0  0  0  0
  146.2427  140.4513  155.1600 H   0  0  0  0  0  0  0  0  0  0  0  0
  1  2  1  0  0  0  0
  1 18  1  0  0  0  0
  1 19  1  0  0  0  0
  1 20  1  0  0  0  0
  2  3  1  0  0  0  0
  2 21  1  0  0  0  0
  2 22  1  0  0  0  0
  3  4  1  0  0  0  0
  4 17  1  0  0  0  0
  4  5  2  0  0  0  0
  5  6  1  0  0  0  0
  5 23  1  0  0  0  0
  6  7  2  0  0  0  0
  7  8  1  0  0  0  0
  7 24  1  0  0  0  0
  8  9  1  0  0  0  0
  8 17  2  0  0  0  0
  9 10  1  0  0  0  0
  9 25  1  0  0  0  0
 10 11  1  0  0  0  0
 10 12  1  0  0  0  0
 10 26  1  0  0  0  0
 11 27  1  0  0  0  0
 11 28  1  0  0  0  0
 11 29  1  0  0  0  0
 12 16  1  0  0  0  0
 12 13  1  0  0  0  0
 12 30  1  0  0  0  0
 13 14  1  0  0  0  0
 13 31  1  0  0  0  0
 13 32  1  0  0  0  0
 14 15  1  0  0  0  0
 14 33  1  0  0  0  0
 14 34  1  0  0  0  0
 15 16  1  0  0  0  0
 15 35  1  0  0  0  0
 15 36  1  0  0  0  0
M  END
> <s_m_source_file>
AV-unprocessed.smi

> <i_m_source_file_index>
2821

> <i_lp_mmshare_version>
43012

> <i_f3d_flags>
0

> <s_epik_input>
W0NIM11bQ0gyXU9jMVtjSF1uW2NIXWMobjEpW05IXVtDQEhdKFtDSDNdKVtDQEBIXTJbQ0gyXVtDSDJdW0NIMl1PMg==

> <s_epik_cmdline>
J2VwaWtfcHl0aG9uJywgJy1waCcsICc3LjAnLCAnLXRuJywgJzgnLCAnLW1hJywgJzIwMCcsICctbWV0YWxfYmluZGluZycsICctaW1hZScsICc8aW5maWxlLm1hZT4nLCAnLW9tYWUnLCAnPG91dGZpbGUubWFlPic=

> <r_lp_tautomer_probability>
1

> <r_epik_Ionization_Penalty>
4.69533e-05

> <r_epik_Ionization_Penalty_Charging>
0

> <r_epik_Ionization_Penalty_Neutral>
4.69533e-05

> <r_epik_State_Penalty>
-0

> <r_epik_Charging_Adjusted_Penalty>
0

> <i_epik_Tot_Q>
0

> <i_epik_Tot_abs_Q>
0

> <r_epik_Metal_State_Penalty>
-0

> <b_epik_Metal_Only>
0

> <s_lp_Force_Field>
OPLS_2005

> <r_lp_Energy>
29.921

> <b_lp_Chiralities_Consistent>
1

> <s_lp_Variant>
AV-unprocessed.smi:2821-3

> <Gold.Version>
5.8.1

> <Gold.Id.Protein>
6NUR|6NUR_protein|mol2

> <Gold.PLP.Fitness>
44.1649

> <Gold.PLP.PLP>
-39.3775

> <Gold.PLP.part.hbond>
-1.0000

> <Gold.PLP.part.metal>
0.0000

> <Gold.PLP.part.buried>
-5.3588

> <Gold.PLP.part.nonpolar>
-35.4413

> <Gold.PLP.part.repulsive>
1.2752

> <Gold.PLP.ligand.clash>
0.0000

> <Gold.PLP.ligand.torsion>
0.0911

> <Gold.PLP.Chemscore.Hbond>
0.8640

> <Gold.PLP.Chemscore.CHOScore>
0.7766

> <Gold.PLP.Chemscore.Metal>
0.0000

> <Gold.Chemscore.Hbonds>
donor molecule, donor type, donor heavy atom, donor atom, acceptor molecule, acceptor atom, score
      L1  H     9    25       P1  8028  1.00
      L1  C     7    24       P1  8028  0.70
      L1  C     7    24       P1  8029  0.09

> <Gold.PLP.Chemscore.Internal.Correction>
0.0478

> <Gold.Rescore>
     Score         DG    S(hbond)    S(metal)    S(lipo)     H(rot)  DE(clash)    DE(int)     intcor
     13.35     -14.82       0.94        0.00      86.96       1.55       0.02       1.45       ----

> <Gold.Chemscore.Fitness>
13.3529

> <Gold.Chemscore.DG>
-14.8221

> <Gold.Chemscore.ZeroCoef>
-5.4800

> <Gold.Chemscore.Hbond>
0.9399

> <Gold.Chemscore.Metal>
0.0000

> <Gold.Chemscore.Lipo>
86.9599

> <Gold.Chemscore.Internal_Hbond>
0.0000

> <Gold.Chemscore.DEClash>
0.0170

> <Gold.Chemscore.DEInternal>
1.4523

> <Gold.Chemscore.Rot>
1.5514

> <Gold.Chemscore.Internal.Correction>
   9.000000E+99

> <Gold.Chemscore.Hbonds>
donor molecule, donor type, donor heavy atom, donor atom, acceptor molecule, acceptor atom, score
      L1  H     9    25       P1  8028  0.97

> <Gold.Chemscore.Hbond.Weighted>
-3.1393

> <Gold.Chemscore.Metal.Weighted>
-0.0000

> <Gold.Chemscore.Lipo.Weighted>
-10.1743

> <Gold.Chemscore.Internal_Hbond.Weighted>
0.0000

> <Gold.Chemscore.DEClash.Weighted>
0.0170

> <Gold.Chemscore.DEInternal.Weighted>
1.4523

> <Gold.Chemscore.Rot.Weighted>
3.9715

> <Gold.Chemscore.Internal.Correction.Weighted>
   9.000000E+99

> <Gold.Protein.RotatedTorsions>
[ 6907 6896 6895 6894 ] final  119.07 input  -60.11 | X-H torsion
[ 7974 7965 7964 7962 ] final  152.00 input  175.53 | X-H torsion
[ 8008 7997 7996 7995 ] final   80.30 input   59.86 | X-H torsion
[ 10167 10162 10161 10158 ] final  129.03 input  -65.29 | X-H torsion
[ 10718 10713 10712 10709 ] final -177.56 input   66.30 | X-H torsion
[ 10763 10752 10751 10750 ] final   41.48 input  -60.55 | X-H torsion
[ 11005 11000 10999 10996 ] final   91.13 input  -57.11 | X-H torsion

> <Gold.Protein.ActiveResidues>
 VAL166  LYS551  ARG553  GLY616  TRP617  ASP618  TYR619  PRO620  LYS621  CYS622 
 ASP623  PHE694  ASN695  SER759  ASP760  ASP761  ALA762  ILE779  LEU786  VAL792 
 PHE793  MET794  SER795  GLU796  ALA797  LYS798  CYS799  TRP800  GLU811  SER814 

> <Gold.Protein.RotatedAtoms>
  152.4498  133.7607  159.6744 H   0  0  0  0  0  0  0  0  0  0  0  0  # atno 6907 bound_to 6896
  150.8407  133.7930  159.3068 H   0  0  0  0  0  0  0  0  0  0  0  0  # atno 6908 bound_to 6896
  151.5556  135.1069  160.0012 H   0  0  0  0  0  0  0  0  0  0  0  0  # atno 6909 bound_to 6896
  144.8253  139.6611  143.6083 H   0  0  0  0  0  0  0  0  0  0  0  0  # atno 7974 bound_to 7965
  155.8816  140.3444  155.5891 H   0  0  0  0  0  0  0  0  0  0  0  0  # atno 8008 bound_to 7997
  155.7714  140.0846  157.2125 H   0  0  0  0  0  0  0  0  0  0  0  0  # atno 8009 bound_to 7997
  154.4025  140.1517  156.2933 H   0  0  0  0  0  0  0  0  0  0  0  0  # atno 8010 bound_to 7997
  139.5498  144.6803  151.4360 H   0  0  0  0  0  0  0  0  0  0  0  0  # atno 10167 bound_to 10162
  156.8313  130.9654  151.3106 H   0  0  0  0  0  0  0  0  0  0  0  0  # atno 10718 bound_to 10713
  152.9907  135.6160  154.2794 H   0  0  0  0  0  0  0  0  0  0  0  0  # atno 10763 bound_to 10752
  154.2524  135.2785  155.2813 H   0  0  0  0  0  0  0  0  0  0  0  0  # atno 10764 bound_to 10752
  154.5277  135.5797  153.6790 H   0  0  0  0  0  0  0  0  0  0  0  0  # atno 10765 bound_to 10752
  139.8844  134.8656  156.3384 H   0  0  0  0  0  0  0  0  0  0  0  0  # atno 11005 bound_to 11000
  146.2558  139.6299  142.9396 LP  0  0  0  0  0  0  0  0  0  0  0  0  # atno 17320 bound_to 7965
  145.5015  141.0437  143.2538 LP  0  0  0  0  0  0  0  0  0  0  0  0  # atno 17321 bound_to 7965
  140.6757  143.8195  150.7055 LP  0  0  0  0  0  0  0  0  0  0  0  0  # atno 17342 bound_to 10162
  140.1633  143.4257  152.2052 LP  0  0  0  0  0  0  0  0  0  0  0  0  # atno 17343 bound_to 10162
  157.6405  130.8802  149.9440 LP  0  0  0  0  0  0  0  0  0  0  0  0  # atno 17370 bound_to 10713
  156.0933  130.3661  150.0354 LP  0  0  0  0  0  0  0  0  0  0  0  0  # atno 17371 bound_to 10713
  140.9675  133.7348  156.0488 LP  0  0  0  0  0  0  0  0  0  0  0  0  # atno 17394 bound_to 11000
  140.7912  134.3615  157.5464 LP  0  0  0  0  0  0  0  0  0  0  0  0  # atno 17395 bound_to 11000

$$$$
