AV-unprocessed.smi:1181|AV-procd|sdf|4966|dock10
  -GOLD-   22720 3563D 1   1.00000     0.00000
 Structure written by MMmdl.
 44 45  0  0  0  0  0  0  0  0  1 V2000
  145.8698  136.9021  151.8372 C   0  0  0  0  0  0  0  0  0  0  0  0
  146.9901  137.6763  151.4468 O   0  0  0  0  0  0  0  0  0  0  0  0
  146.8215  139.0558  151.7286 C   0  0  0  0  0  0  0  0  0  0  0  0
  146.9913  139.2868  153.2331 C   0  0  0  0  0  0  0  0  0  0  0  0
  148.2772  138.8177  153.6271 O   0  0  0  0  0  0  0  0  0  0  0  0
  149.0168  139.5815  154.5061 C   0  0  0  0  0  0  0  0  0  0  0  0
  150.3021  139.1333  154.8693 C   0  0  0  0  0  0  0  0  0  0  0  0
  151.0612  139.9068  155.7672 C   0  0  0  0  0  0  0  0  0  0  0  0
  150.5201  141.1080  156.2671 C   0  0  0  0  0  0  0  0  0  0  0  0
  151.2983  141.8571  157.1893 N   0  0  0  0  0  0  0  0  0  0  0  0
  150.9046  142.8437  158.0188 C   0  0  0  0  0  0  0  0  0  0  0  0
  149.7495  143.2686  158.0601 O   0  0  0  0  0  0  0  0  0  0  0  0
  151.9007  143.3549  158.7878 N   0  0  0  0  0  0  0  0  0  0  0  0
  151.8431  144.5888  159.5913 C   0  0  0  0  0  0  0  0  0  0  0  0
  151.7782  144.2050  161.0803 C   0  0  0  0  0  0  0  0  0  0  0  0
  152.9843  143.3283  161.4811 C   0  0  0  0  0  0  0  0  0  0  0  0
  152.8810  142.8530  162.9366 C   0  0  0  0  0  0  0  0  0  0  0  0
  153.1564  142.1447  160.5040 C   0  0  0  0  0  0  0  0  0  0  0  0
  153.1483  142.6216  159.0397 C   0  0  0  0  0  0  0  0  0  0  0  0
  149.2147  141.4670  155.8522 C   0  0  0  0  0  0  0  0  0  0  0  0
  148.4808  140.7281  154.9930 N   0  0  0  0  0  0  0  0  0  0  0  0
  146.0485  135.8536  151.5996 H   0  0  0  0  0  0  0  0  0  0  0  0
  144.9687  137.2180  151.3102 H   0  0  0  0  0  0  0  0  0  0  0  0
  145.6927  136.9783  152.9109 H   0  0  0  0  0  0  0  0  0  0  0  0
  147.5766  139.6265  151.1860 H   0  0  0  0  0  0  0  0  0  0  0  0
  145.8431  139.4073  151.3970 H   0  0  0  0  0  0  0  0  0  0  0  0
  146.8639  140.3447  153.4695 H   0  0  0  0  0  0  0  0  0  0  0  0
  146.2221  138.7274  153.7682 H   0  0  0  0  0  0  0  0  0  0  0  0
  150.6975  138.2120  154.4677 H   0  0  0  0  0  0  0  0  0  0  0  0
  152.0480  139.5813  156.0631 H   0  0  0  0  0  0  0  0  0  0  0  0
  152.2893  141.6646  157.1772 H   0  0  0  0  0  0  0  0  0  0  0  0
  152.7390  145.1814  159.4004 H   0  0  0  0  0  0  0  0  0  0  0  0
  151.0105  145.2459  159.3406 H   0  0  0  0  0  0  0  0  0  0  0  0
  151.7508  145.1056  161.6944 H   0  0  0  0  0  0  0  0  0  0  0  0
  150.8482  143.6686  161.2751 H   0  0  0  0  0  0  0  0  0  0  0  0
  153.8785  143.9484  161.4022 H   0  0  0  0  0  0  0  0  0  0  0  0
  152.0004  142.2279  163.0880 H   0  0  0  0  0  0  0  0  0  0  0  0
  152.8108  143.6987  163.6214 H   0  0  0  0  0  0  0  0  0  0  0  0
  153.7568  142.2697  163.2219 H   0  0  0  0  0  0  0  0  0  0  0  0
  154.0870  141.6174  160.7162 H   0  0  0  0  0  0  0  0  0  0  0  0
  152.3520  141.4227  160.6520 H   0  0  0  0  0  0  0  0  0  0  0  0
  153.2824  141.7688  158.3730 H   0  0  0  0  0  0  0  0  0  0  0  0
  153.9998  143.2772  158.8527 H   0  0  0  0  0  0  0  0  0  0  0  0
  148.7202  142.3506  156.2247 H   0  0  0  0  0  0  0  0  0  0  0  0
  1  2  1  0  0  0  0
  1 22  1  0  0  0  0
  1 23  1  0  0  0  0
  1 24  1  0  0  0  0
  2  3  1  0  0  0  0
  3  4  1  0  0  0  0
  3 25  1  0  0  0  0
  3 26  1  0  0  0  0
  4  5  1  0  0  0  0
  4 27  1  0  0  0  0
  4 28  1  0  0  0  0
  5  6  1  0  0  0  0
  6 21  1  0  0  0  0
  6  7  2  0  0  0  0
  7  8  1  0  0  0  0
  7 29  1  0  0  0  0
  8  9  2  0  0  0  0
  8 30  1  0  0  0  0
  9 10  1  0  0  0  0
  9 20  1  0  0  0  0
 10 11  1  0  0  0  0
 10 31  1  0  0  0  0
 11 12  2  0  0  0  0
 11 13  1  0  0  0  0
 13 19  1  0  0  0  0
 13 14  1  0  0  0  0
 14 15  1  0  0  0  0
 14 32  1  0  0  0  0
 14 33  1  0  0  0  0
 15 16  1  0  0  0  0
 15 34  1  0  0  0  0
 15 35  1  0  0  0  0
 16 17  1  0  0  0  0
 16 18  1  0  0  0  0
 16 36  1  0  0  0  0
 17 37  1  0  0  0  0
 17 38  1  0  0  0  0
 17 39  1  0  0  0  0
 18 19  1  0  0  0  0
 18 40  1  0  0  0  0
 18 41  1  0  0  0  0
 19 42  1  0  0  0  0
 19 43  1  0  0  0  0
 20 21  2  0  0  0  0
 20 44  1  0  0  0  0
M  END
> <s_m_source_file>
AV-unprocessed.smi

> <i_m_source_file_index>
1181

> <i_lp_mmshare_version>
43012

> <i_f3d_flags>
0

> <s_epik_input>
W0NIM11PW0NIMl1bQ0gyXU9jMVtjSF1bY0hdYyhbY0hdbjEpW05IXUMoPU8pTjJbQ0gyXVtDSDJdW0NIXShbQ0gzXSlbQ0gyXVtDSDJdMg==

> <s_epik_cmdline>
J2VwaWtfcHl0aG9uJywgJy1waCcsICc3LjAnLCAnLXRuJywgJzgnLCAnLW1hJywgJzIwMCcsICctbWV0YWxfYmluZGluZycsICctaW1hZScsICc8aW5maWxlLm1hZT4nLCAnLW9tYWUnLCAnPG91dGZpbGUubWFlPic=

> <r_lp_tautomer_probability>
1

> <r_epik_Ionization_Penalty>
8.49399e-05

> <r_epik_Ionization_Penalty_Charging>
0

> <r_epik_Ionization_Penalty_Neutral>
8.49399e-05

> <r_epik_State_Penalty>
-0

> <r_epik_Charging_Adjusted_Penalty>
0

> <i_epik_Tot_Q>
0

> <i_epik_Tot_abs_Q>
0

> <r_epik_Metal_State_Penalty>
-0

> <b_epik_Metal_Only>
0

> <s_lp_Force_Field>
OPLS_2005

> <r_lp_Energy>
36.0421

> <b_lp_Chiralities_Consistent>
1

> <s_lp_Variant>
AV-unprocessed.smi:1181-1

> <Gold.Version>
5.8.1

> <Gold.Id.Protein>
6NUR|6NUR_protein|mol2

> <Gold.PLP.Fitness>
47.0151

> <Gold.PLP.PLP>
-43.1733

> <Gold.PLP.part.hbond>
-1.0000

> <Gold.PLP.part.metal>
0.0000

> <Gold.PLP.part.buried>
-2.4666

> <Gold.PLP.part.nonpolar>
-44.2622

> <Gold.PLP.part.repulsive>
5.8169

> <Gold.PLP.ligand.clash>
0.8693

> <Gold.PLP.ligand.torsion>
0.5228

> <Gold.PLP.Chemscore.Hbond>
1.0000

> <Gold.PLP.Chemscore.CHOScore>
0.9070

> <Gold.PLP.Chemscore.Metal>
0.0000

> <Gold.Chemscore.Hbonds>
donor molecule, donor type, donor heavy atom, donor atom, acceptor molecule, acceptor atom, score
      P1  H  7954  7966       L1     2  0.90
      L1  C    20    44       P1  8028  1.00

> <Gold.PLP.Chemscore.Internal.Correction>
0.0358

> <Gold.Rescore>
     Score         DG    S(hbond)    S(metal)    S(lipo)     H(rot)  DE(clash)    DE(int)     intcor
     13.92     -18.92       0.90        0.00     123.03       1.55       3.14       1.86       ----

> <Gold.Chemscore.Fitness>
13.9225

> <Gold.Chemscore.DG>
-18.9226

> <Gold.Chemscore.ZeroCoef>
-5.4800

> <Gold.Chemscore.Hbond>
0.9043

> <Gold.Chemscore.Metal>
0.0000

> <Gold.Chemscore.Lipo>
123.0298

> <Gold.Chemscore.Internal_Hbond>
0.0000

> <Gold.Chemscore.DEClash>
3.1444

> <Gold.Chemscore.DEInternal>
1.8557

> <Gold.Chemscore.Rot>
1.5517

> <Gold.Chemscore.Internal.Correction>
   9.000000E+99

> <Gold.Chemscore.Hbonds>
donor molecule, donor type, donor heavy atom, donor atom, acceptor molecule, acceptor atom, score
      P1  H  7954  7966       L1     2  0.18

> <Gold.Chemscore.Hbond.Weighted>
-3.0204

> <Gold.Chemscore.Metal.Weighted>
-0.0000

> <Gold.Chemscore.Lipo.Weighted>
-14.3945

> <Gold.Chemscore.Internal_Hbond.Weighted>
0.0000

> <Gold.Chemscore.DEClash.Weighted>
3.1444

> <Gold.Chemscore.DEInternal.Weighted>
1.8557

> <Gold.Chemscore.Rot.Weighted>
3.9723

> <Gold.Chemscore.Internal.Correction.Weighted>
   9.000000E+99

> <Gold.Protein.RotatedTorsions>
[ 6907 6896 6895 6894 ] final   96.90 input  -60.11 | X-H torsion
[ 7974 7965 7964 7962 ] final  -29.63 input  175.53 | X-H torsion
[ 8008 7997 7996 7995 ] final -134.62 input   59.86 | X-H torsion
[ 10167 10162 10161 10158 ] final -123.31 input  -65.29 | X-H torsion
[ 10718 10713 10712 10709 ] final  127.61 input   66.30 | X-H torsion
[ 10763 10752 10751 10750 ] final  179.62 input  -60.55 | X-H torsion
[ 11005 11000 10999 10996 ] final  101.22 input  -57.11 | X-H torsion

> <Gold.Protein.ActiveResidues>
 VAL166  LYS551  ARG553  GLY616  TRP617  ASP618  TYR619  PRO620  LYS621  CYS622 
 ASP623  PHE694  ASN695  SER759  ASP760  ASP761  ALA762  ILE779  LEU786  VAL792 
 PHE793  MET794  SER795  GLU796  ALA797  LYS798  CYS799  TRP800  GLU811  SER814 

> <Gold.Protein.RotatedAtoms>
  152.5430  134.0815  159.8237 H   0  0  0  0  0  0  0  0  0  0  0  0  # atno 6907 bound_to 6896
  151.0916  133.5304  159.2622 H   0  0  0  0  0  0  0  0  0  0  0  0  # atno 6908 bound_to 6896
  151.2093  135.0483  159.8959 H   0  0  0  0  0  0  0  0  0  0  0  0  # atno 6909 bound_to 6896
  146.1203  140.5436  142.8738 H   0  0  0  0  0  0  0  0  0  0  0  0  # atno 7974 bound_to 7965
  155.3651  140.0485  157.3046 H   0  0  0  0  0  0  0  0  0  0  0  0  # atno 8008 bound_to 7997
  154.5158  140.2208  155.9032 H   0  0  0  0  0  0  0  0  0  0  0  0  # atno 8009 bound_to 7997
  156.1634  140.3111  155.8853 H   0  0  0  0  0  0  0  0  0  0  0  0  # atno 8010 bound_to 7997
  140.0048  143.5503  152.2288 H   0  0  0  0  0  0  0  0  0  0  0  0  # atno 10167 bound_to 10162
  157.5318  131.1098  150.8997 H   0  0  0  0  0  0  0  0  0  0  0  0  # atno 10718 bound_to 10713
  154.5231  135.2795  155.1245 H   0  0  0  0  0  0  0  0  0  0  0  0  # atno 10763 bound_to 10752
  154.2795  135.6288  153.5345 H   0  0  0  0  0  0  0  0  0  0  0  0  # atno 10764 bound_to 10752
  152.9941  135.5648  154.5725 H   0  0  0  0  0  0  0  0  0  0  0  0  # atno 10765 bound_to 10752
  139.8773  134.9174  156.4874 H   0  0  0  0  0  0  0  0  0  0  0  0  # atno 11005 bound_to 11000
  144.7591  140.5378  143.6748 LP  0  0  0  0  0  0  0  0  0  0  0  0  # atno 17320 bound_to 7965
  145.5481  139.1476  143.3409 LP  0  0  0  0  0  0  0  0  0  0  0  0  # atno 17321 bound_to 7965
  139.6246  144.7635  151.2666 LP  0  0  0  0  0  0  0  0  0  0  0  0  # atno 17342 bound_to 10162
  140.7404  143.6587  150.8183 LP  0  0  0  0  0  0  0  0  0  0  0  0  # atno 17343 bound_to 10162
  156.9576  130.5443  149.5284 LP  0  0  0  0  0  0  0  0  0  0  0  0  # atno 17370 bound_to 10713
  156.0428  130.5508  150.8811 LP  0  0  0  0  0  0  0  0  0  0  0  0  # atno 17371 bound_to 10713
  140.8683  133.8007  155.9337 LP  0  0  0  0  0  0  0  0  0  0  0  0  # atno 17394 bound_to 11000
  140.8979  134.2415  157.5058 LP  0  0  0  0  0  0  0  0  0  0  0  0  # atno 17395 bound_to 11000

$$$$
