AV-unprocessed.smi:2060|AV-procd|sdf|8355|dock9
  -GOLD-   2272011 23D 1   1.00000     0.00000
 Structure written by MMmdl.
 45 46  0  0  0  0  0  0  0  0  1 V2000
  145.9192  138.8949  156.5126 C   0  0  0  0  0  0  0  0  0  0  0  0
  145.9775  138.7524  154.9806 C   0  0  0  0  0  0  0  0  0  0  0  0
  146.8898  139.7809  154.2394 C   0  0  2  0  0  0  0  0  0  0  0  0
  146.2746  141.1820  154.5031 C   0  0  0  0  0  0  0  0  0  0  0  0
  146.8184  139.4997  152.7036 C   0  0  0  0  0  0  0  0  0  0  0  0
  146.7701  138.0776  152.3618 N   0  0  0  0  0  0  0  0  0  0  0  0
  145.6602  137.3283  152.2853 C   0  0  0  0  0  0  0  0  0  0  0  0
  144.5272  137.7644  152.4915 O   0  0  0  0  0  0  0  0  0  0  0  0
  145.9515  136.0598  151.9507 N   0  0  0  0  0  0  0  0  0  0  0  0
  145.0458  134.9824  151.7766 C   0  0  0  0  0  0  0  0  0  0  0  0
  145.4973  133.7193  151.3101 C   0  0  0  0  0  0  0  0  0  0  0  0
  144.3522  132.9739  151.2825 C   0  0  0  0  0  0  0  0  0  0  0  0
  144.0716  131.5610  150.9000 C   0  0  0  0  0  0  0  0  0  0  0  0
  143.2919  133.7189  151.6979 O   0  0  0  0  0  0  0  0  0  0  0  0
  143.7429  135.0063  152.0123 N   0  0  0  0  0  0  0  0  0  0  0  0
  148.2879  139.7178  154.7532 N   0  0  0  0  0  0  0  0  0  0  0  0
  149.0121  140.9945  154.7637 C   0  0  0  0  0  0  0  0  0  0  0  0
  150.3881  140.8706  155.4405 C   0  0  0  0  0  0  0  0  0  0  0  0
  151.1552  139.8641  154.7906 O   0  0  0  0  0  0  0  0  0  0  0  0
  150.5119  138.5953  154.8068 C   0  0  0  0  0  0  0  0  0  0  0  0
  149.1398  138.7029  154.1208 C   0  0  0  0  0  0  0  0  0  0  0  0
  145.2623  138.1371  156.9398 H   0  0  0  0  0  0  0  0  0  0  0  0
  145.5307  139.8668  156.8148 H   0  0  0  0  0  0  0  0  0  0  0  0
  146.9001  138.7679  156.9707 H   0  0  0  0  0  0  0  0  0  0  0  0
  146.2777  137.7342  154.7331 H   0  0  0  0  0  0  0  0  0  0  0  0
  144.9543  138.8294  154.6124 H   0  0  0  0  0  0  0  0  0  0  0  0
  145.1938  141.1895  154.3590 H   0  0  0  0  0  0  0  0  0  0  0  0
  146.6792  141.9381  153.8300 H   0  0  0  0  0  0  0  0  0  0  0  0
  146.4639  141.5197  155.5223 H   0  0  0  0  0  0  0  0  0  0  0  0
  145.9166  139.9379  152.2779 H   0  0  0  0  0  0  0  0  0  0  0  0
  147.6495  139.9746  152.1818 H   0  0  0  0  0  0  0  0  0  0  0  0
  147.6554  137.6318  152.1708 H   0  0  0  0  0  0  0  0  0  0  0  0
  146.9259  135.8402  151.8057 H   0  0  0  0  0  0  0  0  0  0  0  0
  146.4953  133.4079  151.0398 H   0  0  0  0  0  0  0  0  0  0  0  0
  144.8328  131.1855  150.2159 H   0  0  0  0  0  0  0  0  0  0  0  0
  143.1036  131.4759  150.4057 H   0  0  0  0  0  0  0  0  0  0  0  0
  144.0606  130.9183  151.7804 H   0  0  0  0  0  0  0  0  0  0  0  0
  149.1553  141.3577  153.7462 H   0  0  0  0  0  0  0  0  0  0  0  0
  148.4487  141.7584  155.2967 H   0  0  0  0  0  0  0  0  0  0  0  0
  150.9245  141.8178  155.3843 H   0  0  0  0  0  0  0  0  0  0  0  0
  150.2774  140.6273  156.4983 H   0  0  0  0  0  0  0  0  0  0  0  0
  151.1394  137.8714  154.2870 H   0  0  0  0  0  0  0  0  0  0  0  0
  150.4029  138.2459  155.8348 H   0  0  0  0  0  0  0  0  0  0  0  0
  148.6718  137.7211  154.1553 H   0  0  0  0  0  0  0  0  0  0  0  0
  149.2965  138.9419  153.0691 H   0  0  0  0  0  0  0  0  0  0  0  0
  1  2  1  0  0  0  0
  1 22  1  0  0  0  0
  1 23  1  0  0  0  0
  1 24  1  0  0  0  0
  2  3  1  0  0  0  0
  2 25  1  0  0  0  0
  2 26  1  0  0  0  0
  3  4  1  0  0  0  0
  3  5  1  0  0  0  0
  3 16  1  0  0  0  0
  4 27  1  0  0  0  0
  4 28  1  0  0  0  0
  4 29  1  0  0  0  0
  5  6  1  0  0  0  0
  5 30  1  0  0  0  0
  5 31  1  0  0  0  0
  6  7  1  0  0  0  0
  6 32  1  0  0  0  0
  7  8  2  0  0  0  0
  7  9  1  0  0  0  0
  9 10  1  0  0  0  0
  9 33  1  0  0  0  0
 10 15  2  0  0  0  0
 10 11  1  0  0  0  0
 11 12  2  0  0  0  0
 11 34  1  0  0  0  0
 12 13  1  0  0  0  0
 12 14  1  0  0  0  0
 13 35  1  0  0  0  0
 13 36  1  0  0  0  0
 13 37  1  0  0  0  0
 14 15  1  0  0  0  0
 16 21  1  0  0  0  0
 16 17  1  0  0  0  0
 17 18  1  0  0  0  0
 17 38  1  0  0  0  0
 17 39  1  0  0  0  0
 18 19  1  0  0  0  0
 18 40  1  0  0  0  0
 18 41  1  0  0  0  0
 19 20  1  0  0  0  0
 20 21  1  0  0  0  0
 20 42  1  0  0  0  0
 20 43  1  0  0  0  0
 21 44  1  0  0  0  0
 21 45  1  0  0  0  0
M  END
> <s_m_source_file>
AV-unprocessed.smi

> <i_m_source_file_index>
2060

> <i_lp_mmshare_version>
43012

> <i_f3d_flags>
0

> <s_epik_input>
W0NIMl0xW0NIMl1PW0NIMl1bQ0gyXU4xW0NAQF0oW0NIM10pKFtDSDJdW0NIM10pW0NIMl1bTkhdQyg9TylbTkhdYzJbY0hdYyhbQ0gzXSlvbjI=

> <s_epik_cmdline>
J2VwaWtfcHl0aG9uJywgJy1waCcsICc3LjAnLCAnLXRuJywgJzgnLCAnLW1hJywgJzIwMCcsICctbWV0YWxfYmluZGluZycsICctaW1hZScsICc8aW5maWxlLm1hZT4nLCAnLW9tYWUnLCAnPG91dGZpbGUubWFlPic=

> <r_epik_Ionization_Penalty>
0.289127

> <r_epik_Ionization_Penalty_Charging>
0

> <r_epik_Ionization_Penalty_Neutral>
0.289127

> <r_epik_State_Penalty>
0.282056

> <r_epik_Charging_Adjusted_Penalty>
0.282056

> <i_epik_Tot_Q>
0

> <i_epik_Tot_abs_Q>
0

> <r_epik_Metal_State_Penalty>
0.284526

> <b_epik_Metal_Only>
0

> <s_lp_Force_Field>
OPLS_2005

> <r_lp_Energy>
40.1787

> <b_lp_Chiralities_Consistent>
1

> <s_lp_Variant>
AV-unprocessed.smi:2060-2

> <Gold.Version>
5.8.1

> <Gold.Id.Protein>
6NUR|6NUR_protein|mol2

> <Gold.PLP.Fitness>
36.2541

> <Gold.PLP.PLP>
-30.3625

> <Gold.PLP.part.hbond>
-3.0000

> <Gold.PLP.part.metal>
0.0000

> <Gold.PLP.part.buried>
-5.7431

> <Gold.PLP.part.nonpolar>
-23.0919

> <Gold.PLP.part.repulsive>
0.9050

> <Gold.PLP.ligand.clash>
0.0000

> <Gold.PLP.ligand.torsion>
1.6071

> <Gold.PLP.Chemscore.Hbond>
3.0000

> <Gold.PLP.Chemscore.CHOScore>
0.0000

> <Gold.PLP.Chemscore.Metal>
0.0000

> <Gold.Chemscore.Hbonds>
donor molecule, donor type, donor heavy atom, donor atom, acceptor molecule, acceptor atom, score
      L1  H     6    32       P1  7948  1.00
      L1  H     9    33       P1  7948  0.99
      P1  H  7989  7998       L1    19  0.75

> <Gold.PLP.Chemscore.Internal.Correction>
0.1060

> <Gold.Rescore>
     Score         DG    S(hbond)    S(metal)    S(lipo)     H(rot)  DE(clash)    DE(int)     intcor
     15.36     -18.36       2.85        0.00      66.24       1.71       0.18       2.81       ----

> <Gold.Chemscore.Fitness>
15.3647

> <Gold.Chemscore.DG>
-18.3560

> <Gold.Chemscore.ZeroCoef>
-5.4800

> <Gold.Chemscore.Hbond>
2.8485

> <Gold.Chemscore.Metal>
0.0000

> <Gold.Chemscore.Lipo>
66.2432

> <Gold.Chemscore.Internal_Hbond>
0.0000

> <Gold.Chemscore.DEClash>
0.1805

> <Gold.Chemscore.DEInternal>
2.8108

> <Gold.Chemscore.Rot>
1.7143

> <Gold.Chemscore.Internal.Correction>
   9.000000E+99

> <Gold.Chemscore.Hbonds>
donor molecule, donor type, donor heavy atom, donor atom, acceptor molecule, acceptor atom, score
      L1  H     6    32       P1  7948  0.99
      L1  H     9    33       P1  7948  0.91
      P1  H  7989  7998       L1    19  0.09

> <Gold.Chemscore.Hbond.Weighted>
-9.5141

> <Gold.Chemscore.Metal.Weighted>
-0.0000

> <Gold.Chemscore.Lipo.Weighted>
-7.7505

> <Gold.Chemscore.Internal_Hbond.Weighted>
0.0000

> <Gold.Chemscore.DEClash.Weighted>
0.1805

> <Gold.Chemscore.DEInternal.Weighted>
2.8108

> <Gold.Chemscore.Rot.Weighted>
4.3885

> <Gold.Chemscore.Internal.Correction.Weighted>
   9.000000E+99

> <Gold.Protein.RotatedTorsions>
[ 6907 6896 6895 6894 ] final  -49.98 input  -60.11 | X-H torsion
[ 7974 7965 7964 7962 ] final  156.09 input  175.53 | X-H torsion
[ 8008 7997 7996 7995 ] final  -20.02 input   59.86 | X-H torsion
[ 10167 10162 10161 10158 ] final  -77.24 input  -65.29 | X-H torsion
[ 10718 10713 10712 10709 ] final -174.84 input   66.30 | X-H torsion
[ 10763 10752 10751 10750 ] final   22.25 input  -60.55 | X-H torsion
[ 11005 11000 10999 10996 ] final  -23.35 input  -57.11 | X-H torsion

> <Gold.Protein.ActiveResidues>
 VAL166  LYS551  ARG553  GLY616  TRP617  ASP618  TYR619  PRO620  LYS621  CYS622 
 ASP623  PHE694  ASN695  SER759  ASP760  ASP761  ALA762  ILE779  LEU786  VAL792 
 PHE793  MET794  SER795  GLU796  ALA797  LYS798  CYS799  TRP800  GLU811  SER814 

> <Gold.Protein.RotatedAtoms>
  150.8752  134.8133  159.7184 H   0  0  0  0  0  0  0  0  0  0  0  0  # atno 6907 bound_to 6896
  152.4741  134.4883  159.9697 H   0  0  0  0  0  0  0  0  0  0  0  0  # atno 6908 bound_to 6896
  151.4966  133.3475  159.2897 H   0  0  0  0  0  0  0  0  0  0  0  0  # atno 6909 bound_to 6896
  144.7984  139.7156  143.6192 H   0  0  0  0  0  0  0  0  0  0  0  0  # atno 7974 bound_to 7965
  154.4798  140.2073  155.9791 H   0  0  0  0  0  0  0  0  0  0  0  0  # atno 8008 bound_to 7997
  156.1146  140.3223  155.8091 H   0  0  0  0  0  0  0  0  0  0  0  0  # atno 8009 bound_to 7997
  155.4574  140.0521  157.2985 H   0  0  0  0  0  0  0  0  0  0  0  0  # atno 8010 bound_to 7997
  140.4787  143.2408  151.8092 H   0  0  0  0  0  0  0  0  0  0  0  0  # atno 10167 bound_to 10162
  156.7911  130.9518  151.3120 H   0  0  0  0  0  0  0  0  0  0  0  0  # atno 10718 bound_to 10713
  153.0930  135.6652  153.9817 H   0  0  0  0  0  0  0  0  0  0  0  0  # atno 10763 bound_to 10752
  153.9408  135.2994  155.3444 H   0  0  0  0  0  0  0  0  0  0  0  0  # atno 10764 bound_to 10752
  154.7347  135.5107  153.9095 H   0  0  0  0  0  0  0  0  0  0  0  0  # atno 10765 bound_to 10752
  140.8743  133.7698  156.0224 H   0  0  0  0  0  0  0  0  0  0  0  0  # atno 11005 bound_to 11000
  146.2259  139.5722  142.9587 LP  0  0  0  0  0  0  0  0  0  0  0  0  # atno 17320 bound_to 7965
  145.5614  141.0404  143.2224 LP  0  0  0  0  0  0  0  0  0  0  0  0  # atno 17321 bound_to 7965
  139.4830  144.4800  151.9318 LP  0  0  0  0  0  0  0  0  0  0  0  0  # atno 17342 bound_to 10162
  140.3886  144.2645  150.5901 LP  0  0  0  0  0  0  0  0  0  0  0  0  # atno 17343 bound_to 10162
  157.6600  130.8958  149.9809 LP  0  0  0  0  0  0  0  0  0  0  0  0  # atno 17370 bound_to 10713
  156.1158  130.3648  149.9970 LP  0  0  0  0  0  0  0  0  0  0  0  0  # atno 17371 bound_to 10713
  140.8536  134.2924  157.5265 LP  0  0  0  0  0  0  0  0  0  0  0  0  # atno 17394 bound_to 11000
  139.8714  134.9481  156.3987 LP  0  0  0  0  0  0  0  0  0  0  0  0  # atno 17395 bound_to 11000

$$$$
