AV-unprocessed.smi:765|AV-procd|sdf|3645|dock4
  -GOLD-   22720 1 43D 1   1.00000     0.00000
 Structure written by MMmdl.
 39 40  0  0  0  0  0  0  0  0  1 V2000
  148.2751  141.6337  154.1021 C   0  0  0  0  0  0  0  0  0  0  0  0
  149.1990  140.7976  154.9989 C   0  0  2  0  0  0  0  0  0  0  0  0
  148.3941  139.8522  155.9086 C   0  0  0  0  0  0  0  0  0  0  0  0
  149.3137  139.0269  156.8194 C   0  0  0  0  0  0  0  0  0  0  0  0
  150.2344  139.9401  157.6448 C   0  0  0  0  0  0  0  0  0  0  0  0
  151.0789  140.8792  156.7554 C   0  0  2  0  0  0  0  0  0  0  0  0
  152.0139  140.0731  155.9444 C   0  0  0  0  0  0  0  0  0  0  0  0
  152.7468  139.4423  155.3084 N   0  0  0  0  0  0  0  0  0  0  0  0
  151.8086  141.7794  157.6506 N   0  0  0  0  0  0  0  0  0  0  0  0
  152.6168  141.4309  158.6664 C   0  0  0  0  0  0  0  0  0  0  0  0
  152.8706  140.2620  158.9580 O   0  0  0  0  0  0  0  0  0  0  0  0
  153.2184  142.5904  159.4757 C   0  0  2  0  0  0  0  0  0  0  0  0
  153.7026  142.1603  160.8729 C   0  0  0  0  0  0  0  0  0  0  0  0
  152.2664  143.6897  159.5702 N   0  0  0  0  0  0  0  0  0  0  0  0
  151.8549  144.3874  160.6898 C   0  0  0  0  0  0  0  0  0  0  0  0
  150.9577  145.3302  160.2779 C   0  0  0  0  0  0  0  0  0  0  0  0
  150.8850  145.1345  158.8707 C   0  0  0  0  0  0  0  0  0  0  0  0
  151.6691  144.1550  158.4507 N   0  0  0  0  0  0  0  0  0  0  0  0
  150.1268  141.6946  155.8441 C   0  0  0  0  0  0  0  0  0  0  0  0
  147.6198  142.2739  154.6935 H   0  0  0  0  0  0  0  0  0  0  0  0
  147.6455  140.9941  153.4829 H   0  0  0  0  0  0  0  0  0  0  0  0
  148.8512  142.2739  153.4335 H   0  0  0  0  0  0  0  0  0  0  0  0
  149.8202  140.1865  154.3429 H   0  0  0  0  0  0  0  0  0  0  0  0
  147.7018  140.4310  156.5215 H   0  0  0  0  0  0  0  0  0  0  0  0
  147.7829  139.1816  155.3035 H   0  0  0  0  0  0  0  0  0  0  0  0
  148.7141  138.4060  157.4856 H   0  0  0  0  0  0  0  0  0  0  0  0
  149.9108  138.3419  156.2167 H   0  0  0  0  0  0  0  0  0  0  0  0
  149.6238  140.5291  158.3311 H   0  0  0  0  0  0  0  0  0  0  0  0
  150.8883  139.3284  158.2681 H   0  0  0  0  0  0  0  0  0  0  0  0
  151.6646  142.7672  157.4980 H   0  0  0  0  0  0  0  0  0  0  0  0
  154.0917  142.9438  158.9237 H   0  0  0  0  0  0  0  0  0  0  0  0
  154.4208  141.3422  160.8087 H   0  0  0  0  0  0  0  0  0  0  0  0
  152.8764  141.8298  161.5039 H   0  0  0  0  0  0  0  0  0  0  0  0
  154.1957  142.9878  161.3836 H   0  0  0  0  0  0  0  0  0  0  0  0
  152.2305  144.1555  161.6758 H   0  0  0  0  0  0  0  0  0  0  0  0
  150.4343  146.0510  160.8884 H   0  0  0  0  0  0  0  0  0  0  0  0
  150.2907  145.6721  158.1468 H   0  0  0  0  0  0  0  0  0  0  0  0
  150.7039  142.3361  155.1773 H   0  0  0  0  0  0  0  0  0  0  0  0
  149.5192  142.3635  156.4560 H   0  0  0  0  0  0  0  0  0  0  0  0
  1  2  1  0  0  0  0
  1 20  1  0  0  0  0
  1 21  1  0  0  0  0
  1 22  1  0  0  0  0
  2 19  1  0  0  0  0
  2  3  1  0  0  0  0
  2 23  1  0  0  0  0
  3  4  1  0  0  0  0
  3 24  1  0  0  0  0
  3 25  1  0  0  0  0
  4  5  1  0  0  0  0
  4 26  1  0  0  0  0
  4 27  1  0  0  0  0
  5  6  1  0  0  0  0
  5 28  1  0  0  0  0
  5 29  1  0  0  0  0
  6  7  1  0  0  0  0
  6  9  1  0  0  0  0
  6 19  1  0  0  0  0
  7  8  3  0  0  0  0
  9 10  1  0  0  0  0
  9 30  1  0  0  0  0
 10 11  2  0  0  0  0
 10 12  1  0  0  0  0
 12 13  1  0  0  0  0
 12 14  1  0  0  0  0
 12 31  1  0  0  0  0
 13 32  1  0  0  0  0
 13 33  1  0  0  0  0
 13 34  1  0  0  0  0
 14 18  1  0  0  0  0
 14 15  1  0  0  0  0
 15 16  2  0  0  0  0
 15 35  1  0  0  0  0
 16 17  1  0  0  0  0
 16 36  1  0  0  0  0
 17 18  2  0  0  0  0
 17 37  1  0  0  0  0
 19 38  1  0  0  0  0
 19 39  1  0  0  0  0
M  END
> <s_m_source_file>
AV-unprocessed.smi

> <i_m_source_file_index>
765

> <i_lp_mmshare_version>
43012

> <i_f3d_flags>
0

> <s_epik_input>
W0NIM11bQ0BASF0oW0NIMl0xKVtDSDJdW0NIMl1bQ0gyXVtDQEBdMShDI04pW05IXUMoPU8pW0NASF0oW0NIM10pbjJbY0hdW2NIXVtjSF1uMg==

> <s_epik_cmdline>
J2VwaWtfcHl0aG9uJywgJy1waCcsICc3LjAnLCAnLXRuJywgJzgnLCAnLW1hJywgJzIwMCcsICctbWV0YWxfYmluZGluZycsICctaW1hZScsICc8aW5maWxlLm1hZT4nLCAnLW9tYWUnLCAnPG91dGZpbGUubWFlPic=

> <r_lp_tautomer_probability>
1

> <r_epik_Ionization_Penalty>
2.71142e-05

> <r_epik_Ionization_Penalty_Charging>
0

> <r_epik_Ionization_Penalty_Neutral>
2.71142e-05

> <r_epik_State_Penalty>
-0

> <r_epik_Charging_Adjusted_Penalty>
0

> <i_epik_Tot_Q>
0

> <i_epik_Tot_abs_Q>
0

> <r_epik_Metal_State_Penalty>
-0

> <b_epik_Metal_Only>
0

> <s_lp_Force_Field>
OPLS_2005

> <r_lp_Energy>
10.9875

> <b_lp_Chiralities_Consistent>
1

> <s_lp_Variant>
AV-unprocessed.smi:765-3

> <Gold.Version>
5.8.1

> <Gold.Id.Protein>
6NUR|6NUR_protein|mol2

> <Gold.PLP.Fitness>
44.0695

> <Gold.PLP.PLP>
-39.5899

> <Gold.PLP.part.hbond>
-1.0827

> <Gold.PLP.part.metal>
0.0000

> <Gold.PLP.part.buried>
-4.3550

> <Gold.PLP.part.nonpolar>
-34.4275

> <Gold.PLP.part.repulsive>
0.1576

> <Gold.PLP.ligand.clash>
0.0000

> <Gold.PLP.ligand.torsion>
0.7938

> <Gold.PLP.Chemscore.Hbond>
1.0000

> <Gold.PLP.Chemscore.CHOScore>
1.0000

> <Gold.PLP.Chemscore.Metal>
0.0000

> <Gold.Chemscore.Hbonds>
donor molecule, donor type, donor heavy atom, donor atom, acceptor molecule, acceptor atom, score
      P1  H  7997  8008       L1     8  0.95
      L1  C    17    37       P1  8029  0.97

> <Gold.PLP.Chemscore.Internal.Correction>
0.0672

> <Gold.Rescore>
     Score         DG    S(hbond)    S(metal)    S(lipo)     H(rot)  DE(clash)    DE(int)     intcor
     10.80     -14.50       0.70        0.00      88.18       1.42       0.15       3.55       ----

> <Gold.Chemscore.Fitness>
10.8037

> <Gold.Chemscore.DG>
-14.5017

> <Gold.Chemscore.ZeroCoef>
-5.4800

> <Gold.Chemscore.Hbond>
0.6994

> <Gold.Chemscore.Metal>
0.0000

> <Gold.Chemscore.Lipo>
88.1765

> <Gold.Chemscore.Internal_Hbond>
0.0000

> <Gold.Chemscore.DEClash>
0.1478

> <Gold.Chemscore.DEInternal>
3.5502

> <Gold.Chemscore.Rot>
1.4183

> <Gold.Chemscore.Internal.Correction>
   9.000000E+99

> <Gold.Chemscore.Hbonds>
donor molecule, donor type, donor heavy atom, donor atom, acceptor molecule, acceptor atom, score
      P1  H  7997  8008       L1     8  0.21

> <Gold.Chemscore.Hbond.Weighted>
-2.3359

> <Gold.Chemscore.Metal.Weighted>
-0.0000

> <Gold.Chemscore.Lipo.Weighted>
-10.3167

> <Gold.Chemscore.Internal_Hbond.Weighted>
0.0000

> <Gold.Chemscore.DEClash.Weighted>
0.1478

> <Gold.Chemscore.DEInternal.Weighted>
3.5502

> <Gold.Chemscore.Rot.Weighted>
3.6309

> <Gold.Chemscore.Internal.Correction.Weighted>
   9.000000E+99

> <Gold.Protein.RotatedTorsions>
[ 6907 6896 6895 6894 ] final  167.10 input  -60.11 | X-H torsion
[ 7974 7965 7964 7962 ] final   35.07 input  175.53 | X-H torsion
[ 8008 7997 7996 7995 ] final  -19.79 input   59.86 | X-H torsion
[ 10167 10162 10161 10158 ] final -116.94 input  -65.29 | X-H torsion
[ 10718 10713 10712 10709 ] final -119.32 input   66.30 | X-H torsion
[ 10763 10752 10751 10750 ] final -108.28 input  -60.55 | X-H torsion
[ 11005 11000 10999 10996 ] final   86.00 input  -57.11 | X-H torsion

> <Gold.Protein.ActiveResidues>
 VAL166  LYS551  ARG553  GLY616  TRP617  ASP618  TYR619  PRO620  LYS621  CYS622 
 ASP623  PHE694  ASN695  SER759  ASP760  ASP761  ALA762  ILE779  LEU786  VAL792 
 PHE793  MET794  SER795  GLU796  ALA797  LYS798  CYS799  TRP800  GLU811  SER814 

> <Gold.Protein.RotatedAtoms>
  151.8685  133.3471  159.3726 H   0  0  0  0  0  0  0  0  0  0  0  0  # atno 6907 bound_to 6896
  150.7159  134.5136  159.5628 H   0  0  0  0  0  0  0  0  0  0  0  0  # atno 6908 bound_to 6896
  152.2664  134.7980  160.0473 H   0  0  0  0  0  0  0  0  0  0  0  0  # atno 6909 bound_to 6896
  146.1309  139.6189  142.9227 H   0  0  0  0  0  0  0  0  0  0  0  0  # atno 7974 bound_to 7965
  154.4813  140.2079  155.9757 H   0  0  0  0  0  0  0  0  0  0  0  0  # atno 8008 bound_to 7997
  156.1169  140.3220  155.8122 H   0  0  0  0  0  0  0  0  0  0  0  0  # atno 8009 bound_to 7997
  155.4536  140.0519  157.2989 H   0  0  0  0  0  0  0  0  0  0  0  0  # atno 8010 bound_to 7997
  140.0738  143.4852  152.1965 H   0  0  0  0  0  0  0  0  0  0  0  0  # atno 10167 bound_to 10162
  156.1172  130.6295  150.9401 H   0  0  0  0  0  0  0  0  0  0  0  0  # atno 10718 bound_to 10713
  154.8126  135.4644  154.0557 H   0  0  0  0  0  0  0  0  0  0  0  0  # atno 10763 bound_to 10752
  153.1975  135.6864  153.8279 H   0  0  0  0  0  0  0  0  0  0  0  0  # atno 10764 bound_to 10752
  153.7776  135.3261  155.3338 H   0  0  0  0  0  0  0  0  0  0  0  0  # atno 10765 bound_to 10752
  139.8956  134.8325  156.2660 H   0  0  0  0  0  0  0  0  0  0  0  0  # atno 11005 bound_to 11000
  145.5263  141.0429  143.2407 LP  0  0  0  0  0  0  0  0  0  0  0  0  # atno 17320 bound_to 7965
  144.7689  139.6780  143.7203 LP  0  0  0  0  0  0  0  0  0  0  0  0  # atno 17321 bound_to 7965
  139.5820  144.7514  151.3616 LP  0  0  0  0  0  0  0  0  0  0  0  0  # atno 17342 bound_to 10162
  140.7112  143.7385  150.7571 LP  0  0  0  0  0  0  0  0  0  0  0  0  # atno 17343 bound_to 10162
  157.6355  131.0916  150.8356 LP  0  0  0  0  0  0  0  0  0  0  0  0  # atno 17370 bound_to 10713
  156.8458  130.5063  149.5316 LP  0  0  0  0  0  0  0  0  0  0  0  0  # atno 17371 bound_to 10713
  141.0131  133.7084  156.1145 LP  0  0  0  0  0  0  0  0  0  0  0  0  # atno 17394 bound_to 11000
  140.7339  134.4224  157.5563 LP  0  0  0  0  0  0  0  0  0  0  0  0  # atno 17395 bound_to 11000

$$$$
