AV-unprocessed.smi:1033|AV-procd|sdf|4511|dock7
  -GOLD-   22720 2523D 1   1.00000     0.00000
 Structure written by MMmdl.
 57 59  0  0  0  0  0  0  0  0  3 V2000
  152.5076  142.1152  158.9528 C   0  0  0  0  0  0  0  0  0  0  0  0
  152.0751  141.0068  158.0087 C   0  0  0  0  0  0  0  0  0  0  0  0
  151.4411  141.3483  156.7930 C   0  0  0  0  0  0  0  0  0  0  0  0
  151.0248  140.3484  155.8873 C   0  0  0  0  0  0  0  0  0  0  0  0
  150.3909  140.4532  154.6611 N   0  0  0  0  0  0  0  0  0  0  0  0
  150.2682  139.1764  154.3117 C   0  0  0  0  0  0  0  0  0  0  0  0
  150.7380  138.2539  155.1733 N   0  0  0  0  0  0  0  0  0  0  0  0
  150.6981  136.8121  155.0124 C   0  0  0  0  0  0  0  0  0  0  0  0
  149.2989  136.2269  155.2882 C   0  0  1  0  0  0  0  0  0  0  0  0
  148.4346  136.6738  154.2635 O   0  0  0  0  0  0  0  0  0  0  0  0
  149.2707  134.6823  155.3255 C   0  0  0  0  0  0  0  0  0  0  0  0
  147.9141  134.1272  155.0834 N   0  3  2  0  0  0  0  0  0  0  0  0
  146.8664  134.7185  155.9565 C   0  0  0  0  0  0  0  0  0  0  0  0
  145.4702  134.1509  155.6257 C   0  0  0  0  0  0  0  0  0  0  0  0
  145.4420  132.6645  155.6570 N   0  3  2  0  0  0  0  0  0  0  0  0
  145.4043  132.0698  157.0208 C   0  0  0  0  0  0  0  0  0  0  0  0
  144.3040  132.6927  157.9020 C   0  0  2  0  0  0  0  0  0  0  0  0
  144.1797  131.9851  159.2575 C   0  0  0  0  0  0  0  0  0  0  0  0
  143.0632  132.5889  157.2339 O   0  0  0  0  0  0  0  0  0  0  0  0
  146.5014  132.0931  154.7887 C   0  0  0  0  0  0  0  0  0  0  0  0
  147.8939  132.6447  155.1477 C   0  0  0  0  0  0  0  0  0  0  0  0
  151.2600  138.9860  156.2350 C   0  0  0  0  0  0  0  0  0  0  0  0
  151.8905  138.6332  157.4416 C   0  0  0  0  0  0  0  0  0  0  0  0
  152.3016  139.6452  158.3343 C   0  0  0  0  0  0  0  0  0  0  0  0
  152.9857  139.2553  159.6327 C   0  0  0  0  0  0  0  0  0  0  0  0
  152.2733  143.0993  158.5455 H   0  0  0  0  0  0  0  0  0  0  0  0
  153.5831  142.0726  159.1259 H   0  0  0  0  0  0  0  0  0  0  0  0
  151.9981  142.0208  159.9120 H   0  0  0  0  0  0  0  0  0  0  0  0
  151.2691  142.3856  156.5446 H   0  0  0  0  0  0  0  0  0  0  0  0
  149.8026  138.8937  153.3786 H   0  0  0  0  0  0  0  0  0  0  0  0
  151.0139  136.5750  153.9951 H   0  0  0  0  0  0  0  0  0  0  0  0
  151.4387  136.3672  155.6784 H   0  0  0  0  0  0  0  0  0  0  0  0
  148.9381  136.6353  156.2318 H   0  0  0  0  0  0  0  0  0  0  0  0
  148.7182  136.3010  153.4420 H   0  0  0  0  0  0  0  0  0  0  0  0
  149.9629  134.3090  154.5690 H   0  0  0  0  0  0  0  0  0  0  0  0
  149.6346  134.3040  156.2812 H   0  0  0  0  0  0  0  0  0  0  0  0
  147.1153  134.5339  157.0023 H   0  0  0  0  0  0  0  0  0  0  0  0
  146.8404  135.8005  155.8342 H   0  0  0  0  0  0  0  0  0  0  0  0
  144.7223  134.5710  156.2970 H   0  0  0  0  0  0  0  0  0  0  0  0
  145.1843  134.4709  154.6227 H   0  0  0  0  0  0  0  0  0  0  0  0
  145.2194  130.9967  156.9495 H   0  0  0  0  0  0  0  0  0  0  0  0
  146.3777  132.1730  157.5003 H   0  0  0  0  0  0  0  0  0  0  0  0
  144.5064  133.7478  158.0831 H   0  0  0  0  0  0  0  0  0  0  0  0
  145.1090  132.0580  159.8233 H   0  0  0  0  0  0  0  0  0  0  0  0
  143.9470  130.9265  159.1365 H   0  0  0  0  0  0  0  0  0  0  0  0
  143.3912  132.4320  159.8642 H   0  0  0  0  0  0  0  0  0  0  0  0
  143.1934  132.1306  156.4173 H   0  0  0  0  0  0  0  0  0  0  0  0
  146.4923  131.0038  154.8410 H   0  0  0  0  0  0  0  0  0  0  0  0
  146.2685  132.3465  153.7535 H   0  0  0  0  0  0  0  0  0  0  0  0
  148.6284  132.2379  154.4516 H   0  0  0  0  0  0  0  0  0  0  0  0
  148.1897  132.3167  156.1455 H   0  0  0  0  0  0  0  0  0  0  0  0
  152.0585  137.5932  157.6785 H   0  0  0  0  0  0  0  0  0  0  0  0
  153.0527  138.1721  159.7384 H   0  0  0  0  0  0  0  0  0  0  0  0
  152.4322  139.6412  160.4889 H   0  0  0  0  0  0  0  0  0  0  0  0
  153.9985  139.6575  159.6650 H   0  0  0  0  0  0  0  0  0  0  0  0
  144.5659  132.3856  155.2362 H   0  0  0  0  0  0  0  0  0  0  0  0
  147.6791  134.3716  154.1312 H   0  0  0  0  0  0  0  0  0  0  0  0
  1  2  1  0  0  0  0
  1 26  1  0  0  0  0
  1 27  1  0  0  0  0
  1 28  1  0  0  0  0
  2 24  1  0  0  0  0
  2  3  2  0  0  0  0
  3  4  1  0  0  0  0
  3 29  1  0  0  0  0
  4 22  2  0  0  0  0
  4  5  1  0  0  0  0
  5  6  2  0  0  0  0
  6  7  1  0  0  0  0
  6 30  1  0  0  0  0
  7  8  1  0  0  0  0
  7 22  1  0  0  0  0
  8  9  1  0  0  0  0
  8 31  1  0  0  0  0
  8 32  1  0  0  0  0
  9 10  1  0  0  0  0
  9 11  1  0  0  0  0
  9 33  1  0  0  0  0
 10 34  1  0  0  0  0
 11 12  1  0  0  0  0
 11 35  1  0  0  0  0
 11 36  1  0  0  0  0
 12 21  1  0  0  0  0
 12 13  1  0  0  0  0
 12 57  1  0  0  0  0
 13 14  1  0  0  0  0
 13 37  1  0  0  0  0
 13 38  1  0  0  0  0
 14 15  1  0  0  0  0
 14 39  1  0  0  0  0
 14 40  1  0  0  0  0
 15 16  1  0  0  0  0
 15 20  1  0  0  0  0
 15 56  1  0  0  0  0
 16 17  1  0  0  0  0
 16 41  1  0  0  0  0
 16 42  1  0  0  0  0
 17 18  1  0  0  0  0
 17 19  1  0  0  0  0
 17 43  1  0  0  0  0
 18 44  1  0  0  0  0
 18 45  1  0  0  0  0
 18 46  1  0  0  0  0
 19 47  1  0  0  0  0
 20 21  1  0  0  0  0
 20 48  1  0  0  0  0
 20 49  1  0  0  0  0
 21 50  1  0  0  0  0
 21 51  1  0  0  0  0
 22 23  1  0  0  0  0
 23 24  2  0  0  0  0
 23 52  1  0  0  0  0
 24 25  1  0  0  0  0
 25 53  1  0  0  0  0
 25 54  1  0  0  0  0
 25 55  1  0  0  0  0
M  CHG  1  12   1
M  CHG  1  15   1
M  END
> <s_m_source_file>
AV-unprocessed.smi

> <i_m_source_file_index>
1033

> <i_lp_mmshare_version>
43012

> <i_f3d_flags>
0

> <s_epik_input>
W0NIM11jKFtjSF0xKWMoW0NIM10pW2NIXWMoYzEyKW4oW2NIXW4yKVtDSDJdW0NASF0oW09IXSlbQ0gyXU4zW0NIMl1bQ0gyXU4oW0NIMl1bQ0gyXTMpW0NIMl1bQ0BIXShbQ0gzXSlbT0hd

> <s_epik_cmdline>
J2VwaWtfcHl0aG9uJywgJy1waCcsICc3LjAnLCAnLXRuJywgJzgnLCAnLW1hJywgJzIwMCcsICctbWV0YWxfYmluZGluZycsICctaW1hZScsICc8aW5maWxlLm1hZT4nLCAnLW9tYWUnLCAnPG91dGZpbGUubWFlPic=

> <r_epik_Ionization_Penalty>
3.16016

> <r_epik_Ionization_Penalty_Charging>
3.07679

> <r_epik_Ionization_Penalty_Neutral>
0.083365

> <r_epik_State_Penalty>
2.09701

> <r_epik_Charging_Adjusted_Penalty>
5.1738

> <i_epik_Tot_Q>
2

> <i_epik_Tot_abs_Q>
2

> <r_epik_Metal_State_Penalty>
2.02534

> <b_epik_Metal_Only>
0

> <s_lp_Force_Field>
OPLS_2005

> <r_lp_Energy>
29.7714

> <b_lp_Chiralities_Consistent>
1

> <s_lp_Variant>
AV-unprocessed.smi:1033-22

> <Gold.Version>
5.8.1

> <Gold.Id.Protein>
6NUR|6NUR_protein|mol2

> <Gold.PLP.Fitness>
51.4723

> <Gold.PLP.PLP>
-31.4888

> <Gold.PLP.part.hbond>
-4.6304

> <Gold.PLP.part.metal>
0.0000

> <Gold.PLP.part.buried>
-4.2948

> <Gold.PLP.part.nonpolar>
-21.9851

> <Gold.PLP.part.repulsive>
0.1146

> <Gold.PLP.ligand.clash>
0.0000

> <Gold.PLP.ligand.torsion>
0.5221

> <Gold.PLP.Chemscore.Hbond>
5.9920

> <Gold.PLP.Chemscore.CHOScore>
0.9623

> <Gold.PLP.Chemscore.Metal>
0.0000

> <Gold.Chemscore.Hbonds>
donor molecule, donor type, donor heavy atom, donor atom, acceptor molecule, acceptor atom, score
      L1  H    10    34       P1  7948  1.00
      L1  H    15    56       P1 10957  2.00
      L1  H    19    47       P1 10957  0.99
      P1  H  7989  7998       L1     5  0.85
      P1  H 11000 11005       L1    19  0.54
      L1  C     6    30       P1  7957  1.00

> <Gold.PLP.Chemscore.Internal.Correction>
0.1651

> <Gold.Rescore>
     Score         DG    S(hbond)    S(metal)    S(lipo)     H(rot)  DE(clash)    DE(int)     intcor
     18.45     -20.48       4.34        0.00      72.97       3.14       0.02       2.01       ----

> <Gold.Chemscore.Fitness>
18.4542

> <Gold.Chemscore.DG>
-20.4833

> <Gold.Chemscore.ZeroCoef>
-5.4800

> <Gold.Chemscore.Hbond>
4.3411

> <Gold.Chemscore.Metal>
0.0000

> <Gold.Chemscore.Lipo>
72.9689

> <Gold.Chemscore.Internal_Hbond>
0.0000

> <Gold.Chemscore.DEClash>
0.0189

> <Gold.Chemscore.DEInternal>
2.0103

> <Gold.Chemscore.Rot>
3.1380

> <Gold.Chemscore.Internal.Correction>
   9.000000E+99

> <Gold.Chemscore.Hbonds>
donor molecule, donor type, donor heavy atom, donor atom, acceptor molecule, acceptor atom, score
      L1  H    10    34       P1  7948  0.97
      L1  H    15    56       P1 10957  0.87
      L1  H    19    47       P1 10957  0.94
      P1  H  7989  7998       L1     5  0.08
      P1  H 11000 11005       L1    19  0.35

> <Gold.Chemscore.Hbond.Weighted>
-14.4991

> <Gold.Chemscore.Metal.Weighted>
-0.0000

> <Gold.Chemscore.Lipo.Weighted>
-8.5374

> <Gold.Chemscore.Internal_Hbond.Weighted>
0.0000

> <Gold.Chemscore.DEClash.Weighted>
0.0189

> <Gold.Chemscore.DEInternal.Weighted>
2.0103

> <Gold.Chemscore.Rot.Weighted>
8.0332

> <Gold.Chemscore.Internal.Correction.Weighted>
   9.000000E+99

> <Gold.Protein.RotatedTorsions>
[ 6907 6896 6895 6894 ] final  152.52 input  -60.11 | X-H torsion
[ 7974 7965 7964 7962 ] final -139.98 input  175.53 | X-H torsion
[ 8008 7997 7996 7995 ] final -175.36 input   59.86 | X-H torsion
[ 10167 10162 10161 10158 ] final  -71.83 input  -65.29 | X-H torsion
[ 10718 10713 10712 10709 ] final  -87.29 input   66.30 | X-H torsion
[ 10763 10752 10751 10750 ] final  -68.86 input  -60.55 | X-H torsion
[ 11005 11000 10999 10996 ] final  -96.65 input  -57.11 | X-H torsion

> <Gold.Protein.ActiveResidues>
 VAL166  LYS551  ARG553  GLY616  TRP617  ASP618  TYR619  PRO620  LYS621  CYS622 
 ASP623  PHE694  ASN695  SER759  ASP760  ASP761  ALA762  ILE779  LEU786  VAL792 
 PHE793  MET794  SER795  GLU796  ALA797  LYS798  CYS799  TRP800  GLU811  SER814 

> <Gold.Protein.RotatedAtoms>
  152.0855  133.4174  159.4520 H   0  0  0  0  0  0  0  0  0  0  0  0  # atno 6907 bound_to 6896
  150.6862  134.2932  159.4684 H   0  0  0  0  0  0  0  0  0  0  0  0  # atno 6908 bound_to 6896
  152.0778  134.9491  160.0624 H   0  0  0  0  0  0  0  0  0  0  0  0  # atno 6909 bound_to 6896
  144.8633  140.6254  143.5314 H   0  0  0  0  0  0  0  0  0  0  0  0  # atno 7974 bound_to 7965
  155.9816  140.1183  157.0721 H   0  0  0  0  0  0  0  0  0  0  0  0  # atno 8008 bound_to 7997
  154.4184  140.1143  156.5510 H   0  0  0  0  0  0  0  0  0  0  0  0  # atno 8009 bound_to 7997
  155.6464  140.3473  155.4735 H   0  0  0  0  0  0  0  0  0  0  0  0  # atno 8010 bound_to 7997
  140.5241  143.2328  151.7378 H   0  0  0  0  0  0  0  0  0  0  0  0  # atno 10167 bound_to 10162
  155.9986  130.4794  150.4844 H   0  0  0  0  0  0  0  0  0  0  0  0  # atno 10718 bound_to 10713
  154.3950  135.6044  153.5865 H   0  0  0  0  0  0  0  0  0  0  0  0  # atno 10763 bound_to 10752
  152.9787  135.5893  154.4252 H   0  0  0  0  0  0  0  0  0  0  0  0  # atno 10764 bound_to 10752
  154.4042  135.2843  155.2056 H   0  0  0  0  0  0  0  0  0  0  0  0  # atno 10765 bound_to 10752
  141.1404  133.8113  157.0600 H   0  0  0  0  0  0  0  0  0  0  0  0  # atno 11005 bound_to 11000
  145.4269  139.1555  143.4043 LP  0  0  0  0  0  0  0  0  0  0  0  0  # atno 17320 bound_to 7965
  146.2877  140.4383  142.8751 LP  0  0  0  0  0  0  0  0  0  0  0  0  # atno 17321 bound_to 7965
  139.4932  144.4211  151.9976 LP  0  0  0  0  0  0  0  0  0  0  0  0  # atno 17342 bound_to 10162
  140.3310  144.3317  150.5987 LP  0  0  0  0  0  0  0  0  0  0  0  0  # atno 17343 bound_to 10162
  157.2846  131.0614  151.2175 LP  0  0  0  0  0  0  0  0  0  0  0  0  # atno 17370 bound_to 10713
  157.3209  130.6937  149.6269 LP  0  0  0  0  0  0  0  0  0  0  0  0  # atno 17371 bound_to 10713
  140.0577  134.9771  157.1250 LP  0  0  0  0  0  0  0  0  0  0  0  0  # atno 17394 bound_to 11000
  140.3895  134.2200  155.7167 LP  0  0  0  0  0  0  0  0  0  0  0  0  # atno 17395 bound_to 11000

$$$$
