AV-unprocessed.smi:3348|AV-procd|sdf|12917|dock2
  -GOLD-   2272019333D 1   1.00000     0.00000
 Structure written by MMmdl.
 47 48  0  0  0  0  0  0  0  0  2 V2000
  143.9352  136.0072  152.7386 C   0  0  0  0  0  0  0  0  0  0  0  0
  145.2575  136.0624  151.9614 C   0  0  2  0  0  0  0  0  0  0  0  0
  145.0967  135.3807  150.5833 C   0  0  0  0  0  0  0  0  0  0  0  0
  145.1309  133.9304  150.6391 N   0  0  0  0  0  0  0  0  0  0  0  0
  144.0922  133.0419  150.4539 C   0  0  0  0  0  0  0  0  0  0  0  0
  144.6059  131.7836  150.5848 C   0  0  0  0  0  0  0  0  0  0  0  0
  145.9876  132.0070  150.8413 C   0  0  0  0  0  0  0  0  0  0  0  0
  146.2996  133.2929  150.8678 N   0  0  0  0  0  0  0  0  0  0  0  0
  146.3201  135.4232  152.7725 N   0  3  0  0  0  0  0  0  0  0  0  0
  146.5429  136.0100  154.1114 C   0  0  0  0  0  0  0  0  0  0  0  0
  146.2518  137.5130  154.1064 C   0  0  0  0  0  0  0  0  0  0  0  0
  147.4145  138.1959  154.5487 O   0  0  0  0  0  0  0  0  0  0  0  0
  148.0266  139.0253  153.5666 C   0  0  1  0  0  0  0  0  0  0  0  0
  147.0704  140.1665  153.1575 C   0  0  0  0  0  0  0  0  0  0  0  0
  146.7837  141.1152  154.3329 C   0  0  0  0  0  0  0  0  0  0  0  0
  148.0854  141.6767  154.9244 C   0  0  0  0  0  0  0  0  0  0  0  0
  149.0469  140.5492  155.3336 C   0  0  0  0  0  0  0  0  0  0  0  0
  149.3359  139.5955  154.1566 C   0  0  1  0  0  0  0  0  0  0  0  0
  150.3236  138.4851  154.5482 C   0  0  0  0  0  0  0  0  0  0  0  0
  143.1378  136.5128  152.1931 H   0  0  0  0  0  0  0  0  0  0  0  0
  144.0278  136.4964  153.7090 H   0  0  0  0  0  0  0  0  0  0  0  0
  143.6178  134.9784  152.9127 H   0  0  0  0  0  0  0  0  0  0  0  0
  145.4995  137.1174  151.8235 H   0  0  0  0  0  0  0  0  0  0  0  0
  144.1631  135.6911  150.1122 H   0  0  0  0  0  0  0  0  0  0  0  0
  145.8980  135.6991  149.9149 H   0  0  0  0  0  0  0  0  0  0  0  0
  143.0849  133.3741  150.2493 H   0  0  0  0  0  0  0  0  0  0  0  0
  144.0761  130.8460  150.5040 H   0  0  0  0  0  0  0  0  0  0  0  0
  146.7678  131.2783  151.0058 H   0  0  0  0  0  0  0  0  0  0  0  0
  146.0439  134.4634  152.9247 H   0  0  0  0  0  0  0  0  0  0  0  0
  145.8958  135.5248  154.8399 H   0  0  0  0  0  0  0  0  0  0  0  0
  147.5715  135.8339  154.4286 H   0  0  0  0  0  0  0  0  0  0  0  0
  145.9679  137.8451  153.1065 H   0  0  0  0  0  0  0  0  0  0  0  0
  145.4127  137.7196  154.7708 H   0  0  0  0  0  0  0  0  0  0  0  0
  148.2786  138.4308  152.6864 H   0  0  0  0  0  0  0  0  0  0  0  0
  147.5204  140.7349  152.3426 H   0  0  0  0  0  0  0  0  0  0  0  0
  146.1351  139.7709  152.7628 H   0  0  0  0  0  0  0  0  0  0  0  0
  146.1435  141.9337  154.0025 H   0  0  0  0  0  0  0  0  0  0  0  0
  146.2289  140.5840  155.1073 H   0  0  0  0  0  0  0  0  0  0  0  0
  148.5705  142.3223  154.1911 H   0  0  0  0  0  0  0  0  0  0  0  0
  147.8600  142.3048  155.7867 H   0  0  0  0  0  0  0  0  0  0  0  0
  149.9782  140.9827  155.6998 H   0  0  0  0  0  0  0  0  0  0  0  0
  148.6197  139.9912  156.1680 H   0  0  0  0  0  0  0  0  0  0  0  0
  149.8168  140.1828  153.3726 H   0  0  0  0  0  0  0  0  0  0  0  0
  149.9293  137.8635  155.3526 H   0  0  0  0  0  0  0  0  0  0  0  0
  151.2699  138.9062  154.8894 H   0  0  0  0  0  0  0  0  0  0  0  0
  150.5401  137.8351  153.7000 H   0  0  0  0  0  0  0  0  0  0  0  0
  147.1842  135.4246  152.2499 H   0  0  0  0  0  0  0  0  0  0  0  0
  1  2  1  0  0  0  0
  1 20  1  0  0  0  0
  1 21  1  0  0  0  0
  1 22  1  0  0  0  0
  2  3  1  0  0  0  0
  2  9  1  0  0  0  0
  2 23  1  0  0  0  0
  3  4  1  0  0  0  0
  3 24  1  0  0  0  0
  3 25  1  0  0  0  0
  4  8  1  0  0  0  0
  4  5  1  0  0  0  0
  5  6  2  0  0  0  0
  5 26  1  0  0  0  0
  6  7  1  0  0  0  0
  6 27  1  0  0  0  0
  7  8  2  0  0  0  0
  7 28  1  0  0  0  0
  9 10  1  0  0  0  0
  9 29  1  0  0  0  0
  9 47  1  0  0  0  0
 10 11  1  0  0  0  0
 10 30  1  0  0  0  0
 10 31  1  0  0  0  0
 11 12  1  0  0  0  0
 11 32  1  0  0  0  0
 11 33  1  0  0  0  0
 12 13  1  0  0  0  0
 13 18  1  0  0  0  0
 13 14  1  0  0  0  0
 13 34  1  0  0  0  0
 14 15  1  0  0  0  0
 14 35  1  0  0  0  0
 14 36  1  0  0  0  0
 15 16  1  0  0  0  0
 15 37  1  0  0  0  0
 15 38  1  0  0  0  0
 16 17  1  0  0  0  0
 16 39  1  0  0  0  0
 16 40  1  0  0  0  0
 17 18  1  0  0  0  0
 17 41  1  0  0  0  0
 17 42  1  0  0  0  0
 18 19  1  0  0  0  0
 18 43  1  0  0  0  0
 19 44  1  0  0  0  0
 19 45  1  0  0  0  0
 19 46  1  0  0  0  0
M  CHG  1   9   1
M  END
> <s_m_source_file>
AV-unprocessed.smi

> <i_m_source_file_index>
3348

> <i_lp_mmshare_version>
43012

> <i_f3d_flags>
0

> <s_epik_input>
bjFbY0hdW2NIXVtjSF1uMVtDSDJdW0NAQEhdKFtDSDNdKVtOSF1bQ0gyXVtDSDJdT1tDQEBIXTJbQ0gyXVtDSDJdW0NIMl1bQ0gyXVtDQEhdMltDSDNd

> <s_epik_cmdline>
J2VwaWtfcHl0aG9uJywgJy1waCcsICc3LjAnLCAnLXRuJywgJzgnLCAnLW1hJywgJzIwMCcsICctbWV0YWxfYmluZGluZycsICctaW1hZScsICc8aW5maWxlLm1hZT4nLCAnLW9tYWUnLCAnPG91dGZpbGUubWFlPic=

> <r_lp_tautomer_probability>
1

> <r_epik_Ionization_Penalty>
0.00925088

> <r_epik_Ionization_Penalty_Charging>
0.00924645

> <r_epik_Ionization_Penalty_Neutral>
4.42413e-06

> <r_epik_State_Penalty>
0.0070118

> <r_epik_Charging_Adjusted_Penalty>
0.0162583

> <i_epik_Tot_Q>
1

> <i_epik_Tot_abs_Q>
1

> <r_epik_Metal_State_Penalty>
0.00701222

> <b_epik_Metal_Only>
0

> <s_lp_Force_Field>
OPLS_2005

> <r_lp_Energy>
17.627

> <b_lp_Chiralities_Consistent>
1

> <s_lp_Variant>
AV-unprocessed.smi:3348-3

> <Gold.Version>
5.8.1

> <Gold.Id.Protein>
6NUR|6NUR_protein|mol2

> <Gold.PLP.Fitness>
43.0190

> <Gold.PLP.PLP>
-33.2630

> <Gold.PLP.part.hbond>
-1.0000

> <Gold.PLP.part.metal>
0.0000

> <Gold.PLP.part.buried>
-0.3304

> <Gold.PLP.part.nonpolar>
-32.0235

> <Gold.PLP.part.repulsive>
0.3014

> <Gold.PLP.ligand.clash>
0.0000

> <Gold.PLP.ligand.torsion>
1.2016

> <Gold.PLP.Chemscore.Hbond>
2.0000

> <Gold.PLP.Chemscore.CHOScore>
2.0000

> <Gold.PLP.Chemscore.Metal>
0.0000

> <Gold.Chemscore.Hbonds>
donor molecule, donor type, donor heavy atom, donor atom, acceptor molecule, acceptor atom, score
      L1  H     9    47       P1  7948  2.00
      L1  C     5    26       P1 10186  1.00
      L1  C     7    28       P1 10747  1.00

> <Gold.PLP.Chemscore.Internal.Correction>
0.1593

> <Gold.Rescore>
     Score         DG    S(hbond)    S(metal)    S(lipo)     H(rot)  DE(clash)    DE(int)     intcor
     13.83     -14.73       1.00        0.00      90.25       1.82       0.06       0.84       ----

> <Gold.Chemscore.Fitness>
13.8274

> <Gold.Chemscore.DG>
-14.7264

> <Gold.Chemscore.ZeroCoef>
-5.4800

> <Gold.Chemscore.Hbond>
0.9991

> <Gold.Chemscore.Metal>
0.0000

> <Gold.Chemscore.Lipo>
90.2499

> <Gold.Chemscore.Internal_Hbond>
0.0000

> <Gold.Chemscore.DEClash>
0.0551

> <Gold.Chemscore.DEInternal>
0.8440

> <Gold.Chemscore.Rot>
1.8163

> <Gold.Chemscore.Internal.Correction>
   9.000000E+99

> <Gold.Chemscore.Hbonds>
donor molecule, donor type, donor heavy atom, donor atom, acceptor molecule, acceptor atom, score
      L1  H     9    47       P1  7948  0.94

> <Gold.Chemscore.Hbond.Weighted>
-3.3369

> <Gold.Chemscore.Metal.Weighted>
-0.0000

> <Gold.Chemscore.Lipo.Weighted>
-10.5592

> <Gold.Chemscore.Internal_Hbond.Weighted>
0.0000

> <Gold.Chemscore.DEClash.Weighted>
0.0551

> <Gold.Chemscore.DEInternal.Weighted>
0.8440

> <Gold.Chemscore.Rot.Weighted>
4.6497

> <Gold.Chemscore.Internal.Correction.Weighted>
   9.000000E+99

> <Gold.Protein.RotatedTorsions>
[ 6907 6896 6895 6894 ] final -166.91 input  -60.11 | X-H torsion
[ 7974 7965 7964 7962 ] final  135.51 input  175.53 | X-H torsion
[ 8008 7997 7996 7995 ] final   23.07 input   59.86 | X-H torsion
[ 10167 10162 10161 10158 ] final -114.74 input  -65.29 | X-H torsion
[ 10718 10713 10712 10709 ] final   49.77 input   66.30 | X-H torsion
[ 10763 10752 10751 10750 ] final  -54.71 input  -60.55 | X-H torsion
[ 11005 11000 10999 10996 ] final  -83.56 input  -57.11 | X-H torsion

> <Gold.Protein.ActiveResidues>
 VAL166  LYS551  ARG553  GLY616  TRP617  ASP618  TYR619  PRO620  LYS621  CYS622 
 ASP623  PHE694  ASN695  SER759  ASP760  ASP761  ALA762  ILE779  LEU786  VAL792 
 PHE793  MET794  SER795  GLU796  ALA797  LYS798  CYS799  TRP800  GLU811  SER814 

> <Gold.Protein.RotatedAtoms>
  151.4512  133.3617  159.2795 H   0  0  0  0  0  0  0  0  0  0  0  0  # atno 6907 bound_to 6896
  150.9090  134.8507  159.7423 H   0  0  0  0  0  0  0  0  0  0  0  0  # atno 6908 bound_to 6896
  152.4922  134.4440  159.9604 H   0  0  0  0  0  0  0  0  0  0  0  0  # atno 6909 bound_to 6896
  144.9656  139.4661  143.5458 H   0  0  0  0  0  0  0  0  0  0  0  0  # atno 7974 bound_to 7965
  154.9753  140.3095  155.4970 H   0  0  0  0  0  0  0  0  0  0  0  0  # atno 8008 bound_to 7997
  156.2960  140.2276  156.4788 H   0  0  0  0  0  0  0  0  0  0  0  0  # atno 8009 bound_to 7997
  154.7839  140.0444  157.1136 H   0  0  0  0  0  0  0  0  0  0  0  0  # atno 8010 bound_to 7997
  140.0976  143.4642  152.1831 H   0  0  0  0  0  0  0  0  0  0  0  0  # atno 10167 bound_to 10162
  157.4819  130.8320  149.8103 H   0  0  0  0  0  0  0  0  0  0  0  0  # atno 10718 bound_to 10713
  154.1792  135.6446  153.5029 H   0  0  0  0  0  0  0  0  0  0  0  0  # atno 10763 bound_to 10752
  153.0063  135.5402  154.6532 H   0  0  0  0  0  0  0  0  0  0  0  0  # atno 10764 bound_to 10752
  154.5891  135.2932  155.0626 H   0  0  0  0  0  0  0  0  0  0  0  0  # atno 10765 bound_to 10752
  141.1657  133.7300  156.8737 H   0  0  0  0  0  0  0  0  0  0  0  0  # atno 11005 bound_to 11000
  146.3367  139.8835  142.8820 LP  0  0  0  0  0  0  0  0  0  0  0  0  # atno 17320 bound_to 7965
  145.2634  141.0085  143.3813 LP  0  0  0  0  0  0  0  0  0  0  0  0  # atno 17321 bound_to 7965
  139.5689  144.7451  151.3945 LP  0  0  0  0  0  0  0  0  0  0  0  0  # atno 17342 bound_to 10162
  140.6995  143.7667  150.7380 LP  0  0  0  0  0  0  0  0  0  0  0  0  # atno 17343 bound_to 10162
  156.0126  130.3827  150.2214 LP  0  0  0  0  0  0  0  0  0  0  0  0  # atno 17370 bound_to 10713
  157.0401  131.0032  151.3286 LP  0  0  0  0  0  0  0  0  0  0  0  0  # atno 17371 bound_to 10713
  140.1763  134.9064  157.2895 LP  0  0  0  0  0  0  0  0  0  0  0  0  # atno 17394 bound_to 11000
  140.2445  134.3756  155.7467 LP  0  0  0  0  0  0  0  0  0  0  0  0  # atno 17395 bound_to 11000

$$$$
