#       Name:                AV-unprocessed.smi:1981
#       Creating user name   scv26
#       Creation time:       Fri Mar 27 10:21:21 2020


#       File generated by GOLD software.
#

@<TRIPOS>MOLECULE
AV-unprocessed.smi:1981
    54    55     1
SMALL
NO_CHARGES


@<TRIPOS>ATOM
      1 ****        -4.9934  -1.8808   3.0072 C.3            1 S1                 0.0000
      2 ****        -4.1414  -2.5943   2.1283 O.3            1 S1                 0.0000
      3 ****        -2.7755  -2.4838   2.4899 C.3            1 S1                 0.0000
      4 ****        -1.9285  -3.2839   1.4893 C.3            1 S1                 0.0000
      5 ****        -0.4965  -3.1605   1.7786 N.am           1 S1                 0.0000
      6 ****         0.1452  -2.1819   1.0384 N.2            1 S1                 0.0000
      7 ****         1.4104  -1.9663   1.2033 C.2            1 S1                 0.0000
      8 ****         2.1362  -0.9228   0.4275 C.2            1 S1                 0.0000
      9 ****         3.3441  -0.7267   0.5717 O.2            1 S1                 0.0000
     10 ****         1.3801  -0.2172  -0.4329 N.am           1 S1                 0.0000
     11 ****         1.8589   0.8515  -1.3033 C.3            1 S1                 0.0000
     12 ****         2.0115   2.1731  -0.5144 C.3            1 S1                 0.0000
     13 ****         2.3073   3.3553  -1.4543 C.3            1 S1                 0.0000
     14 ****         1.2444   3.4334  -2.4626 N.am           1 S1                 0.0000
     15 ****         0.3088   4.4132  -2.4656 C.2            1 S1                 0.0000
     16 ****        -0.8213   4.3659  -3.4964 C.3            1 S1                 0.0000
     17 ****         0.3219   5.3480  -1.6645 O.2            1 S1                 0.0000
     18 ****         1.2442   2.2547  -3.3377 C.3            1 S1                 0.0000
     19 ****         0.8920   1.0151  -2.4962 C.3            1 S1                 0.0000
     20 ****         2.1784  -2.7420   2.1626 C.2            1 S1                 0.0000
     21 ****         1.5372  -3.6891   2.8819 C.2            1 S1                 0.0000
     22 ****         0.1059  -3.9493   2.7187 C.2            1 S1                 0.0000
     23 ****        -0.5029  -4.7973   3.3703 O.2            1 S1                 0.0000
     24 ****        -6.0290  -1.9938   2.6867 H              1 S1                 0.0000
     25 ****        -4.7562  -0.8162   3.0090 H              1 S1                 0.0000
     26 ****        -4.9131  -2.2591   4.0270 H              1 S1                 0.0000
     27 ****        -2.4732  -1.4352   2.4831 H              1 S1                 0.0000
     28 ****        -2.6274  -2.8636   3.5020 H              1 S1                 0.0000
     29 ****        -2.2317  -4.3323   1.4958 H              1 S1                 0.0000
     30 ****        -2.1337  -2.9296   0.4774 H              1 S1                 0.0000
     31 ****         0.3970  -0.4423  -0.4875 H              1 S1                 0.0000
     32 ****         2.8357   0.5740  -1.7040 H              1 S1                 0.0000
     33 ****         1.0954   2.3802   0.0413 H              1 S1                 0.0000
     34 ****         2.8068   2.0824   0.2261 H              1 S1                 0.0000
     35 ****         2.4099   4.2740  -0.8753 H              1 S1                 0.0000
     36 ****         3.2681   3.2090  -1.9499 H              1 S1                 0.0000
     37 ****        -1.3936   3.4428  -3.4008 H              1 S1                 0.0000
     38 ****        -0.4238   4.4353  -4.5092 H              1 S1                 0.0000
     39 ****        -1.5090   5.1998  -3.3506 H              1 S1                 0.0000
     40 ****         0.5613   2.3372  -4.1818 H              1 S1                 0.0000
     41 ****         2.2352   2.1355  -3.7780 H              1 S1                 0.0000
     42 ****         0.9151   0.1218  -3.1213 H              1 S1                 0.0000
     43 ****        -0.1325   1.1116  -2.1328 H              1 S1                 0.0000
     44 ****         3.2359  -2.5713   2.3039 H              1 S1                 0.0000
     45 ****         2.0955  -4.2724   3.5994 H              1 S1                 0.0000
     46 ****        -4.2588  -2.2326   1.2034 LP             1 S1                 0.0000
     47 ****        -4.4004  -3.5601   2.1439 LP             1 S1                 0.0000
     48 ****        -0.3705  -1.6403   0.3746 LP             1 S1                 0.0000
     49 ****         3.8654  -1.2762   1.2247 LP             1 S1                 0.0000
     50 ****         3.8031  -0.0182   0.0357 LP             1 S1                 0.0000
     51 ****         1.0439   5.4055  -0.9750 LP             1 S1                 0.0000
     52 ****        -0.3895   6.0497  -1.7033 LP             1 S1                 0.0000
     53 ****        -1.4825  -4.9331   3.2225 LP             1 S1                 0.0000
     54 ****        -0.0180  -5.3507   4.0476 LP             1 S1                 0.0000
@<TRIPOS>BOND
    1    1    2 1     
    2    1   24 1     
    3    1   25 1     
    4    1   26 1     
    5    2    3 1     
    6    3    4 1     
    7    3   27 1     
    8    3   28 1     
    9    4    5 1     
   10    4   29 1     
   11    4   30 1     
   12    5   22 am    
   13    5    6 1     
   14    6    7 2     
   15    7    8 1     
   16    7   20 1     
   17    8    9 2     
   18    8   10 am    
   19   10   11 1     
   20   10   31 1     
   21   11   19 1     
   22   11   12 1     
   23   11   32 1     
   24   12   13 1     
   25   12   33 1     
   26   12   34 1     
   27   13   14 1     
   28   13   35 1     
   29   13   36 1     
   30   14   15 am    
   31   14   18 1     
   32   15   16 1     
   33   15   17 2     
   34   16   37 1     
   35   16   38 1     
   36   16   39 1     
   37   18   19 1     
   38   18   40 1     
   39   18   41 1     
   40   19   42 1     
   41   19   43 1     
   42   20   21 2     
   43   20   44 1     
   44   21   22 1     
   45   21   45 1     
   46   22   23 2     
   47    2   46 1     
   48    2   47 1     
   49    6   48 1     
   50    9   49 1     
   51    9   50 1     
   52   17   51 1     
   53   17   52 1     
   54   23   53 1     
   55   23   54 1     
@<TRIPOS>SUBSTRUCTURE
      1 S1             1
@<TRIPOS>SET
LONE_PAIRS      STATIC     ATOMS    <user>   **** ""
9 46 47 48 49 50 51 52 53 54
DONOR_HYDROGENS      STATIC     ATOMS    <user>   **** ""
1 31
ATOM$BLUE        STATIC     ATOMS    COLORGROUP SYSTEM
9 46 47 48 49 50 51 52 53 54
ATOM$RED        STATIC     ATOMS    COLORGROUP SYSTEM
1 31
