#       Name:                AV-unprocessed.smi:993
#       Creating user name   scv26
#       Creation time:       Fri Mar 27 02:23:45 2020


#       File generated by GOLD software.
#

@<TRIPOS>MOLECULE
AV-unprocessed.smi:993
    38    39     1
SMALL
NO_CHARGES


@<TRIPOS>ATOM
      1 ****         1.9833   2.3350  -0.5289 C.3            1 S1                 0.0000
      2 ****         1.5117   0.9784  -0.0348 C.2            1 S1                 0.0000
      3 ****         0.1480   0.7749  -0.1320 N.pl3          1 S1                 0.0000
      4 ****        -0.3892  -0.4369   0.2847 C.2            1 S1                 0.0000
      5 ****        -1.7704  -0.5516   0.1384 N.pl3          1 S1                 0.0000
      6 ****        -2.6558   0.4425  -0.4587 C.3            1 S1                 0.0000
      7 ****        -4.0079  -0.2456  -0.6499 C.3            1 S1                 0.0000
      8 ****        -4.0176  -1.3036   0.4457 C.3            1 S1                 0.0000
      9 ****        -2.5489  -1.7162   0.5415 C.3            1 S1                 0.0000
     10 ****         0.3326  -1.4005   0.7785 N.2            1 S1                 0.0000
     11 ****         1.7227  -1.2545   0.9051 C.2            1 S1                 0.0000
     12 ****         2.4013  -2.1674   1.3738 O.2            1 S1                 0.0000
     13 ****         2.3288   0.0191   0.4619 C.2            1 S1                 0.0000
     14 ****         3.8430   0.2000   0.5823 C.3            1 S1                 0.0000
     15 ****         4.6201  -0.0246  -0.7202 C.2            1 S1                 0.0000
     16 ****         5.8019   0.3830  -0.7406 O.co2          1 S1                 0.0000
     17 ****         4.0365  -0.5908  -1.6714 O.co2          1 S1                -1.0000
     18 ****        -0.4137   1.5193  -0.5176 H              1 S1                 0.0000
     19 ****         2.6982   2.2158  -1.3432 H              1 S1                 0.0000
     20 ****         2.4667   2.8870   0.2772 H              1 S1                 0.0000
     21 ****         1.1542   2.9396  -0.8981 H              1 S1                 0.0000
     22 ****        -2.2671   0.8155  -1.4070 H              1 S1                 0.0000
     23 ****        -2.7492   1.2862   0.2261 H              1 S1                 0.0000
     24 ****        -4.8493   0.4449  -0.5874 H              1 S1                 0.0000
     25 ****        -4.0395  -0.7300  -1.6266 H              1 S1                 0.0000
     26 ****        -4.3368  -0.8548   1.3872 H              1 S1                 0.0000
     27 ****        -4.6808  -2.1411   0.2277 H              1 S1                 0.0000
     28 ****        -2.2936  -2.0443   1.5500 H              1 S1                 0.0000
     29 ****        -2.3347  -2.5362  -0.1453 H              1 S1                 0.0000
     30 ****         4.2553  -0.4547   1.3503 H              1 S1                 0.0000
     31 ****         4.0488   1.2120   0.9312 H              1 S1                 0.0000
     32 ****        -0.1061  -2.2507   1.0697 LP             1 S1                 0.0000
     33 ****         1.9627  -3.0172   1.6661 LP             1 S1                 0.0000
     34 ****         3.3916  -2.0597   1.4624 LP             1 S1                 0.0000
     35 ****         6.3572   0.2656  -1.5639 LP             1 S1                 0.0000
     36 ****         6.1919   0.8264   0.0664 LP             1 S1                 0.0000
     37 ****         4.5202  -0.7477  -2.5325 LP             1 S1                 0.0000
     38 ****         3.0866  -0.8864  -1.5704 LP             1 S1                 0.0000
@<TRIPOS>BOND
    1    1   19 1     
    2    1   20 1     
    3    1   21 1     
    4    1    2 1     
    5    2   13 2     
    6    2    3 1     
    7    3   18 1     
    8    3    4 1     
    9    4    5 1     
   10    4   10 2     
   11    5    9 1     
   12    5    6 1     
   13    6    7 1     
   14    6   22 1     
   15    6   23 1     
   16    7    8 1     
   17    7   24 1     
   18    7   25 1     
   19    8    9 1     
   20    8   26 1     
   21    8   27 1     
   22    9   28 1     
   23    9   29 1     
   24   10   11 1     
   25   11   12 2     
   26   11   13 1     
   27   13   14 1     
   28   14   15 1     
   29   14   30 1     
   30   14   31 1     
   31   15   16 ar    
   32   15   17 ar    
   33   10   32 1     
   34   12   33 1     
   35   12   34 1     
   36   16   35 1     
   37   16   36 1     
   38   17   37 1     
   39   17   38 1     
@<TRIPOS>SUBSTRUCTURE
      1 S1             1
@<TRIPOS>SET
LONE_PAIRS      STATIC     ATOMS    <user>   **** ""
7 32 33 34 35 36 37 38
DONOR_HYDROGENS      STATIC     ATOMS    <user>   **** ""
1 18
ATOM$BLUE        STATIC     ATOMS    COLORGROUP SYSTEM
7 32 33 34 35 36 37 38
ATOM$RED        STATIC     ATOMS    COLORGROUP SYSTEM
1 18
