AV-unprocessed.smi:1459|AV-procd|sdf|5924|dock8
  -GOLD-   22720 6 03D 1   1.00000     0.00000
 Structure written by MMmdl.
 34 35  0  0  0  0  0  0  0  0  1 V2000
  143.1757  132.9622  151.4565 C   0  0  0  0  0  0  0  0  0  0  0  0
  143.9357  134.1530  151.9311 C   0  0  0  0  0  0  0  0  0  0  0  0
  145.2695  134.4457  151.9821 C   0  0  0  0  0  0  0  0  0  0  0  0
  145.2901  135.7478  152.5490 C   0  0  0  0  0  0  0  0  0  0  0  0
  146.5161  136.4248  152.7738 N   0  0  0  0  0  0  0  0  0  0  0  0
  146.7494  137.4370  153.6265 C   0  0  0  0  0  0  0  0  0  0  0  0
  145.9087  137.9458  154.3683 O   0  0  0  0  0  0  0  0  0  0  0  0
  148.0318  137.8277  153.5753 N   0  0  0  0  0  0  0  0  0  0  0  0
  148.6347  138.8999  154.3662 C   0  0  2  0  0  0  0  0  0  0  0  0
  147.9450  140.2247  154.0088 C   0  0  0  0  0  0  0  0  0  0  0  0
  150.1570  138.9609  154.1216 C   0  0  2  0  0  0  0  0  0  0  0  0
  150.9238  137.6887  154.4908 C   0  0  0  0  0  0  0  0  0  0  0  0
  152.3167  138.2267  154.7220 C   0  0  0  0  0  0  0  0  0  0  0  0
  152.0234  139.5566  155.4089 C   0  0  0  0  0  0  0  0  0  0  0  0
  150.7535  139.9814  154.9199 O   0  0  0  0  0  0  0  0  0  0  0  0
  144.0782  136.2082  152.8197 N   0  0  0  0  0  0  0  0  0  0  0  0
  143.2041  135.1887  152.4246 O   0  0  0  0  0  0  0  0  0  0  0  0
  143.8439  132.2254  151.0104 H   0  0  0  0  0  0  0  0  0  0  0  0
  142.4390  133.2474  150.7055 H   0  0  0  0  0  0  0  0  0  0  0  0
  142.6497  132.4851  152.2836 H   0  0  0  0  0  0  0  0  0  0  0  0
  146.0946  133.8258  151.6642 H   0  0  0  0  0  0  0  0  0  0  0  0
  147.3007  136.1031  152.2269 H   0  0  0  0  0  0  0  0  0  0  0  0
  148.6457  137.3440  152.9365 H   0  0  0  0  0  0  0  0  0  0  0  0
  148.4641  138.7182  155.4287 H   0  0  0  0  0  0  0  0  0  0  0  0
  148.3393  141.0485  154.6042 H   0  0  0  0  0  0  0  0  0  0  0  0
  146.8720  140.1714  154.1968 H   0  0  0  0  0  0  0  0  0  0  0  0
  148.0875  140.4773  152.9576 H   0  0  0  0  0  0  0  0  0  0  0  0
  150.3589  139.2016  153.0764 H   0  0  0  0  0  0  0  0  0  0  0  0
  150.5341  137.2580  155.4145 H   0  0  0  0  0  0  0  0  0  0  0  0
  150.8843  136.9247  153.7138 H   0  0  0  0  0  0  0  0  0  0  0  0
  152.9402  137.5644  155.3229 H   0  0  0  0  0  0  0  0  0  0  0  0
  152.8163  138.3968  153.7673 H   0  0  0  0  0  0  0  0  0  0  0  0
  151.9482  139.4189  156.4880 H   0  0  0  0  0  0  0  0  0  0  0  0
  152.7948  140.3024  155.2154 H   0  0  0  0  0  0  0  0  0  0  0  0
  1  2  1  0  0  0  0
  1 18  1  0  0  0  0
  1 19  1  0  0  0  0
  1 20  1  0  0  0  0
  2 17  1  0  0  0  0
  2  3  2  0  0  0  0
  3  4  1  0  0  0  0
  3 21  1  0  0  0  0
  4  5  1  0  0  0  0
  4 16  2  0  0  0  0
  5  6  1  0  0  0  0
  5 22  1  0  0  0  0
  6  7  2  0  0  0  0
  6  8  1  0  0  0  0
  8  9  1  0  0  0  0
  8 23  1  0  0  0  0
  9 10  1  0  0  0  0
  9 11  1  0  0  0  0
  9 24  1  0  0  0  0
 10 25  1  0  0  0  0
 10 26  1  0  0  0  0
 10 27  1  0  0  0  0
 11 15  1  0  0  0  0
 11 12  1  0  0  0  0
 11 28  1  0  0  0  0
 12 13  1  0  0  0  0
 12 29  1  0  0  0  0
 12 30  1  0  0  0  0
 13 14  1  0  0  0  0
 13 31  1  0  0  0  0
 13 32  1  0  0  0  0
 14 15  1  0  0  0  0
 14 33  1  0  0  0  0
 14 34  1  0  0  0  0
 16 17  1  0  0  0  0
M  END
> <s_m_source_file>
AV-unprocessed.smi

> <i_m_source_file_index>
1459

> <i_lp_mmshare_version>
43012

> <i_f3d_flags>
0

> <s_epik_input>
W0NIM11jMVtjSF1jKG5vMSlbTkhdQyg9TylbTkhdW0NASF0oW0NIM10pW0NAQEhdMltDSDJdW0NIMl1bQ0gyXU8y

> <s_epik_cmdline>
J2VwaWtfcHl0aG9uJywgJy1waCcsICc3LjAnLCAnLXRuJywgJzgnLCAnLW1hJywgJzIwMCcsICctbWV0YWxfYmluZGluZycsICctaW1hZScsICc8aW5maWxlLm1hZT4nLCAnLW9tYWUnLCAnPG91dGZpbGUubWFlPic=

> <r_lp_tautomer_probability>
1

> <r_epik_Ionization_Penalty>
2.20869e-05

> <r_epik_Ionization_Penalty_Charging>
0

> <r_epik_Ionization_Penalty_Neutral>
2.20869e-05

> <r_epik_State_Penalty>
-0

> <r_epik_Charging_Adjusted_Penalty>
0

> <i_epik_Tot_Q>
0

> <i_epik_Tot_abs_Q>
0

> <r_epik_Metal_State_Penalty>
-0

> <b_epik_Metal_Only>
0

> <s_lp_Force_Field>
OPLS_2005

> <r_lp_Energy>
15.5661

> <b_lp_Chiralities_Consistent>
1

> <s_lp_Variant>
AV-unprocessed.smi:1459-1

> <Gold.Version>
5.8.1

> <Gold.Id.Protein>
6NUR|6NUR_protein|mol2

> <Gold.PLP.Fitness>
33.0644

> <Gold.PLP.PLP>
-26.1688

> <Gold.PLP.part.hbond>
-2.9067

> <Gold.PLP.part.metal>
0.0000

> <Gold.PLP.part.buried>
-1.5914

> <Gold.PLP.part.nonpolar>
-22.5264

> <Gold.PLP.part.repulsive>
0.5135

> <Gold.PLP.ligand.clash>
0.0000

> <Gold.PLP.ligand.torsion>
0.1180

> <Gold.PLP.Chemscore.Hbond>
2.3745

> <Gold.PLP.Chemscore.CHOScore>
0.0000

> <Gold.PLP.Chemscore.Metal>
0.0000

> <Gold.Chemscore.Hbonds>
donor molecule, donor type, donor heavy atom, donor atom, acceptor molecule, acceptor atom, score
      L1  H     5    22       P1  7948  0.99
      L1  H     8    23       P1  7948  1.00
      P1  H  7989  7998       L1    15  0.36

> <Gold.PLP.Chemscore.Internal.Correction>
0.0082

> <Gold.Rescore>
     Score         DG    S(hbond)    S(metal)    S(lipo)     H(rot)  DE(clash)    DE(int)     intcor
     14.32     -15.68       1.91        0.00      60.63       1.28       0.05       1.30       ----

> <Gold.Chemscore.Fitness>
14.3238

> <Gold.Chemscore.DG>
-15.6783

> <Gold.Chemscore.ZeroCoef>
-5.4800

> <Gold.Chemscore.Hbond>
1.9089

> <Gold.Chemscore.Metal>
0.0000

> <Gold.Chemscore.Lipo>
60.6254

> <Gold.Chemscore.Internal_Hbond>
0.0000

> <Gold.Chemscore.DEClash>
0.0537

> <Gold.Chemscore.DEInternal>
1.3007

> <Gold.Chemscore.Rot>
1.2776

> <Gold.Chemscore.Internal.Correction>
   9.000000E+99

> <Gold.Chemscore.Hbonds>
donor molecule, donor type, donor heavy atom, donor atom, acceptor molecule, acceptor atom, score
      L1  H     5    22       P1  7948  0.94
      L1  H     8    23       P1  7948  0.94

> <Gold.Chemscore.Hbond.Weighted>
-6.3758

> <Gold.Chemscore.Metal.Weighted>
-0.0000

> <Gold.Chemscore.Lipo.Weighted>
-7.0932

> <Gold.Chemscore.Internal_Hbond.Weighted>
0.0000

> <Gold.Chemscore.DEClash.Weighted>
0.0537

> <Gold.Chemscore.DEInternal.Weighted>
1.3007

> <Gold.Chemscore.Rot.Weighted>
3.2707

> <Gold.Chemscore.Internal.Correction.Weighted>
   9.000000E+99

> <Gold.Protein.RotatedTorsions>
[ 6907 6896 6895 6894 ] final   -6.45 input  -60.11 | X-H torsion
[ 7974 7965 7964 7962 ] final   63.20 input  175.53 | X-H torsion
[ 8008 7997 7996 7995 ] final    0.66 input   59.86 | X-H torsion
[ 10167 10162 10161 10158 ] final  -63.59 input  -65.29 | X-H torsion
[ 10718 10713 10712 10709 ] final -149.96 input   66.30 | X-H torsion
[ 10763 10752 10751 10750 ] final   13.79 input  -60.55 | X-H torsion
[ 11005 11000 10999 10996 ] final   56.62 input  -57.11 | X-H torsion

> <Gold.Protein.ActiveResidues>
 VAL166  LYS551  ARG553  GLY616  TRP617  ASP618  TYR619  PRO620  LYS621  CYS622 
 ASP623  PHE694  ASN695  SER759  ASP760  ASP761  ALA762  ILE779  LEU786  VAL792 
 PHE793  MET794  SER795  GLU796  ALA797  LYS798  CYS799  TRP800  GLU811  SER814 

> <Gold.Protein.RotatedAtoms>
  151.4653  135.1041  159.9735 H   0  0  0  0  0  0  0  0  0  0  0  0  # atno 6907 bound_to 6896
  152.4837  133.8315  159.7116 H   0  0  0  0  0  0  0  0  0  0  0  0  # atno 6908 bound_to 6896
  150.8929  133.7158  159.2926 H   0  0  0  0  0  0  0  0  0  0  0  0  # atno 6909 bound_to 6896
  145.8645  139.3337  143.0799 H   0  0  0  0  0  0  0  0  0  0  0  0  # atno 7974 bound_to 7965
  154.6707  140.2611  155.7010 H   0  0  0  0  0  0  0  0  0  0  0  0  # atno 8008 bound_to 7997
  156.2658  140.2830  156.1137 H   0  0  0  0  0  0  0  0  0  0  0  0  # atno 8009 bound_to 7997
  155.1172  140.0376  157.2730 H   0  0  0  0  0  0  0  0  0  0  0  0  # atno 8010 bound_to 7997
  140.5860  143.2334  151.6242 H   0  0  0  0  0  0  0  0  0  0  0  0  # atno 10167 bound_to 10162
  156.4399  130.8117  151.2346 H   0  0  0  0  0  0  0  0  0  0  0  0  # atno 10718 bound_to 10713
  153.1686  135.6808  153.8640 H   0  0  0  0  0  0  0  0  0  0  0  0  # atno 10763 bound_to 10752
  153.8011  135.3155  155.3391 H   0  0  0  0  0  0  0  0  0  0  0  0  # atno 10764 bound_to 10752
  154.7982  135.4794  154.0304 H   0  0  0  0  0  0  0  0  0  0  0  0  # atno 10765 bound_to 10752
  140.0515  134.5730  155.9258 H   0  0  0  0  0  0  0  0  0  0  0  0  # atno 11005 bound_to 11000
  145.9209  140.9116  143.0405 LP  0  0  0  0  0  0  0  0  0  0  0  0  # atno 17320 bound_to 7965
  144.6726  140.1287  143.7445 LP  0  0  0  0  0  0  0  0  0  0  0  0  # atno 17321 bound_to 7965
  139.5198  144.3243  152.0883 LP  0  0  0  0  0  0  0  0  0  0  0  0  # atno 17342 bound_to 10162
  140.2400  144.4279  150.6264 LP  0  0  0  0  0  0  0  0  0  0  0  0  # atno 17343 bound_to 10162
  157.7506  131.0171  150.3573 LP  0  0  0  0  0  0  0  0  0  0  0  0  # atno 17370 bound_to 10713
  156.3929  130.3901  149.7017 LP  0  0  0  0  0  0  0  0  0  0  0  0  # atno 17371 bound_to 10713
  141.1932  133.6578  156.5539 LP  0  0  0  0  0  0  0  0  0  0  0  0  # atno 17394 bound_to 11000
  140.3910  134.7440  157.4721 LP  0  0  0  0  0  0  0  0  0  0  0  0  # atno 17395 bound_to 11000

$$$$
