AV-unprocessed.smi:234|AV-procd|sdf|1789|dock5
  -GOLD-   2262020343D 1   1.00000     0.00000
 Structure written by MMmdl.
 59 62  0  0  0  0  0  0  0  0  1 V2000
  143.7560  145.4042  154.3549 C   0  0  0  0  0  0  0  0  0  0  0  0
  144.8453  144.3438  154.1429 C   0  0  0  0  0  0  0  0  0  0  0  0
  145.1245  143.6470  155.3475 O   0  0  0  0  0  0  0  0  0  0  0  0
  146.3658  142.9477  155.3459 C   0  0  2  0  0  0  0  0  0  0  0  0
  146.3862  141.9129  154.2204 C   0  0  0  0  0  0  0  0  0  0  0  0
  145.7627  140.9366  155.2285 C   0  0  1  0  0  0  0  0  0  0  0  0
  146.2625  139.5611  155.1238 N   0  0  0  0  0  0  0  0  0  0  0  0
  145.9915  138.6514  156.2324 C   0  0  0  0  0  0  0  0  0  0  0  0
  146.1715  138.9399  153.9208 C   0  0  0  0  0  0  0  0  0  0  0  0
  146.9142  139.3740  152.8674 N   0  0  0  0  0  0  0  0  0  0  0  0
  146.8150  138.7705  151.6794 C   0  0  0  0  0  0  0  0  0  0  0  0
  146.0483  137.7357  151.3304 N   0  0  0  0  0  0  0  0  0  0  0  0
  145.2982  137.2988  152.3825 C   0  0  0  0  0  0  0  0  0  0  0  0
  145.2946  137.8426  153.6977 C   0  0  0  0  0  0  0  0  0  0  0  0
  144.4036  137.1397  154.4998 N   0  0  0  0  0  0  0  0  0  0  0  0
  143.9104  136.2301  153.7042 C   0  0  0  0  0  0  0  0  0  0  0  0
  144.3977  136.2485  152.4166 N   0  0  0  0  0  0  0  0  0  0  0  0
  144.0307  135.3483  151.3343 C   0  0  0  0  0  0  0  0  0  0  0  0
  144.3131  133.8611  151.6539 C   0  0  2  0  0  0  0  0  0  0  0  0
  143.1613  133.3074  152.2707 O   0  0  0  0  0  0  0  0  0  0  0  0
  145.5073  133.6388  152.5701 C   0  0  0  0  0  0  0  0  0  0  0  0
  145.9139  132.2076  152.2430 C   0  0  0  0  0  0  0  0  0  0  0  0
  145.6705  132.0691  150.8493 O   0  0  0  0  0  0  0  0  0  0  0  0
  144.7173  133.0371  150.4117 C   0  0  1  0  0  0  0  0  0  0  0  0
  143.5771  132.3674  149.6281 C   0  0  0  0  0  0  0  0  0  0  0  0
  146.4037  141.7813  156.3657 C   0  0  0  0  0  0  0  0  0  0  0  0
  147.8212  141.4028  156.8260 C   0  0  0  0  0  0  0  0  0  0  0  0
  145.5676  141.9777  157.6332 C   0  0  0  0  0  0  0  0  0  0  0  0
  143.5155  145.9037  153.4165 H   0  0  0  0  0  0  0  0  0  0  0  0
  144.0690  146.1696  155.0647 H   0  0  0  0  0  0  0  0  0  0  0  0
  142.8405  144.9508  154.7353 H   0  0  0  0  0  0  0  0  0  0  0  0
  144.4953  143.6155  153.4113 H   0  0  0  0  0  0  0  0  0  0  0  0
  145.7543  144.7858  153.7322 H   0  0  0  0  0  0  0  0  0  0  0  0
  147.2534  143.5828  155.3643 H   0  0  0  0  0  0  0  0  0  0  0  0
  145.7540  142.1546  153.3655 H   0  0  0  0  0  0  0  0  0  0  0  0
  147.3967  141.6423  153.9093 H   0  0  0  0  0  0  0  0  0  0  0  0
  144.6732  141.0058  155.2335 H   0  0  0  0  0  0  0  0  0  0  0  0
  145.3497  137.8217  155.9312 H   0  0  0  0  0  0  0  0  0  0  0  0
  145.4932  139.1660  157.0529 H   0  0  0  0  0  0  0  0  0  0  0  0
  146.9256  138.2384  156.6131 H   0  0  0  0  0  0  0  0  0  0  0  0
  147.4390  139.1759  150.8967 H   0  0  0  0  0  0  0  0  0  0  0  0
  143.1786  135.5090  154.0384 H   0  0  0  0  0  0  0  0  0  0  0  0
  142.9733  135.4926  151.1092 H   0  0  0  0  0  0  0  0  0  0  0  0
  144.5767  135.6540  150.4408 H   0  0  0  0  0  0  0  0  0  0  0  0
  143.4195  132.9265  153.0961 H   0  0  0  0  0  0  0  0  0  0  0  0
  146.3211  134.3110  152.2955 H   0  0  0  0  0  0  0  0  0  0  0  0
  145.2871  133.7934  153.6273 H   0  0  0  0  0  0  0  0  0  0  0  0
  146.9547  131.9985  152.4906 H   0  0  0  0  0  0  0  0  0  0  0  0
  145.2868  131.4979  152.7840 H   0  0  0  0  0  0  0  0  0  0  0  0
  145.2627  133.6873  149.7264 H   0  0  0  0  0  0  0  0  0  0  0  0
  142.8437  133.1027  149.2972 H   0  0  0  0  0  0  0  0  0  0  0  0
  143.0595  131.6190  150.2285 H   0  0  0  0  0  0  0  0  0  0  0  0
  143.9632  131.8632  148.7422 H   0  0  0  0  0  0  0  0  0  0  0  0
  147.8207  140.5052  157.4446 H   0  0  0  0  0  0  0  0  0  0  0  0
  148.2720  142.2015  157.4155 H   0  0  0  0  0  0  0  0  0  0  0  0
  148.4886  141.2115  155.9855 H   0  0  0  0  0  0  0  0  0  0  0  0
  145.6207  141.1123  158.2938 H   0  0  0  0  0  0  0  0  0  0  0  0
  144.5145  142.1369  157.4006 H   0  0  0  0  0  0  0  0  0  0  0  0
  145.9072  142.8438  158.2018 H   0  0  0  0  0  0  0  0  0  0  0  0
  1  2  1  0  0  0  0
  1 29  1  0  0  0  0
  1 30  1  0  0  0  0
  1 31  1  0  0  0  0
  2  3  1  0  0  0  0
  2 32  1  0  0  0  0
  2 33  1  0  0  0  0
  3  4  1  0  0  0  0
  4 26  1  0  0  0  0
  4  5  1  0  0  0  0
  4 34  1  0  0  0  0
  5  6  1  0  0  0  0
  5 35  1  0  0  0  0
  5 36  1  0  0  0  0
  6  7  1  0  0  0  0
  6 26  1  0  0  0  0
  6 37  1  0  0  0  0
  7  8  1  0  0  0  0
  7  9  1  0  0  0  0
  8 38  1  0  0  0  0
  8 39  1  0  0  0  0
  8 40  1  0  0  0  0
  9 14  1  0  0  0  0
  9 10  2  0  0  0  0
 10 11  1  0  0  0  0
 11 12  2  0  0  0  0
 11 41  1  0  0  0  0
 12 13  1  0  0  0  0
 13 17  1  0  0  0  0
 13 14  2  0  0  0  0
 14 15  1  0  0  0  0
 15 16  2  0  0  0  0
 16 17  1  0  0  0  0
 16 42  1  0  0  0  0
 17 18  1  0  0  0  0
 18 19  1  0  0  0  0
 18 43  1  0  0  0  0
 18 44  1  0  0  0  0
 19 24  1  0  0  0  0
 19 20  1  0  0  0  0
 19 21  1  0  0  0  0
 20 45  1  0  0  0  0
 21 22  1  0  0  0  0
 21 46  1  0  0  0  0
 21 47  1  0  0  0  0
 22 23  1  0  0  0  0
 22 48  1  0  0  0  0
 22 49  1  0  0  0  0
 23 24  1  0  0  0  0
 24 25  1  0  0  0  0
 24 50  1  0  0  0  0
 25 51  1  0  0  0  0
 25 52  1  0  0  0  0
 25 53  1  0  0  0  0
 26 27  1  0  0  0  0
 26 28  1  0  0  0  0
 27 54  1  0  0  0  0
 27 55  1  0  0  0  0
 27 56  1  0  0  0  0
 28 57  1  0  0  0  0
 28 58  1  0  0  0  0
 28 59  1  0  0  0  0
M  END
> <s_m_source_file>
AV-unprocessed.smi

> <i_m_source_file_index>
234

> <i_lp_mmshare_version>
43012

> <i_f3d_flags>
0

> <s_epik_input>
W0NIM11bQ0gyXU9bQ0BASF0oQzEoW0NIM10pW0NIM10pW0NIMl1bQ0BIXTFOKFtDSDNdKWMobltjSF1uMiljKGMyMyluW2NIXW4zW0NIMl1bQ0BAXTQoW09IXSlbQ0gyXVtDSDJdT1tDQEhdNFtDSDNd

> <s_epik_cmdline>
J2VwaWtfcHl0aG9uJywgJy1waCcsICc3LjAnLCAnLXRuJywgJzgnLCAnLW1hJywgJzIwMCcsICctbWV0YWxfYmluZGluZycsICctaW1hZScsICc8aW5maWxlLm1hZT4nLCAnLW9tYWUnLCAnPG91dGZpbGUubWFlPic=

> <r_lp_tautomer_probability>
1

> <r_epik_Ionization_Penalty>
0.00349132

> <r_epik_Ionization_Penalty_Charging>
0

> <r_epik_Ionization_Penalty_Neutral>
0.00349132

> <r_epik_State_Penalty>
0.00242418

> <r_epik_Charging_Adjusted_Penalty>
0.00242418

> <i_epik_Tot_Q>
0

> <i_epik_Tot_abs_Q>
0

> <r_epik_Metal_State_Penalty>
-0

> <b_epik_Metal_Only>
0

> <s_lp_Force_Field>
OPLS_2005

> <r_lp_Energy>
49.8598

> <b_lp_Chiralities_Consistent>
1

> <s_lp_Variant>
AV-unprocessed.smi:234-5

> <Gold.Version>
5.8.1

> <Gold.Id.Protein>
6NUR|6NUR_protein|mol2

> <Gold.PLP.Fitness>
37.6736

> <Gold.PLP.PLP>
-34.8990

> <Gold.PLP.part.hbond>
-0.8301

> <Gold.PLP.part.metal>
0.0000

> <Gold.PLP.part.buried>
-6.8189

> <Gold.PLP.part.nonpolar>
-30.1082

> <Gold.PLP.part.repulsive>
2.0285

> <Gold.PLP.ligand.clash>
0.0000

> <Gold.PLP.ligand.torsion>
1.4157

> <Gold.PLP.Chemscore.Hbond>
0.4997

> <Gold.PLP.Chemscore.CHOScore>
1.0000

> <Gold.PLP.Chemscore.Metal>
0.0000

> <Gold.Chemscore.Hbonds>
donor molecule, donor type, donor heavy atom, donor atom, acceptor molecule, acceptor atom, score
      L1  H    20    45       P1 10957  0.55
      L1  C    11    41       P1  7957  0.96

> <Gold.PLP.Chemscore.Internal.Correction>
1.1069

> <Gold.Rescore>
     Score         DG    S(hbond)    S(metal)    S(lipo)     H(rot)  DE(clash)    DE(int)     intcor
      4.93      -9.44       0.71        0.00      70.83       2.62       0.60       3.91       ----

> <Gold.Chemscore.Fitness>
4.9341

> <Gold.Chemscore.DG>
-9.4417

> <Gold.Chemscore.ZeroCoef>
-5.4800

> <Gold.Chemscore.Hbond>
0.7145

> <Gold.Chemscore.Metal>
0.0000

> <Gold.Chemscore.Lipo>
70.8305

> <Gold.Chemscore.Internal_Hbond>
0.0000

> <Gold.Chemscore.DEClash>
0.5992

> <Gold.Chemscore.DEInternal>
3.9084

> <Gold.Chemscore.Rot>
2.6219

> <Gold.Chemscore.Internal.Correction>
   9.000000E+99

> <Gold.Chemscore.Hbonds>
donor molecule, donor type, donor heavy atom, donor atom, acceptor molecule, acceptor atom, score
      L1  H    20    45       P1 10957  0.27

> <Gold.Chemscore.Hbond.Weighted>
-2.3866

> <Gold.Chemscore.Metal.Weighted>
-0.0000

> <Gold.Chemscore.Lipo.Weighted>
-8.2872

> <Gold.Chemscore.Internal_Hbond.Weighted>
0.0000

> <Gold.Chemscore.DEClash.Weighted>
0.5992

> <Gold.Chemscore.DEInternal.Weighted>
3.9084

> <Gold.Chemscore.Rot.Weighted>
6.7121

> <Gold.Chemscore.Internal.Correction.Weighted>
   9.000000E+99

> <Gold.Protein.RotatedTorsions>
[ 6907 6896 6895 6894 ] final -105.49 input  -60.11 | X-H torsion
[ 7974 7965 7964 7962 ] final   84.85 input  175.53 | X-H torsion
[ 8008 7997 7996 7995 ] final   95.65 input   59.86 | X-H torsion
[ 10167 10162 10161 10158 ] final  177.12 input  -65.29 | X-H torsion
[ 10718 10713 10712 10709 ] final  -75.87 input   66.30 | X-H torsion
[ 10763 10752 10751 10750 ] final  125.97 input  -60.55 | X-H torsion
[ 11005 11000 10999 10996 ] final -153.61 input  -57.11 | X-H torsion

> <Gold.Protein.ActiveResidues>
 VAL166  LYS551  ARG553  GLY616  TRP617  ASP618  TYR619  PRO620  LYS621  CYS622 
 ASP623  PHE694  ASN695  SER759  ASP760  ASP761  ALA762  ILE779  LEU786  VAL792 
 PHE793  MET794  SER795  GLU796  ALA797  LYS798  CYS799  TRP800  GLU811  SER814 

> <Gold.Protein.RotatedAtoms>
  150.7339  134.0119  159.3672 H   0  0  0  0  0  0  0  0  0  0  0  0  # atno 6907 bound_to 6896
  151.8079  135.0687  160.0418 H   0  0  0  0  0  0  0  0  0  0  0  0  # atno 6908 bound_to 6896
  152.3094  133.5700  159.5707 H   0  0  0  0  0  0  0  0  0  0  0  0  # atno 6909 bound_to 6896
  145.5933  139.2341  143.2287 H   0  0  0  0  0  0  0  0  0  0  0  0  # atno 7974 bound_to 7965
  156.0711  140.3283  155.7577 H   0  0  0  0  0  0  0  0  0  0  0  0  # atno 8008 bound_to 7997
  155.5303  140.0593  157.2907 H   0  0  0  0  0  0  0  0  0  0  0  0  # atno 8009 bound_to 7997
  154.4531  140.1928  156.0478 H   0  0  0  0  0  0  0  0  0  0  0  0  # atno 8010 bound_to 7997
  139.5241  144.2835  152.0526 H   0  0  0  0  0  0  0  0  0  0  0  0  # atno 10167 bound_to 10162
  156.0193  130.4451  150.3108 H   0  0  0  0  0  0  0  0  0  0  0  0  # atno 10718 bound_to 10713
  153.6858  135.3307  155.3190 H   0  0  0  0  0  0  0  0  0  0  0  0  # atno 10763 bound_to 10752
  154.8453  135.4420  154.1559 H   0  0  0  0  0  0  0  0  0  0  0  0  # atno 10764 bound_to 10752
  153.2588  135.6989  153.7678 H   0  0  0  0  0  0  0  0  0  0  0  0  # atno 10765 bound_to 10752
  140.7062  134.3882  157.5203 H   0  0  0  0  0  0  0  0  0  0  0  0  # atno 11005 bound_to 11000
  146.1631  140.6759  142.9268 LP  0  0  0  0  0  0  0  0  0  0  0  0  # atno 17320 bound_to 7965
  144.7342  140.4759  143.6916 LP  0  0  0  0  0  0  0  0  0  0  0  0  # atno 17321 bound_to 7965
  140.2289  144.4389  150.6309 LP  0  0  0  0  0  0  0  0  0  0  0  0  # atno 17342 bound_to 10162
  140.6368  143.2196  151.6376 LP  0  0  0  0  0  0  0  0  0  0  0  0  # atno 17343 bound_to 10162
  157.1210  131.0246  151.3009 LP  0  0  0  0  0  0  0  0  0  0  0  0  # atno 17370 bound_to 10713
  157.4628  130.7663  149.7251 LP  0  0  0  0  0  0  0  0  0  0  0  0  # atno 17371 bound_to 10713
  139.8883  134.8859  156.2479 LP  0  0  0  0  0  0  0  0  0  0  0  0  # atno 17394 bound_to 11000
  141.0122  133.7089  156.1130 LP  0  0  0  0  0  0  0  0  0  0  0  0  # atno 17395 bound_to 11000

$$$$
