#       Name:                AV-unprocessed.smi:2445
#       Creating user name   scv26
#       Creation time:       Fri Mar 27 13:27:20 2020


#       File generated by GOLD software.
#

@<TRIPOS>MOLECULE
AV-unprocessed.smi:2445
    45    46     1
SMALL
NO_CHARGES


@<TRIPOS>ATOM
      1 ****        -2.9905   0.1685   4.5330 C.3            1 S1                 0.0000
      2 ****        -2.7383   0.6066   3.1303 C.2            1 S1                 0.0000
      3 ****        -3.1631   0.0036   1.9725 C.2            1 S1                 0.0000
      4 ****        -2.7610   0.6657   0.8108 N.2            1 S1                 0.0000
      5 ****        -2.0389   1.7597   1.0681 C.2            1 S1                 0.0000
      6 ****        -1.4629   2.6389  -0.0016 C.3            1 S1                 0.0000
      7 ****        -2.0202   4.0678   0.0691 C.3            1 S1                 0.0000
      8 ****         0.0816   2.6134  -0.0303 C.3            1 S1                 0.0000
      9 ****         0.6255   1.2581  -0.0368 N.am           1 S1                 0.0000
     10 ****         0.6393   0.4426  -1.0994 C.2            1 S1                 0.0000
     11 ****         0.2306   0.7589  -2.2167 O.2            1 S1                 0.0000
     12 ****         1.1438  -0.7607  -0.7938 N.am           1 S1                 0.0000
     13 ****         1.2550  -1.8907  -1.7164 C.3            1 S1                 0.0000
     14 ****         1.0050  -3.2073  -0.9830 C.3            1 S1                 0.0000
     15 ****         2.1586  -4.1016  -1.4230 C.3            1 S1                 0.0000
     16 ****         3.2157  -3.1830  -1.6350 O.3            1 S1                 0.0000
     17 ****         2.6680  -2.0665  -2.3213 C.3            1 S1                 0.0000
     18 ****         3.6321  -0.8723  -2.2389 C.3            1 S1                 0.0000
     19 ****        -1.8056   2.0408   2.7916 S.3            1 S1                 0.0000
     20 ****        -3.6143  -0.7252   4.5599 H              1 S1                 0.0000
     21 ****        -3.4995   0.9507   5.0963 H              1 S1                 0.0000
     22 ****        -2.0538  -0.0598   5.0418 H              1 S1                 0.0000
     23 ****        -3.7541  -0.8960   1.8828 H              1 S1                 0.0000
     24 ****        -1.8028   2.2302  -0.9547 H              1 S1                 0.0000
     25 ****        -3.1086   4.0679   0.0036 H              1 S1                 0.0000
     26 ****        -1.6410   4.6767  -0.7521 H              1 S1                 0.0000
     27 ****        -1.7421   4.5591   1.0018 H              1 S1                 0.0000
     28 ****         0.4586   3.1720  -0.8884 H              1 S1                 0.0000
     29 ****         0.4726   3.1130   0.8564 H              1 S1                 0.0000
     30 ****         0.9866   0.9072   0.8383 H              1 S1                 0.0000
     31 ****         1.4579  -0.9173   0.1526 H              1 S1                 0.0000
     32 ****         0.5308  -1.7871  -2.5268 H              1 S1                 0.0000
     33 ****         1.0539  -3.0677   0.0982 H              1 S1                 0.0000
     34 ****         0.0323  -3.6418  -1.2156 H              1 S1                 0.0000
     35 ****         2.4184  -4.8534  -0.6777 H              1 S1                 0.0000
     36 ****         1.9227  -4.6109  -2.3589 H              1 S1                 0.0000
     37 ****         2.5596  -2.3523  -3.3692 H              1 S1                 0.0000
     38 ****         3.2263  -0.0041  -2.7584 H              1 S1                 0.0000
     39 ****         4.5875  -1.1167  -2.7032 H              1 S1                 0.0000
     40 ****         3.8339  -0.5868  -1.2062 H              1 S1                 0.0000
     41 ****        -2.9885   0.3551  -0.1121 LP             1 S1                 0.0000
     42 ****        -0.1406   1.6743  -2.3727 LP             1 S1                 0.0000
     43 ****         0.2698   0.1005  -2.9683 LP             1 S1                 0.0000
     44 ****         3.9330  -3.6072  -2.1877 LP             1 S1                 0.0000
     45 ****         3.5986  -2.8925  -0.7581 LP             1 S1                 0.0000
@<TRIPOS>BOND
    1    1    2 1     
    2    1   20 1     
    3    1   21 1     
    4    1   22 1     
    5    2   19 1     
    6    2    3 2     
    7    3    4 1     
    8    3   23 1     
    9    4    5 2     
   10    5    6 1     
   11    5   19 1     
   12    6    7 1     
   13    6    8 1     
   14    6   24 1     
   15    7   25 1     
   16    7   26 1     
   17    7   27 1     
   18    8    9 1     
   19    8   28 1     
   20    8   29 1     
   21    9   10 am    
   22    9   30 1     
   23   10   11 2     
   24   10   12 am    
   25   12   13 1     
   26   12   31 1     
   27   13   17 1     
   28   13   14 1     
   29   13   32 1     
   30   14   15 1     
   31   14   33 1     
   32   14   34 1     
   33   15   16 1     
   34   15   35 1     
   35   15   36 1     
   36   16   17 1     
   37   17   18 1     
   38   17   37 1     
   39   18   38 1     
   40   18   39 1     
   41   18   40 1     
   42    4   41 1     
   43   11   42 1     
   44   11   43 1     
   45   16   44 1     
   46   16   45 1     
@<TRIPOS>SUBSTRUCTURE
      1 S1             1
@<TRIPOS>SET
LONE_PAIRS      STATIC     ATOMS    <user>   **** ""
5 41 42 43 44 45
DONOR_HYDROGENS      STATIC     ATOMS    <user>   **** ""
2 30 31
ATOM$BLUE        STATIC     ATOMS    COLORGROUP SYSTEM
5 41 42 43 44 45
ATOM$RED        STATIC     ATOMS    COLORGROUP SYSTEM
2 30 31
