#       Name:                AV-unprocessed.smi:1584
#       Creating user name   scv26
#       Creation time:       Fri Mar 27 06:59:29 2020


#       File generated by GOLD software.
#

@<TRIPOS>MOLECULE
AV-unprocessed.smi:1584
    44    45     1
SMALL
NO_CHARGES


@<TRIPOS>ATOM
      1 ****        -3.0341  -1.1940   1.2763 C.3            1 S1                 0.0000
      2 ****        -2.0009  -0.3936   0.4665 C.3            1 S1                 0.0000
      3 ****        -2.2023  -0.5084  -1.0607 C.3            1 S1                 0.0000
      4 ****        -3.5167  -0.0637  -1.4879 N.pl3          1 S1                 0.0000
      5 ****        -3.9800   1.2286  -1.6165 C.2            1 S1                 0.0000
      6 ****        -5.2736   1.1556  -2.0473 C.2            1 S1                 0.0000
      7 ****        -5.5144  -0.2425  -2.1576 C.2            1 S1                 0.0000
      8 ****        -4.4605  -0.9699  -1.8240 N.2            1 S1                 0.0000
      9 ****        -0.6591  -0.8381   0.8327 N.am           1 S1                 0.0000
     10 ****         0.4591  -0.1023   0.7300 C.2            1 S1                 0.0000
     11 ****         0.4657   1.0548   0.3087 O.2            1 S1                 0.0000
     12 ****         1.7672  -0.7757   1.1810 C.3            1 S1                 0.0000
     13 ****         2.6433  -1.2263   0.0036 C.3            1 S1                 0.0000
     14 ****         3.3253  -0.0404  -0.6919 C.3            1 S1                 0.0000
     15 ****         3.9758   0.8829   0.2459 N.am           1 S1                 0.0000
     16 ****         5.0040   1.7414  -0.3455 C.3            1 S1                 0.0000
     17 ****         3.6459   1.0110   1.5540 C.2            1 S1                 0.0000
     18 ****         4.1957   1.8286   2.2924 O.2            1 S1                 0.0000
     19 ****         2.5648   0.1032   2.1716 C.3            1 S1                 0.0000
     20 ****        -4.0469  -0.8298   1.1032 H              1 S1                 0.0000
     21 ****        -2.8416  -1.1133   2.3468 H              1 S1                 0.0000
     22 ****        -3.0112  -2.2517   1.0121 H              1 S1                 0.0000
     23 ****        -2.1066   0.6546   0.7529 H              1 S1                 0.0000
     24 ****        -1.4608   0.0925  -1.5885 H              1 S1                 0.0000
     25 ****        -2.0532  -1.5394  -1.3863 H              1 S1                 0.0000
     26 ****        -3.3571   2.0819  -1.3913 H              1 S1                 0.0000
     27 ****        -5.9453   1.9758  -2.2531 H              1 S1                 0.0000
     28 ****        -6.4175  -0.7466  -2.4687 H              1 S1                 0.0000
     29 ****        -0.5749  -1.7781   1.1920 H              1 S1                 0.0000
     30 ****         1.4785  -1.6779   1.7233 H              1 S1                 0.0000
     31 ****         3.4082  -1.9102   0.3740 H              1 S1                 0.0000
     32 ****         2.0564  -1.7948  -0.7191 H              1 S1                 0.0000
     33 ****         4.0568  -0.4275  -1.4026 H              1 S1                 0.0000
     34 ****         2.5982   0.5230  -1.2778 H              1 S1                 0.0000
     35 ****         4.7892   2.7941  -0.1550 H              1 S1                 0.0000
     36 ****         5.0727   1.6182  -1.4270 H              1 S1                 0.0000
     37 ****         5.9823   1.5099   0.0777 H              1 S1                 0.0000
     38 ****         1.8934   0.7175   2.7741 H              1 S1                 0.0000
     39 ****         3.0752  -0.5502   2.8801 H              1 S1                 0.0000
     40 ****        -4.3807  -1.9667  -1.8213 LP             1 S1                 0.0000
     41 ****        -0.3894   1.4881   0.0238 LP             1 S1                 0.0000
     42 ****         1.3261   1.5612   0.2515 LP             1 S1                 0.0000
     43 ****         4.9117   2.4261   1.9315 LP             1 S1                 0.0000
     44 ****         3.9262   1.8952   3.2532 LP             1 S1                 0.0000
@<TRIPOS>BOND
    1    1    2 1     
    2    1   20 1     
    3    1   21 1     
    4    1   22 1     
    5    2    3 1     
    6    2    9 1     
    7    2   23 1     
    8    3    4 1     
    9    3   24 1     
   10    3   25 1     
   11    4    8 1     
   12    4    5 1     
   13    5    6 2     
   14    5   26 1     
   15    6    7 1     
   16    6   27 1     
   17    7    8 2     
   18    7   28 1     
   19    9   10 am    
   20    9   29 1     
   21   10   11 2     
   22   10   12 1     
   23   12   19 1     
   24   12   13 1     
   25   12   30 1     
   26   13   14 1     
   27   13   31 1     
   28   13   32 1     
   29   14   15 1     
   30   14   33 1     
   31   14   34 1     
   32   15   16 1     
   33   15   17 am    
   34   16   35 1     
   35   16   36 1     
   36   16   37 1     
   37   17   18 2     
   38   17   19 1     
   39   19   38 1     
   40   19   39 1     
   41    8   40 1     
   42   11   41 1     
   43   11   42 1     
   44   18   43 1     
   45   18   44 1     
@<TRIPOS>SUBSTRUCTURE
      1 S1             1
@<TRIPOS>SET
LONE_PAIRS      STATIC     ATOMS    <user>   **** ""
5 40 41 42 43 44
DONOR_HYDROGENS      STATIC     ATOMS    <user>   **** ""
1 29
ATOM$BLUE        STATIC     ATOMS    COLORGROUP SYSTEM
5 40 41 42 43 44
ATOM$RED        STATIC     ATOMS    COLORGROUP SYSTEM
1 29
