AV-unprocessed.smi:2711|AV-procd|sdf|10473|dock3
  -GOLD-   2272014513D 1   1.00000     0.00000
 Structure written by MMmdl.
 33 34  0  0  0  0  0  0  0  0  2 V2000
  148.8414  141.2642  154.4886 C   0  0  0  0  0  0  0  0  0  0  0  0
  149.8173  140.9229  155.5632 C   0  0  0  0  0  0  0  0  0  0  0  0
  150.5627  141.7877  156.3219 C   0  0  0  0  0  0  0  0  0  0  0  0
  151.3885  141.1518  157.2503 N   0  0  0  0  0  0  0  0  0  0  0  0
  151.2868  139.8186  157.2258 C   0  0  0  0  0  0  0  0  0  0  0  0
  152.0007  139.0155  158.0315 N   0  5  0  0  0  0  0  0  0  0  0  0
  153.0775  139.5008  158.6904 C   0  0  0  0  0  0  0  0  0  0  0  0
  154.2471  139.1357  158.5494 O   0  0  0  0  0  0  0  0  0  0  0  0
  152.7805  140.4699  159.5691 N   0  0  0  0  0  0  0  0  0  0  0  0
  153.7345  141.1778  160.4213 C   0  0  0  0  0  0  0  0  0  0  0  0
  153.1247  142.3873  161.1543 C   0  0  0  0  0  0  0  0  0  0  0  0
  153.1230  142.4257  162.3861 O   0  0  0  0  0  0  0  0  0  0  0  0
  152.6189  143.3920  160.4091 N   0  0  0  0  0  0  0  0  0  0  0  0
  152.6027  143.4479  158.9479 C   0  0  0  0  0  0  0  0  0  0  0  0
  152.1719  144.8715  158.5936 C   0  0  0  0  0  0  0  0  0  0  0  0
  151.3685  145.3295  159.8028 C   0  0  0  0  0  0  0  0  0  0  0  0
  152.0104  144.5927  160.9786 C   0  0  0  0  0  0  0  0  0  0  0  0
  150.1385  139.2671  156.0035 S   0  0  0  0  0  0  0  0  0  0  0  0
  147.8897  141.5768  154.9182 H   0  0  0  0  0  0  0  0  0  0  0  0
  148.6543  140.4078  153.8405 H   0  0  0  0  0  0  0  0  0  0  0  0
  149.2164  142.0783  153.8682 H   0  0  0  0  0  0  0  0  0  0  0  0
  150.5700  142.8663  156.2683 H   0  0  0  0  0  0  0  0  0  0  0  0
  151.8117  140.7421  159.6462 H   0  0  0  0  0  0  0  0  0  0  0  0
  154.1072  140.4726  161.1643 H   0  0  0  0  0  0  0  0  0  0  0  0
  154.5931  141.4895  159.8246 H   0  0  0  0  0  0  0  0  0  0  0  0
  153.5747  143.2130  158.5120 H   0  0  0  0  0  0  0  0  0  0  0  0
  151.8756  142.7262  158.5725 H   0  0  0  0  0  0  0  0  0  0  0  0
  153.0541  145.5034  158.4823 H   0  0  0  0  0  0  0  0  0  0  0  0
  151.6047  144.9229  157.6636 H   0  0  0  0  0  0  0  0  0  0  0  0
  151.3720  146.4123  159.9294 H   0  0  0  0  0  0  0  0  0  0  0  0
  150.3314  145.0091  159.6931 H   0  0  0  0  0  0  0  0  0  0  0  0
  151.2737  144.3542  161.7474 H   0  0  0  0  0  0  0  0  0  0  0  0
  152.7912  145.2034  161.4345 H   0  0  0  0  0  0  0  0  0  0  0  0
  1  2  1  0  0  0  0
  1 19  1  0  0  0  0
  1 20  1  0  0  0  0
  1 21  1  0  0  0  0
  2 18  1  0  0  0  0
  2  3  2  0  0  0  0
  3  4  1  0  0  0  0
  3 22  1  0  0  0  0
  4  5  2  0  0  0  0
  5  6  1  0  0  0  0
  5 18  1  0  0  0  0
  6  7  1  0  0  0  0
  7  8  2  0  0  0  0
  7  9  1  0  0  0  0
  9 10  1  0  0  0  0
  9 23  1  0  0  0  0
 10 11  1  0  0  0  0
 10 24  1  0  0  0  0
 10 25  1  0  0  0  0
 11 12  2  0  0  0  0
 11 13  1  0  0  0  0
 13 17  1  0  0  0  0
 13 14  1  0  0  0  0
 14 15  1  0  0  0  0
 14 26  1  0  0  0  0
 14 27  1  0  0  0  0
 15 16  1  0  0  0  0
 15 28  1  0  0  0  0
 15 29  1  0  0  0  0
 16 17  1  0  0  0  0
 16 30  1  0  0  0  0
 16 31  1  0  0  0  0
 17 32  1  0  0  0  0
 17 33  1  0  0  0  0
M  CHG  1   6  -1
M  END
> <s_m_source_file>
AV-unprocessed.smi

> <i_m_source_file_index>
2711

> <i_lp_mmshare_version>
43012

> <i_f3d_flags>
0

> <s_epik_input>
W0NIM11jMVtjSF1uYyhzMSlbTkhdQyg9TylbTkhdW0NIMl1DKD1PKU4yW0NIMl1bQ0gyXVtDSDJdW0NIMl0y

> <s_epik_cmdline>
J2VwaWtfcHl0aG9uJywgJy1waCcsICc3LjAnLCAnLXRuJywgJzgnLCAnLW1hJywgJzIwMCcsICctbWV0YWxfYmluZGluZycsICctaW1hZScsICc8aW5maWxlLm1hZT4nLCAnLW9tYWUnLCAnPG91dGZpbGUubWFlPic=

> <r_lp_tautomer_probability>
1

> <r_epik_Ionization_Penalty>
6.8506

> <r_epik_Ionization_Penalty_Charging>
5.74941

> <r_epik_Ionization_Penalty_Neutral>
1.10119

> <r_epik_State_Penalty>
5.74937

> <r_epik_Charging_Adjusted_Penalty>
11.4988

> <i_epik_Tot_Q>
-1

> <i_epik_Tot_abs_Q>
1

> <r_epik_Metal_State_Penalty>
1.72493

> <b_epik_Metal_Only>
1

> <s_lp_Force_Field>
OPLS_2005

> <r_lp_Energy>
20.4432

> <b_lp_Chiralities_Consistent>
1

> <s_lp_Variant>
AV-unprocessed.smi:2711-2

> <Gold.Version>
5.8.1

> <Gold.Id.Protein>
6NUR|6NUR_protein|mol2

> <Gold.PLP.Fitness>
48.1734

> <Gold.PLP.PLP>
-43.5290

> <Gold.PLP.part.hbond>
-1.0000

> <Gold.PLP.part.metal>
0.0000

> <Gold.PLP.part.buried>
-5.1230

> <Gold.PLP.part.nonpolar>
-38.1646

> <Gold.PLP.part.repulsive>
0.2098

> <Gold.PLP.ligand.clash>
0.0000

> <Gold.PLP.ligand.torsion>
0.6952

> <Gold.PLP.Chemscore.Hbond>
1.0000

> <Gold.PLP.Chemscore.CHOScore>
1.0000

> <Gold.PLP.Chemscore.Metal>
0.0000

> <Gold.Chemscore.Hbonds>
donor molecule, donor type, donor heavy atom, donor atom, acceptor molecule, acceptor atom, score
      P1  H  7997  8010       L1     8  1.00
      L1  C     3    22       P1  8028  0.89

> <Gold.PLP.Chemscore.Internal.Correction>
0.0348

> <Gold.Rescore>
     Score         DG    S(hbond)    S(metal)    S(lipo)     H(rot)  DE(clash)    DE(int)     intcor
     15.07     -15.75       0.97        0.00      88.61       1.31       0.02       0.66       ----

> <Gold.Chemscore.Fitness>
15.0690

> <Gold.Chemscore.DG>
-15.7498

> <Gold.Chemscore.ZeroCoef>
-5.4800

> <Gold.Chemscore.Hbond>
0.9713

> <Gold.Chemscore.Metal>
0.0000

> <Gold.Chemscore.Lipo>
88.6133

> <Gold.Chemscore.Internal_Hbond>
0.0000

> <Gold.Chemscore.DEClash>
0.0210

> <Gold.Chemscore.DEInternal>
0.6598

> <Gold.Chemscore.Rot>
1.3056

> <Gold.Chemscore.Internal.Correction>
   9.000000E+99

> <Gold.Chemscore.Hbonds>
donor molecule, donor type, donor heavy atom, donor atom, acceptor molecule, acceptor atom, score
      P1  H  7997  8010       L1     8  0.55

> <Gold.Chemscore.Hbond.Weighted>
-3.2443

> <Gold.Chemscore.Metal.Weighted>
-0.0000

> <Gold.Chemscore.Lipo.Weighted>
-10.3678

> <Gold.Chemscore.Internal_Hbond.Weighted>
0.0000

> <Gold.Chemscore.DEClash.Weighted>
0.0210

> <Gold.Chemscore.DEInternal.Weighted>
0.6598

> <Gold.Chemscore.Rot.Weighted>
3.3422

> <Gold.Chemscore.Internal.Correction.Weighted>
   9.000000E+99

> <Gold.Protein.RotatedTorsions>
[ 6907 6896 6895 6894 ] final -114.59 input  -60.11 | X-H torsion
[ 7974 7965 7964 7962 ] final  -78.10 input  175.53 | X-H torsion
[ 8008 7997 7996 7995 ] final   17.11 input   59.86 | X-H torsion
[ 10167 10162 10161 10158 ] final  124.91 input  -65.29 | X-H torsion
[ 10718 10713 10712 10709 ] final  -10.95 input   66.30 | X-H torsion
[ 10763 10752 10751 10750 ] final  -53.53 input  -60.55 | X-H torsion
[ 11005 11000 10999 10996 ] final   89.72 input  -57.11 | X-H torsion

> <Gold.Protein.ActiveResidues>
 VAL166  LYS551  ARG553  GLY616  TRP617  ASP618  TYR619  PRO620  LYS621  CYS622 
 ASP623  PHE694  ASN695  SER759  ASP760  ASP761  ALA762  ILE779  LEU786  VAL792 
 PHE793  MET794  SER795  GLU796  ALA797  LYS798  CYS799  TRP800  GLU811  SER814 

> <Gold.Protein.RotatedAtoms>
  150.7913  133.8780  159.3277 H   0  0  0  0  0  0  0  0  0  0  0  0  # atno 6907 bound_to 6896
  151.6617  135.0986  160.0190 H   0  0  0  0  0  0  0  0  0  0  0  0  # atno 6908 bound_to 6896
  152.3988  133.6747  159.6334 H   0  0  0  0  0  0  0  0  0  0  0  0  # atno 6909 bound_to 6896
  145.5909  140.9429  143.1293 H   0  0  0  0  0  0  0  0  0  0  0  0  # atno 7974 bound_to 7965
  154.8866  140.2981  155.5394 H   0  0  0  0  0  0  0  0  0  0  0  0  # atno 8008 bound_to 7997
  156.3021  140.2432  156.3810 H   0  0  0  0  0  0  0  0  0  0  0  0  # atno 8009 bound_to 7997
  154.8661  140.0403  157.1685 H   0  0  0  0  0  0  0  0  0  0  0  0  # atno 8010 bound_to 7997
  139.5715  144.6941  151.3766 H   0  0  0  0  0  0  0  0  0  0  0  0  # atno 10167 bound_to 10162
  156.6661  130.4996  149.6015 H   0  0  0  0  0  0  0  0  0  0  0  0  # atno 10718 bound_to 10713
  154.1603  135.6476  153.4984 H   0  0  0  0  0  0  0  0  0  0  0  0  # atno 10763 bound_to 10752
  153.0112  135.5359  154.6718 H   0  0  0  0  0  0  0  0  0  0  0  0  # atno 10764 bound_to 10752
  154.6029  135.2945  155.0487 H   0  0  0  0  0  0  0  0  0  0  0  0  # atno 10765 bound_to 10752
  139.8870  134.8569  156.3182 H   0  0  0  0  0  0  0  0  0  0  0  0  # atno 11005 bound_to 11000
  144.7352  139.7608  143.7332 LP  0  0  0  0  0  0  0  0  0  0  0  0  # atno 17320 bound_to 7965
  146.1647  139.4775  142.9965 LP  0  0  0  0  0  0  0  0  0  0  0  0  # atno 17321 bound_to 7965
  140.6999  143.7657  150.7386 LP  0  0  0  0  0  0  0  0  0  0  0  0  # atno 17342 bound_to 10162
  140.1165  143.4651  152.2339 LP  0  0  0  0  0  0  0  0  0  0  0  0  # atno 17343 bound_to 10162
  156.1974  130.6598  151.1129 LP  0  0  0  0  0  0  0  0  0  0  0  0  # atno 17370 bound_to 10713
  157.7093  131.0742  150.6557 LP  0  0  0  0  0  0  0  0  0  0  0  0  # atno 17371 bound_to 10713
  140.9805  133.7271  156.0664 LP  0  0  0  0  0  0  0  0  0  0  0  0  # atno 17394 bound_to 11000
  140.7756  134.3783  157.5498 LP  0  0  0  0  0  0  0  0  0  0  0  0  # atno 17395 bound_to 11000

$$$$
