AV-unprocessed.smi:3350|AV-procd|sdf|12945|dock6
  -GOLD-   2272019383D 1   1.00000     0.00000
 Structure written by MMmdl.
 41 42  0  0  0  0  0  0  0  0  1 V2000
  147.0805  140.3031  153.3866 C   0  0  0  0  0  0  0  0  0  0  0  0
  147.7717  139.0756  153.9954 C   0  0  2  0  0  0  0  0  0  0  0  0
  149.3047  139.2583  154.0373 C   0  0  0  0  0  0  0  0  0  0  0  0
  149.7319  140.2297  155.0290 N   0  0  0  0  0  0  0  0  0  0  0  0
  148.9551  140.9624  155.9014 C   0  0  0  0  0  0  0  0  0  0  0  0
  149.7968  141.7532  156.6295 C   0  0  0  0  0  0  0  0  0  0  0  0
  151.0870  141.4230  156.1289 C   0  0  0  0  0  0  0  0  0  0  0  0
  151.0455  140.5067  155.1752 N   0  0  0  0  0  0  0  0  0  0  0  0
  147.4087  137.8924  153.2159 N   0  0  0  0  0  0  0  0  0  0  0  0
  146.2200  137.2726  153.2455 C   0  0  0  0  0  0  0  0  0  0  0  0
  145.2656  137.6396  153.9308 O   0  0  0  0  0  0  0  0  0  0  0  0
  146.2066  136.1904  152.4540 N   0  0  0  0  0  0  0  0  0  0  0  0
  145.0823  135.2710  152.2840 C   0  0  1  0  0  0  0  0  0  0  0  0
  143.7843  136.0878  152.2026 C   0  0  0  0  0  0  0  0  0  0  0  0
  145.2853  134.3895  151.0331 C   0  0  1  0  0  0  0  0  0  0  0  0
  146.4520  133.4012  151.1161 C   0  0  0  0  0  0  0  0  0  0  0  0
  146.0206  132.3272  150.1459 C   0  0  0  0  0  0  0  0  0  0  0  0
  144.5219  132.2599  150.4158 C   0  0  0  0  0  0  0  0  0  0  0  0
  144.1359  133.5759  150.8027 O   0  0  0  0  0  0  0  0  0  0  0  0
  147.3034  141.2029  153.9610 H   0  0  0  0  0  0  0  0  0  0  0  0
  145.9971  140.1801  153.3779 H   0  0  0  0  0  0  0  0  0  0  0  0
  147.4057  140.4750  152.3599 H   0  0  0  0  0  0  0  0  0  0  0  0
  147.4008  138.9739  155.0170 H   0  0  0  0  0  0  0  0  0  0  0  0
  149.7978  138.3074  154.2440 H   0  0  0  0  0  0  0  0  0  0  0  0
  149.6695  139.5908  153.0644 H   0  0  0  0  0  0  0  0  0  0  0  0
  147.8794  140.8682  155.9243 H   0  0  0  0  0  0  0  0  0  0  0  0
  149.5312  142.4611  157.4004 H   0  0  0  0  0  0  0  0  0  0  0  0
  152.0462  141.8185  156.4285 H   0  0  0  0  0  0  0  0  0  0  0  0
  148.1254  137.5088  152.6175 H   0  0  0  0  0  0  0  0  0  0  0  0
  147.0450  135.9763  151.9341 H   0  0  0  0  0  0  0  0  0  0  0  0
  145.0046  134.6190  153.1559 H   0  0  0  0  0  0  0  0  0  0  0  0
  142.9139  135.4372  152.1144 H   0  0  0  0  0  0  0  0  0  0  0  0
  143.7875  136.7563  151.3410 H   0  0  0  0  0  0  0  0  0  0  0  0
  143.6473  136.6965  153.0969 H   0  0  0  0  0  0  0  0  0  0  0  0
  145.4224  135.0179  150.1515 H   0  0  0  0  0  0  0  0  0  0  0  0
  147.4092  133.8518  150.8540 H   0  0  0  0  0  0  0  0  0  0  0  0
  146.5339  132.9811  152.1196 H   0  0  0  0  0  0  0  0  0  0  0  0
  146.2070  132.6503  149.1207 H   0  0  0  0  0  0  0  0  0  0  0  0
  146.5270  131.3749  150.3050 H   0  0  0  0  0  0  0  0  0  0  0  0
  143.9569  131.9164  149.5493 H   0  0  0  0  0  0  0  0  0  0  0  0
  144.3159  131.5830  151.2455 H   0  0  0  0  0  0  0  0  0  0  0  0
  1  2  1  0  0  0  0
  1 20  1  0  0  0  0
  1 21  1  0  0  0  0
  1 22  1  0  0  0  0
  2  3  1  0  0  0  0
  2  9  1  0  0  0  0
  2 23  1  0  0  0  0
  3  4  1  0  0  0  0
  3 24  1  0  0  0  0
  3 25  1  0  0  0  0
  4  8  1  0  0  0  0
  4  5  1  0  0  0  0
  5  6  2  0  0  0  0
  5 26  1  0  0  0  0
  6  7  1  0  0  0  0
  6 27  1  0  0  0  0
  7  8  2  0  0  0  0
  7 28  1  0  0  0  0
  9 10  1  0  0  0  0
  9 29  1  0  0  0  0
 10 11  2  0  0  0  0
 10 12  1  0  0  0  0
 12 13  1  0  0  0  0
 12 30  1  0  0  0  0
 13 14  1  0  0  0  0
 13 15  1  0  0  0  0
 13 31  1  0  0  0  0
 14 32  1  0  0  0  0
 14 33  1  0  0  0  0
 14 34  1  0  0  0  0
 15 19  1  0  0  0  0
 15 16  1  0  0  0  0
 15 35  1  0  0  0  0
 16 17  1  0  0  0  0
 16 36  1  0  0  0  0
 16 37  1  0  0  0  0
 17 18  1  0  0  0  0
 17 38  1  0  0  0  0
 17 39  1  0  0  0  0
 18 19  1  0  0  0  0
 18 40  1  0  0  0  0
 18 41  1  0  0  0  0
M  END
> <s_m_source_file>
AV-unprocessed.smi

> <i_m_source_file_index>
3350

> <i_lp_mmshare_version>
43012

> <i_f3d_flags>
0

> <s_epik_input>
bjFbY0hdW2NIXVtjSF1uMVtDSDJdW0NAQEhdKFtDSDNdKVtOSF1DKD1PKVtOSF1bQ0BIXShbQ0gzXSlbQ0BASF0yW0NIMl1bQ0gyXVtDSDJdTzI=

> <s_epik_cmdline>
J2VwaWtfcHl0aG9uJywgJy1waCcsICc3LjAnLCAnLXRuJywgJzgnLCAnLW1hJywgJzIwMCcsICctbWV0YWxfYmluZGluZycsICctaW1hZScsICc8aW5maWxlLm1hZT4nLCAnLW9tYWUnLCAnPG91dGZpbGUubWFlPic=

> <r_lp_tautomer_probability>
1

> <r_epik_Ionization_Penalty>
6.42349e-05

> <r_epik_Ionization_Penalty_Charging>
0

> <r_epik_Ionization_Penalty_Neutral>
6.42349e-05

> <r_epik_State_Penalty>
-0

> <r_epik_Charging_Adjusted_Penalty>
0

> <i_epik_Tot_Q>
0

> <i_epik_Tot_abs_Q>
0

> <r_epik_Metal_State_Penalty>
-0

> <b_epik_Metal_Only>
0

> <s_lp_Force_Field>
OPLS_2005

> <r_lp_Energy>
14.6241

> <b_lp_Chiralities_Consistent>
1

> <s_lp_Variant>
AV-unprocessed.smi:3350-7

> <Gold.Version>
5.8.1

> <Gold.Id.Protein>
6NUR|6NUR_protein|mol2

> <Gold.PLP.Fitness>
40.3382

> <Gold.PLP.PLP>
-32.6621

> <Gold.PLP.part.hbond>
-3.0000

> <Gold.PLP.part.metal>
0.0000

> <Gold.PLP.part.buried>
-4.3585

> <Gold.PLP.part.nonpolar>
-26.0836

> <Gold.PLP.part.repulsive>
0.4166

> <Gold.PLP.ligand.clash>
0.0000

> <Gold.PLP.ligand.torsion>
0.5445

> <Gold.PLP.Chemscore.Hbond>
2.9120

> <Gold.PLP.Chemscore.CHOScore>
0.0000

> <Gold.PLP.Chemscore.Metal>
0.0000

> <Gold.Chemscore.Hbonds>
donor molecule, donor type, donor heavy atom, donor atom, acceptor molecule, acceptor atom, score
      L1  H     9    29       P1  7948  1.00
      L1  H    12    30       P1  7948  0.93
      P1  H  7989  7998       L1     8  0.98

> <Gold.PLP.Chemscore.Internal.Correction>
0.0291

> <Gold.Rescore>
     Score         DG    S(hbond)    S(metal)    S(lipo)     H(rot)  DE(clash)    DE(int)     intcor
     16.52     -18.34       2.71        0.00      72.51       1.82       0.03       1.79       ----

> <Gold.Chemscore.Fitness>
16.5157

> <Gold.Chemscore.DG>
-18.3409

> <Gold.Chemscore.ZeroCoef>
-5.4800

> <Gold.Chemscore.Hbond>
2.7051

> <Gold.Chemscore.Metal>
0.0000

> <Gold.Chemscore.Lipo>
72.5132

> <Gold.Chemscore.Internal_Hbond>
0.0000

> <Gold.Chemscore.DEClash>
0.0313

> <Gold.Chemscore.DEInternal>
1.7940

> <Gold.Chemscore.Rot>
1.8197

> <Gold.Chemscore.Internal.Correction>
   9.000000E+99

> <Gold.Chemscore.Hbonds>
donor molecule, donor type, donor heavy atom, donor atom, acceptor molecule, acceptor atom, score
      L1  H     9    29       P1  7948  0.98
      L1  H    12    30       P1  7948  0.89
      P1  H  7989  7998       L1     8  0.46

> <Gold.Chemscore.Hbond.Weighted>
-9.0352

> <Gold.Chemscore.Metal.Weighted>
-0.0000

> <Gold.Chemscore.Lipo.Weighted>
-8.4840

> <Gold.Chemscore.Internal_Hbond.Weighted>
0.0000

> <Gold.Chemscore.DEClash.Weighted>
0.0313

> <Gold.Chemscore.DEInternal.Weighted>
1.7940

> <Gold.Chemscore.Rot.Weighted>
4.6583

> <Gold.Chemscore.Internal.Correction.Weighted>
   9.000000E+99

> <Gold.Protein.RotatedTorsions>
[ 6907 6896 6895 6894 ] final -155.22 input  -60.11 | X-H torsion
[ 7974 7965 7964 7962 ] final   66.44 input  175.53 | X-H torsion
[ 8008 7997 7996 7995 ] final   13.81 input   59.86 | X-H torsion
[ 10167 10162 10161 10158 ] final -114.39 input  -65.29 | X-H torsion
[ 10718 10713 10712 10709 ] final -171.45 input   66.30 | X-H torsion
[ 10763 10752 10751 10750 ] final   53.04 input  -60.55 | X-H torsion
[ 11005 11000 10999 10996 ] final  -45.24 input  -57.11 | X-H torsion

> <Gold.Protein.ActiveResidues>
 VAL166  LYS551  ARG553  GLY616  TRP617  ASP618  TYR619  PRO620  LYS621  CYS622 
 ASP623  PHE694  ASN695  SER759  ASP760  ASP761  ALA762  ILE779  LEU786  VAL792 
 PHE793  MET794  SER795  GLU796  ALA797  LYS798  CYS799  TRP800  GLU811  SER814 

> <Gold.Protein.RotatedAtoms>
  151.2693  133.4263  159.2620 H   0  0  0  0  0  0  0  0  0  0  0  0  # atno 6907 bound_to 6896
  151.0460  134.9640  159.8197 H   0  0  0  0  0  0  0  0  0  0  0  0  # atno 6908 bound_to 6896
  152.5374  134.2649  159.9002 H   0  0  0  0  0  0  0  0  0  0  0  0  # atno 6909 bound_to 6896
  145.8265  139.3114  143.1012 H   0  0  0  0  0  0  0  0  0  0  0  0  # atno 7974 bound_to 7965
  154.8397  140.2912  155.5667 H   0  0  0  0  0  0  0  0  0  0  0  0  # atno 8008 bound_to 7997
  156.3011  140.2516  156.3269 H   0  0  0  0  0  0  0  0  0  0  0  0  # atno 8009 bound_to 7997
  154.9139  140.0388  157.1950 H   0  0  0  0  0  0  0  0  0  0  0  0  # atno 8010 bound_to 7997
  140.1014  143.4609  152.1809 H   0  0  0  0  0  0  0  0  0  0  0  0  # atno 10167 bound_to 10162
  156.7411  130.9343  151.3110 H   0  0  0  0  0  0  0  0  0  0  0  0  # atno 10718 bound_to 10713
  152.9792  135.5792  154.4677 H   0  0  0  0  0  0  0  0  0  0  0  0  # atno 10763 bound_to 10752
  154.4244  135.2772  155.1956 H   0  0  0  0  0  0  0  0  0  0  0  0  # atno 10764 bound_to 10752
  154.3691  135.6172  153.5784 H   0  0  0  0  0  0  0  0  0  0  0  0  # atno 10765 bound_to 10752
  141.0503  133.6745  156.2985 H   0  0  0  0  0  0  0  0  0  0  0  0  # atno 11005 bound_to 11000
  145.9617  140.8830  143.0207 LP  0  0  0  0  0  0  0  0  0  0  0  0  # atno 17320 bound_to 7965
  144.6743  140.1822  143.7404 LP  0  0  0  0  0  0  0  0  0  0  0  0  # atno 17321 bound_to 7965
  139.5669  144.7440  151.3998 LP  0  0  0  0  0  0  0  0  0  0  0  0  # atno 17342 bound_to 10162
  140.6975  143.7712  150.7350 LP  0  0  0  0  0  0  0  0  0  0  0  0  # atno 17343 bound_to 10162
  157.6818  130.9147  150.0286 LP  0  0  0  0  0  0  0  0  0  0  0  0  # atno 17370 bound_to 10713
  156.1464  130.3642  149.9504 LP  0  0  0  0  0  0  0  0  0  0  0  0  # atno 17371 bound_to 10713
  140.6069  134.5498  157.5527 LP  0  0  0  0  0  0  0  0  0  0  0  0  # atno 17394 bound_to 11000
  139.9345  134.7902  156.0841 LP  0  0  0  0  0  0  0  0  0  0  0  0  # atno 17395 bound_to 11000

$$$$
