AV-unprocessed.smi:1976|AV-procd|sdf|7986|dock5
  -GOLD-   2272010163D 1   1.00000     0.00000
 Structure written by MMmdl.
 45 47  0  0  0  0  0  0  0  0  2 V2000
  146.0795  137.7206  154.5609 O   0  0  0  0  0  0  0  0  0  0  0  0
  145.7756  138.0176  153.4047 C   0  0  0  0  0  0  0  0  0  0  0  0
  146.4795  139.1669  152.6684 C   0  0  0  0  0  0  0  0  0  0  0  0
  147.5752  139.7749  153.4420 N   0  0  0  0  0  0  0  0  0  0  0  0
  148.6503  138.9365  153.7968 C   0  0  0  0  0  0  0  0  0  0  0  0
  149.7151  139.3676  154.4998 C   0  0  0  0  0  0  0  0  0  0  0  0
  150.8303  138.4238  154.9216 C   0  0  0  0  0  0  0  0  0  0  0  0
  150.3400  137.4670  155.7085 F   0  0  0  0  0  0  0  0  0  0  0  0
  151.3936  137.8426  153.8622 F   0  0  0  0  0  0  0  0  0  0  0  0
  151.7798  139.0715  155.5982 F   0  0  0  0  0  0  0  0  0  0  0  0
  149.6944  140.7566  154.9150 C   0  0  0  0  0  0  0  0  0  0  0  0
  148.6678  141.5687  154.5952 C   0  0  0  0  0  0  0  0  0  0  0  0
  147.5259  141.0894  153.8135 C   0  0  0  0  0  0  0  0  0  0  0  0
  146.5820  141.8213  153.5142 O   0  0  0  0  0  0  0  0  0  0  0  0
  144.8387  137.3593  152.7059 N   0  0  0  0  0  0  0  0  0  0  0  0
  144.0500  136.2435  153.2213 C   0  0  1  0  0  0  0  0  0  0  0  0
  142.5476  136.4877  153.1693 C   0  0  0  0  0  0  0  0  0  0  0  0
  141.9656  135.0765  153.3007 C   0  0  0  0  0  0  0  0  0  0  0  0
  142.9852  134.1392  152.7680 N   0  3  1  0  0  0  0  0  0  0  0  0
  142.4864  133.2587  151.6776 C   0  0  0  0  0  0  0  0  0  0  0  0
  143.6527  132.6115  150.9161 C   0  0  0  0  0  0  0  0  0  0  0  0
  144.5460  133.6712  150.2431 C   0  0  0  0  0  0  0  0  0  0  0  0
  144.4407  135.0497  150.9234 C   0  0  0  0  0  0  0  0  0  0  0  0
  144.2152  134.9193  152.4499 C   0  0  1  0  0  0  0  0  0  0  0  0
  146.8531  138.7849  151.7172 H   0  0  0  0  0  0  0  0  0  0  0  0
  145.7413  139.9248  152.3995 H   0  0  0  0  0  0  0  0  0  0  0  0
  148.5480  137.9122  153.4689 H   0  0  0  0  0  0  0  0  0  0  0  0
  150.5172  141.1540  155.4906 H   0  0  0  0  0  0  0  0  0  0  0  0
  148.6856  142.5980  154.9221 H   0  0  0  0  0  0  0  0  0  0  0  0
  144.6501  137.6598  151.7603 H   0  0  0  0  0  0  0  0  0  0  0  0
  144.3217  136.0767  154.2660 H   0  0  0  0  0  0  0  0  0  0  0  0
  142.1984  137.1619  153.9521 H   0  0  0  0  0  0  0  0  0  0  0  0
  142.2668  136.9157  152.2058 H   0  0  0  0  0  0  0  0  0  0  0  0
  141.8079  134.8344  154.3523 H   0  0  0  0  0  0  0  0  0  0  0  0
  140.9998  134.9927  152.8002 H   0  0  0  0  0  0  0  0  0  0  0  0
  141.8366  132.4952  152.1069 H   0  0  0  0  0  0  0  0  0  0  0  0
  141.8778  133.8337  150.9773 H   0  0  0  0  0  0  0  0  0  0  0  0
  144.2485  132.0236  151.6159 H   0  0  0  0  0  0  0  0  0  0  0  0
  143.2804  131.9094  150.1696 H   0  0  0  0  0  0  0  0  0  0  0  0
  145.5800  133.3245  150.2601 H   0  0  0  0  0  0  0  0  0  0  0  0
  144.2789  133.7749  149.1907 H   0  0  0  0  0  0  0  0  0  0  0  0
  145.3421  135.6215  150.7033 H   0  0  0  0  0  0  0  0  0  0  0  0
  143.6133  135.6081  150.4827 H   0  0  0  0  0  0  0  0  0  0  0  0
  145.0696  134.3798  152.8611 H   0  0  0  0  0  0  0  0  0  0  0  0
  143.2380  133.5321  153.5349 H   0  0  0  0  0  0  0  0  0  0  0  0
  1  2  2  0  0  0  0
  2  3  1  0  0  0  0
  2 15  1  0  0  0  0
  3  4  1  0  0  0  0
  3 25  1  0  0  0  0
  3 26  1  0  0  0  0
  4 13  1  0  0  0  0
  4  5  1  0  0  0  0
  5  6  2  0  0  0  0
  5 27  1  0  0  0  0
  6  7  1  0  0  0  0
  6 11  1  0  0  0  0
  7  8  1  0  0  0  0
  7  9  1  0  0  0  0
  7 10  1  0  0  0  0
 11 12  2  0  0  0  0
 11 28  1  0  0  0  0
 12 13  1  0  0  0  0
 12 29  1  0  0  0  0
 13 14  2  0  0  0  0
 15 16  1  0  0  0  0
 15 30  1  0  0  0  0
 16 24  1  0  0  0  0
 16 17  1  0  0  0  0
 16 31  1  0  0  0  0
 17 18  1  0  0  0  0
 17 32  1  0  0  0  0
 17 33  1  0  0  0  0
 18 19  1  0  0  0  0
 18 34  1  0  0  0  0
 18 35  1  0  0  0  0
 19 24  1  0  0  0  0
 19 20  1  0  0  0  0
 19 45  1  0  0  0  0
 20 21  1  0  0  0  0
 20 36  1  0  0  0  0
 20 37  1  0  0  0  0
 21 22  1  0  0  0  0
 21 38  1  0  0  0  0
 21 39  1  0  0  0  0
 22 23  1  0  0  0  0
 22 40  1  0  0  0  0
 22 41  1  0  0  0  0
 23 24  1  0  0  0  0
 23 42  1  0  0  0  0
 23 43  1  0  0  0  0
 24 44  1  0  0  0  0
M  CHG  1  19   1
M  END
> <s_m_source_file>
AV-unprocessed.smi

> <i_m_source_file_index>
1976

> <i_lp_mmshare_version>
43012

> <i_f3d_flags>
0

> <s_epik_input>
W0NIMl0xW0NIMl1bQ0gyXVtDSDJdW0NASF0oTjEyKVtDQEBIXShbQ0gyXVtDSDJdMilbTkhdQyg9TylbQ0gyXW4zW2NIXWMoQyhGKShGKUYpW2NIXVtjSF1jMz1P

> <s_epik_cmdline>
J2VwaWtfcHl0aG9uJywgJy1waCcsICc3LjAnLCAnLXRuJywgJzgnLCAnLW1hJywgJzIwMCcsICctbWV0YWxfYmluZGluZycsICctaW1hZScsICc8aW5maWxlLm1hZT4nLCAnLW9tYWUnLCAnPG91dGZpbGUubWFlPic=

> <r_lp_tautomer_probability>
1

> <r_epik_Ionization_Penalty>
0.00171506

> <r_epik_Ionization_Penalty_Charging>
0.00171498

> <r_epik_Ionization_Penalty_Neutral>
7.81737e-08

> <r_epik_State_Penalty>
0.00115937

> <r_epik_Charging_Adjusted_Penalty>
0.00287436

> <i_epik_Tot_Q>
1

> <i_epik_Tot_abs_Q>
1

> <r_epik_Metal_State_Penalty>
-0

> <b_epik_Metal_Only>
0

> <s_lp_Force_Field>
OPLS_2005

> <r_lp_Energy>
52.608

> <b_lp_Chiralities_Consistent>
1

> <s_lp_Variant>
AV-unprocessed.smi:1976-4

> <Gold.Version>
5.8.1

> <Gold.Id.Protein>
6NUR|6NUR_protein|mol2

> <Gold.PLP.Fitness>
47.5171

> <Gold.PLP.PLP>
-40.7566

> <Gold.PLP.part.hbond>
-0.9852

> <Gold.PLP.part.metal>
0.0000

> <Gold.PLP.part.buried>
-0.6831

> <Gold.PLP.part.nonpolar>
-40.2435

> <Gold.PLP.part.repulsive>
0.2931

> <Gold.PLP.ligand.clash>
0.0000

> <Gold.PLP.ligand.torsion>
0.0687

> <Gold.PLP.Chemscore.Hbond>
1.2860

> <Gold.PLP.Chemscore.CHOScore>
1.0000

> <Gold.PLP.Chemscore.Metal>
0.0000

> <Gold.Chemscore.Hbonds>
donor molecule, donor type, donor heavy atom, donor atom, acceptor molecule, acceptor atom, score
      L1  H    15    30       P1 10171  0.34
      L1  H    19    45       P1 10957  0.89
      L1  C     5    27       P1  7948  1.00

> <Gold.PLP.Chemscore.Internal.Correction>
0.0401

> <Gold.Rescore>
     Score         DG    S(hbond)    S(metal)    S(lipo)     H(rot)  DE(clash)    DE(int)     intcor
     12.82     -14.64       0.95        0.00      85.98       1.58       0.56       1.27       ----

> <Gold.Chemscore.Fitness>
12.8185

> <Gold.Chemscore.DG>
-14.6447

> <Gold.Chemscore.ZeroCoef>
-5.4800

> <Gold.Chemscore.Hbond>
0.9455

> <Gold.Chemscore.Metal>
0.0000

> <Gold.Chemscore.Lipo>
85.9759

> <Gold.Chemscore.Internal_Hbond>
0.0000

> <Gold.Chemscore.DEClash>
0.5589

> <Gold.Chemscore.DEInternal>
1.2674

> <Gold.Chemscore.Rot>
1.5830

> <Gold.Chemscore.Internal.Correction>
   9.000000E+99

> <Gold.Chemscore.Hbonds>
donor molecule, donor type, donor heavy atom, donor atom, acceptor molecule, acceptor atom, score
      L1  H    15    30       P1 10171  0.35
      L1  H    19    45       P1 10957  0.45

> <Gold.Chemscore.Hbond.Weighted>
-3.1579

> <Gold.Chemscore.Metal.Weighted>
-0.0000

> <Gold.Chemscore.Lipo.Weighted>
-10.0592

> <Gold.Chemscore.Internal_Hbond.Weighted>
0.0000

> <Gold.Chemscore.DEClash.Weighted>
0.5589

> <Gold.Chemscore.DEInternal.Weighted>
1.2674

> <Gold.Chemscore.Rot.Weighted>
4.0524

> <Gold.Chemscore.Internal.Correction.Weighted>
   9.000000E+99

> <Gold.Protein.RotatedTorsions>
[ 6907 6896 6895 6894 ] final   78.43 input  -60.11 | X-H torsion
[ 7974 7965 7964 7962 ] final -103.67 input  175.53 | X-H torsion
[ 8008 7997 7996 7995 ] final   16.88 input   59.86 | X-H torsion
[ 10167 10162 10161 10158 ] final   10.01 input  -65.29 | X-H torsion
[ 10718 10713 10712 10709 ] final -139.94 input   66.30 | X-H torsion
[ 10763 10752 10751 10750 ] final -141.82 input  -60.55 | X-H torsion
[ 11005 11000 10999 10996 ] final  -76.95 input  -57.11 | X-H torsion

> <Gold.Protein.ActiveResidues>
 VAL166  LYS551  ARG553  GLY616  TRP617  ASP618  TYR619  PRO620  LYS621  CYS622 
 ASP623  PHE694  ASN695  SER759  ASP760  ASP761  ALA762  ILE779  LEU786  VAL792 
 PHE793  MET794  SER795  GLU796  ALA797  LYS798  CYS799  TRP800  GLU811  SER814 

> <Gold.Protein.RotatedAtoms>
  152.5159  134.3666  159.9303 H   0  0  0  0  0  0  0  0  0  0  0  0  # atno 6907 bound_to 6896
  151.3619  133.3880  159.2698 H   0  0  0  0  0  0  0  0  0  0  0  0  # atno 6908 bound_to 6896
  150.9645  134.9047  159.7809 H   0  0  0  0  0  0  0  0  0  0  0  0  # atno 6909 bound_to 6896
  145.2530  140.9244  143.3084 H   0  0  0  0  0  0  0  0  0  0  0  0  # atno 7974 bound_to 7965
  154.8833  140.2976  155.5412 H   0  0  0  0  0  0  0  0  0  0  0  0  # atno 8008 bound_to 7997
  156.3022  140.2438  156.3773 H   0  0  0  0  0  0  0  0  0  0  0  0  # atno 8009 bound_to 7997
  154.8694  140.0402  157.1704 H   0  0  0  0  0  0  0  0  0  0  0  0  # atno 8010 bound_to 7997
  140.6220  143.8183  150.7187 H   0  0  0  0  0  0  0  0  0  0  0  0  # atno 10167 bound_to 10162
  156.3166  130.7511  151.1599 H   0  0  0  0  0  0  0  0  0  0  0  0  # atno 10718 bound_to 10713
  154.8531  135.3513  154.5929 H   0  0  0  0  0  0  0  0  0  0  0  0  # atno 10763 bound_to 10752
  153.6538  135.6993  153.5204 H   0  0  0  0  0  0  0  0  0  0  0  0  # atno 10764 bound_to 10752
  153.2872  135.4245  155.1091 H   0  0  0  0  0  0  0  0  0  0  0  0  # atno 10765 bound_to 10752
  141.1657  133.7003  156.7747 H   0  0  0  0  0  0  0  0  0  0  0  0  # atno 11005 bound_to 11000
  144.9486  139.4108  143.6413 LP  0  0  0  0  0  0  0  0  0  0  0  0  # atno 17320 bound_to 7965
  146.3297  139.8482  142.8878 LP  0  0  0  0  0  0  0  0  0  0  0  0  # atno 17321 bound_to 7965
  140.1775  143.4143  152.1957 LP  0  0  0  0  0  0  0  0  0  0  0  0  # atno 17342 bound_to 10162
  139.5447  144.7288  151.4621 LP  0  0  0  0  0  0  0  0  0  0  0  0  # atno 17343 bound_to 10162
  157.7403  131.0519  150.5176 LP  0  0  0  0  0  0  0  0  0  0  0  0  # atno 17370 bound_to 10713
  156.5323  130.4188  149.6195 LP  0  0  0  0  0  0  0  0  0  0  0  0  # atno 17371 bound_to 10713
  140.2438  134.8593  157.3600 LP  0  0  0  0  0  0  0  0  0  0  0  0  # atno 17394 bound_to 11000
  140.1769  134.4538  155.7796 LP  0  0  0  0  0  0  0  0  0  0  0  0  # atno 17395 bound_to 11000

$$$$
