#       Name:                AV-unprocessed.smi:2299
#       Creating user name   scv26
#       Creation time:       Fri Mar 27 12:45:02 2020


#       File generated by GOLD software.
#

@<TRIPOS>MOLECULE
AV-unprocessed.smi:2299
    47    48     1
SMALL
NO_CHARGES


@<TRIPOS>ATOM
      1 ****        -2.9948  -4.2889   2.2282 C.3            1 S1                 0.0000
      2 ****        -2.6158  -3.4641   0.9892 C.3            1 S1                 0.0000
      3 ****        -3.1671  -4.0839  -0.3035 C.3            1 S1                 0.0000
      4 ****        -1.1288  -3.2414   0.9069 C.2            1 S1                 0.0000
      5 ****        -0.2548  -4.2366   0.7759 N.2            1 S1                 0.0000
      6 ****         0.9901  -3.6237   0.7537 C.2            1 S1                 0.0000
      7 ****         0.8281  -2.2663   0.8728 C.2            1 S1                 0.0000
      8 ****        -0.5440  -2.0236   0.9608 N.pl3          1 S1                 0.0000
      9 ****        -1.2231  -0.7335   1.1030 C.3            1 S1                 0.0000
     10 ****        -0.3000   0.4858   1.0158 C.2            1 S1                 0.0000
     11 ****         0.0201   1.0904   2.0389 O.2            1 S1                 0.0000
     12 ****         0.1170   0.8319  -0.2124 N.am           1 S1                 0.0000
     13 ****         1.0306   1.9301  -0.5290 C.3            1 S1                 0.0000
     14 ****         0.2458   3.2549  -0.6555 C.3            1 S1                 0.0000
     15 ****         1.1036   4.5131  -0.4446 C.3            1 S1                 0.0000
     16 ****         2.2243   4.7101  -1.4762 C.3            1 S1                 0.0000
     17 ****         3.3124   3.6243  -1.4204 C.3            1 S1                 0.0000
     18 ****         2.9107   2.3932  -2.0897 N.am           1 S1                 0.0000
     19 ****         1.8944   1.5830  -1.7564 C.2            1 S1                 0.0000
     20 ****         1.6521   0.5783  -2.4251 O.2            1 S1                 0.0000
     21 ****        -2.6454  -3.8058   3.1412 H              1 S1                 0.0000
     22 ****        -2.5577  -5.2873   2.1913 H              1 S1                 0.0000
     23 ****        -4.0762  -4.4029   2.3082 H              1 S1                 0.0000
     24 ****        -3.1113  -2.5016   1.1036 H              1 S1                 0.0000
     25 ****        -2.9464  -3.4530  -1.1652 H              1 S1                 0.0000
     26 ****        -4.2495  -4.2037  -0.2510 H              1 S1                 0.0000
     27 ****        -2.7335  -5.0669  -0.4904 H              1 S1                 0.0000
     28 ****         1.8982  -4.2007   0.6595 H              1 S1                 0.0000
     29 ****         1.5696  -1.4814   0.8983 H              1 S1                 0.0000
     30 ****        -1.9812  -0.6506   0.3232 H              1 S1                 0.0000
     31 ****        -1.7436  -0.7222   2.0617 H              1 S1                 0.0000
     32 ****        -0.1933   0.2700  -0.9923 H              1 S1                 0.0000
     33 ****         1.7220   2.0185   0.3113 H              1 S1                 0.0000
     34 ****        -0.2561   3.3024  -1.6231 H              1 S1                 0.0000
     35 ****        -0.5505   3.2789   0.0897 H              1 S1                 0.0000
     36 ****         0.4496   5.3853  -0.4735 H              1 S1                 0.0000
     37 ****         1.5311   4.4973   0.5587 H              1 S1                 0.0000
     38 ****         1.8076   4.7797  -2.4821 H              1 S1                 0.0000
     39 ****         2.6940   5.6747  -1.2810 H              1 S1                 0.0000
     40 ****         4.2041   3.9873  -1.9320 H              1 S1                 0.0000
     41 ****         3.6131   3.4192  -0.3920 H              1 S1                 0.0000
     42 ****         3.4558   2.1312  -2.8984 H              1 S1                 0.0000
     43 ****        -0.4525  -5.2146   0.7082 LP             1 S1                 0.0000
     44 ****        -0.3225   0.7857   2.9277 LP             1 S1                 0.0000
     45 ****         0.6227   1.8863   1.9815 LP             1 S1                 0.0000
     46 ****         0.8904  -0.0186  -2.1727 LP             1 S1                 0.0000
     47 ****         2.2169   0.3589  -3.2206 LP             1 S1                 0.0000
@<TRIPOS>BOND
    1    1    2 1     
    2    1   21 1     
    3    1   22 1     
    4    1   23 1     
    5    2    3 1     
    6    2    4 1     
    7    2   24 1     
    8    3   25 1     
    9    3   26 1     
   10    3   27 1     
   11    4    8 1     
   12    4    5 2     
   13    5    6 1     
   14    6    7 2     
   15    6   28 1     
   16    7    8 1     
   17    7   29 1     
   18    8    9 1     
   19    9   10 1     
   20    9   30 1     
   21    9   31 1     
   22   10   11 2     
   23   10   12 am    
   24   12   13 1     
   25   12   32 1     
   26   13   19 1     
   27   13   14 1     
   28   13   33 1     
   29   14   15 1     
   30   14   34 1     
   31   14   35 1     
   32   15   16 1     
   33   15   36 1     
   34   15   37 1     
   35   16   17 1     
   36   16   38 1     
   37   16   39 1     
   38   17   18 1     
   39   17   40 1     
   40   17   41 1     
   41   18   19 am    
   42   18   42 1     
   43   19   20 2     
   44    5   43 1     
   45   11   44 1     
   46   11   45 1     
   47   20   46 1     
   48   20   47 1     
@<TRIPOS>SUBSTRUCTURE
      1 S1             1
@<TRIPOS>SET
LONE_PAIRS      STATIC     ATOMS    <user>   **** ""
5 43 44 45 46 47
DONOR_HYDROGENS      STATIC     ATOMS    <user>   **** ""
2 32 42
ATOM$BLUE        STATIC     ATOMS    COLORGROUP SYSTEM
5 43 44 45 46 47
ATOM$RED        STATIC     ATOMS    COLORGROUP SYSTEM
2 32 42
