AV-unprocessed.smi:610|AV-procd|sdf|3058|dock6
  -GOLD-   2262023583D 1   1.00000     0.00000
 Structure written by MMmdl.
 38 39  0  0  0  0  0  0  0  0  2 V2000
  147.2879  137.3852  154.7240 C   0  0  0  0  0  0  0  0  0  0  0  0
  146.5186  137.9922  153.5418 C   0  0  1  0  0  0  0  0  0  0  0  0
  147.2243  139.2423  152.9843 C   0  0  0  0  0  0  0  0  0  0  0  0
  147.0790  140.4037  153.8686 N   0  0  0  0  0  0  0  0  0  0  0  0
  146.2837  140.5042  154.9811 C   0  0  0  0  0  0  0  0  0  0  0  0
  146.4666  141.7683  155.4795 C   0  0  0  0  0  0  0  0  0  0  0  0
  147.3670  142.3846  154.6523 N   0  3  0  0  0  0  0  0  0  0  0  0
  147.7394  141.5527  153.6741 C   0  0  0  0  0  0  0  0  0  0  0  0
  146.3681  136.9937  152.4858 N   0  0  0  0  0  0  0  0  0  0  0  0
  145.2111  136.4443  152.0777 C   0  0  0  0  0  0  0  0  0  0  0  0
  144.1301  136.7229  152.5981 O   0  0  0  0  0  0  0  0  0  0  0  0
  145.2693  135.4216  150.9148 C   0  0  0  0  0  0  0  0  0  0  0  0
  145.5584  136.0716  149.6423 N   0  0  0  0  0  0  0  0  0  0  0  0
  146.3376  134.3310  151.1921 C   0  0  0  0  0  0  0  0  0  0  0  0
  145.6099  132.9812  151.2011 C   0  0  0  0  0  0  0  0  0  0  0  0
  144.1518  133.3170  151.4930 C   0  0  0  0  0  0  0  0  0  0  0  0
  143.9360  134.6468  150.7718 C   0  0  0  0  0  0  0  0  0  0  0  0
  147.4048  138.1109  155.5291 H   0  0  0  0  0  0  0  0  0  0  0  0
  148.2838  137.0568  154.4245 H   0  0  0  0  0  0  0  0  0  0  0  0
  146.7619  136.5226  155.1349 H   0  0  0  0  0  0  0  0  0  0  0  0
  145.5345  138.2966  153.9031 H   0  0  0  0  0  0  0  0  0  0  0  0
  148.2932  139.0565  152.8697 H   0  0  0  0  0  0  0  0  0  0  0  0
  146.8400  139.5029  151.9965 H   0  0  0  0  0  0  0  0  0  0  0  0
  145.6606  139.6907  155.3242 H   0  0  0  0  0  0  0  0  0  0  0  0
  146.0350  142.2621  156.3380 H   0  0  0  0  0  0  0  0  0  0  0  0
  148.4331  141.7690  152.8811 H   0  0  0  0  0  0  0  0  0  0  0  0
  147.2110  136.6915  152.0184 H   0  0  0  0  0  0  0  0  0  0  0  0
  145.5476  135.3774  148.9087 H   0  0  0  0  0  0  0  0  0  0  0  0
  144.8136  136.7185  149.4272 H   0  0  0  0  0  0  0  0  0  0  0  0
  147.1430  134.3269  150.4558 H   0  0  0  0  0  0  0  0  0  0  0  0
  146.8170  134.4806  152.1613 H   0  0  0  0  0  0  0  0  0  0  0  0
  145.6851  132.5208  150.2150 H   0  0  0  0  0  0  0  0  0  0  0  0
  146.0315  132.2827  151.9245 H   0  0  0  0  0  0  0  0  0  0  0  0
  143.4657  132.5396  151.1557 H   0  0  0  0  0  0  0  0  0  0  0  0
  144.0088  133.4459  152.5667 H   0  0  0  0  0  0  0  0  0  0  0  0
  143.0740  135.1845  151.1701 H   0  0  0  0  0  0  0  0  0  0  0  0
  143.7138  134.4406  149.7231 H   0  0  0  0  0  0  0  0  0  0  0  0
  147.7048  143.3325  154.7637 H   0  0  0  0  0  0  0  0  0  0  0  0
  1  2  1  0  0  0  0
  1 18  1  0  0  0  0
  1 19  1  0  0  0  0
  1 20  1  0  0  0  0
  2  3  1  0  0  0  0
  2  9  1  0  0  0  0
  2 21  1  0  0  0  0
  3  4  1  0  0  0  0
  3 22  1  0  0  0  0
  3 23  1  0  0  0  0
  4  8  1  0  0  0  0
  4  5  1  0  0  0  0
  5  6  2  0  0  0  0
  5 24  1  0  0  0  0
  6  7  1  0  0  0  0
  6 25  1  0  0  0  0
  7  8  2  0  0  0  0
  7 38  1  0  0  0  0
  8 26  1  0  0  0  0
  9 10  1  0  0  0  0
  9 27  1  0  0  0  0
 10 11  2  0  0  0  0
 10 12  1  0  0  0  0
 12 17  1  0  0  0  0
 12 13  1  0  0  0  0
 12 14  1  0  0  0  0
 13 28  1  0  0  0  0
 13 29  1  0  0  0  0
 14 15  1  0  0  0  0
 14 30  1  0  0  0  0
 14 31  1  0  0  0  0
 15 16  1  0  0  0  0
 15 32  1  0  0  0  0
 15 33  1  0  0  0  0
 16 17  1  0  0  0  0
 16 34  1  0  0  0  0
 16 35  1  0  0  0  0
 17 36  1  0  0  0  0
 17 37  1  0  0  0  0
M  CHG  1   7   1
M  END
> <s_m_source_file>
AV-unprocessed.smi

> <i_m_source_file_index>
610

> <i_lp_mmshare_version>
43012

> <i_f3d_flags>
0

> <s_epik_input>
W2NIXTFuW2NIXVtjSF1uMVtDSDJdW0NAQEhdKFtDSDNdKVtOSF1DKD1PKUMyKFtOSDJdKVtDSDJdW0NIMl1bQ0gyXVtDSDJdMg==

> <s_epik_cmdline>
J2VwaWtfcHl0aG9uJywgJy1waCcsICc3LjAnLCAnLXRuJywgJzgnLCAnLW1hJywgJzIwMCcsICctbWV0YWxfYmluZGluZycsICctaW1hZScsICc8aW5maWxlLm1hZT4nLCAnLW9tYWUnLCAnPG91dGZpbGUubWFlPic=

> <r_epik_Ionization_Penalty>
1.50287

> <r_epik_Ionization_Penalty_Charging>
0

> <r_epik_Ionization_Penalty_Neutral>
1.50287

> <r_epik_State_Penalty>
1.57152

> <r_epik_Charging_Adjusted_Penalty>
1.57152

> <i_epik_Tot_Q>
1

> <i_epik_Tot_abs_Q>
1

> <r_epik_Metal_State_Penalty>
1.8522

> <b_epik_Metal_Only>
0

> <s_lp_Force_Field>
OPLS_2005

> <r_lp_Energy>
23.5797

> <b_lp_Chiralities_Consistent>
1

> <s_lp_Variant>
AV-unprocessed.smi:610-6

> <Gold.Version>
5.8.1

> <Gold.Id.Protein>
6NUR|6NUR_protein|mol2

> <Gold.PLP.Fitness>
43.6808

> <Gold.PLP.PLP>
-26.8064

> <Gold.PLP.part.hbond>
-3.8931

> <Gold.PLP.part.metal>
0.0000

> <Gold.PLP.part.buried>
-1.5301

> <Gold.PLP.part.nonpolar>
-21.4698

> <Gold.PLP.part.repulsive>
0.3698

> <Gold.PLP.ligand.clash>
0.0000

> <Gold.PLP.ligand.torsion>
0.5433

> <Gold.PLP.Chemscore.Hbond>
5.0000

> <Gold.PLP.Chemscore.CHOScore>
0.9758

> <Gold.PLP.Chemscore.Metal>
0.0000

> <Gold.Chemscore.Hbonds>
donor molecule, donor type, donor heavy atom, donor atom, acceptor molecule, acceptor atom, score
      L1  H     7    38       P1  8028  2.00
      L1  H     9    27       P1  7948  1.00
      L1  H    13    28       P1  7921  0.90
      L1  H    13    29       P1 10171  0.82
      L1  C     8    26       P1  7957  0.60

> <Gold.PLP.Chemscore.Internal.Correction>
0.0335

> <Gold.Rescore>
     Score         DG    S(hbond)    S(metal)    S(lipo)     H(rot)  DE(clash)    DE(int)     intcor
     18.44     -18.74       3.98        0.00      43.89       2.02       0.05       0.24       ----

> <Gold.Chemscore.Fitness>
18.4438

> <Gold.Chemscore.DG>
-18.7363

> <Gold.Chemscore.ZeroCoef>
-5.4800

> <Gold.Chemscore.Hbond>
3.9759

> <Gold.Chemscore.Metal>
0.0000

> <Gold.Chemscore.Lipo>
43.8950

> <Gold.Chemscore.Internal_Hbond>
0.0000

> <Gold.Chemscore.DEClash>
0.0516

> <Gold.Chemscore.DEInternal>
0.2409

> <Gold.Chemscore.Rot>
2.0152

> <Gold.Chemscore.Internal.Correction>
   9.000000E+99

> <Gold.Chemscore.Hbonds>
donor molecule, donor type, donor heavy atom, donor atom, acceptor molecule, acceptor atom, score
      L1  H     7    38       P1  8028  0.47
      L1  H     9    27       P1  7948  0.99
      L1  H    13    28       P1  7921  0.83
      L1  H    13    29       P1 10171  0.78

> <Gold.Chemscore.Hbond.Weighted>
-13.2795

> <Gold.Chemscore.Metal.Weighted>
-0.0000

> <Gold.Chemscore.Lipo.Weighted>
-5.1357

> <Gold.Chemscore.Internal_Hbond.Weighted>
0.0000

> <Gold.Chemscore.DEClash.Weighted>
0.0516

> <Gold.Chemscore.DEInternal.Weighted>
0.2409

> <Gold.Chemscore.Rot.Weighted>
5.1589

> <Gold.Chemscore.Internal.Correction.Weighted>
   9.000000E+99

> <Gold.Protein.RotatedTorsions>
[ 6907 6896 6895 6894 ] final   -1.63 input  -60.11 | X-H torsion
[ 7974 7965 7964 7962 ] final   18.43 input  175.53 | X-H torsion
[ 8008 7997 7996 7995 ] final   35.67 input   59.86 | X-H torsion
[ 10167 10162 10161 10158 ] final -106.42 input  -65.29 | X-H torsion
[ 10718 10713 10712 10709 ] final  143.74 input   66.30 | X-H torsion
[ 10763 10752 10751 10750 ] final -166.32 input  -60.55 | X-H torsion
[ 11005 11000 10999 10996 ] final  156.23 input  -57.11 | X-H torsion

> <Gold.Protein.ActiveResidues>
 VAL166  LYS551  ARG553  GLY616  TRP617  ASP618  TYR619  PRO620  LYS621  CYS622 
 ASP623  PHE694  ASN695  SER759  ASP760  ASP761  ALA762  ILE779  LEU786  VAL792 
 PHE793  MET794  SER795  GLU796  ALA797  LYS798  CYS799  TRP800  GLU811  SER814 

> <Gold.Protein.RotatedAtoms>
  151.5430  135.1068  159.9930 H   0  0  0  0  0  0  0  0  0  0  0  0  # atno 6907 bound_to 6896
  152.4526  133.7656  159.6781 H   0  0  0  0  0  0  0  0  0  0  0  0  # atno 6908 bound_to 6896
  150.8460  133.7795  159.3067 H   0  0  0  0  0  0  0  0  0  0  0  0  # atno 6909 bound_to 6896
  146.2185  139.8458  142.8632 H   0  0  0  0  0  0  0  0  0  0  0  0  # atno 7974 bound_to 7965
  155.1749  140.3295  155.4386 H   0  0  0  0  0  0  0  0  0  0  0  0  # atno 8008 bound_to 7997
  156.2497  140.1937  156.6800 H   0  0  0  0  0  0  0  0  0  0  0  0  # atno 8009 bound_to 7997
  154.6312  140.0582  156.9720 H   0  0  0  0  0  0  0  0  0  0  0  0  # atno 8010 bound_to 7997
  140.1879  143.3915  152.1229 H   0  0  0  0  0  0  0  0  0  0  0  0  # atno 10167 bound_to 10162
  157.3653  131.0971  151.0878 H   0  0  0  0  0  0  0  0  0  0  0  0  # atno 10718 bound_to 10713
  154.6845  135.2960  154.9567 H   0  0  0  0  0  0  0  0  0  0  0  0  # atno 10763 bound_to 10752
  154.0551  135.6639  153.4809 H   0  0  0  0  0  0  0  0  0  0  0  0  # atno 10764 bound_to 10752
  153.0569  135.5139  154.7904 H   0  0  0  0  0  0  0  0  0  0  0  0  # atno 10765 bound_to 10752
  140.1655  134.8579  157.2627 H   0  0  0  0  0  0  0  0  0  0  0  0  # atno 11005 bound_to 11000
  145.2852  141.0150  143.3695 LP  0  0  0  0  0  0  0  0  0  0  0  0  # atno 17320 bound_to 7965
  144.9120  139.4517  143.6582 LP  0  0  0  0  0  0  0  0  0  0  0  0  # atno 17321 bound_to 7965
  139.5268  144.7112  151.5200 LP  0  0  0  0  0  0  0  0  0  0  0  0  # atno 17342 bound_to 10162
  140.6475  143.8764  150.6752 LP  0  0  0  0  0  0  0  0  0  0  0  0  # atno 17343 bound_to 10162
  157.2002  130.6391  149.5736 LP  0  0  0  0  0  0  0  0  0  0  0  0  # atno 17370 bound_to 10713
  155.9745  130.4693  150.6391 LP  0  0  0  0  0  0  0  0  0  0  0  0  # atno 17371 bound_to 10713
  140.2439  134.3763  155.7469 LP  0  0  0  0  0  0  0  0  0  0  0  0  # atno 17394 bound_to 11000
  141.2213  133.7280  156.8831 LP  0  0  0  0  0  0  0  0  0  0  0  0  # atno 17395 bound_to 11000

$$$$
