#       Name:                AV-unprocessed.smi:67
#       Creating user name   scv26
#       Creation time:       Thu Mar 26 16:52:42 2020


#       File generated by GOLD software.
#

@<TRIPOS>MOLECULE
AV-unprocessed.smi:67
    53    55     1
SMALL
NO_CHARGES


@<TRIPOS>ATOM
      1 ****        -2.7313   2.2320  -1.1311 O.3            1 S1                 0.0000
      2 ****        -3.0149   0.9821  -1.7345 C.3            1 S1                 0.0000
      3 ****        -2.3819  -0.1483  -0.8913 C.3            1 S1                 0.0000
      4 ****        -0.8953  -0.0841  -0.8839 N.4            1 S1                 1.0000
      5 ****        -0.2558  -1.3843  -1.2107 C.3            1 S1                 0.0000
      6 ****         1.2708  -1.2381  -1.3379 C.3            1 S1                 0.0000
      7 ****         1.8950  -0.6332  -0.0705 C.3            1 S1                 0.0000
      8 ****         1.7453  -1.5858   0.9806 O.3            1 S1                 0.0000
      9 ****         2.5058  -1.4759   2.1271 C.ar           1 S1                 0.0000
     10 ****         2.2585  -2.4234   3.1409 C.ar           1 S1                 0.0000
     11 ****         2.9848  -2.3962   4.3459 C.ar           1 S1                 0.0000
     12 ****         3.9715  -1.4151   4.5520 C.ar           1 S1                 0.0000
     13 ****         4.2352  -0.4561   3.5509 C.ar           1 S1                 0.0000
     14 ****         5.2983   0.6144   3.7473 C.3            1 S1                 0.0000
     15 ****         4.7746   1.8164   3.5063 F              1 S1                 0.0000
     16 ****         5.7882   0.6099   4.9875 F              1 S1                 0.0000
     17 ****         6.2994   0.4035   2.8933 F              1 S1                 0.0000
     18 ****         3.5052  -0.4936   2.3435 C.ar           1 S1                 0.0000
     19 ****         1.1793   0.6912   0.2660 C.3            1 S1                 0.0000
     20 ****        -0.3435   0.5000   0.3664 C.3            1 S1                 0.0000
     21 ****        -2.5667   1.0011  -3.1997 C.3            1 S1                 0.0000
     22 ****        -3.6954   1.7374  -3.9246 C.3            1 S1                 0.0000
     23 ****        -4.9212   1.4824  -3.1439 N.4            1 S1                 1.0000
     24 ****        -4.5434   0.8584  -1.8591 C.3            1 S1                 0.0000
     25 ****        -3.1115   2.2485  -0.2653 H              1 S1                 0.0000
     26 ****        -2.7709  -0.1329   0.1283 H              1 S1                 0.0000
     27 ****        -2.7032  -1.1050  -1.3061 H              1 S1                 0.0000
     28 ****        -0.5047  -2.1182  -0.4424 H              1 S1                 0.0000
     29 ****        -0.6557  -1.7616  -2.1528 H              1 S1                 0.0000
     30 ****         1.7225  -2.2081  -1.5494 H              1 S1                 0.0000
     31 ****         1.5008  -0.6014  -2.1933 H              1 S1                 0.0000
     32 ****         2.9511  -0.4610  -0.2797 H              1 S1                 0.0000
     33 ****         1.5032  -3.1815   2.9931 H              1 S1                 0.0000
     34 ****         2.7852  -3.1297   5.1131 H              1 S1                 0.0000
     35 ****         4.5216  -1.4080   5.4811 H              1 S1                 0.0000
     36 ****         3.7340   0.2512   1.5974 H              1 S1                 0.0000
     37 ****         1.5566   1.1165   1.1954 H              1 S1                 0.0000
     38 ****         1.3981   1.4252  -0.5106 H              1 S1                 0.0000
     39 ****        -0.8125   1.4632   0.5664 H              1 S1                 0.0000
     40 ****        -0.5844  -0.1477   1.2111 H              1 S1                 0.0000
     41 ****        -1.5925   1.4688  -3.3495 H              1 S1                 0.0000
     42 ****        -2.5028  -0.0194  -3.5806 H              1 S1                 0.0000
     43 ****        -3.5052   2.8115  -3.9232 H              1 S1                 0.0000
     44 ****        -3.8062   1.4168  -4.9608 H              1 S1                 0.0000
     45 ****        -5.3938   2.3594  -2.9754 H              1 S1                 0.0000
     46 ****        -4.8356  -0.1909  -1.9134 H              1 S1                 0.0000
     47 ****        -5.0831   1.3025  -1.0215 H              1 S1                 0.0000
     48 ****        -5.5346   0.8610  -3.6521 H              1 S1                 0.0000
     49 ****        -0.6401   0.5453  -1.6317 H              1 S1                 0.0000
     50 ****        -3.1230   2.9678  -1.6835 LP             1 S1                 0.0000
     51 ****        -1.7411   2.3557  -1.0651 LP             1 S1                 0.0000
     52 ****         1.9450  -2.4832   0.5871 LP             1 S1                 0.0000
     53 ****         0.7874  -1.5525   1.2657 LP             1 S1                 0.0000
@<TRIPOS>BOND
    1    1    2 1     
    2    1   25 1     
    3    2   24 1     
    4    2    3 1     
    5    2   21 1     
    6    3    4 1     
    7    3   26 1     
    8    3   27 1     
    9    4   20 1     
   10    4    5 1     
   11    4   49 1     
   12    5    6 1     
   13    5   28 1     
   14    5   29 1     
   15    6    7 1     
   16    6   30 1     
   17    6   31 1     
   18    7    8 1     
   19    7   19 1     
   20    7   32 1     
   21    8    9 1     
   22    9   18 ar    
   23    9   10 ar    
   24   10   11 ar    
   25   10   33 1     
   26   11   12 ar    
   27   11   34 1     
   28   12   13 ar    
   29   12   35 1     
   30   13   14 1     
   31   13   18 ar    
   32   14   15 1     
   33   14   16 1     
   34   14   17 1     
   35   18   36 1     
   36   19   20 1     
   37   19   37 1     
   38   19   38 1     
   39   20   39 1     
   40   20   40 1     
   41   21   22 1     
   42   21   41 1     
   43   21   42 1     
   44   22   23 1     
   45   22   43 1     
   46   22   44 1     
   47   23   24 1     
   48   23   45 1     
   49   23   48 1     
   50   24   46 1     
   51   24   47 1     
   52    1   50 1     
   53    1   51 1     
   54    8   52 1     
   55    8   53 1     
@<TRIPOS>SUBSTRUCTURE
      1 S1             1
@<TRIPOS>SET
LONE_PAIRS      STATIC     ATOMS    <user>   **** ""
4 50 51 52 53
DONOR_HYDROGENS      STATIC     ATOMS    <user>   **** ""
4 25 49 45 48
ATOM$BLUE        STATIC     ATOMS    COLORGROUP SYSTEM
4 50 51 52 53
ATOM$RED        STATIC     ATOMS    COLORGROUP SYSTEM
4 25 49 45 48
