#       Name:                AV-unprocessed.smi:2702
#       Creating user name   scv26
#       Creation time:       Fri Mar 27 14:47:24 2020


#       File generated by GOLD software.
#

@<TRIPOS>MOLECULE
AV-unprocessed.smi:2702
    54    55     1
SMALL
NO_CHARGES


@<TRIPOS>ATOM
      1 ****        -6.3134  -0.8942  -5.1839 C.3            1 S1                 0.0000
      2 ****        -5.0427  -0.5482  -4.6625 O.3            1 S1                 0.0000
      3 ****        -4.8088  -1.1107  -3.3822 C.3            1 S1                 0.0000
      4 ****        -3.4293  -0.7343  -2.8801 C.2            1 S1                 0.0000
      5 ****        -3.2498   0.0579  -1.7974 C.2            1 S1                 0.0000
      6 ****        -1.9038   0.4018  -1.3395 C.2            1 S1                 0.0000
      7 ****        -1.6994   1.1194  -0.3597 O.2            1 S1                 0.0000
      8 ****        -0.8895  -0.1320  -2.0827 N.am           1 S1                 0.0000
      9 ****         0.5218   0.1298  -1.7467 C.3            1 S1                 0.0000
     10 ****         1.0256  -0.7326  -0.5813 C.2            1 S1                 0.0000
     11 ****         0.6403  -1.8952  -0.4524 O.2            1 S1                 0.0000
     12 ****         1.8959  -0.1431   0.2527 N.am           1 S1                 0.0000
     13 ****         2.4878  -0.7413   1.4514 C.3            1 S1                 0.0000
     14 ****         4.0098  -0.5077   1.4539 C.3            1 S1                 0.0000
     15 ****         4.3632   0.9679   1.6902 C.3            1 S1                 0.0000
     16 ****         3.7220   1.4861   2.9844 C.3            1 S1                 0.0000
     17 ****         2.1917   1.2909   2.9945 C.3            1 S1                 0.0000
     18 ****         1.6058   1.8449   4.3053 C.3            1 S1                 0.0000
     19 ****         1.8282  -0.2006   2.7494 C.3            1 S1                 0.0000
     20 ****         0.3082  -0.4623   2.7679 C.3            1 S1                 0.0000
     21 ****        -1.1327  -0.9621  -3.1951 C.2            1 S1                 0.0000
     22 ****        -2.3348  -1.2518  -3.5802 N.2            1 S1                 0.0000
     23 ****        -6.4418  -0.4405  -6.1666 H              1 S1                 0.0000
     24 ****        -7.1158  -0.5337  -4.5389 H              1 S1                 0.0000
     25 ****        -6.4128  -1.9746  -5.2969 H              1 S1                 0.0000
     26 ****        -5.5696  -0.7681  -2.6786 H              1 S1                 0.0000
     27 ****        -4.8790  -2.1985  -3.4307 H              1 S1                 0.0000
     28 ****        -4.1038   0.4484  -1.2630 H              1 S1                 0.0000
     29 ****         1.1791  -0.0387  -2.6014 H              1 S1                 0.0000
     30 ****         0.6463   1.1861  -1.5004 H              1 S1                 0.0000
     31 ****         2.1533   0.8136   0.0577 H              1 S1                 0.0000
     32 ****         2.3360  -1.8216   1.4221 H              1 S1                 0.0000
     33 ****         4.4635  -1.1128   2.2399 H              1 S1                 0.0000
     34 ****         4.4473  -0.8523   0.5160 H              1 S1                 0.0000
     35 ****         5.4460   1.0852   1.7404 H              1 S1                 0.0000
     36 ****         4.0281   1.5721   0.8465 H              1 S1                 0.0000
     37 ****         4.1636   0.9690   3.8376 H              1 S1                 0.0000
     38 ****         3.9646   2.5422   3.1081 H              1 S1                 0.0000
     39 ****         1.7751   1.8839   2.1791 H              1 S1                 0.0000
     40 ****         1.9212   1.2512   5.1637 H              1 S1                 0.0000
     41 ****         0.5163   1.8583   4.2871 H              1 S1                 0.0000
     42 ****         1.9310   2.8716   4.4754 H              1 S1                 0.0000
     43 ****         2.2502  -0.7757   3.5752 H              1 S1                 0.0000
     44 ****        -0.2208   0.1843   2.0673 H              1 S1                 0.0000
     45 ****        -0.1163  -0.2959   3.7574 H              1 S1                 0.0000
     46 ****         0.0858  -1.4951   2.4986 H              1 S1                 0.0000
     47 ****        -0.2438  -1.3428  -3.7006 H              1 S1                 0.0000
     48 ****        -4.9861   0.4476  -4.5903 LP             1 S1                 0.0000
     49 ****        -4.3379  -0.8774  -5.2909 LP             1 S1                 0.0000
     50 ****        -2.4704   1.4918   0.1569 LP             1 S1                 0.0000
     51 ****        -0.7624   1.3298  -0.0807 LP             1 S1                 0.0000
     52 ****        -0.0054  -2.2837  -1.1097 LP             1 S1                 0.0000
     53 ****         0.9732  -2.4506   0.3096 LP             1 S1                 0.0000
     54 ****        -2.4796  -1.8424  -4.3740 LP             1 S1                 0.0000
@<TRIPOS>BOND
    1    1    2 1     
    2    1   23 1     
    3    1   24 1     
    4    1   25 1     
    5    2    3 1     
    6    3    4 1     
    7    3   26 1     
    8    3   27 1     
    9    4   22 1     
   10    4    5 2     
   11    5    6 1     
   12    5   28 1     
   13    6    7 2     
   14    6    8 am    
   15    8    9 1     
   16    8   21 1     
   17    9   10 1     
   18    9   29 1     
   19    9   30 1     
   20   10   11 2     
   21   10   12 am    
   22   12   13 1     
   23   12   31 1     
   24   13   19 1     
   25   13   14 1     
   26   13   32 1     
   27   14   15 1     
   28   14   33 1     
   29   14   34 1     
   30   15   16 1     
   31   15   35 1     
   32   15   36 1     
   33   16   17 1     
   34   16   37 1     
   35   16   38 1     
   36   17   18 1     
   37   17   19 1     
   38   17   39 1     
   39   18   40 1     
   40   18   41 1     
   41   18   42 1     
   42   19   20 1     
   43   19   43 1     
   44   20   44 1     
   45   20   45 1     
   46   20   46 1     
   47   21   22 2     
   48   21   47 1     
   49    2   48 1     
   50    2   49 1     
   51    7   50 1     
   52    7   51 1     
   53   11   52 1     
   54   11   53 1     
   55   22   54 1     
@<TRIPOS>SUBSTRUCTURE
      1 S1             1
@<TRIPOS>SET
LONE_PAIRS      STATIC     ATOMS    <user>   **** ""
7 48 49 50 51 52 53 54
DONOR_HYDROGENS      STATIC     ATOMS    <user>   **** ""
1 31
ATOM$BLUE        STATIC     ATOMS    COLORGROUP SYSTEM
7 48 49 50 51 52 53 54
ATOM$RED        STATIC     ATOMS    COLORGROUP SYSTEM
1 31
