#       Name:                AV-unprocessed.smi:1014
#       Creating user name   scv26
#       Creation time:       Fri Mar 27 02:38:52 2020


#       File generated by GOLD software.
#

@<TRIPOS>MOLECULE
AV-unprocessed.smi:1014
    37    37     1
SMALL
NO_CHARGES


@<TRIPOS>ATOM
      1 ****        -3.7494  -1.6921   2.7264 C.3            1 S1                 0.0000
      2 ****        -2.2475  -1.7614   2.4074 C.3            1 S1                 0.0000
      3 ****        -1.8396  -1.1074   1.0687 C.3            1 S1                 0.0000
      4 ****        -0.3614  -1.0700   0.9770 N.4            1 S1                 1.0000
      5 ****         0.1874  -0.1201  -0.0144 C.3            1 S1                 0.0000
      6 ****         1.7228  -0.1442  -0.0027 C.3            1 S1                 0.0000
      7 ****         2.2877   0.7743  -0.9725 N.pl3          1 S1                 0.0000
      8 ****         2.9959   1.9354  -0.7457 C.2            1 S1                 0.0000
      9 ****         3.3362   2.4537  -1.9631 C.2            1 S1                 0.0000
     10 ****         4.1096   3.7044  -2.2666 C.3            1 S1                 0.0000
     11 ****         2.7853   1.5198  -2.8862 C.2            1 S1                 0.0000
     12 ****         2.1615   0.5161  -2.2913 N.2            1 S1                 0.0000
     13 ****        -2.4466  -1.8570  -0.1290 C.2            1 S1                 0.0000
     14 ****        -3.5730  -1.3658  -0.6521 N.am           1 S1                 0.0000
     15 ****        -1.9093  -2.8715  -0.5697 O.2            1 S1                 0.0000
     16 ****        -3.9511  -2.1043   3.7153 H              1 S1                 0.0000
     17 ****        -4.3425  -2.2623   2.0113 H              1 S1                 0.0000
     18 ****        -4.1083  -0.6627   2.7181 H              1 S1                 0.0000
     19 ****        -1.7101  -1.2673   3.2181 H              1 S1                 0.0000
     20 ****        -1.9239  -2.8033   2.4285 H              1 S1                 0.0000
     21 ****        -2.2009  -0.0773   1.0692 H              1 S1                 0.0000
     22 ****        -0.0011  -0.8064   1.8827 H              1 S1                 0.0000
     23 ****        -0.1813  -0.3775  -1.0081 H              1 S1                 0.0000
     24 ****        -0.1697   0.8855   0.2120 H              1 S1                 0.0000
     25 ****         2.0985   0.1214   0.9864 H              1 S1                 0.0000
     26 ****         2.0919  -1.1468  -0.2241 H              1 S1                 0.0000
     27 ****         3.1988   2.2940   0.2528 H              1 S1                 0.0000
     28 ****         4.1147   3.9295  -3.3333 H              1 S1                 0.0000
     29 ****         5.1499   3.6197  -1.9518 H              1 S1                 0.0000
     30 ****         3.6886   4.5718  -1.7580 H              1 S1                 0.0000
     31 ****         2.8219   1.5408  -3.9655 H              1 S1                 0.0000
     32 ****        -4.0061  -1.8181  -1.4442 H              1 S1                 0.0000
     33 ****        -3.9867  -0.5337  -0.2558 H              1 S1                 0.0000
     34 ****        -0.0340  -2.0004   0.7581 H              1 S1                 0.0000
     35 ****         1.7002  -0.2596  -2.7220 LP             1 S1                 0.0000
     36 ****        -1.0701  -3.2159  -0.1488 LP             1 S1                 0.0000
     37 ****        -2.3116  -3.3521  -1.3489 LP             1 S1                 0.0000
@<TRIPOS>BOND
    1    1    2 1     
    2    1   16 1     
    3    1   17 1     
    4    1   18 1     
    5    2    3 1     
    6    2   19 1     
    7    2   20 1     
    8    3    4 1     
    9    3   13 1     
   10    3   21 1     
   11    4    5 1     
   12    4   22 1     
   13    4   34 1     
   14    5    6 1     
   15    5   23 1     
   16    5   24 1     
   17    6    7 1     
   18    6   25 1     
   19    6   26 1     
   20    7   12 1     
   21    7    8 1     
   22    8    9 2     
   23    8   27 1     
   24    9   10 1     
   25    9   11 1     
   26   10   28 1     
   27   10   29 1     
   28   10   30 1     
   29   11   12 2     
   30   11   31 1     
   31   13   14 am    
   32   13   15 2     
   33   14   32 1     
   34   14   33 1     
   35   12   35 1     
   36   15   36 1     
   37   15   37 1     
@<TRIPOS>SUBSTRUCTURE
      1 S1             1
@<TRIPOS>SET
LONE_PAIRS      STATIC     ATOMS    <user>   **** ""
3 35 36 37
DONOR_HYDROGENS      STATIC     ATOMS    <user>   **** ""
4 22 34 32 33
ATOM$BLUE        STATIC     ATOMS    COLORGROUP SYSTEM
3 35 36 37
ATOM$RED        STATIC     ATOMS    COLORGROUP SYSTEM
4 22 34 32 33
