AV-unprocessed.smi:2788|AV-procd|sdf|10761|dock10
  -GOLD-   2272015193D 1   1.00000     0.00000
 Structure written by MMmdl.
 47 48  0  0  0  0  0  0  0  0  1 V2000
  149.6603  134.8168  156.7314 C   0  0  0  0  0  0  0  0  0  0  0  0
  150.0075  133.3801  156.4659 C   0  0  0  0  0  0  0  0  0  0  0  0
  150.4253  132.6155  157.4605 N   0  0  0  0  0  0  0  0  0  0  0  0
  150.6409  131.3502  156.9067 O   0  0  0  0  0  0  0  0  0  0  0  0
  150.3392  131.4026  155.5850 C   0  0  0  0  0  0  0  0  0  0  0  0
  150.4820  130.1299  154.8212 C   0  0  0  0  0  0  0  0  0  0  0  0
  149.9343  132.6629  155.2374 C   0  0  0  0  0  0  0  0  0  0  0  0
  149.4854  133.1746  153.8920 C   0  0  0  0  0  0  0  0  0  0  0  0
  147.9588  133.1764  153.8438 C   0  0  0  0  0  0  0  0  0  0  0  0
  147.3306  132.2213  154.2981 O   0  0  0  0  0  0  0  0  0  0  0  0
  147.3920  134.2478  153.2589 N   0  0  0  0  0  0  0  0  0  0  0  0
  145.9735  134.4911  152.9539 C   0  0  2  0  0  0  0  0  0  0  0  0
  145.9007  135.9102  152.3433 C   0  0  0  0  0  0  0  0  0  0  0  0
  145.1382  134.4661  154.2675 C   0  0  0  0  0  0  0  0  0  0  0  0
  145.0703  133.1735  154.8402 O   0  0  0  0  0  0  0  0  0  0  0  0
  145.4558  133.4106  151.9356 C   0  0  0  0  0  0  0  0  0  0  0  0
  146.3268  133.2712  150.6564 C   0  0  0  0  0  0  0  0  0  0  0  0
  145.8502  132.1168  149.7615 C   0  0  0  0  0  0  0  0  0  0  0  0
  144.3751  132.2866  149.3743 C   0  0  0  0  0  0  0  0  0  0  0  0
  143.4941  132.4239  150.6235 C   0  0  0  0  0  0  0  0  0  0  0  0
  143.9707  133.5766  151.5230 C   0  0  0  0  0  0  0  0  0  0  0  0
  148.5822  134.9427  156.8295 H   0  0  0  0  0  0  0  0  0  0  0  0
  149.9971  135.4599  155.9184 H   0  0  0  0  0  0  0  0  0  0  0  0
  150.1232  135.1791  157.6498 H   0  0  0  0  0  0  0  0  0  0  0  0
  150.3917  130.3014  153.7489 H   0  0  0  0  0  0  0  0  0  0  0  0
  149.7091  129.4190  155.1140 H   0  0  0  0  0  0  0  0  0  0  0  0
  151.4531  129.6721  155.0090 H   0  0  0  0  0  0  0  0  0  0  0  0
  149.8521  134.1847  153.7056 H   0  0  0  0  0  0  0  0  0  0  0  0
  149.8691  132.5597  153.0773 H   0  0  0  0  0  0  0  0  0  0  0  0
  148.0261  134.9655  152.9403 H   0  0  0  0  0  0  0  0  0  0  0  0
  144.8750  136.2119  152.1327 H   0  0  0  0  0  0  0  0  0  0  0  0
  146.4669  135.9880  151.4157 H   0  0  0  0  0  0  0  0  0  0  0  0
  146.3142  136.6565  153.0225 H   0  0  0  0  0  0  0  0  0  0  0  0
  145.5748  135.1235  155.0184 H   0  0  0  0  0  0  0  0  0  0  0  0
  144.1224  134.8240  154.1003 H   0  0  0  0  0  0  0  0  0  0  0  0
  144.2889  132.7463  154.5244 H   0  0  0  0  0  0  0  0  0  0  0  0
  145.5116  132.4486  152.4464 H   0  0  0  0  0  0  0  0  0  0  0  0
  146.3022  134.1951  150.0793 H   0  0  0  0  0  0  0  0  0  0  0  0
  147.3721  133.0948  150.9060 H   0  0  0  0  0  0  0  0  0  0  0  0
  146.4659  132.0659  148.8630 H   0  0  0  0  0  0  0  0  0  0  0  0
  145.9873  131.1689  150.2835 H   0  0  0  0  0  0  0  0  0  0  0  0
  144.2604  133.1702  148.7452 H   0  0  0  0  0  0  0  0  0  0  0  0
  144.0459  131.4356  148.7775 H   0  0  0  0  0  0  0  0  0  0  0  0
  142.4574  132.5879  150.3284 H   0  0  0  0  0  0  0  0  0  0  0  0
  143.5102  131.4900  151.1868 H   0  0  0  0  0  0  0  0  0  0  0  0
  143.3241  133.6116  152.3984 H   0  0  0  0  0  0  0  0  0  0  0  0
  143.8271  134.5180  150.9927 H   0  0  0  0  0  0  0  0  0  0  0  0
  1  2  1  0  0  0  0
  1 22  1  0  0  0  0
  1 23  1  0  0  0  0
  1 24  1  0  0  0  0
  2  7  1  0  0  0  0
  2  3  2  0  0  0  0
  3  4  1  0  0  0  0
  4  5  1  0  0  0  0
  5  6  1  0  0  0  0
  5  7  2  0  0  0  0
  6 25  1  0  0  0  0
  6 26  1  0  0  0  0
  6 27  1  0  0  0  0
  7  8  1  0  0  0  0
  8  9  1  0  0  0  0
  8 28  1  0  0  0  0
  8 29  1  0  0  0  0
  9 10  2  0  0  0  0
  9 11  1  0  0  0  0
 11 12  1  0  0  0  0
 11 30  1  0  0  0  0
 12 13  1  0  0  0  0
 12 14  1  0  0  0  0
 12 16  1  0  0  0  0
 13 31  1  0  0  0  0
 13 32  1  0  0  0  0
 13 33  1  0  0  0  0
 14 15  1  0  0  0  0
 14 34  1  0  0  0  0
 14 35  1  0  0  0  0
 15 36  1  0  0  0  0
 16 21  1  0  0  0  0
 16 17  1  0  0  0  0
 16 37  1  0  0  0  0
 17 18  1  0  0  0  0
 17 38  1  0  0  0  0
 17 39  1  0  0  0  0
 18 19  1  0  0  0  0
 18 40  1  0  0  0  0
 18 41  1  0  0  0  0
 19 20  1  0  0  0  0
 19 42  1  0  0  0  0
 19 43  1  0  0  0  0
 20 21  1  0  0  0  0
 20 44  1  0  0  0  0
 20 45  1  0  0  0  0
 21 46  1  0  0  0  0
 21 47  1  0  0  0  0
M  END
> <s_m_source_file>
AV-unprocessed.smi

> <i_m_source_file_index>
2788

> <i_lp_mmshare_version>
43012

> <i_f3d_flags>
0

> <s_epik_input>
W0NIM11jMW5vYyhbQ0gzXSljMVtDSDJdQyg9TylbTkhdW0NAQF0oW0NIM10pKFtDSDJdW09IXSlbQ0hdMltDSDJdW0NIMl1bQ0gyXVtDSDJdW0NIMl0y

> <s_epik_cmdline>
J2VwaWtfcHl0aG9uJywgJy1waCcsICc3LjAnLCAnLXRuJywgJzgnLCAnLW1hJywgJzIwMCcsICctbWV0YWxfYmluZGluZycsICctaW1hZScsICc8aW5maWxlLm1hZT4nLCAnLW9tYWUnLCAnPG91dGZpbGUubWFlPic=

> <r_lp_tautomer_probability>
1

> <r_epik_Ionization_Penalty>
1.3408e-07

> <r_epik_Ionization_Penalty_Charging>
0

> <r_epik_Ionization_Penalty_Neutral>
1.3408e-07

> <r_epik_State_Penalty>
-0

> <r_epik_Charging_Adjusted_Penalty>
0

> <i_epik_Tot_Q>
0

> <i_epik_Tot_abs_Q>
0

> <r_epik_Metal_State_Penalty>
-0

> <b_epik_Metal_Only>
0

> <s_lp_Force_Field>
OPLS_2005

> <r_lp_Energy>
14.1961

> <b_lp_Chiralities_Consistent>
1

> <s_lp_Variant>
AV-unprocessed.smi:2788-2

> <Gold.Version>
5.8.1

> <Gold.Id.Protein>
6NUR|6NUR_protein|mol2

> <Gold.PLP.Fitness>
44.8549

> <Gold.PLP.PLP>
-37.0372

> <Gold.PLP.part.hbond>
-3.0000

> <Gold.PLP.part.metal>
0.0000

> <Gold.PLP.part.buried>
-4.6272

> <Gold.PLP.part.nonpolar>
-30.0391

> <Gold.PLP.part.repulsive>
0.0359

> <Gold.PLP.ligand.clash>
0.0000

> <Gold.PLP.ligand.torsion>
0.6244

> <Gold.PLP.Chemscore.Hbond>
3.0000

> <Gold.PLP.Chemscore.CHOScore>
0.0000

> <Gold.PLP.Chemscore.Metal>
0.0000

> <Gold.Chemscore.Hbonds>
donor molecule, donor type, donor heavy atom, donor atom, acceptor molecule, acceptor atom, score
      L1  H    11    30       P1  7948  1.00
      L1  H    15    36       P1 10957  1.00
      P1  H  6896  6908       L1     3  0.84

> <Gold.PLP.Chemscore.Internal.Correction>
0.0665

> <Gold.Rescore>
     Score         DG    S(hbond)    S(metal)    S(lipo)     H(rot)  DE(clash)    DE(int)     intcor
     18.86     -19.58       2.93        0.00      85.87       2.24       0.01       0.70       ----

> <Gold.Chemscore.Fitness>
18.8645

> <Gold.Chemscore.DG>
-19.5781

> <Gold.Chemscore.ZeroCoef>
-5.4800

> <Gold.Chemscore.Hbond>
2.9267

> <Gold.Chemscore.Metal>
0.0000

> <Gold.Chemscore.Lipo>
85.8672

> <Gold.Chemscore.Internal_Hbond>
0.0000

> <Gold.Chemscore.DEClash>
0.0098

> <Gold.Chemscore.DEInternal>
0.7037

> <Gold.Chemscore.Rot>
2.2357

> <Gold.Chemscore.Internal.Correction>
   9.000000E+99

> <Gold.Chemscore.Hbonds>
donor molecule, donor type, donor heavy atom, donor atom, acceptor molecule, acceptor atom, score
      L1  H    11    30       P1  7948  0.94
      L1  H    15    36       P1 10957  0.94
      P1  H  6896  6908       L1     3  0.81

> <Gold.Chemscore.Hbond.Weighted>
-9.7751

> <Gold.Chemscore.Metal.Weighted>
-0.0000

> <Gold.Chemscore.Lipo.Weighted>
-10.0465

> <Gold.Chemscore.Internal_Hbond.Weighted>
0.0000

> <Gold.Chemscore.DEClash.Weighted>
0.0098

> <Gold.Chemscore.DEInternal.Weighted>
0.7037

> <Gold.Chemscore.Rot.Weighted>
5.7235

> <Gold.Chemscore.Internal.Correction.Weighted>
   9.000000E+99

> <Gold.Protein.RotatedTorsions>
[ 6907 6896 6895 6894 ] final   81.34 input  -60.11 | X-H torsion
[ 7974 7965 7964 7962 ] final  -67.45 input  175.53 | X-H torsion
[ 8008 7997 7996 7995 ] final  -75.93 input   59.86 | X-H torsion
[ 10167 10162 10161 10158 ] final -129.56 input  -65.29 | X-H torsion
[ 10718 10713 10712 10709 ] final  -21.93 input   66.30 | X-H torsion
[ 10763 10752 10751 10750 ] final  160.12 input  -60.55 | X-H torsion
[ 11005 11000 10999 10996 ] final   13.48 input  -57.11 | X-H torsion

> <Gold.Protein.ActiveResidues>
 VAL166  LYS551  ARG553  GLY616  TRP617  ASP618  TYR619  PRO620  LYS621  CYS622 
 ASP623  PHE694  ASN695  SER759  ASP760  ASP761  ALA762  ILE779  LEU786  VAL792 
 PHE793  MET794  SER795  GLU796  ALA797  LYS798  CYS799  TRP800  GLU811  SER814 

> <Gold.Protein.RotatedAtoms>
  152.5265  134.3219  159.9151 H   0  0  0  0  0  0  0  0  0  0  0  0  # atno 6907 bound_to 6896
  151.3169  133.4050  159.2659 H   0  0  0  0  0  0  0  0  0  0  0  0  # atno 6908 bound_to 6896
  150.9992  134.9325  159.8001 H   0  0  0  0  0  0  0  0  0  0  0  0  # atno 6909 bound_to 6896
  145.7290  140.9005  143.0590 H   0  0  0  0  0  0  0  0  0  0  0  0  # atno 7974 bound_to 7965
  154.5460  140.0735  156.8590 H   0  0  0  0  0  0  0  0  0  0  0  0  # atno 8008 bound_to 7997
  155.3085  140.3389  155.4226 H   0  0  0  0  0  0  0  0  0  0  0  0  # atno 8009 bound_to 7997
  156.1919  140.1689  156.8062 H   0  0  0  0  0  0  0  0  0  0  0  0  # atno 8010 bound_to 7997
  139.9385  143.6190  152.2510 H   0  0  0  0  0  0  0  0  0  0  0  0  # atno 10167 bound_to 10162
  156.5115  130.4611  149.6646 H   0  0  0  0  0  0  0  0  0  0  0  0  # atno 10718 bound_to 10713
  154.2425  135.2774  155.2848 H   0  0  0  0  0  0  0  0  0  0  0  0  # atno 10763 bound_to 10752
  154.5533  135.5668  153.6945 H   0  0  0  0  0  0  0  0  0  0  0  0  # atno 10764 bound_to 10752
  152.9997  135.6280  154.2570 H   0  0  0  0  0  0  0  0  0  0  0  0  # atno 10765 bound_to 10752
  140.4803  134.0942  155.7749 H   0  0  0  0  0  0  0  0  0  0  0  0  # atno 11005 bound_to 11000
  144.6897  139.9305  143.7471 LP  0  0  0  0  0  0  0  0  0  0  0  0  # atno 17320 bound_to 7965
  146.0555  139.3552  143.0613 LP  0  0  0  0  0  0  0  0  0  0  0  0  # atno 17321 bound_to 7965
  139.6723  144.7660  151.1759 LP  0  0  0  0  0  0  0  0  0  0  0  0  # atno 17342 bound_to 10162
  140.7617  143.5846  150.8859 LP  0  0  0  0  0  0  0  0  0  0  0  0  # atno 17343 bound_to 10162
  156.3236  130.7294  151.2210 LP  0  0  0  0  0  0  0  0  0  0  0  0  # atno 17370 bound_to 10713
  157.7450  131.0449  150.4816 LP  0  0  0  0  0  0  0  0  0  0  0  0  # atno 17371 bound_to 10713
  141.1534  133.8927  157.2039 LP  0  0  0  0  0  0  0  0  0  0  0  0  # atno 17394 bound_to 11000
  139.9830  135.0091  156.9796 LP  0  0  0  0  0  0  0  0  0  0  0  0  # atno 17395 bound_to 11000

$$$$
