AV-unprocessed.smi:1946|AV-procd|sdf|7863|dock2
  -GOLD-   2272010 13D 1   1.00000     0.00000
 Structure written by MMmdl.
 39 41  0  0  0  0  0  0  0  0  2 V2000
  147.8695  132.9720  156.0934 C   0  0  0  0  0  0  0  0  0  0  0  0
  149.6459  133.1095  156.5472 S   0  0  0  0  0  0  0  0  0  0  0  0
  149.7792  132.7776  157.9744 O   0  0  0  0  0  0  0  0  0  0  0  0
  150.4301  132.3638  155.5504 O   0  0  0  0  0  0  0  0  0  0  0  0
  150.0000  134.8514  156.3463 C   0  0  0  0  0  0  0  0  0  0  0  0
  149.6151  135.7615  157.3503 C   0  0  0  0  0  0  0  0  0  0  0  0
  149.8682  137.1361  157.1783 C   0  0  0  0  0  0  0  0  0  0  0  0
  150.4982  137.6043  156.0034 C   0  0  0  0  0  0  0  0  0  0  0  0
  150.7719  139.0881  155.8142 C   0  0  2  0  0  0  0  0  0  0  0  0
  151.5227  139.3437  154.6431 O   0  0  0  0  0  0  0  0  0  0  0  0
  151.4823  139.6885  157.0444 C   0  0  0  0  0  0  0  0  0  0  0  0
  151.2732  141.1377  157.1786 N   0  0  0  0  0  0  0  0  0  0  0  0
  150.6206  142.0005  156.3534 C   0  0  0  0  0  0  0  0  0  0  0  0
  150.6974  143.2410  156.9098 N   0  3  0  0  0  0  0  0  0  0  0  0
  151.4099  143.1712  158.1087 C   0  0  0  0  0  0  0  0  0  0  0  0
  151.7475  144.1615  159.0260 C   0  0  0  0  0  0  0  0  0  0  0  0
  152.4896  143.7533  160.1536 C   0  0  0  0  0  0  0  0  0  0  0  0
  152.8681  142.4073  160.3359 C   0  0  0  0  0  0  0  0  0  0  0  0
  152.5199  141.4114  159.3995 C   0  0  0  0  0  0  0  0  0  0  0  0
  151.7843  141.8223  158.2880 C   0  0  0  0  0  0  0  0  0  0  0  0
  150.8625  136.6851  154.9950 C   0  0  0  0  0  0  0  0  0  0  0  0
  150.6103  135.3095  155.1620 C   0  0  0  0  0  0  0  0  0  0  0  0
  147.5510  131.9340  156.1874 H   0  0  0  0  0  0  0  0  0  0  0  0
  147.7296  133.3021  155.0642 H   0  0  0  0  0  0  0  0  0  0  0  0
  147.2739  133.5960  156.7595 H   0  0  0  0  0  0  0  0  0  0  0  0
  149.1283  135.4129  158.2493 H   0  0  0  0  0  0  0  0  0  0  0  0
  149.5743  137.8313  157.9512 H   0  0  0  0  0  0  0  0  0  0  0  0
  149.8161  139.5975  155.6835 H   0  0  0  0  0  0  0  0  0  0  0  0
  152.2909  138.7931  154.6548 H   0  0  0  0  0  0  0  0  0  0  0  0
  151.0977  139.2260  157.9545 H   0  0  0  0  0  0  0  0  0  0  0  0
  152.5523  139.4804  157.0275 H   0  0  0  0  0  0  0  0  0  0  0  0
  150.1297  141.7469  155.4249 H   0  0  0  0  0  0  0  0  0  0  0  0
  151.4606  145.1937  158.8881 H   0  0  0  0  0  0  0  0  0  0  0  0
  152.7757  144.4873  160.8929 H   0  0  0  0  0  0  0  0  0  0  0  0
  153.4392  142.1326  161.2108 H   0  0  0  0  0  0  0  0  0  0  0  0
  152.8212  140.3851  159.5465 H   0  0  0  0  0  0  0  0  0  0  0  0
  151.3352  137.0314  154.0878 H   0  0  0  0  0  0  0  0  0  0  0  0
  150.8868  134.6145  154.3831 H   0  0  0  0  0  0  0  0  0  0  0  0
  150.2925  144.0726  156.4992 H   0  0  0  0  0  0  0  0  0  0  0  0
  1  2  1  0  0  0  0
  1 23  1  0  0  0  0
  1 24  1  0  0  0  0
  1 25  1  0  0  0  0
  2  3  2  0  0  0  0
  2  4  2  0  0  0  0
  2  5  1  0  0  0  0
  5 22  1  0  0  0  0
  5  6  2  0  0  0  0
  6  7  1  0  0  0  0
  6 26  1  0  0  0  0
  7  8  2  0  0  0  0
  7 27  1  0  0  0  0
  8  9  1  0  0  0  0
  8 21  1  0  0  0  0
  9 10  1  0  0  0  0
  9 11  1  0  0  0  0
  9 28  1  0  0  0  0
 10 29  1  0  0  0  0
 11 12  1  0  0  0  0
 11 30  1  0  0  0  0
 11 31  1  0  0  0  0
 12 20  1  0  0  0  0
 12 13  1  0  0  0  0
 13 14  2  0  0  0  0
 13 32  1  0  0  0  0
 14 15  1  0  0  0  0
 14 39  1  0  0  0  0
 15 20  2  0  0  0  0
 15 16  1  0  0  0  0
 16 17  2  0  0  0  0
 16 33  1  0  0  0  0
 17 18  1  0  0  0  0
 17 34  1  0  0  0  0
 18 19  2  0  0  0  0
 18 35  1  0  0  0  0
 19 20  1  0  0  0  0
 19 36  1  0  0  0  0
 21 22  2  0  0  0  0
 21 37  1  0  0  0  0
 22 38  1  0  0  0  0
M  CHG  1  14   1
M  END
> <s_m_source_file>
AV-unprocessed.smi

> <i_m_source_file_index>
1946

> <i_lp_mmshare_version>
43012

> <i_f3d_flags>
0

> <s_epik_input>
W0NIM11TKD1PKSg9TyljMVtjSF1bY0hdYyhbY0hdW2NIXTEpW0NASF0oW09IXSlbQ0gyXW4oW2NIXW4yKWMoYzIzKVtjSF1bY0hdW2NIXVtjSF0z

> <s_epik_cmdline>
J2VwaWtfcHl0aG9uJywgJy1waCcsICc3LjAnLCAnLXRuJywgJzgnLCAnLW1hJywgJzIwMCcsICctbWV0YWxfYmluZGluZycsICctaW1hZScsICc8aW5maWxlLm1hZT4nLCAnLW9tYWUnLCAnPG91dGZpbGUubWFlPic=

> <r_epik_Ionization_Penalty>
1.3029

> <r_epik_Ionization_Penalty_Charging>
1.3029

> <r_epik_Ionization_Penalty_Neutral>
1.34362e-06

> <r_epik_State_Penalty>
1.377

> <r_epik_Charging_Adjusted_Penalty>
2.6799

> <i_epik_Tot_Q>
1

> <i_epik_Tot_abs_Q>
1

> <r_epik_Metal_State_Penalty>
5.40879

> <b_epik_Metal_Only>
0

> <s_lp_Force_Field>
OPLS_2005

> <r_lp_Energy>
15.3406

> <b_lp_Chiralities_Consistent>
1

> <s_lp_Variant>
AV-unprocessed.smi:1946-3

> <Gold.Version>
5.8.1

> <Gold.Id.Protein>
6NUR|6NUR_protein|mol2

> <Gold.PLP.Fitness>
48.9341

> <Gold.PLP.PLP>
-37.7525

> <Gold.PLP.part.hbond>
-3.0000

> <Gold.PLP.part.metal>
0.0000

> <Gold.PLP.part.buried>
-5.4415

> <Gold.PLP.part.nonpolar>
-30.0772

> <Gold.PLP.part.repulsive>
0.0265

> <Gold.PLP.ligand.clash>
0.0000

> <Gold.PLP.ligand.torsion>
1.3755

> <Gold.PLP.Chemscore.Hbond>
3.9520

> <Gold.PLP.Chemscore.CHOScore>
0.0000

> <Gold.PLP.Chemscore.Metal>
0.0000

> <Gold.Chemscore.Hbonds>
donor molecule, donor type, donor heavy atom, donor atom, acceptor molecule, acceptor atom, score
      L1  H    14    39       P1  8028  1.86
      P1  H  6896  6907       L1     3  1.00
      P1  H  7989  7998       L1    10  1.00

> <Gold.PLP.Chemscore.Internal.Correction>
2.0766

> <Gold.Rescore>
     Score         DG    S(hbond)    S(metal)    S(lipo)     H(rot)  DE(clash)    DE(int)     intcor
     20.89     -22.29       2.94        0.00     104.31       2.04       0.06       1.35       ----

> <Gold.Chemscore.Fitness>
20.8862

> <Gold.Chemscore.DG>
-22.2928

> <Gold.Chemscore.ZeroCoef>
-5.4800

> <Gold.Chemscore.Hbond>
2.9419

> <Gold.Chemscore.Metal>
0.0000

> <Gold.Chemscore.Lipo>
104.3107

> <Gold.Chemscore.Internal_Hbond>
0.0000

> <Gold.Chemscore.DEClash>
0.0588

> <Gold.Chemscore.DEInternal>
1.3478

> <Gold.Chemscore.Rot>
2.0382

> <Gold.Chemscore.Internal.Correction>
   9.000000E+99

> <Gold.Chemscore.Hbonds>
donor molecule, donor type, donor heavy atom, donor atom, acceptor molecule, acceptor atom, score
      L1  H    14    39       P1  8028  0.90
      P1  H  6896  6907       L1     3  1.00
      P1  H  7989  7998       L1    10  0.87

> <Gold.Chemscore.Hbond.Weighted>
-9.8261

> <Gold.Chemscore.Metal.Weighted>
-0.0000

> <Gold.Chemscore.Lipo.Weighted>
-12.2044

> <Gold.Chemscore.Internal_Hbond.Weighted>
0.0000

> <Gold.Chemscore.DEClash.Weighted>
0.0588

> <Gold.Chemscore.DEInternal.Weighted>
1.3478

> <Gold.Chemscore.Rot.Weighted>
5.2177

> <Gold.Chemscore.Internal.Correction.Weighted>
   9.000000E+99

> <Gold.Protein.RotatedTorsions>
[ 6907 6896 6895 6894 ] final -124.46 input  -60.11 | X-H torsion
[ 7974 7965 7964 7962 ] final -126.79 input  175.53 | X-H torsion
[ 8008 7997 7996 7995 ] final  -87.46 input   59.86 | X-H torsion
[ 10167 10162 10161 10158 ] final -102.68 input  -65.29 | X-H torsion
[ 10718 10713 10712 10709 ] final  -93.16 input   66.30 | X-H torsion
[ 10763 10752 10751 10750 ] final   28.81 input  -60.55 | X-H torsion
[ 11005 11000 10999 10996 ] final -117.14 input  -57.11 | X-H torsion

> <Gold.Protein.ActiveResidues>
 VAL166  LYS551  ARG553  GLY616  TRP617  ASP618  TYR619  PRO620  LYS621  CYS622 
 ASP623  PHE694  ASN695  SER759  ASP760  ASP761  ALA762  ILE779  LEU786  VAL792 
 PHE793  MET794  SER795  GLU796  ALA797  LYS798  CYS799  TRP800  GLU811  SER814 

> <Gold.Protein.RotatedAtoms>
  150.8770  133.7425  159.2943 H   0  0  0  0  0  0  0  0  0  0  0  0  # atno 6907 bound_to 6896
  151.5019  135.1060  159.9840 H   0  0  0  0  0  0  0  0  0  0  0  0  # atno 6908 bound_to 6896
  152.4734  133.8037  159.7022 H   0  0  0  0  0  0  0  0  0  0  0  0  # atno 6909 bound_to 6896
  144.9836  140.7664  143.4597 H   0  0  0  0  0  0  0  0  0  0  0  0  # atno 7974 bound_to 7965
  154.6635  140.0565  157.0088 H   0  0  0  0  0  0  0  0  0  0  0  0  # atno 8008 bound_to 7997
  155.1193  140.3246  155.4483 H   0  0  0  0  0  0  0  0  0  0  0  0  # atno 8009 bound_to 7997
  156.2628  140.2000  156.6316 H   0  0  0  0  0  0  0  0  0  0  0  0  # atno 8010 bound_to 7997
  140.2280  143.3627  152.0911 H   0  0  0  0  0  0  0  0  0  0  0  0  # atno 10167 bound_to 10162
  156.0010  130.5016  150.5735 H   0  0  0  0  0  0  0  0  0  0  0  0  # atno 10718 bound_to 10713
  153.0468  135.6504  154.0795 H   0  0  0  0  0  0  0  0  0  0  0  0  # atno 10763 bound_to 10752
  154.0491  135.2897  155.3345 H   0  0  0  0  0  0  0  0  0  0  0  0  # atno 10764 bound_to 10752
  154.6732  135.5348  153.8231 H   0  0  0  0  0  0  0  0  0  0  0  0  # atno 10765 bound_to 10752
  141.0375  133.9887  157.3047 H   0  0  0  0  0  0  0  0  0  0  0  0  # atno 11005 bound_to 11000
  145.2385  139.2083  143.5005 LP  0  0  0  0  0  0  0  0  0  0  0  0  # atno 17320 bound_to 7965
  146.3414  140.2276  142.8592 LP  0  0  0  0  0  0  0  0  0  0  0  0  # atno 17321 bound_to 7965
  139.5120  144.6910  151.5760 LP  0  0  0  0  0  0  0  0  0  0  0  0  # atno 17342 bound_to 10162
  140.6206  143.9266  150.6523 LP  0  0  0  0  0  0  0  0  0  0  0  0  # atno 17343 bound_to 10162
  157.3626  131.0752  151.1624 LP  0  0  0  0  0  0  0  0  0  0  0  0  # atno 17370 bound_to 10713
  157.2403  130.6566  149.5887 LP  0  0  0  0  0  0  0  0  0  0  0  0  # atno 17371 bound_to 10713
  139.9251  135.0201  156.8206 LP  0  0  0  0  0  0  0  0  0  0  0  0  # atno 17394 bound_to 11000
  140.6295  133.9919  155.7655 LP  0  0  0  0  0  0  0  0  0  0  0  0  # atno 17395 bound_to 11000

$$$$
