AV-unprocessed.smi:1933|AV-procd|sdf|7817|dock3
  -GOLD-   22720 9563D 1   1.00000     0.00000
 Structure written by MMmdl.
 47 49  0  0  0  0  0  0  0  0  1 V2000
  145.1755  135.3218  154.0958 O   0  0  0  0  0  0  0  0  0  0  0  0
  146.2289  135.5322  153.4944 C   0  0  0  0  0  0  0  0  0  0  0  0
  147.1954  136.3430  153.9497 N   0  0  0  0  0  0  0  0  0  0  0  0
  147.1628  137.0887  155.2053 C   0  0  0  0  0  0  0  0  0  0  0  0
  148.4873  137.8515  155.4756 C   0  0  2  0  0  0  0  0  0  0  0  0
  149.1325  137.4954  156.8474 C   0  0  1  0  0  0  0  0  0  0  0  0
  148.3582  137.9417  158.0768 C   0  0  0  0  0  0  0  0  0  0  0  0
  148.9688  137.0917  159.1972 C   0  0  0  0  0  0  0  0  0  0  0  0
  149.7878  136.1140  158.5584 O   0  0  0  0  0  0  0  0  0  0  0  0
  149.4203  136.0351  157.1903 C   0  0  0  0  0  0  0  0  0  0  0  0
  148.4365  139.2947  155.1665 N   0  0  0  0  0  0  0  0  0  0  0  0
  147.7968  139.6445  153.8954 C   0  0  0  0  0  0  0  0  0  0  0  0
  147.6987  141.1681  153.7133 C   0  0  0  0  0  0  0  0  0  0  0  0
  149.0015  141.7387  153.7890 O   0  0  0  0  0  0  0  0  0  0  0  0
  149.6595  141.4504  155.0186 C   0  0  0  0  0  0  0  0  0  0  0  0
  149.7526  139.9271  155.2154 C   0  0  0  0  0  0  0  0  0  0  0  0
  146.5763  134.9743  152.3216 N   0  0  0  0  0  0  0  0  0  0  0  0
  145.8539  134.0243  151.5521 C   0  0  0  0  0  0  0  0  0  0  0  0
  144.4440  134.1197  151.4251 C   0  0  0  0  0  0  0  0  0  0  0  0
  143.7570  133.1803  150.6325 C   0  0  0  0  0  0  0  0  0  0  0  0
  144.4930  132.1769  149.9783 C   0  0  0  0  0  0  0  0  0  0  0  0
  145.8898  132.1653  150.1435 C   0  0  0  0  0  0  0  0  0  0  0  0
  146.5522  133.0656  150.9007 N   0  0  0  0  0  0  0  0  0  0  0  0
  148.0261  136.4490  153.3858 H   0  0  0  0  0  0  0  0  0  0  0  0
  146.3324  137.7900  155.1281 H   0  0  0  0  0  0  0  0  0  0  0  0
  146.9228  136.4300  156.0413 H   0  0  0  0  0  0  0  0  0  0  0  0
  149.1980  137.4237  154.7667 H   0  0  0  0  0  0  0  0  0  0  0  0
  150.0899  138.0149  156.9008 H   0  0  0  0  0  0  0  0  0  0  0  0
  148.4514  139.0120  158.2635 H   0  0  0  0  0  0  0  0  0  0  0  0
  147.2973  137.7092  157.9794 H   0  0  0  0  0  0  0  0  0  0  0  0
  149.5809  137.6920  159.8709 H   0  0  0  0  0  0  0  0  0  0  0  0
  148.1911  136.6059  159.7874 H   0  0  0  0  0  0  0  0  0  0  0  0
  148.5340  135.4076  157.1323 H   0  0  0  0  0  0  0  0  0  0  0  0
  150.2104  135.5932  156.5838 H   0  0  0  0  0  0  0  0  0  0  0  0
  148.3729  139.2382  153.0632 H   0  0  0  0  0  0  0  0  0  0  0  0
  146.8046  139.2137  153.8133 H   0  0  0  0  0  0  0  0  0  0  0  0
  147.2611  141.4070  152.7440 H   0  0  0  0  0  0  0  0  0  0  0  0
  147.0531  141.6085  154.4751 H   0  0  0  0  0  0  0  0  0  0  0  0
  150.6560  141.8917  155.0027 H   0  0  0  0  0  0  0  0  0  0  0  0
  149.1171  141.9128  155.8449 H   0  0  0  0  0  0  0  0  0  0  0  0
  150.2290  139.7238  156.1749 H   0  0  0  0  0  0  0  0  0  0  0  0
  150.4020  139.5051  154.4478 H   0  0  0  0  0  0  0  0  0  0  0  0
  147.5144  135.1638  152.0008 H   0  0  0  0  0  0  0  0  0  0  0  0
  143.8821  134.9030  151.9112 H   0  0  0  0  0  0  0  0  0  0  0  0
  142.6837  133.2332  150.5243 H   0  0  0  0  0  0  0  0  0  0  0  0
  144.0010  131.4395  149.3612 H   0  0  0  0  0  0  0  0  0  0  0  0
  146.4930  131.4157  149.6531 H   0  0  0  0  0  0  0  0  0  0  0  0
  1  2  2  0  0  0  0
  2  3  1  0  0  0  0
  2 17  1  0  0  0  0
  3  4  1  0  0  0  0
  3 24  1  0  0  0  0
  4  5  1  0  0  0  0
  4 25  1  0  0  0  0
  4 26  1  0  0  0  0
  5  6  1  0  0  0  0
  5 11  1  0  0  0  0
  5 27  1  0  0  0  0
  6 10  1  0  0  0  0
  6  7  1  0  0  0  0
  6 28  1  0  0  0  0
  7  8  1  0  0  0  0
  7 29  1  0  0  0  0
  7 30  1  0  0  0  0
  8  9  1  0  0  0  0
  8 31  1  0  0  0  0
  8 32  1  0  0  0  0
  9 10  1  0  0  0  0
 10 33  1  0  0  0  0
 10 34  1  0  0  0  0
 11 16  1  0  0  0  0
 11 12  1  0  0  0  0
 12 13  1  0  0  0  0
 12 35  1  0  0  0  0
 12 36  1  0  0  0  0
 13 14  1  0  0  0  0
 13 37  1  0  0  0  0
 13 38  1  0  0  0  0
 14 15  1  0  0  0  0
 15 16  1  0  0  0  0
 15 39  1  0  0  0  0
 15 40  1  0  0  0  0
 16 41  1  0  0  0  0
 16 42  1  0  0  0  0
 17 18  1  0  0  0  0
 17 43  1  0  0  0  0
 18 23  1  0  0  0  0
 18 19  2  0  0  0  0
 19 20  1  0  0  0  0
 19 44  1  0  0  0  0
 20 21  2  0  0  0  0
 20 45  1  0  0  0  0
 21 22  1  0  0  0  0
 21 46  1  0  0  0  0
 22 23  2  0  0  0  0
 22 47  1  0  0  0  0
M  END
> <s_m_source_file>
AV-unprocessed.smi

> <i_m_source_file_index>
1933

> <i_lp_mmshare_version>
43012

> <i_f3d_flags>
0

> <s_epik_input>
bjFbY0hdW2NIXVtjSF1bY0hdYzFbTkhdQyg9TylbTkhdW0NIMl1bQ0BIXShbQ0BASF0yW0NIMl1bQ0gyXU9bQ0gyXTIpTjNbQ0gyXVtDSDJdT1tDSDJdW0NIMl0z

> <s_epik_cmdline>
J2VwaWtfcHl0aG9uJywgJy1waCcsICc3LjAnLCAnLXRuJywgJzgnLCAnLW1hJywgJzIwMCcsICctbWV0YWxfYmluZGluZycsICctaW1hZScsICc8aW5maWxlLm1hZT4nLCAnLW9tYWUnLCAnPG91dGZpbGUubWFlPic=

> <r_epik_Ionization_Penalty>
0.125062

> <r_epik_Ionization_Penalty_Charging>
0

> <r_epik_Ionization_Penalty_Neutral>
0.125062

> <r_epik_State_Penalty>
0.114484

> <r_epik_Charging_Adjusted_Penalty>
0.114484

> <i_epik_Tot_Q>
0

> <i_epik_Tot_abs_Q>
0

> <r_epik_Metal_State_Penalty>
0.114484

> <b_epik_Metal_Only>
0

> <s_lp_Force_Field>
OPLS_2005

> <r_lp_Energy>
60.0985

> <b_lp_Chiralities_Consistent>
1

> <s_lp_Variant>
AV-unprocessed.smi:1933-3

> <Gold.Version>
5.8.1

> <Gold.Id.Protein>
6NUR|6NUR_protein|mol2

> <Gold.PLP.Fitness>
43.5618

> <Gold.PLP.PLP>
-31.9367

> <Gold.PLP.part.hbond>
-4.0140

> <Gold.PLP.part.metal>
0.0000

> <Gold.PLP.part.buried>
-5.8840

> <Gold.PLP.part.nonpolar>
-23.4778

> <Gold.PLP.part.repulsive>
0.5393

> <Gold.PLP.ligand.clash>
0.0000

> <Gold.PLP.ligand.torsion>
1.0922

> <Gold.PLP.Chemscore.Hbond>
3.5760

> <Gold.PLP.Chemscore.CHOScore>
0.9046

> <Gold.PLP.Chemscore.Metal>
0.0000

> <Gold.Chemscore.Hbonds>
donor molecule, donor type, donor heavy atom, donor atom, acceptor molecule, acceptor atom, score
      L1  H     3    24       P1  7948  1.00
      L1  H    17    43       P1  7948  1.00
      P1  H  6896  6907       L1     9  1.00
      P1  H  8011  8017       L1    14  0.61
      L1  C    22    47       P1 10747  0.75

> <Gold.PLP.Chemscore.Internal.Correction>
0.3676

> <Gold.Rescore>
     Score         DG    S(hbond)    S(metal)    S(lipo)     H(rot)  DE(clash)    DE(int)     intcor
     19.40     -21.54       3.59        0.00      72.38       1.72       0.12       2.01       ----

> <Gold.Chemscore.Fitness>
19.4027

> <Gold.Chemscore.DG>
-21.5375

> <Gold.Chemscore.ZeroCoef>
-5.4800

> <Gold.Chemscore.Hbond>
3.5876

> <Gold.Chemscore.Metal>
0.0000

> <Gold.Chemscore.Lipo>
72.3772

> <Gold.Chemscore.Internal_Hbond>
0.0000

> <Gold.Chemscore.DEClash>
0.1205

> <Gold.Chemscore.DEInternal>
2.0143

> <Gold.Chemscore.Rot>
1.7161

> <Gold.Chemscore.Internal.Correction>
   9.000000E+99

> <Gold.Chemscore.Hbonds>
donor molecule, donor type, donor heavy atom, donor atom, acceptor molecule, acceptor atom, score
      L1  H     3    24       P1  7948  0.96
      L1  H    17    43       P1  7948  0.93
      P1  H  6896  6907       L1     9  0.95
      P1  H  8011  8017       L1    14  0.61

> <Gold.Chemscore.Hbond.Weighted>
-11.9826

> <Gold.Chemscore.Metal.Weighted>
-0.0000

> <Gold.Chemscore.Lipo.Weighted>
-8.4681

> <Gold.Chemscore.Internal_Hbond.Weighted>
0.0000

> <Gold.Chemscore.DEClash.Weighted>
0.1205

> <Gold.Chemscore.DEInternal.Weighted>
2.0143

> <Gold.Chemscore.Rot.Weighted>
4.3932

> <Gold.Chemscore.Internal.Correction.Weighted>
   9.000000E+99

> <Gold.Protein.RotatedTorsions>
[ 6907 6896 6895 6894 ] final  -53.17 input  -60.11 | X-H torsion
[ 7974 7965 7964 7962 ] final  -47.30 input  175.53 | X-H torsion
[ 8008 7997 7996 7995 ] final -163.56 input   59.86 | X-H torsion
[ 10167 10162 10161 10158 ] final  171.25 input  -65.29 | X-H torsion
[ 10718 10713 10712 10709 ] final -116.34 input   66.30 | X-H torsion
[ 10763 10752 10751 10750 ] final  143.18 input  -60.55 | X-H torsion
[ 11005 11000 10999 10996 ] final  152.07 input  -57.11 | X-H torsion

> <Gold.Protein.ActiveResidues>
 VAL166  LYS551  ARG553  GLY616  TRP617  ASP618  TYR619  PRO620  LYS621  CYS622 
 ASP623  PHE694  ASN695  SER759  ASP760  ASP761  ALA762  ILE779  LEU786  VAL792 
 PHE793  MET794  SER795  GLU796  ALA797  LYS798  CYS799  TRP800  GLU811  SER814 

> <Gold.Protein.RotatedAtoms>
  150.8451  134.7757  159.6963 H   0  0  0  0  0  0  0  0  0  0  0  0  # atno 6907 bound_to 6896
  152.4530  134.5350  159.9832 H   0  0  0  0  0  0  0  0  0  0  0  0  # atno 6908 bound_to 6896
  151.5482  133.3384  159.2984 H   0  0  0  0  0  0  0  0  0  0  0  0  # atno 6909 bound_to 6896
  145.9630  140.7460  142.9448 H   0  0  0  0  0  0  0  0  0  0  0  0  # atno 7974 bound_to 7965
  155.8231  140.0922  157.1837 H   0  0  0  0  0  0  0  0  0  0  0  0  # atno 8008 bound_to 7997
  154.3979  140.1433  156.3584 H   0  0  0  0  0  0  0  0  0  0  0  0  # atno 8009 bound_to 7997
  155.8245  140.3445  155.5537 H   0  0  0  0  0  0  0  0  0  0  0  0  # atno 8010 bound_to 7997
  139.5041  144.3507  151.9926 H   0  0  0  0  0  0  0  0  0  0  0  0  # atno 10167 bound_to 10162
  156.0957  130.6130  150.9022 H   0  0  0  0  0  0  0  0  0  0  0  0  # atno 10718 bound_to 10713
  153.9681  135.2953  155.3429 H   0  0  0  0  0  0  0  0  0  0  0  0  # atno 10763 bound_to 10752
  154.7337  135.5056  153.9009 H   0  0  0  0  0  0  0  0  0  0  0  0  # atno 10764 bound_to 10752
  153.0913  135.6708  153.9960 H   0  0  0  0  0  0  0  0  0  0  0  0  # atno 10765 bound_to 10752
  140.1275  134.8824  157.2158 H   0  0  0  0  0  0  0  0  0  0  0  0  # atno 11005 bound_to 11000
  144.6819  140.2622  143.7317 LP  0  0  0  0  0  0  0  0  0  0  0  0  # atno 17320 bound_to 7965
  145.8014  139.1966  143.2046 LP  0  0  0  0  0  0  0  0  0  0  0  0  # atno 17321 bound_to 7965
  140.2944  144.3718  150.6079 LP  0  0  0  0  0  0  0  0  0  0  0  0  # atno 17342 bound_to 10162
  140.5922  143.2168  151.7231 LP  0  0  0  0  0  0  0  0  0  0  0  0  # atno 17343 bound_to 10162
  157.6117  131.0936  150.8784 LP  0  0  0  0  0  0  0  0  0  0  0  0  # atno 17370 bound_to 10713
  156.8922  130.5217  149.5286 LP  0  0  0  0  0  0  0  0  0  0  0  0  # atno 17371 bound_to 10713
  140.2885  134.3268  155.7322 LP  0  0  0  0  0  0  0  0  0  0  0  0  # atno 17394 bound_to 11000
  141.2164  133.7520  156.9468 LP  0  0  0  0  0  0  0  0  0  0  0  0  # atno 17395 bound_to 11000

$$$$
