AV-unprocessed.smi:1244|AV-procd|sdf|5225|dock7
  -GOLD-   22720 4323D 1   1.00000     0.00000
 Structure written by MMmdl.
 55 57  0  0  0  0  0  0  0  0  2 V2000
  148.1771  142.9575  157.9941 C   0  0  0  0  0  0  0  0  0  0  0  0
  148.9163  141.6364  157.7559 C   0  0  1  0  0  0  0  0  0  0  0  0
  149.1181  141.3453  156.2570 C   0  0  0  0  0  0  0  0  0  0  0  0
  149.8967  140.0985  156.0697 N   0  3  1  0  0  0  0  0  0  0  0  0
  150.0682  139.7449  154.6390 C   0  0  0  0  0  0  0  0  0  0  0  0
  151.0551  138.5797  154.4414 C   0  0  0  0  0  0  0  0  0  0  0  0
  150.3507  137.3214  154.2257 N   0  0  0  0  0  0  0  0  0  0  0  0
  150.5253  136.2129  154.9587 C   0  0  0  0  0  0  0  0  0  0  0  0
  151.3021  136.1477  155.9113 O   0  0  0  0  0  0  0  0  0  0  0  0
  149.7420  135.2129  154.5211 N   0  0  0  0  0  0  0  0  0  0  0  0
  149.5838  133.9057  155.0640 C   0  0  0  0  0  0  0  0  0  0  0  0
  150.3425  133.4603  156.1748 C   0  0  0  0  0  0  0  0  0  0  0  0
  150.1926  132.1388  156.6291 C   0  0  0  0  0  0  0  0  0  0  0  0
  149.2993  131.2984  155.9451 C   0  0  0  0  0  0  0  0  0  0  0  0
  148.5817  131.7008  154.8779 N   0  0  0  0  0  0  0  0  0  0  0  0
  148.7032  132.9771  154.4367 C   0  0  0  0  0  0  0  0  0  0  0  0
  147.9147  133.3430  153.3210 N   0  0  0  0  0  0  0  0  0  0  0  0
  148.0578  132.6389  152.0511 C   0  0  0  0  0  0  0  0  0  0  0  0
  146.8246  133.0291  151.2415 C   0  0  0  0  0  0  0  0  0  0  0  0
  145.7474  133.1304  152.3170 C   0  0  0  0  0  0  0  0  0  0  0  0
  146.5050  133.6514  153.5431 C   0  0  0  0  0  0  0  0  0  0  0  0
  151.1781  140.1748  156.8138 C   0  0  0  0  0  0  0  0  0  0  0  0
  150.9244  140.5029  158.2973 C   0  0  1  0  0  0  0  0  0  0  0  0
  152.2297  140.6762  159.0815 C   0  0  0  0  0  0  0  0  0  0  0  0
  150.1893  141.7188  158.3869 O   0  0  0  0  0  0  0  0  0  0  0  0
  147.1874  142.9413  157.5371 H   0  0  0  0  0  0  0  0  0  0  0  0
  148.7268  143.7999  157.5731 H   0  0  0  0  0  0  0  0  0  0  0  0
  148.0469  143.1445  159.0603 H   0  0  0  0  0  0  0  0  0  0  0  0
  148.3402  140.8303  158.2138 H   0  0  0  0  0  0  0  0  0  0  0  0
  148.1473  141.2489  155.7694 H   0  0  0  0  0  0  0  0  0  0  0  0
  149.6388  142.1753  155.7761 H   0  0  0  0  0  0  0  0  0  0  0  0
  149.1048  139.4438  154.2242 H   0  0  0  0  0  0  0  0  0  0  0  0
  150.3811  140.6270  154.0776 H   0  0  0  0  0  0  0  0  0  0  0  0
  151.7307  138.7646  153.6055 H   0  0  0  0  0  0  0  0  0  0  0  0
  151.6818  138.4696  155.3268 H   0  0  0  0  0  0  0  0  0  0  0  0
  149.6876  137.2913  153.4648 H   0  0  0  0  0  0  0  0  0  0  0  0
  149.1021  135.4451  153.7755 H   0  0  0  0  0  0  0  0  0  0  0  0
  151.0546  134.0992  156.6735 H   0  0  0  0  0  0  0  0  0  0  0  0
  150.7590  131.7753  157.4737 H   0  0  0  0  0  0  0  0  0  0  0  0
  149.1610  130.2741  156.2580 H   0  0  0  0  0  0  0  0  0  0  0  0
  148.9813  132.9180  151.5437 H   0  0  0  0  0  0  0  0  0  0  0  0
  148.0627  131.5592  152.2052 H   0  0  0  0  0  0  0  0  0  0  0  0
  146.9773  134.0025  150.7732 H   0  0  0  0  0  0  0  0  0  0  0  0
  146.5835  132.3085  150.4598 H   0  0  0  0  0  0  0  0  0  0  0  0
  144.9153  133.7732  152.0278 H   0  0  0  0  0  0  0  0  0  0  0  0
  145.3471  132.1377  152.5276 H   0  0  0  0  0  0  0  0  0  0  0  0
  146.1265  133.2060  154.4642 H   0  0  0  0  0  0  0  0  0  0  0  0
  146.3893  134.7327  153.6167 H   0  0  0  0  0  0  0  0  0  0  0  0
  151.7159  139.2300  156.7386 H   0  0  0  0  0  0  0  0  0  0  0  0
  151.8143  140.9395  156.3647 H   0  0  0  0  0  0  0  0  0  0  0  0
  150.3471  139.6996  158.7585 H   0  0  0  0  0  0  0  0  0  0  0  0
  152.8299  139.7666  159.0514 H   0  0  0  0  0  0  0  0  0  0  0  0
  152.0285  140.9066  160.1277 H   0  0  0  0  0  0  0  0  0  0  0  0
  152.8314  141.4883  158.6721 H   0  0  0  0  0  0  0  0  0  0  0  0
  149.3505  139.3593  156.4888 H   0  0  0  0  0  0  0  0  0  0  0  0
  1  2  1  0  0  0  0
  1 26  1  0  0  0  0
  1 27  1  0  0  0  0
  1 28  1  0  0  0  0
  2 25  1  0  0  0  0
  2  3  1  0  0  0  0
  2 29  1  0  0  0  0
  3  4  1  0  0  0  0
  3 30  1  0  0  0  0
  3 31  1  0  0  0  0
  4  5  1  0  0  0  0
  4 22  1  0  0  0  0
  4 55  1  0  0  0  0
  5  6  1  0  0  0  0
  5 32  1  0  0  0  0
  5 33  1  0  0  0  0
  6  7  1  0  0  0  0
  6 34  1  0  0  0  0
  6 35  1  0  0  0  0
  7  8  1  0  0  0  0
  7 36  1  0  0  0  0
  8  9  2  0  0  0  0
  8 10  1  0  0  0  0
 10 11  1  0  0  0  0
 10 37  1  0  0  0  0
 11 16  1  0  0  0  0
 11 12  2  0  0  0  0
 12 13  1  0  0  0  0
 12 38  1  0  0  0  0
 13 14  2  0  0  0  0
 13 39  1  0  0  0  0
 14 15  1  0  0  0  0
 14 40  1  0  0  0  0
 15 16  2  0  0  0  0
 16 17  1  0  0  0  0
 17 21  1  0  0  0  0
 17 18  1  0  0  0  0
 18 19  1  0  0  0  0
 18 41  1  0  0  0  0
 18 42  1  0  0  0  0
 19 20  1  0  0  0  0
 19 43  1  0  0  0  0
 19 44  1  0  0  0  0
 20 21  1  0  0  0  0
 20 45  1  0  0  0  0
 20 46  1  0  0  0  0
 21 47  1  0  0  0  0
 21 48  1  0  0  0  0
 22 23  1  0  0  0  0
 22 49  1  0  0  0  0
 22 50  1  0  0  0  0
 23 24  1  0  0  0  0
 23 25  1  0  0  0  0
 23 51  1  0  0  0  0
 24 52  1  0  0  0  0
 24 53  1  0  0  0  0
 24 54  1  0  0  0  0
M  CHG  1   4   1
M  END
> <s_m_source_file>
AV-unprocessed.smi

> <i_m_source_file_index>
1244

> <i_lp_mmshare_version>
43012

> <i_f3d_flags>
0

> <s_epik_input>
W0NIM11bQ0BASF0xW0NIMl1OKFtDSDJdW0NASF0oTzEpW0NIM10pW0NIMl1bQ0gyXVtOSF1DKD1PKVtOSF1jMltjSF1bY0hdW2NIXW5jMk4zW0NIMl1bQ0gyXVtDSDJdW0NIMl0z

> <s_epik_cmdline>
J2VwaWtfcHl0aG9uJywgJy1waCcsICc3LjAnLCAnLXRuJywgJzgnLCAnLW1hJywgJzIwMCcsICctbWV0YWxfYmluZGluZycsICctaW1hZScsICc8aW5maWxlLm1hZT4nLCAnLW9tYWUnLCAnPG91dGZpbGUubWFlPic=

> <r_lp_tautomer_probability>
1

> <r_epik_Ionization_Penalty>
0.684913

> <r_epik_Ionization_Penalty_Charging>
0.602531

> <r_epik_Ionization_Penalty_Neutral>
0.0823829

> <r_epik_State_Penalty>
0.678827

> <r_epik_Charging_Adjusted_Penalty>
1.28136

> <i_epik_Tot_Q>
1

> <i_epik_Tot_abs_Q>
1

> <r_epik_Metal_State_Penalty>
0.67806

> <b_epik_Metal_Only>
0

> <s_lp_Force_Field>
OPLS_2005

> <r_lp_Energy>
42.8464

> <b_lp_Chiralities_Consistent>
1

> <s_lp_Variant>
AV-unprocessed.smi:1244-5

> <Gold.Version>
5.8.1

> <Gold.Id.Protein>
6NUR|6NUR_protein|mol2

> <Gold.PLP.Fitness>
42.9933

> <Gold.PLP.PLP>
-36.2084

> <Gold.PLP.part.hbond>
-4.2171

> <Gold.PLP.part.metal>
0.0000

> <Gold.PLP.part.buried>
-1.8899

> <Gold.PLP.part.nonpolar>
-29.9731

> <Gold.PLP.part.repulsive>
0.4498

> <Gold.PLP.ligand.clash>
0.0000

> <Gold.PLP.ligand.torsion>
0.6319

> <Gold.PLP.Chemscore.Hbond>
2.5610

> <Gold.PLP.Chemscore.CHOScore>
0.0000

> <Gold.PLP.Chemscore.Metal>
0.0000

> <Gold.Chemscore.Hbonds>
donor molecule, donor type, donor heavy atom, donor atom, acceptor molecule, acceptor atom, score
      L1  H     7    36       P1  7948  0.91
      L1  H    10    37       P1  7948  0.83
      P1  H 10752 10765       L1     9  0.78

> <Gold.PLP.Chemscore.Internal.Correction>
0.3657

> <Gold.Rescore>
     Score         DG    S(hbond)    S(metal)    S(lipo)     H(rot)  DE(clash)    DE(int)     intcor
     14.31     -17.76       1.81        0.00      88.16       1.60       1.41       2.04       ----

> <Gold.Chemscore.Fitness>
14.3065

> <Gold.Chemscore.DG>
-17.7556

> <Gold.Chemscore.ZeroCoef>
-5.4800

> <Gold.Chemscore.Hbond>
1.8118

> <Gold.Chemscore.Metal>
0.0000

> <Gold.Chemscore.Lipo>
88.1585

> <Gold.Chemscore.Internal_Hbond>
0.0000

> <Gold.Chemscore.DEClash>
1.4112

> <Gold.Chemscore.DEInternal>
2.0379

> <Gold.Chemscore.Rot>
1.5978

> <Gold.Chemscore.Internal.Correction>
   9.000000E+99

> <Gold.Chemscore.Hbonds>
donor molecule, donor type, donor heavy atom, donor atom, acceptor molecule, acceptor atom, score
      L1  H     7    36       P1  7948  0.63
      L1  H    10    37       P1  7948  0.51
      P1  H 10752 10765       L1     9  0.30

> <Gold.Chemscore.Hbond.Weighted>
-6.0516

> <Gold.Chemscore.Metal.Weighted>
-0.0000

> <Gold.Chemscore.Lipo.Weighted>
-10.3145

> <Gold.Chemscore.Internal_Hbond.Weighted>
0.0000

> <Gold.Chemscore.DEClash.Weighted>
1.4112

> <Gold.Chemscore.DEInternal.Weighted>
2.0379

> <Gold.Chemscore.Rot.Weighted>
4.0905

> <Gold.Chemscore.Internal.Correction.Weighted>
   9.000000E+99

> <Gold.Protein.RotatedTorsions>
[ 6907 6896 6895 6894 ] final  154.91 input  -60.11 | X-H torsion
[ 7974 7965 7964 7962 ] final  110.71 input  175.53 | X-H torsion
[ 8008 7997 7996 7995 ] final -162.48 input   59.86 | X-H torsion
[ 10167 10162 10161 10158 ] final   15.24 input  -65.29 | X-H torsion
[ 10718 10713 10712 10709 ] final   33.85 input   66.30 | X-H torsion
[ 10763 10752 10751 10750 ] final -153.69 input  -60.55 | X-H torsion
[ 11005 11000 10999 10996 ] final   33.48 input  -57.11 | X-H torsion

> <Gold.Protein.ActiveResidues>
 VAL166  LYS551  ARG553  GLY616  TRP617  ASP618  TYR619  PRO620  LYS621  CYS622 
 ASP623  PHE694  ASN695  SER759  ASP760  ASP761  ALA762  ILE779  LEU786  VAL792 
 PHE793  MET794  SER795  GLU796  ALA797  LYS798  CYS799  TRP800  GLU811  SER814 

> <Gold.Protein.RotatedAtoms>
  152.0517  133.4022  159.4379 H   0  0  0  0  0  0  0  0  0  0  0  0  # atno 6907 bound_to 6896
  150.6870  134.3300  159.4832 H   0  0  0  0  0  0  0  0  0  0  0  0  # atno 6908 bound_to 6896
  152.1111  134.9273  160.0617 H   0  0  0  0  0  0  0  0  0  0  0  0  # atno 6909 bound_to 6896
  145.2515  139.2738  143.4065 H   0  0  0  0  0  0  0  0  0  0  0  0  # atno 7974 bound_to 7965
  155.8074  140.0900  157.1923 H   0  0  0  0  0  0  0  0  0  0  0  0  # atno 8008 bound_to 7997
  154.3980  140.1461  156.3405 H   0  0  0  0  0  0  0  0  0  0  0  0  # atno 8009 bound_to 7997
  155.8400  140.3439  155.5629 H   0  0  0  0  0  0  0  0  0  0  0  0  # atno 8010 bound_to 7997
  140.5881  143.8850  150.6848 H   0  0  0  0  0  0  0  0  0  0  0  0  # atno 10167 bound_to 10162
  157.3030  130.7360  149.6678 H   0  0  0  0  0  0  0  0  0  0  0  0  # atno 10718 bound_to 10713
  154.7911  135.3207  154.7776 H   0  0  0  0  0  0  0  0  0  0  0  0  # atno 10763 bound_to 10752
  153.8465  135.6866  153.4801 H   0  0  0  0  0  0  0  0  0  0  0  0  # atno 10764 bound_to 10752
  153.1581  135.4672  154.9673 H   0  0  0  0  0  0  0  0  0  0  0  0  # atno 10765 bound_to 10752
  140.2627  134.3173  155.7852 H   0  0  0  0  0  0  0  0  0  0  0  0  # atno 11005 bound_to 11000
  146.3301  140.2907  142.8615 LP  0  0  0  0  0  0  0  0  0  0  0  0  # atno 17320 bound_to 7965
  144.9499  140.8167  143.5578 LP  0  0  0  0  0  0  0  0  0  0  0  0  # atno 17321 bound_to 7965
  140.2366  143.3695  152.1521 LP  0  0  0  0  0  0  0  0  0  0  0  0  # atno 17342 bound_to 10162
  139.5210  144.7040  151.5409 LP  0  0  0  0  0  0  0  0  0  0  0  0  # atno 17343 bound_to 10162
  155.9672  130.4274  150.4743 LP  0  0  0  0  0  0  0  0  0  0  0  0  # atno 17370 bound_to 10713
  157.2727  131.0590  151.2249 LP  0  0  0  0  0  0  0  0  0  0  0  0  # atno 17371 bound_to 10713
  141.2188  133.7419  156.9212 LP  0  0  0  0  0  0  0  0  0  0  0  0  # atno 17394 bound_to 11000
  140.1449  134.9269  157.2516 LP  0  0  0  0  0  0  0  0  0  0  0  0  # atno 17395 bound_to 11000

$$$$
