#       Name:                AV-unprocessed.smi:2867
#       Creating user name   scv26
#       Creation time:       Fri Mar 27 15:48:47 2020


#       File generated by GOLD software.
#

@<TRIPOS>MOLECULE
AV-unprocessed.smi:2867
    43    45     1
SMALL
NO_CHARGES


@<TRIPOS>ATOM
      1 ****        -4.1831   1.7692  -1.5578 C.3            1 S1                 0.0000
      2 ****        -3.6330   1.0338  -0.4788 O.3            1 S1                 0.0000
      3 ****        -2.2354   0.8436  -0.6099 C.3            1 S1                 0.0000
      4 ****        -1.7261   0.0588   0.6045 C.3            1 S1                 0.0000
      5 ****        -0.2890  -0.1497   0.5363 N.pl3          1 S1                 0.0000
      6 ****         0.3760  -1.1398  -0.1112 C.2            1 S1                 0.0000
      7 ****        -0.2758  -2.2023  -0.8627 C.ar           1 S1                 0.0000
      8 ****        -0.9764  -3.2253  -0.1894 C.ar           1 S1                 0.0000
      9 ****        -1.6063  -4.2497  -0.9227 C.ar           1 S1                 0.0000
     10 ****        -1.5343  -4.2556  -2.3294 C.ar           1 S1                 0.0000
     11 ****        -0.8302  -3.2384  -3.0033 C.ar           1 S1                 0.0000
     12 ****        -0.7609  -3.2448  -4.3555 F              1 S1                 0.0000
     13 ****        -0.1994  -2.2142  -2.2709 C.ar           1 S1                 0.0000
     14 ****         1.7064  -1.0724  -0.0307 N.2            1 S1                 0.0000
     15 ****         1.9194   0.0571   0.7350 C.ar           1 S1                 0.0000
     16 ****         3.1206   0.6603   1.1678 C.ar           1 S1                 0.0000
     17 ****         3.0797   1.8375   1.9451 C.ar           1 S1                 0.0000
     18 ****         4.6137   2.5911   2.4797 S.o2           1 S1                 0.0000
     19 ****         4.8590   3.4975   1.1682 N.pl3          1 S1                -1.0000
     20 ****         4.2985   3.3891   3.6747 O.2            1 S1                 0.0000
     21 ****         5.5923   1.5003   2.6108 O.2            1 S1                 0.0000
     22 ****         1.8482   2.4266   2.3037 C.ar           1 S1                 0.0000
     23 ****         0.6420   1.8354   1.8820 C.ar           1 S1                 0.0000
     24 ****         0.6860   0.6614   1.1058 C.ar           1 S1                 0.0000
     25 ****        -5.2578   1.8809  -1.4150 H              1 S1                 0.0000
     26 ****        -4.0208   1.2587  -2.5079 H              1 S1                 0.0000
     27 ****        -3.7463   2.7671  -1.6171 H              1 S1                 0.0000
     28 ****        -2.0178   0.2989  -1.5302 H              1 S1                 0.0000
     29 ****        -1.7306   1.8094  -0.6703 H              1 S1                 0.0000
     30 ****        -1.9587   0.5972   1.5238 H              1 S1                 0.0000
     31 ****        -2.2302  -0.9044   0.6774 H              1 S1                 0.0000
     32 ****        -1.0329  -3.2241   0.8896 H              1 S1                 0.0000
     33 ****        -2.1445  -5.0311  -0.4066 H              1 S1                 0.0000
     34 ****        -2.0181  -5.0409  -2.8912 H              1 S1                 0.0000
     35 ****         0.3391  -1.4350  -2.7907 H              1 S1                 0.0000
     36 ****         4.0701   0.2233   0.8964 H              1 S1                 0.0000
     37 ****         5.7332   4.0177   1.3068 H              1 S1                 0.0000
     38 ****         1.8272   3.3304   2.8946 H              1 S1                 0.0000
     39 ****        -0.3039   2.2822   2.1491 H              1 S1                 0.0000
     40 ****        -4.0766   0.1384  -0.4416 LP             1 S1                 0.0000
     41 ****        -3.8110   1.5296   0.3712 LP             1 S1                 0.0000
     42 ****         2.3848  -1.6901  -0.4285 LP             1 S1                 0.0000
     43 ****         4.2660   3.5443   0.3644 LP             1 S1                 0.0000
@<TRIPOS>BOND
    1    1    2 1     
    2    1   25 1     
    3    1   26 1     
    4    1   27 1     
    5    2    3 1     
    6    3    4 1     
    7    3   28 1     
    8    3   29 1     
    9    4    5 1     
   10    4   30 1     
   11    4   31 1     
   12    5   24 1     
   13    5    6 1     
   14    6    7 1     
   15    6   14 2     
   16    7   13 ar    
   17    7    8 ar    
   18    8    9 ar    
   19    8   32 1     
   20    9   10 ar    
   21    9   33 1     
   22   10   11 ar    
   23   10   34 1     
   24   11   12 1     
   25   11   13 ar    
   26   13   35 1     
   27   14   15 1     
   28   15   24 ar    
   29   15   16 ar    
   30   16   17 ar    
   31   16   36 1     
   32   17   18 1     
   33   17   22 ar    
   34   18   19 1     
   35   18   20 2     
   36   18   21 2     
   37   19   37 1     
   38   22   23 ar    
   39   22   38 1     
   40   23   24 ar    
   41   23   39 1     
   42    2   40 1     
   43    2   41 1     
   44   14   42 1     
   45   19   43 1     
@<TRIPOS>SUBSTRUCTURE
      1 S1             1
@<TRIPOS>SET
LONE_PAIRS      STATIC     ATOMS    <user>   **** ""
6 40 41 42 43 20 21
DONOR_HYDROGENS      STATIC     ATOMS    <user>   **** ""
1 37
ATOM$BLUE        STATIC     ATOMS    COLORGROUP SYSTEM
6 40 41 42 43 20 21
ATOM$RED        STATIC     ATOMS    COLORGROUP SYSTEM
1 37
