#       Name:                AV-unprocessed.smi:2067
#       Creating user name   scv26
#       Creation time:       Fri Mar 27 11:11:38 2020


#       File generated by GOLD software.
#

@<TRIPOS>MOLECULE
AV-unprocessed.smi:2067
    54    55     1
SMALL
NO_CHARGES


@<TRIPOS>ATOM
      1 ****        -3.9188   1.8498   1.3190 C.3            1 S1                 0.0000
      2 ****        -4.0101   0.5853   2.1891 C.3            1 S1                 0.0000
      3 ****        -4.9882   0.8035   3.3612 C.3            1 S1                 0.0000
      4 ****        -5.0979  -0.4424   4.2529 C.3            1 S1                 0.0000
      5 ****        -3.7184  -0.8716   4.7708 C.3            1 S1                 0.0000
      6 ****        -2.7413  -1.1052   3.6093 C.3            1 S1                 0.0000
      7 ****        -2.6224   0.1438   2.7088 C.3            1 S1                 0.0000
      8 ****        -1.8090  -0.1414   1.5768 O.3            1 S1                 0.0000
      9 ****        -0.4119  -0.1544   1.8324 C.3            1 S1                 0.0000
     10 ****         0.3261  -0.3286   0.5023 C.3            1 S1                 0.0000
     11 ****         0.0844  -1.6465  -0.0627 N.pl3          1 S1                 0.0000
     12 ****         1.0329  -2.5738  -0.4825 C.2            1 S1                 0.0000
     13 ****         0.6727  -3.7941  -0.9716 C.2            1 S1                 0.0000
     14 ****        -0.6831  -4.2362  -1.0697 C.1            1 S1                 0.0000
     15 ****        -1.7748  -4.6149  -1.1482 N.1            1 S1                 0.0000
     16 ****         1.6626  -4.7818  -1.3954 C.2            1 S1                 0.0000
     17 ****         1.3750  -5.8890  -1.8569 O.2            1 S1                 0.0000
     18 ****         3.0041  -4.3802  -1.2366 N.am           1 S1                 0.0000
     19 ****         4.0128  -5.3428  -1.6340 C.3            1 S1                 0.0000
     20 ****         3.4051  -3.1278  -0.7261 C.2            1 S1                 0.0000
     21 ****         4.5963  -2.8265  -0.6052 O.2            1 S1                 0.0000
     22 ****         2.3803  -2.2219  -0.3571 N.am           1 S1                 0.0000
     23 ****         2.8552  -0.9460   0.1403 C.3            1 S1                 0.0000
     24 ****        -3.5069   2.6888   1.8807 H              1 S1                 0.0000
     25 ****        -4.9021   2.1454   0.9525 H              1 S1                 0.0000
     26 ****        -3.2832   1.6888   0.4478 H              1 S1                 0.0000
     27 ****        -4.4095  -0.2165   1.5661 H              1 S1                 0.0000
     28 ****        -4.6585   1.6518   3.9630 H              1 S1                 0.0000
     29 ****        -5.9756   1.0638   2.9782 H              1 S1                 0.0000
     30 ****        -5.7646  -0.2418   5.0921 H              1 S1                 0.0000
     31 ****        -5.5488  -1.2593   3.6881 H              1 S1                 0.0000
     32 ****        -3.3207  -0.1028   5.4342 H              1 S1                 0.0000
     33 ****        -3.8107  -1.7790   5.3681 H              1 S1                 0.0000
     34 ****        -1.7696  -1.3818   4.0170 H              1 S1                 0.0000
     35 ****        -3.0795  -1.9546   3.0144 H              1 S1                 0.0000
     36 ****        -2.1895   0.9672   3.2802 H              1 S1                 0.0000
     37 ****        -0.1111   0.7898   2.2882 H              1 S1                 0.0000
     38 ****        -0.1392  -0.9540   2.5215 H              1 S1                 0.0000
     39 ****         0.0181   0.4365  -0.2107 H              1 S1                 0.0000
     40 ****         1.3934  -0.1972   0.6797 H              1 S1                 0.0000
     41 ****        -0.7829  -2.0491   0.2638 H              1 S1                 0.0000
     42 ****         5.0190  -4.9778  -1.4318 H              1 S1                 0.0000
     43 ****         3.8882  -5.5161  -2.7044 H              1 S1                 0.0000
     44 ****         3.8363  -6.2546  -1.0602 H              1 S1                 0.0000
     45 ****         3.3942  -1.1396   1.0695 H              1 S1                 0.0000
     46 ****         2.0232  -0.2698   0.3239 H              1 S1                 0.0000
     47 ****         3.5049  -0.5127  -0.6225 H              1 S1                 0.0000
     48 ****        -1.9910   0.5531   0.8807 LP             1 S1                 0.0000
     49 ****        -2.0690  -1.0410   1.2261 LP             1 S1                 0.0000
     50 ****        -2.7174  -4.9419  -1.2160 LP             1 S1                 0.0000
     51 ****         0.4163  -6.1545  -1.9589 LP             1 S1                 0.0000
     52 ****         2.1006  -6.5211  -2.1290 LP             1 S1                 0.0000
     53 ****         5.3064  -3.4779  -0.8723 LP             1 S1                 0.0000
     54 ****         4.8510  -1.9310  -0.2401 LP             1 S1                 0.0000
@<TRIPOS>BOND
    1    1    2 1     
    2    1   24 1     
    3    1   25 1     
    4    1   26 1     
    5    2    7 1     
    6    2    3 1     
    7    2   27 1     
    8    3    4 1     
    9    3   28 1     
   10    3   29 1     
   11    4    5 1     
   12    4   30 1     
   13    4   31 1     
   14    5    6 1     
   15    5   32 1     
   16    5   33 1     
   17    6    7 1     
   18    6   34 1     
   19    6   35 1     
   20    7    8 1     
   21    7   36 1     
   22    8    9 1     
   23    9   10 1     
   24    9   37 1     
   25    9   38 1     
   26   10   11 1     
   27   10   39 1     
   28   10   40 1     
   29   11   12 1     
   30   11   41 1     
   31   12   22 1     
   32   12   13 2     
   33   13   14 1     
   34   13   16 1     
   35   14   15 3     
   36   16   17 2     
   37   16   18 am    
   38   18   19 1     
   39   18   20 am    
   40   19   42 1     
   41   19   43 1     
   42   19   44 1     
   43   20   21 2     
   44   20   22 am    
   45   22   23 1     
   46   23   45 1     
   47   23   46 1     
   48   23   47 1     
   49    8   48 1     
   50    8   49 1     
   51   15   50 1     
   52   17   51 1     
   53   17   52 1     
   54   21   53 1     
   55   21   54 1     
@<TRIPOS>SUBSTRUCTURE
      1 S1             1
@<TRIPOS>SET
LONE_PAIRS      STATIC     ATOMS    <user>   **** ""
7 48 49 50 51 52 53 54
DONOR_HYDROGENS      STATIC     ATOMS    <user>   **** ""
1 41
ATOM$BLUE        STATIC     ATOMS    COLORGROUP SYSTEM
7 48 49 50 51 52 53 54
ATOM$RED        STATIC     ATOMS    COLORGROUP SYSTEM
1 41
