AV-unprocessed.smi:411|AV-procd|sdf|2509|dock3
  -GOLD-   2262022463D 1   1.00000     0.00000
 Structure written by MMmdl.
 35 36  0  0  0  0  0  0  0  0  1 V2000
  147.6744  136.7700  158.6164 O   0  0  0  0  0  0  0  0  0  0  0  0
  148.6791  136.9837  159.2963 C   0  0  0  0  0  0  0  0  0  0  0  0
  148.8405  136.3564  160.6889 C   0  0  0  0  0  0  0  0  0  0  0  0
  147.6749  135.5632  161.1169 N   0  0  0  0  0  0  0  0  0  0  0  0
  147.9079  134.2140  161.4378 C   0  0  0  0  0  0  0  0  0  0  0  0
  146.9195  133.4034  161.8392 C   0  0  0  0  0  0  0  0  0  0  0  0
  145.5881  133.9492  161.9399 C   0  0  0  0  0  0  0  0  0  0  0  0
  145.3318  135.2417  161.6322 C   0  0  0  0  0  0  0  0  0  0  0  0
  143.9294  135.8364  161.7375 C   0  0  0  0  0  0  0  0  0  0  0  0
  143.9345  136.9188  162.5166 F   0  0  0  0  0  0  0  0  0  0  0  0
  143.4814  136.1921  160.5330 F   0  0  0  0  0  0  0  0  0  0  0  0
  143.0607  134.9667  162.2555 F   0  0  0  0  0  0  0  0  0  0  0  0
  146.4285  136.1255  161.1865 C   0  0  0  0  0  0  0  0  0  0  0  0
  146.2445  137.3074  160.8899 O   0  0  0  0  0  0  0  0  0  0  0  0
  149.6987  137.7487  158.8775 N   0  0  0  0  0  0  0  0  0  0  0  0
  149.7619  138.4406  157.5928 C   0  0  1  0  0  0  0  0  0  0  0  0
  149.7038  139.9813  157.7851 C   0  0  0  0  0  0  0  0  0  0  0  0
  150.9306  140.6645  157.1617 C   0  0  0  0  0  0  0  0  0  0  0  0
  151.5122  139.5252  155.8655 S   0  0  0  0  0  0  0  0  0  0  0  0
  150.6347  139.6572  154.6927 O   0  0  0  0  0  0  0  0  0  0  0  0
  152.9757  139.5953  155.7385 O   0  0  0  0  0  0  0  0  0  0  0  0
  151.0228  138.0393  156.7995 C   0  0  0  0  0  0  0  0  0  0  0  0
  149.7394  135.7383  160.6797 H   0  0  0  0  0  0  0  0  0  0  0  0
  149.0461  137.1440  161.4164 H   0  0  0  0  0  0  0  0  0  0  0  0
  148.9304  133.8826  161.3296 H   0  0  0  0  0  0  0  0  0  0  0  0
  147.1137  132.3682  162.0781 H   0  0  0  0  0  0  0  0  0  0  0  0
  144.7915  133.2986  162.2686 H   0  0  0  0  0  0  0  0  0  0  0  0
  150.4860  137.8684  159.4983 H   0  0  0  0  0  0  0  0  0  0  0  0
  148.8870  138.1578  157.0040 H   0  0  0  0  0  0  0  0  0  0  0  0
  148.8071  140.3570  157.2908 H   0  0  0  0  0  0  0  0  0  0  0  0
  149.6073  140.2634  158.8344 H   0  0  0  0  0  0  0  0  0  0  0  0
  150.7132  141.6450  156.7377 H   0  0  0  0  0  0  0  0  0  0  0  0
  151.7287  140.7679  157.8972 H   0  0  0  0  0  0  0  0  0  0  0  0
  151.8483  137.7867  157.4662 H   0  0  0  0  0  0  0  0  0  0  0  0
  150.8555  137.2033  156.1200 H   0  0  0  0  0  0  0  0  0  0  0  0
  1  2  2  0  0  0  0
  2  3  1  0  0  0  0
  2 15  1  0  0  0  0
  3  4  1  0  0  0  0
  3 23  1  0  0  0  0
  3 24  1  0  0  0  0
  4 13  1  0  0  0  0
  4  5  1  0  0  0  0
  5  6  2  0  0  0  0
  5 25  1  0  0  0  0
  6  7  1  0  0  0  0
  6 26  1  0  0  0  0
  7  8  2  0  0  0  0
  7 27  1  0  0  0  0
  8  9  1  0  0  0  0
  8 13  1  0  0  0  0
  9 10  1  0  0  0  0
  9 11  1  0  0  0  0
  9 12  1  0  0  0  0
 13 14  2  0  0  0  0
 15 16  1  0  0  0  0
 15 28  1  0  0  0  0
 16 22  1  0  0  0  0
 16 17  1  0  0  0  0
 16 29  1  0  0  0  0
 17 18  1  0  0  0  0
 17 30  1  0  0  0  0
 17 31  1  0  0  0  0
 18 19  1  0  0  0  0
 18 32  1  0  0  0  0
 18 33  1  0  0  0  0
 19 20  2  0  0  0  0
 19 21  2  0  0  0  0
 19 22  1  0  0  0  0
 22 34  1  0  0  0  0
 22 35  1  0  0  0  0
M  END
> <s_m_source_file>
AV-unprocessed.smi

> <i_m_source_file_index>
411

> <i_lp_mmshare_version>
43012

> <i_f3d_flags>
0

> <s_epik_input>
Tz1TMSg9TylbQ0gyXVtDSDJdW0NASF0oW0NIMl0xKVtOSF1DKD1PKVtDSDJdbjJbY0hdW2NIXVtjSF1jKEMoRikoRilGKWMyPU8=

> <s_epik_cmdline>
J2VwaWtfcHl0aG9uJywgJy1waCcsICc3LjAnLCAnLXRuJywgJzgnLCAnLW1hJywgJzIwMCcsICctbWV0YWxfYmluZGluZycsICctaW1hZScsICc8aW5maWxlLm1hZT4nLCAnLW9tYWUnLCAnPG91dGZpbGUubWFlPic=

> <r_lp_tautomer_probability>
1

> <r_epik_Ionization_Penalty>
1.08759e-07

> <r_epik_Ionization_Penalty_Charging>
1.56656e-09

> <r_epik_Ionization_Penalty_Neutral>
1.07193e-07

> <r_epik_State_Penalty>
-0

> <r_epik_Charging_Adjusted_Penalty>
1.56656e-09

> <i_epik_Tot_Q>
0

> <i_epik_Tot_abs_Q>
0

> <r_epik_Metal_State_Penalty>
-0

> <b_epik_Metal_Only>
0

> <s_lp_Force_Field>
OPLS_2005

> <r_lp_Energy>
15.8783

> <b_lp_Chiralities_Consistent>
1

> <s_lp_Variant>
AV-unprocessed.smi:411-2

> <Gold.Version>
5.8.1

> <Gold.Id.Protein>
6NUR|6NUR_protein|mol2

> <Gold.PLP.Fitness>
38.6459

> <Gold.PLP.PLP>
-29.8117

> <Gold.PLP.part.hbond>
-2.9900

> <Gold.PLP.part.metal>
0.0000

> <Gold.PLP.part.buried>
-5.5972

> <Gold.PLP.part.nonpolar>
-21.5828

> <Gold.PLP.part.repulsive>
0.2862

> <Gold.PLP.ligand.clash>
0.2621

> <Gold.PLP.ligand.torsion>
0.1235

> <Gold.PLP.Chemscore.Hbond>
3.0000

> <Gold.PLP.Chemscore.CHOScore>
0.0000

> <Gold.PLP.Chemscore.Metal>
0.0000

> <Gold.Chemscore.Hbonds>
donor molecule, donor type, donor heavy atom, donor atom, acceptor molecule, acceptor atom, score
      P1  H  6934  6947       L1    14  1.00
      P1  H  7989  7998       L1    20  1.00
      P1  H  7997  8009       L1    21  1.00

> <Gold.PLP.Chemscore.Internal.Correction>
0.3433

> <Gold.Rescore>
     Score         DG    S(hbond)    S(metal)    S(lipo)     H(rot)  DE(clash)    DE(int)     intcor
     13.86     -16.39       2.86        0.00      49.50       1.73       0.58       1.94       ----

> <Gold.Chemscore.Fitness>
13.8605

> <Gold.Chemscore.DG>
-16.3899

> <Gold.Chemscore.ZeroCoef>
-5.4800

> <Gold.Chemscore.Hbond>
2.8594

> <Gold.Chemscore.Metal>
0.0000

> <Gold.Chemscore.Lipo>
49.5037

> <Gold.Chemscore.Internal_Hbond>
0.0000

> <Gold.Chemscore.DEClash>
0.5845

> <Gold.Chemscore.DEInternal>
1.9449

> <Gold.Chemscore.Rot>
1.7314

> <Gold.Chemscore.Internal.Correction>
   9.000000E+99

> <Gold.Chemscore.Hbonds>
donor molecule, donor type, donor heavy atom, donor atom, acceptor molecule, acceptor atom, score
      P1  H  6934  6947       L1    14  0.99
      P1  H  7989  7998       L1    20  0.44
      P1  H  7997  8009       L1    21  0.95

> <Gold.Chemscore.Hbond.Weighted>
-9.5504

> <Gold.Chemscore.Metal.Weighted>
-0.0000

> <Gold.Chemscore.Lipo.Weighted>
-5.7919

> <Gold.Chemscore.Internal_Hbond.Weighted>
0.0000

> <Gold.Chemscore.DEClash.Weighted>
0.5845

> <Gold.Chemscore.DEInternal.Weighted>
1.9449

> <Gold.Chemscore.Rot.Weighted>
4.4324

> <Gold.Chemscore.Internal.Correction.Weighted>
   9.000000E+99

> <Gold.Protein.RotatedTorsions>
[ 6907 6896 6895 6894 ] final -178.65 input  -60.11 | X-H torsion
[ 7974 7965 7964 7962 ] final  -97.08 input  175.53 | X-H torsion
[ 8008 7997 7996 7995 ] final -157.45 input   59.86 | X-H torsion
[ 10167 10162 10161 10158 ] final -121.15 input  -65.29 | X-H torsion
[ 10718 10713 10712 10709 ] final    6.50 input   66.30 | X-H torsion
[ 10763 10752 10751 10750 ] final   78.18 input  -60.55 | X-H torsion
[ 11005 11000 10999 10996 ] final -131.11 input  -57.11 | X-H torsion

> <Gold.Protein.ActiveResidues>
 VAL166  LYS551  ARG553  GLY616  TRP617  ASP618  TYR619  PRO620  LYS621  CYS622 
 ASP623  PHE694  ASN695  SER759  ASP760  ASP761  ALA762  ILE779  LEU786  VAL792 
 PHE793  MET794  SER795  GLU796  ALA797  LYS798  CYS799  TRP800  GLU811  SER814 

> <Gold.Protein.RotatedAtoms>
  151.6407  133.3326  159.3129 H   0  0  0  0  0  0  0  0  0  0  0  0  # atno 6907 bound_to 6896
  150.8009  134.7107  159.6611 H   0  0  0  0  0  0  0  0  0  0  0  0  # atno 6908 bound_to 6896
  152.4102  134.6142  160.0085 H   0  0  0  0  0  0  0  0  0  0  0  0  # atno 6909 bound_to 6896
  145.3384  140.9455  143.2622 H   0  0  0  0  0  0  0  0  0  0  0  0  # atno 7974 bound_to 7965
  155.7326  140.0804  157.2282 H   0  0  0  0  0  0  0  0  0  0  0  0  # atno 8008 bound_to 7997
  154.4031  140.1592  156.2581 H   0  0  0  0  0  0  0  0  0  0  0  0  # atno 8009 bound_to 7997
  155.9094  140.3405  155.6090 H   0  0  0  0  0  0  0  0  0  0  0  0  # atno 8010 bound_to 7997
  140.0281  143.5276  152.2189 H   0  0  0  0  0  0  0  0  0  0  0  0  # atno 10167 bound_to 10162
  156.9231  130.5798  149.5648 H   0  0  0  0  0  0  0  0  0  0  0  0  # atno 10718 bound_to 10713
  153.0854  135.4887  154.8586 H   0  0  0  0  0  0  0  0  0  0  0  0  # atno 10763 bound_to 10752
  154.7204  135.3038  154.9059 H   0  0  0  0  0  0  0  0  0  0  0  0  # atno 10764 bound_to 10752
  153.9725  135.6799  153.4800 H   0  0  0  0  0  0  0  0  0  0  0  0  # atno 10765 bound_to 10752
  140.9287  134.1348  157.4253 H   0  0  0  0  0  0  0  0  0  0  0  0  # atno 11005 bound_to 11000
  144.8809  139.4905  143.6723 LP  0  0  0  0  0  0  0  0  0  0  0  0  # atno 17320 bound_to 7965
  146.3017  139.7449  142.9086 LP  0  0  0  0  0  0  0  0  0  0  0  0  # atno 17321 bound_to 7965
  139.6094  144.7605  151.2986 LP  0  0  0  0  0  0  0  0  0  0  0  0  # atno 17342 bound_to 10162
  140.7314  143.6853  150.7966 LP  0  0  0  0  0  0  0  0  0  0  0  0  # atno 17343 bound_to 10162
  156.0482  130.5555  150.8929 LP  0  0  0  0  0  0  0  0  0  0  0  0  # atno 17370 bound_to 10713
  157.5895  131.0945  150.9142 LP  0  0  0  0  0  0  0  0  0  0  0  0  # atno 17371 bound_to 10713
  139.8791  134.9997  156.5972 LP  0  0  0  0  0  0  0  0  0  0  0  0  # atno 17394 bound_to 11000
  140.7891  133.8597  155.8631 LP  0  0  0  0  0  0  0  0  0  0  0  0  # atno 17395 bound_to 11000

$$$$
