AV-unprocessed.smi:1812|AV-procd|sdf|7338|dock1
  -GOLD-   22720 8593D 1   1.00000     0.00000
 Structure written by MMmdl.
 33 35  0  0  0  0  0  0  0  0  2 V2000
  151.0927  140.3834  158.4447 O   0  0  0  0  0  0  0  0  0  0  0  0
  152.3173  140.2924  158.3322 C   0  0  0  0  0  0  0  0  0  0  0  0
  153.1160  140.9618  159.1732 N   0  0  0  0  0  0  0  0  0  0  0  0
  152.6623  141.8245  160.2565 C   0  0  0  0  0  0  0  0  0  0  0  0
  152.7618  143.3039  159.8576 C   0  0  2  0  0  0  0  0  0  0  0  0
  152.0158  144.2660  160.7829 C   0  0  0  0  0  0  0  0  0  0  0  0
  151.7807  145.4439  159.8658 C   0  0  0  0  0  0  0  0  0  0  0  0
  151.4820  144.7518  158.5387 C   0  0  0  0  0  0  0  0  0  0  0  0
  152.1880  143.5135  158.5699 O   0  0  0  0  0  0  0  0  0  0  0  0
  152.9872  139.5615  157.4121 N   0  5  0  0  0  0  0  0  0  0  0  0
  152.5162  138.3619  157.0335 C   0  0  0  0  0  0  0  0  0  0  0  0
  153.3061  137.4079  156.5204 N   0  0  0  0  0  0  0  0  0  0  0  0
  152.6161  136.2516  156.1860 N   0  0  0  0  0  0  0  0  0  0  0  0
  151.3099  136.3518  156.4440 C   0  0  0  0  0  0  0  0  0  0  0  0
  150.3530  135.2411  156.1651 C   0  0  0  0  0  0  0  0  0  0  0  0
  150.8561  133.8586  155.8183 C   0  0  0  0  0  0  0  0  0  0  0  0
  150.1612  134.6891  154.7693 C   0  0  0  0  0  0  0  0  0  0  0  0
  150.8192  137.8930  157.1290 S   0  0  0  0  0  0  0  0  0  0  0  0
  154.1129  140.8626  159.0499 H   0  0  0  0  0  0  0  0  0  0  0  0
  151.6289  141.5790  160.5053 H   0  0  0  0  0  0  0  0  0  0  0  0
  153.2616  141.6339  161.1481 H   0  0  0  0  0  0  0  0  0  0  0  0
  153.8097  143.6035  159.8002 H   0  0  0  0  0  0  0  0  0  0  0  0
  151.0614  143.8392  161.0951 H   0  0  0  0  0  0  0  0  0  0  0  0
  152.5840  144.5261  161.6765 H   0  0  0  0  0  0  0  0  0  0  0  0
  150.9725  146.0953  160.1994 H   0  0  0  0  0  0  0  0  0  0  0  0
  152.6905  146.0403  159.7831 H   0  0  0  0  0  0  0  0  0  0  0  0
  150.4160  144.5380  158.4522 H   0  0  0  0  0  0  0  0  0  0  0  0
  151.7765  145.3567  157.6809 H   0  0  0  0  0  0  0  0  0  0  0  0
  149.4764  135.3195  156.8052 H   0  0  0  0  0  0  0  0  0  0  0  0
  151.9313  133.7227  155.7185 H   0  0  0  0  0  0  0  0  0  0  0  0
  150.3141  133.0096  156.2296 H   0  0  0  0  0  0  0  0  0  0  0  0
  149.1539  134.3957  154.4814 H   0  0  0  0  0  0  0  0  0  0  0  0
  150.7759  135.0915  153.9665 H   0  0  0  0  0  0  0  0  0  0  0  0
  1  2  2  0  0  0  0
  2  3  1  0  0  0  0
  2 10  1  0  0  0  0
  3  4  1  0  0  0  0
  3 19  1  0  0  0  0
  4  5  1  0  0  0  0
  4 20  1  0  0  0  0
  4 21  1  0  0  0  0
  5  9  1  0  0  0  0
  5  6  1  0  0  0  0
  5 22  1  0  0  0  0
  6  7  1  0  0  0  0
  6 23  1  0  0  0  0
  6 24  1  0  0  0  0
  7  8  1  0  0  0  0
  7 25  1  0  0  0  0
  7 26  1  0  0  0  0
  8  9  1  0  0  0  0
  8 27  1  0  0  0  0
  8 28  1  0  0  0  0
 10 11  1  0  0  0  0
 11 18  1  0  0  0  0
 11 12  2  0  0  0  0
 12 13  1  0  0  0  0
 13 14  2  0  0  0  0
 14 15  1  0  0  0  0
 14 18  1  0  0  0  0
 15 17  1  0  0  0  0
 15 16  1  0  0  0  0
 15 29  1  0  0  0  0
 16 17  1  0  0  0  0
 16 30  1  0  0  0  0
 16 31  1  0  0  0  0
 17 32  1  0  0  0  0
 17 33  1  0  0  0  0
M  CHG  1  10  -1
M  END
> <s_m_source_file>
AV-unprocessed.smi

> <i_m_source_file_index>
1812

> <i_lp_mmshare_version>
43012

> <i_f3d_flags>
0

> <s_epik_input>
TzFbQ0gyXVtDSDJdW0NIMl1bQ0BIXTFbQ0gyXVtOSF1DKD1PKVtOSF1jMm5uYyhzMilbQ0hdM1tDSDJdW0NIMl0z

> <s_epik_cmdline>
J2VwaWtfcHl0aG9uJywgJy1waCcsICc3LjAnLCAnLXRuJywgJzgnLCAnLW1hJywgJzIwMCcsICctbWV0YWxfYmluZGluZycsICctaW1hZScsICc8aW5maWxlLm1hZT4nLCAnLW9tYWUnLCAnPG91dGZpbGUubWFlPic=

> <r_lp_tautomer_probability>
1

> <r_epik_Ionization_Penalty>
4.72991

> <r_epik_Ionization_Penalty_Charging>
4.58249

> <r_epik_Ionization_Penalty_Neutral>
0.147417

> <r_epik_State_Penalty>
4.58223

> <r_epik_Charging_Adjusted_Penalty>
9.16473

> <i_epik_Tot_Q>
-1

> <i_epik_Tot_abs_Q>
1

> <r_epik_Metal_State_Penalty>
0.861876

> <b_epik_Metal_Only>
1

> <s_lp_Force_Field>
OPLS_2005

> <r_lp_Energy>
13.803

> <b_lp_Chiralities_Consistent>
1

> <s_lp_Variant>
AV-unprocessed.smi:1812-3

> <Gold.Version>
5.8.1

> <Gold.Id.Protein>
6NUR|6NUR_protein|mol2

> <Gold.PLP.Fitness>
42.1180

> <Gold.PLP.PLP>
-34.3213

> <Gold.PLP.part.hbond>
-2.4722

> <Gold.PLP.part.metal>
0.0000

> <Gold.PLP.part.buried>
-6.4390

> <Gold.PLP.part.nonpolar>
-25.9865

> <Gold.PLP.part.repulsive>
0.1119

> <Gold.PLP.ligand.clash>
0.0000

> <Gold.PLP.ligand.torsion>
0.7300

> <Gold.PLP.Chemscore.Hbond>
3.0000

> <Gold.PLP.Chemscore.CHOScore>
0.0000

> <Gold.PLP.Chemscore.Metal>
0.0000

> <Gold.Chemscore.Hbonds>
donor molecule, donor type, donor heavy atom, donor atom, acceptor molecule, acceptor atom, score
      P1  H  7997  8010       L1    10  2.00
      P1  H 10752 10763       L1    13  0.90

> <Gold.PLP.Chemscore.Internal.Correction>
0.2567

> <Gold.Rescore>
     Score         DG    S(hbond)    S(metal)    S(lipo)     H(rot)  DE(clash)    DE(int)     intcor
     15.24     -17.42       1.81        0.00      81.88       1.45       0.11       2.07       ----

> <Gold.Chemscore.Fitness>
15.2395

> <Gold.Chemscore.DG>
-17.4224

> <Gold.Chemscore.ZeroCoef>
-5.4800

> <Gold.Chemscore.Hbond>
1.8150

> <Gold.Chemscore.Metal>
0.0000

> <Gold.Chemscore.Lipo>
81.8791

> <Gold.Chemscore.Internal_Hbond>
0.0000

> <Gold.Chemscore.DEClash>
0.1107

> <Gold.Chemscore.DEInternal>
2.0723

> <Gold.Chemscore.Rot>
1.4451

> <Gold.Chemscore.Internal.Correction>
   9.000000E+99

> <Gold.Chemscore.Hbonds>
donor molecule, donor type, donor heavy atom, donor atom, acceptor molecule, acceptor atom, score
      P1  H  7997  8010       L1    10  0.94
      P1  H 10752 10763       L1    13  0.78

> <Gold.Chemscore.Hbond.Weighted>
-6.0621

> <Gold.Chemscore.Metal.Weighted>
-0.0000

> <Gold.Chemscore.Lipo.Weighted>
-9.5799

> <Gold.Chemscore.Internal_Hbond.Weighted>
0.0000

> <Gold.Chemscore.DEClash.Weighted>
0.1107

> <Gold.Chemscore.DEInternal.Weighted>
2.0723

> <Gold.Chemscore.Rot.Weighted>
3.6995

> <Gold.Chemscore.Internal.Correction.Weighted>
   9.000000E+99

> <Gold.Protein.RotatedTorsions>
[ 6907 6896 6895 6894 ] final  -59.31 input  -60.11 | X-H torsion
[ 7974 7965 7964 7962 ] final  -72.09 input  175.53 | X-H torsion
[ 8008 7997 7996 7995 ] final   58.74 input   59.86 | X-H torsion
[ 10167 10162 10161 10158 ] final  155.09 input  -65.29 | X-H torsion
[ 10718 10713 10712 10709 ] final  109.79 input   66.30 | X-H torsion
[ 10763 10752 10751 10750 ] final   83.17 input  -60.55 | X-H torsion
[ 11005 11000 10999 10996 ] final   76.47 input  -57.11 | X-H torsion

> <Gold.Protein.ActiveResidues>
 VAL166  LYS551  ARG553  GLY616  TRP617  ASP618  TYR619  PRO620  LYS621  CYS622 
 ASP623  PHE694  ASN695  SER759  ASP760  ASP761  ALA762  ILE779  LEU786  VAL792 
 PHE793  MET794  SER795  GLU796  ALA797  LYS798  CYS799  TRP800  GLU811  SER814 

> <Gold.Protein.RotatedAtoms>
  150.7940  134.6985  159.6536 H   0  0  0  0  0  0  0  0  0  0  0  0  # atno 6907 bound_to 6896
  152.4049  134.6220  160.0063 H   0  0  0  0  0  0  0  0  0  0  0  0  # atno 6908 bound_to 6896
  151.6480  133.3285  159.3181 H   0  0  0  0  0  0  0  0  0  0  0  0  # atno 6909 bound_to 6896
  145.6696  140.9225  143.0890 H   0  0  0  0  0  0  0  0  0  0  0  0  # atno 7974 bound_to 7965
  155.5550  140.3487  155.4477 H   0  0  0  0  0  0  0  0  0  0  0  0  # atno 8008 bound_to 7997
  156.0556  140.1328  157.0026 H   0  0  0  0  0  0  0  0  0  0  0  0  # atno 8009 bound_to 7997
  154.4455  140.0996  156.6425 H   0  0  0  0  0  0  0  0  0  0  0  0  # atno 8010 bound_to 7997
  139.4822  144.5129  151.7997 H   0  0  0  0  0  0  0  0  0  0  0  0  # atno 10167 bound_to 10162
  157.6525  131.0920  150.6506 H   0  0  0  0  0  0  0  0  0  0  0  0  # atno 10718 bound_to 10713
  153.1267  135.4701  154.9283 H   0  0  0  0  0  0  0  0  0  0  0  0  # atno 10763 bound_to 10752
  154.7626  135.3136  154.8350 H   0  0  0  0  0  0  0  0  0  0  0  0  # atno 10764 bound_to 10752
  153.8902  135.6885  153.4815 H   0  0  0  0  0  0  0  0  0  0  0  0  # atno 10765 bound_to 10752
  139.9297  134.7604  156.1400 H   0  0  0  0  0  0  0  0  0  0  0  0  # atno 11005 bound_to 11000
  144.7061  139.8555  143.7429 LP  0  0  0  0  0  0  0  0  0  0  0  0  # atno 17320 bound_to 7965
  146.1057  139.4056  143.0319 LP  0  0  0  0  0  0  0  0  0  0  0  0  # atno 17321 bound_to 7965
  140.4634  144.1690  150.5909 LP  0  0  0  0  0  0  0  0  0  0  0  0  # atno 17342 bound_to 10162
  140.4460  143.2506  151.9410 LP  0  0  0  0  0  0  0  0  0  0  0  0  # atno 17343 bound_to 10162
  156.6816  130.4569  149.5626 LP  0  0  0  0  0  0  0  0  0  0  0  0  # atno 17370 bound_to 10713
  156.1925  130.6569  151.1077 LP  0  0  0  0  0  0  0  0  0  0  0  0  # atno 17371 bound_to 10713
  141.0877  133.6727  156.2473 LP  0  0  0  0  0  0  0  0  0  0  0  0  # atno 17394 bound_to 11000
  140.6237  134.5335  157.5551 LP  0  0  0  0  0  0  0  0  0  0  0  0  # atno 17395 bound_to 11000

$$$$
