AV-unprocessed.smi:1952|AV-procd|sdf|7890|dock6
  -GOLD-   2272010 43D 1   1.00000     0.00000
 Structure written by MMmdl.
 39 40  0  0  0  0  0  0  0  0  3 V2000
  152.6133  141.5265  159.4822 C   0  0  0  0  0  0  0  0  0  0  0  0
  152.2553  140.9296  158.1645 C   0  0  0  0  0  0  0  0  0  0  0  0
  151.4359  141.3375  157.1505 C   0  0  0  0  0  0  0  0  0  0  0  0
  151.5544  140.2904  156.1968 C   0  0  0  0  0  0  0  0  0  0  0  0
  150.9364  140.2332  155.0070 N   0  5  0  0  0  0  0  0  0  0  0  0
  149.6888  140.7335  154.8664 C   0  0  0  0  0  0  0  0  0  0  0  0
  149.0999  141.4606  155.6692 O   0  0  0  0  0  0  0  0  0  0  0  0
  149.0739  140.3379  153.7413 N   0  0  0  0  0  0  0  0  0  0  0  0
  147.6901  140.6188  153.3541 C   0  0  1  0  0  0  0  0  0  0  0  0
  147.2672  139.6467  152.2445 C   0  0  0  0  0  0  0  0  0  0  0  0
  146.7503  140.5242  154.5778 C   0  0  0  0  0  0  0  0  0  0  0  0
  145.7808  141.6466  154.6420 N   0  3  0  0  0  0  0  0  0  0  0  0
  145.0657  141.7417  155.9364 C   0  0  0  0  0  0  0  0  0  0  0  0
  144.0054  142.8526  155.8679 C   0  0  0  0  0  0  0  0  0  0  0  0
  144.6320  144.0860  155.5345 O   0  0  0  0  0  0  0  0  0  0  0  0
  145.2678  144.0350  154.2624 C   0  0  0  0  0  0  0  0  0  0  0  0
  146.3645  142.9563  154.2737 C   0  0  0  0  0  0  0  0  0  0  0  0
  152.3831  139.3377  156.5909 N   0  0  0  0  0  0  0  0  0  0  0  0
  152.8317  139.7372  157.8553 O   0  0  0  0  0  0  0  0  0  0  0  0
  153.6942  141.5356  159.6226 H   0  0  0  0  0  0  0  0  0  0  0  0
  152.1697  140.9550  160.2974 H   0  0  0  0  0  0  0  0  0  0  0  0
  152.2550  142.5535  159.5543 H   0  0  0  0  0  0  0  0  0  0  0  0
  150.8438  142.2388  157.0997 H   0  0  0  0  0  0  0  0  0  0  0  0
  149.6067  139.7521  153.1145 H   0  0  0  0  0  0  0  0  0  0  0  0
  147.6270  141.6236  152.9342 H   0  0  0  0  0  0  0  0  0  0  0  0
  146.2474  139.8477  151.9151 H   0  0  0  0  0  0  0  0  0  0  0  0
  147.3094  138.6113  152.5845 H   0  0  0  0  0  0  0  0  0  0  0  0
  147.9178  139.7380  151.3740 H   0  0  0  0  0  0  0  0  0  0  0  0
  146.2190  139.5714  154.5900 H   0  0  0  0  0  0  0  0  0  0  0  0
  147.3676  140.5386  155.4774 H   0  0  0  0  0  0  0  0  0  0  0  0
  144.5856  140.7931  156.1756 H   0  0  0  0  0  0  0  0  0  0  0  0
  145.7771  141.9504  156.7367 H   0  0  0  0  0  0  0  0  0  0  0  0
  143.2339  142.6100  155.1350 H   0  0  0  0  0  0  0  0  0  0  0  0
  143.5080  142.9573  156.8322 H   0  0  0  0  0  0  0  0  0  0  0  0
  144.5313  143.8327  153.4829 H   0  0  0  0  0  0  0  0  0  0  0  0
  145.7021  145.0108  154.0448 H   0  0  0  0  0  0  0  0  0  0  0  0
  147.1512  143.2218  154.9815 H   0  0  0  0  0  0  0  0  0  0  0  0
  146.8239  142.8937  153.2866 H   0  0  0  0  0  0  0  0  0  0  0  0
  145.0831  141.4465  153.9380 H   0  0  0  0  0  0  0  0  0  0  0  0
  1  2  1  0  0  0  0
  1 20  1  0  0  0  0
  1 21  1  0  0  0  0
  1 22  1  0  0  0  0
  2 19  1  0  0  0  0
  2  3  2  0  0  0  0
  3  4  1  0  0  0  0
  3 23  1  0  0  0  0
  4  5  1  0  0  0  0
  4 18  2  0  0  0  0
  5  6  1  0  0  0  0
  6  7  2  0  0  0  0
  6  8  1  0  0  0  0
  8  9  1  0  0  0  0
  8 24  1  0  0  0  0
  9 10  1  0  0  0  0
  9 11  1  0  0  0  0
  9 25  1  0  0  0  0
 10 26  1  0  0  0  0
 10 27  1  0  0  0  0
 10 28  1  0  0  0  0
 11 12  1  0  0  0  0
 11 29  1  0  0  0  0
 11 30  1  0  0  0  0
 12 17  1  0  0  0  0
 12 13  1  0  0  0  0
 12 39  1  0  0  0  0
 13 14  1  0  0  0  0
 13 31  1  0  0  0  0
 13 32  1  0  0  0  0
 14 15  1  0  0  0  0
 14 33  1  0  0  0  0
 14 34  1  0  0  0  0
 15 16  1  0  0  0  0
 16 17  1  0  0  0  0
 16 35  1  0  0  0  0
 16 36  1  0  0  0  0
 17 37  1  0  0  0  0
 17 38  1  0  0  0  0
 18 19  1  0  0  0  0
M  CHG  1   5  -1
M  CHG  1  12   1
M  END
> <s_m_source_file>
AV-unprocessed.smi

> <i_m_source_file_index>
1952

> <i_lp_mmshare_version>
43012

> <i_f3d_flags>
0

> <s_epik_input>
W0NIM11jMVtjSF1jKG5vMSlbTkhdQyg9TylbTkhdW0NASF0oW0NIM10pW0NIMl1OMltDSDJdW0NIMl1PW0NIMl1bQ0gyXTI=

> <s_epik_cmdline>
J2VwaWtfcHl0aG9uJywgJy1waCcsICc3LjAnLCAnLXRuJywgJzgnLCAnLW1hJywgJzIwMCcsICctbWV0YWxfYmluZGluZycsICctaW1hZScsICc8aW5maWxlLm1hZT4nLCAnLW9tYWUnLCAnPG91dGZpbGUubWFlPic=

> <r_epik_Ionization_Penalty>
6.62152

> <r_epik_Ionization_Penalty_Charging>
6.62142

> <r_epik_Ionization_Penalty_Neutral>
9.8734e-05

> <r_epik_State_Penalty>
6.82189

> <r_epik_Charging_Adjusted_Penalty>
13.4433

> <i_epik_Tot_Q>
0

> <i_epik_Tot_abs_Q>
2

> <r_epik_Metal_State_Penalty>
2.76365

> <b_epik_Metal_Only>
1

> <s_lp_Force_Field>
OPLS_2005

> <r_lp_Energy>
7.85101

> <b_lp_Chiralities_Consistent>
1

> <s_lp_Variant>
AV-unprocessed.smi:1952-8

> <Gold.Version>
5.8.1

> <Gold.Id.Protein>
6NUR|6NUR_protein|mol2

> <Gold.PLP.Fitness>
42.5061

> <Gold.PLP.PLP>
-30.5893

> <Gold.PLP.part.hbond>
-4.4802

> <Gold.PLP.part.metal>
0.0000

> <Gold.PLP.part.buried>
-1.3082

> <Gold.PLP.part.nonpolar>
-25.0921

> <Gold.PLP.part.repulsive>
0.4643

> <Gold.PLP.ligand.clash>
0.0000

> <Gold.PLP.ligand.torsion>
1.2914

> <Gold.PLP.Chemscore.Hbond>
4.8000

> <Gold.PLP.Chemscore.CHOScore>
0.0000

> <Gold.PLP.Chemscore.Metal>
0.0000

> <Gold.Chemscore.Hbonds>
donor molecule, donor type, donor heavy atom, donor atom, acceptor molecule, acceptor atom, score
      L1  H     8    24       P1  7957  0.45
      L1  H    12    39       P1 10175  1.04
      P1  H  7989  7998       L1     5  0.90
      P1  H  7997  8010       L1    19  0.30

> <Gold.PLP.Chemscore.Internal.Correction>
0.0997

> <Gold.Rescore>
     Score         DG    S(hbond)    S(metal)    S(lipo)     H(rot)  DE(clash)    DE(int)     intcor
     12.23     -16.50       2.57        0.00      55.32       1.58       0.14       4.14       ----

> <Gold.Chemscore.Fitness>
12.2278

> <Gold.Chemscore.DG>
-16.5035

> <Gold.Chemscore.ZeroCoef>
-5.4800

> <Gold.Chemscore.Hbond>
2.5733

> <Gold.Chemscore.Metal>
0.0000

> <Gold.Chemscore.Lipo>
55.3246

> <Gold.Chemscore.Internal_Hbond>
0.0000

> <Gold.Chemscore.DEClash>
0.1376

> <Gold.Chemscore.DEInternal>
4.1381

> <Gold.Chemscore.Rot>
1.5798

> <Gold.Chemscore.Internal.Correction>
   9.000000E+99

> <Gold.Chemscore.Hbonds>
donor molecule, donor type, donor heavy atom, donor atom, acceptor molecule, acceptor atom, score
      L1  H     8    24       P1  7957  0.43
      L1  H    12    39       P1 10175  0.18
      P1  H  7989  7998       L1     5  0.18

> <Gold.Chemscore.Hbond.Weighted>
-8.5947

> <Gold.Chemscore.Metal.Weighted>
-0.0000

> <Gold.Chemscore.Lipo.Weighted>
-6.4730

> <Gold.Chemscore.Internal_Hbond.Weighted>
0.0000

> <Gold.Chemscore.DEClash.Weighted>
0.1376

> <Gold.Chemscore.DEInternal.Weighted>
4.1381

> <Gold.Chemscore.Rot.Weighted>
4.0442

> <Gold.Chemscore.Internal.Correction.Weighted>
   9.000000E+99

> <Gold.Protein.RotatedTorsions>
[ 6907 6896 6895 6894 ] final -127.51 input  -60.11 | X-H torsion
[ 7974 7965 7964 7962 ] final   15.43 input  175.53 | X-H torsion
[ 8008 7997 7996 7995 ] final   37.25 input   59.86 | X-H torsion
[ 10167 10162 10161 10158 ] final  132.80 input  -65.29 | X-H torsion
[ 10718 10713 10712 10709 ] final  -82.91 input   66.30 | X-H torsion
[ 10763 10752 10751 10750 ] final   73.40 input  -60.55 | X-H torsion
[ 11005 11000 10999 10996 ] final  -83.92 input  -57.11 | X-H torsion

> <Gold.Protein.ActiveResidues>
 VAL166  LYS551  ARG553  GLY616  TRP617  ASP618  TYR619  PRO620  LYS621  CYS622 
 ASP623  PHE694  ASN695  SER759  ASP760  ASP761  ALA762  ILE779  LEU786  VAL792 
 PHE793  MET794  SER795  GLU796  ALA797  LYS798  CYS799  TRP800  GLU811  SER814 

> <Gold.Protein.RotatedAtoms>
  150.9081  133.7033  159.2861 H   0  0  0  0  0  0  0  0  0  0  0  0  # atno 6907 bound_to 6896
  151.4529  135.1030  159.9712 H   0  0  0  0  0  0  0  0  0  0  0  0  # atno 6908 bound_to 6896
  152.4914  133.8462  159.7233 H   0  0  0  0  0  0  0  0  0  0  0  0  # atno 6909 bound_to 6896
  146.2278  139.8895  142.8557 H   0  0  0  0  0  0  0  0  0  0  0  0  # atno 7974 bound_to 7965
  155.2007  140.3315  155.4343 H   0  0  0  0  0  0  0  0  0  0  0  0  # atno 8008 bound_to 7997
  156.2408  140.1894  156.7044 H   0  0  0  0  0  0  0  0  0  0  0  0  # atno 8009 bound_to 7997
  154.6143  140.0604  156.9520 H   0  0  0  0  0  0  0  0  0  0  0  0  # atno 8010 bound_to 7997
  139.5324  144.6645  151.4904 H   0  0  0  0  0  0  0  0  0  0  0  0  # atno 10167 bound_to 10162
  156.0026  130.4649  150.4176 H   0  0  0  0  0  0  0  0  0  0  0  0  # atno 10718 bound_to 10713
  153.0519  135.5064  154.7888 H   0  0  0  0  0  0  0  0  0  0  0  0  # atno 10763 bound_to 10752
  154.6744  135.2958  154.9701 H   0  0  0  0  0  0  0  0  0  0  0  0  # atno 10764 bound_to 10752
  154.0509  135.6704  153.4853 H   0  0  0  0  0  0  0  0  0  0  0  0  # atno 10765 bound_to 10752
  141.1654  133.7319  156.8792 H   0  0  0  0  0  0  0  0  0  0  0  0  # atno 11005 bound_to 11000
  145.2432  141.0017  143.3924 LP  0  0  0  0  0  0  0  0  0  0  0  0  # atno 17320 bound_to 7965
  144.9435  139.4162  143.6437 LP  0  0  0  0  0  0  0  0  0  0  0  0  # atno 17321 bound_to 7965
  140.6510  143.8696  150.6786 LP  0  0  0  0  0  0  0  0  0  0  0  0  # atno 17342 bound_to 10162
  140.2061  143.3921  152.1754 LP  0  0  0  0  0  0  0  0  0  0  0  0  # atno 17343 bound_to 10162
  157.2235  131.0488  151.2533 LP  0  0  0  0  0  0  0  0  0  0  0  0  # atno 17370 bound_to 10713
  157.3778  130.7215  149.6609 LP  0  0  0  0  0  0  0  0  0  0  0  0  # atno 17371 bound_to 10713
  140.1727  134.9088  157.2853 LP  0  0  0  0  0  0  0  0  0  0  0  0  # atno 17394 bound_to 11000
  140.2484  134.3713  155.7452 LP  0  0  0  0  0  0  0  0  0  0  0  0  # atno 17395 bound_to 11000

$$$$
