AV-unprocessed.smi:676|AV-procd|sdf|3307|dock10
  -GOLD-   22720 0273D 1   1.00000     0.00000
 Structure written by MMmdl.
 42 43  0  0  0  0  0  0  0  0  1 V2000
  148.0143  138.9106  153.8993 C   0  0  0  0  0  0  0  0  0  0  0  0
  148.1643  139.1469  155.2941 O   0  0  0  0  0  0  0  0  0  0  0  0
  149.3208  139.8801  155.7192 C   0  0  1  0  0  0  0  0  0  0  0  0
  149.5311  141.1059  154.8207 C   0  0  0  0  0  0  0  0  0  0  0  0
  149.3073  140.0593  157.2500 C   0  0  0  0  0  0  0  0  0  0  0  0
  150.0299  138.7160  157.3822 C   0  0  1  0  0  0  0  0  0  0  0  0
  149.0902  137.6134  157.5814 N   0  0  0  0  0  0  0  0  0  0  0  0
  149.1705  136.7054  158.5632 C   0  0  0  0  0  0  0  0  0  0  0  0
  150.0547  136.7137  159.4204 O   0  0  0  0  0  0  0  0  0  0  0  0
  148.0636  135.6431  158.5900 C   0  0  0  0  0  0  0  0  0  0  0  0
  147.7518  135.1772  159.9508 N   0  0  0  0  0  0  0  0  0  0  0  0
  147.6810  133.7843  160.1536 C   0  0  0  0  0  0  0  0  0  0  0  0
  147.4017  133.2554  161.3552 C   0  0  0  0  0  0  0  0  0  0  0  0
  147.1723  134.1555  162.4607 C   0  0  0  0  0  0  0  0  0  0  0  0
  147.2335  135.4893  162.2766 C   0  0  0  0  0  0  0  0  0  0  0  0
  147.5327  136.0721  160.9632 C   0  0  0  0  0  0  0  0  0  0  0  0
  147.5850  137.2895  160.7851 O   0  0  0  0  0  0  0  0  0  0  0  0
  150.5010  138.8725  155.9132 C   0  0  0  0  0  0  0  0  0  0  0  0
  150.5104  137.6218  155.0184 C   0  0  0  0  0  0  0  0  0  0  0  0
  151.9123  139.4672  155.7920 C   0  0  0  0  0  0  0  0  0  0  0  0
  147.0257  138.4902  153.7158 H   0  0  0  0  0  0  0  0  0  0  0  0
  148.7432  138.1877  153.5331 H   0  0  0  0  0  0  0  0  0  0  0  0
  148.0986  139.8228  153.3097 H   0  0  0  0  0  0  0  0  0  0  0  0
  150.4576  141.6283  155.0557 H   0  0  0  0  0  0  0  0  0  0  0  0
  148.7346  141.8400  154.9383 H   0  0  0  0  0  0  0  0  0  0  0  0
  149.5735  140.8226  153.7688 H   0  0  0  0  0  0  0  0  0  0  0  0
  149.9274  140.8948  157.5781 H   0  0  0  0  0  0  0  0  0  0  0  0
  148.3268  140.1005  157.7241 H   0  0  0  0  0  0  0  0  0  0  0  0
  150.8495  138.7357  158.1030 H   0  0  0  0  0  0  0  0  0  0  0  0
  148.3242  137.5445  156.9268 H   0  0  0  0  0  0  0  0  0  0  0  0
  147.1767  136.0671  158.1174 H   0  0  0  0  0  0  0  0  0  0  0  0
  148.3455  134.7980  157.9585 H   0  0  0  0  0  0  0  0  0  0  0  0
  147.8578  133.1816  159.2745 H   0  0  0  0  0  0  0  0  0  0  0  0
  147.3459  132.1853  161.4905 H   0  0  0  0  0  0  0  0  0  0  0  0
  146.9505  133.7575  163.4400 H   0  0  0  0  0  0  0  0  0  0  0  0
  147.0593  136.1476  163.1151 H   0  0  0  0  0  0  0  0  0  0  0  0
  151.2599  136.9019  155.3489 H   0  0  0  0  0  0  0  0  0  0  0  0
  150.7347  137.8768  153.9822 H   0  0  0  0  0  0  0  0  0  0  0  0
  149.5546  137.0985  155.0125 H   0  0  0  0  0  0  0  0  0  0  0  0
  152.6719  138.7611  156.1290 H   0  0  0  0  0  0  0  0  0  0  0  0
  152.0294  140.3669  156.3968 H   0  0  0  0  0  0  0  0  0  0  0  0
  152.1507  139.7361  154.7624 H   0  0  0  0  0  0  0  0  0  0  0  0
  1  2  1  0  0  0  0
  1 21  1  0  0  0  0
  1 22  1  0  0  0  0
  1 23  1  0  0  0  0
  2  3  1  0  0  0  0
  3 18  1  0  0  0  0
  3  4  1  0  0  0  0
  3  5  1  0  0  0  0
  4 24  1  0  0  0  0
  4 25  1  0  0  0  0
  4 26  1  0  0  0  0
  5  6  1  0  0  0  0
  5 27  1  0  0  0  0
  5 28  1  0  0  0  0
  6  7  1  0  0  0  0
  6 18  1  0  0  0  0
  6 29  1  0  0  0  0
  7  8  1  0  0  0  0
  7 30  1  0  0  0  0
  8  9  2  0  0  0  0
  8 10  1  0  0  0  0
 10 11  1  0  0  0  0
 10 31  1  0  0  0  0
 10 32  1  0  0  0  0
 11 16  1  0  0  0  0
 11 12  1  0  0  0  0
 12 13  2  0  0  0  0
 12 33  1  0  0  0  0
 13 14  1  0  0  0  0
 13 34  1  0  0  0  0
 14 15  2  0  0  0  0
 14 35  1  0  0  0  0
 15 16  1  0  0  0  0
 15 36  1  0  0  0  0
 16 17  2  0  0  0  0
 18 19  1  0  0  0  0
 18 20  1  0  0  0  0
 19 37  1  0  0  0  0
 19 38  1  0  0  0  0
 19 39  1  0  0  0  0
 20 40  1  0  0  0  0
 20 41  1  0  0  0  0
 20 42  1  0  0  0  0
M  END
> <s_m_source_file>
AV-unprocessed.smi

> <i_m_source_file_index>
676

> <i_lp_mmshare_version>
43012

> <i_f3d_flags>
0

> <s_epik_input>
W0NIM11PW0NAQF0xKFtDSDNdKVtDSDJdW0NASF0oQzEoW0NIM10pW0NIM10pW05IXUMoPU8pW0NIMl1uMltjSF1bY0hdW2NIXVtjSF1jMj1P

> <s_epik_cmdline>
J2VwaWtfcHl0aG9uJywgJy1waCcsICc3LjAnLCAnLXRuJywgJzgnLCAnLW1hJywgJzIwMCcsICctbWV0YWxfYmluZGluZycsICctaW1hZScsICc8aW5maWxlLm1hZT4nLCAnLW9tYWUnLCAnPG91dGZpbGUubWFlPic=

> <r_lp_tautomer_probability>
1

> <r_epik_Ionization_Penalty>
4.09771e-07

> <r_epik_Ionization_Penalty_Charging>
3.90712e-07

> <r_epik_Ionization_Penalty_Neutral>
1.90591e-08

> <r_epik_State_Penalty>
-0

> <r_epik_Charging_Adjusted_Penalty>
3.90712e-07

> <i_epik_Tot_Q>
0

> <i_epik_Tot_abs_Q>
0

> <r_epik_Metal_State_Penalty>
-0

> <b_epik_Metal_Only>
0

> <s_lp_Force_Field>
OPLS_2005

> <r_lp_Energy>
33.6273

> <b_lp_Chiralities_Consistent>
1

> <s_lp_Variant>
AV-unprocessed.smi:676-1

> <Gold.Version>
5.8.1

> <Gold.Id.Protein>
6NUR|6NUR_protein|mol2

> <Gold.PLP.Fitness>
40.5249

> <Gold.PLP.PLP>
-33.4833

> <Gold.PLP.part.hbond>
-3.0000

> <Gold.PLP.part.metal>
0.0000

> <Gold.PLP.part.buried>
-4.4237

> <Gold.PLP.part.nonpolar>
-26.5795

> <Gold.PLP.part.repulsive>
0.0985

> <Gold.PLP.ligand.clash>
0.0000

> <Gold.PLP.ligand.torsion>
0.8132

> <Gold.PLP.Chemscore.Hbond>
2.7600

> <Gold.PLP.Chemscore.CHOScore>
0.0000

> <Gold.PLP.Chemscore.Metal>
0.0000

> <Gold.Chemscore.Hbonds>
donor molecule, donor type, donor heavy atom, donor atom, acceptor molecule, acceptor atom, score
      P1  H  6896  6907       L1     9  1.00
      P1  H  6931  6943       L1    17  0.71
      P1  H  6934  6947       L1    17  0.96

> <Gold.PLP.Chemscore.Internal.Correction>
0.3881

> <Gold.Rescore>
     Score         DG    S(hbond)    S(metal)    S(lipo)     H(rot)  DE(clash)    DE(int)     intcor
     16.77     -18.80       2.72        0.00      71.49       1.62       0.00       2.03       ----

> <Gold.Chemscore.Fitness>
16.7669

> <Gold.Chemscore.DG>
-18.8023

> <Gold.Chemscore.ZeroCoef>
-5.4800

> <Gold.Chemscore.Hbond>
2.7242

> <Gold.Chemscore.Metal>
0.0000

> <Gold.Chemscore.Lipo>
71.4895

> <Gold.Chemscore.Internal_Hbond>
0.0000

> <Gold.Chemscore.DEClash>
0.0004

> <Gold.Chemscore.DEInternal>
2.0350

> <Gold.Chemscore.Rot>
1.6175

> <Gold.Chemscore.Internal.Correction>
   9.000000E+99

> <Gold.Chemscore.Hbonds>
donor molecule, donor type, donor heavy atom, donor atom, acceptor molecule, acceptor atom, score
      P1  H  6896  6907       L1     9  0.93
      P1  H  6931  6943       L1    17  0.62
      P1  H  6934  6947       L1    17  0.92

> <Gold.Chemscore.Hbond.Weighted>
-9.0988

> <Gold.Chemscore.Metal.Weighted>
-0.0000

> <Gold.Chemscore.Lipo.Weighted>
-8.3643

> <Gold.Chemscore.Internal_Hbond.Weighted>
0.0000

> <Gold.Chemscore.DEClash.Weighted>
0.0004

> <Gold.Chemscore.DEInternal.Weighted>
2.0350

> <Gold.Chemscore.Rot.Weighted>
4.1408

> <Gold.Chemscore.Internal.Correction.Weighted>
   9.000000E+99

> <Gold.Protein.RotatedTorsions>
[ 6907 6896 6895 6894 ] final  -35.55 input  -60.11 | X-H torsion
[ 7974 7965 7964 7962 ] final  121.35 input  175.53 | X-H torsion
[ 8008 7997 7996 7995 ] final   21.49 input   59.86 | X-H torsion
[ 10167 10162 10161 10158 ] final  154.03 input  -65.29 | X-H torsion
[ 10718 10713 10712 10709 ] final -108.50 input   66.30 | X-H torsion
[ 10763 10752 10751 10750 ] final  -89.19 input  -60.55 | X-H torsion
[ 11005 11000 10999 10996 ] final   -1.06 input  -57.11 | X-H torsion

> <Gold.Protein.ActiveResidues>
 VAL166  LYS551  ARG553  GLY616  TRP617  ASP618  TYR619  PRO620  LYS621  CYS622 
 ASP623  PHE694  ASN695  SER759  ASP760  ASP761  ALA762  ILE779  LEU786  VAL792 
 PHE793  MET794  SER795  GLU796  ALA797  LYS798  CYS799  TRP800  GLU811  SER814 

> <Gold.Protein.RotatedAtoms>
  151.0384  134.9589  159.8148 H   0  0  0  0  0  0  0  0  0  0  0  0  # atno 6907 bound_to 6896
  152.5359  134.2690  159.8974 H   0  0  0  0  0  0  0  0  0  0  0  0  # atno 6908 bound_to 6896
  151.2701  133.4217  159.2655 H   0  0  0  0  0  0  0  0  0  0  0  0  # atno 6909 bound_to 6896
  145.1204  139.3393  143.4717 H   0  0  0  0  0  0  0  0  0  0  0  0  # atno 7974 bound_to 7965
  154.9513  140.3066  155.5073 H   0  0  0  0  0  0  0  0  0  0  0  0  # atno 8008 bound_to 7997
  156.2987  140.2318  156.4529 H   0  0  0  0  0  0  0  0  0  0  0  0  # atno 8009 bound_to 7997
  154.8052  140.0431  157.1290 H   0  0  0  0  0  0  0  0  0  0  0  0  # atno 8010 bound_to 7997
  139.4824  144.5222  151.7858 H   0  0  0  0  0  0  0  0  0  0  0  0  # atno 10167 bound_to 10162
  156.0489  130.5716  150.7970 H   0  0  0  0  0  0  0  0  0  0  0  0  # atno 10718 bound_to 10713
  154.6527  135.5349  153.7921 H   0  0  0  0  0  0  0  0  0  0  0  0  # atno 10763 bound_to 10752
  153.0395  135.6486  154.0992 H   0  0  0  0  0  0  0  0  0  0  0  0  # atno 10764 bound_to 10752
  154.0908  135.2940  155.3252 H   0  0  0  0  0  0  0  0  0  0  0  0  # atno 10765 bound_to 10752
  140.6431  133.9471  155.8337 H   0  0  0  0  0  0  0  0  0  0  0  0  # atno 11005 bound_to 11000
  146.3521  140.1160  142.8602 LP  0  0  0  0  0  0  0  0  0  0  0  0  # atno 17320 bound_to 7965
  145.0747  140.9180  143.4861 LP  0  0  0  0  0  0  0  0  0  0  0  0  # atno 17321 bound_to 7965
  140.4737  144.1549  150.5922 LP  0  0  0  0  0  0  0  0  0  0  0  0  # atno 17342 bound_to 10162
  140.4354  143.2550  151.9542 LP  0  0  0  0  0  0  0  0  0  0  0  0  # atno 17343 bound_to 10162
  157.5394  131.0940  150.9848 LP  0  0  0  0  0  0  0  0  0  0  0  0  # atno 17370 bound_to 10713
  157.0135  130.5646  149.5323 LP  0  0  0  0  0  0  0  0  0  0  0  0  # atno 17371 bound_to 10713
  141.0592  134.0371  157.3682 LP  0  0  0  0  0  0  0  0  0  0  0  0  # atno 17394 bound_to 11000
  139.9073  135.0182  156.7540 LP  0  0  0  0  0  0  0  0  0  0  0  0  # atno 17395 bound_to 11000

$$$$
