AV-unprocessed.smi:178|AV-procd|sdf|1445|dock1
  -GOLD-   2262019233D 1   1.00000     0.00000
 Structure written by MMmdl.
 50 52  0  0  0  0  0  0  0  0  1 V2000
  147.3661  135.9627  162.8138 C   0  0  0  0  0  0  0  0  0  0  0  0
  148.0831  136.6197  161.7802 O   0  0  0  0  0  0  0  0  0  0  0  0
  148.0828  135.9173  160.5459 C   0  0  0  0  0  0  0  0  0  0  0  0
  147.7291  136.8477  159.3687 C   0  0  0  0  0  0  0  0  0  0  0  0
  148.0970  136.2785  158.0689 N   0  0  0  0  0  0  0  0  0  0  0  0
  149.2874  136.8096  157.4051 C   0  0  0  0  0  0  0  0  0  0  0  0
  149.9370  137.9741  158.1711 C   0  0  0  0  0  0  0  0  0  0  0  0
  151.1092  137.5975  158.9770 C   0  0  0  0  0  0  0  0  0  0  0  0
  152.0291  137.3009  159.6133 N   0  0  0  0  0  0  0  0  0  0  0  0
  147.2973  135.3324  157.4873 C   0  0  0  0  0  0  0  0  0  0  0  0
  146.3432  134.7478  158.2625 N   0  0  0  0  0  0  0  0  0  0  0  0
  145.5151  133.8270  157.7663 C   0  0  0  0  0  0  0  0  0  0  0  0
  145.4614  133.3391  156.5289 N   0  0  0  0  0  0  0  0  0  0  0  0
  146.4140  133.9045  155.7349 C   0  0  0  0  0  0  0  0  0  0  0  0
  147.3623  134.8978  156.1242 C   0  0  0  0  0  0  0  0  0  0  0  0
  148.1447  135.2274  155.0219 N   0  0  0  0  0  0  0  0  0  0  0  0
  147.6918  134.4824  154.0535 C   0  0  0  0  0  0  0  0  0  0  0  0
  146.6588  133.6426  154.3962 N   0  0  0  0  0  0  0  0  0  0  0  0
  145.9526  132.7050  153.5306 C   0  0  0  0  0  0  0  0  0  0  0  0
  144.9532  133.3698  152.5451 C   0  0  1  0  0  0  0  0  0  0  0  0
  143.8545  133.8635  153.2935 O   0  0  0  0  0  0  0  0  0  0  0  0
  145.5575  134.5234  151.7629 C   0  0  0  0  0  0  0  0  0  0  0  0
  144.6177  134.6666  150.5674 C   0  0  0  0  0  0  0  0  0  0  0  0
  143.9622  133.4090  150.4162 O   0  0  0  0  0  0  0  0  0  0  0  0
  144.3828  132.4838  151.4177 C   0  0  1  0  0  0  0  0  0  0  0  0
  145.3938  131.5586  150.7141 C   0  0  0  0  0  0  0  0  0  0  0  0
  147.3766  136.5806  163.7115 H   0  0  0  0  0  0  0  0  0  0  0  0
  147.8099  135.0008  163.0695 H   0  0  0  0  0  0  0  0  0  0  0  0
  146.3248  135.8029  162.5317 H   0  0  0  0  0  0  0  0  0  0  0  0
  149.0385  135.4145  160.3923 H   0  0  0  0  0  0  0  0  0  0  0  0
  147.3346  135.1289  160.6226 H   0  0  0  0  0  0  0  0  0  0  0  0
  146.6550  137.0346  159.3812 H   0  0  0  0  0  0  0  0  0  0  0  0
  148.1919  137.8272  159.4858 H   0  0  0  0  0  0  0  0  0  0  0  0
  150.0139  135.9994  157.3381 H   0  0  0  0  0  0  0  0  0  0  0  0
  149.0967  137.0787  156.3697 H   0  0  0  0  0  0  0  0  0  0  0  0
  150.2484  138.7574  157.4805 H   0  0  0  0  0  0  0  0  0  0  0  0
  149.2075  138.4246  158.8440 H   0  0  0  0  0  0  0  0  0  0  0  0
  144.7914  133.4253  158.4600 H   0  0  0  0  0  0  0  0  0  0  0  0
  148.1037  134.5430  153.0589 H   0  0  0  0  0  0  0  0  0  0  0  0
  146.7040  132.1543  152.9630 H   0  0  0  0  0  0  0  0  0  0  0  0
  145.4563  131.9603  154.1530 H   0  0  0  0  0  0  0  0  0  0  0  0
  143.5575  133.1796  153.8743 H   0  0  0  0  0  0  0  0  0  0  0  0
  145.6510  135.4421  152.3435 H   0  0  0  0  0  0  0  0  0  0  0  0
  146.5548  134.2552  151.4120 H   0  0  0  0  0  0  0  0  0  0  0  0
  143.8631  135.4303  150.7585 H   0  0  0  0  0  0  0  0  0  0  0  0
  145.1536  134.9425  149.6589 H   0  0  0  0  0  0  0  0  0  0  0  0
  143.5363  131.8882  151.7625 H   0  0  0  0  0  0  0  0  0  0  0  0
  145.7728  130.7834  151.3742 H   0  0  0  0  0  0  0  0  0  0  0  0
  146.2499  132.1123  150.3292 H   0  0  0  0  0  0  0  0  0  0  0  0
  144.9252  131.0554  149.8683 H   0  0  0  0  0  0  0  0  0  0  0  0
  1  2  1  0  0  0  0
  1 27  1  0  0  0  0
  1 28  1  0  0  0  0
  1 29  1  0  0  0  0
  2  3  1  0  0  0  0
  3  4  1  0  0  0  0
  3 30  1  0  0  0  0
  3 31  1  0  0  0  0
  4  5  1  0  0  0  0
  4 32  1  0  0  0  0
  4 33  1  0  0  0  0
  5  6  1  0  0  0  0
  5 10  1  0  0  0  0
  6  7  1  0  0  0  0
  6 34  1  0  0  0  0
  6 35  1  0  0  0  0
  7  8  1  0  0  0  0
  7 36  1  0  0  0  0
  7 37  1  0  0  0  0
  8  9  3  0  0  0  0
 10 15  1  0  0  0  0
 10 11  2  0  0  0  0
 11 12  1  0  0  0  0
 12 13  2  0  0  0  0
 12 38  1  0  0  0  0
 13 14  1  0  0  0  0
 14 18  1  0  0  0  0
 14 15  2  0  0  0  0
 15 16  1  0  0  0  0
 16 17  2  0  0  0  0
 17 18  1  0  0  0  0
 17 39  1  0  0  0  0
 18 19  1  0  0  0  0
 19 20  1  0  0  0  0
 19 40  1  0  0  0  0
 19 41  1  0  0  0  0
 20 25  1  0  0  0  0
 20 21  1  0  0  0  0
 20 22  1  0  0  0  0
 21 42  1  0  0  0  0
 22 23  1  0  0  0  0
 22 43  1  0  0  0  0
 22 44  1  0  0  0  0
 23 24  1  0  0  0  0
 23 45  1  0  0  0  0
 23 46  1  0  0  0  0
 24 25  1  0  0  0  0
 25 26  1  0  0  0  0
 25 47  1  0  0  0  0
 26 48  1  0  0  0  0
 26 49  1  0  0  0  0
 26 50  1  0  0  0  0
M  END
> <s_m_source_file>
AV-unprocessed.smi

> <i_m_source_file_index>
178

> <i_lp_mmshare_version>
43012

> <i_f3d_flags>
0

> <s_epik_input>
W0NIM11PW0NIMl1bQ0gyXU4oW0NIMl1bQ0gyXUMjTiljKG5bY0hdbjEpYyhjMTIpbltjSF1uMltDSDJdW0NAQF0zKFtPSF0pW0NIMl1bQ0gyXU9bQ0BIXTNbQ0gzXQ==

> <s_epik_cmdline>
J2VwaWtfcHl0aG9uJywgJy1waCcsICc3LjAnLCAnLXRuJywgJzgnLCAnLW1hJywgJzIwMCcsICctbWV0YWxfYmluZGluZycsICctaW1hZScsICc8aW5maWxlLm1hZT4nLCAnLW9tYWUnLCAnPG91dGZpbGUubWFlPic=

> <r_lp_tautomer_probability>
1

> <r_epik_Ionization_Penalty>
0.000885317

> <r_epik_Ionization_Penalty_Charging>
0

> <r_epik_Ionization_Penalty_Neutral>
0.000885317

> <r_epik_State_Penalty>
0.00047273

> <r_epik_Charging_Adjusted_Penalty>
0.00047273

> <i_epik_Tot_Q>
0

> <i_epik_Tot_abs_Q>
0

> <r_epik_Metal_State_Penalty>
-0

> <b_epik_Metal_Only>
0

> <s_lp_Force_Field>
OPLS_2005

> <r_lp_Energy>
33.9655

> <b_lp_Chiralities_Consistent>
1

> <s_lp_Variant>
AV-unprocessed.smi:178-1

> <Gold.Version>
5.8.1

> <Gold.Id.Protein>
6NUR|6NUR_protein|mol2

> <Gold.PLP.Fitness>
39.6080

> <Gold.PLP.PLP>
-29.7208

> <Gold.PLP.part.hbond>
-3.0000

> <Gold.PLP.part.metal>
0.0000

> <Gold.PLP.part.buried>
-5.6007

> <Gold.PLP.part.nonpolar>
-21.3291

> <Gold.PLP.part.repulsive>
0.3629

> <Gold.PLP.ligand.clash>
0.0000

> <Gold.PLP.ligand.torsion>
1.3092

> <Gold.PLP.Chemscore.Hbond>
2.9913

> <Gold.PLP.Chemscore.CHOScore>
0.9994

> <Gold.PLP.Chemscore.Metal>
0.0000

> <Gold.Chemscore.Hbonds>
donor molecule, donor type, donor heavy atom, donor atom, acceptor molecule, acceptor atom, score
      L1  H    21    42       P1 10957  1.00
      P1  H  6896  6907       L1     9  0.49
      P1  H  6931  6943       L1     2  1.00
      L1  C    17    39       P1  7948  1.00

> <Gold.PLP.Chemscore.Internal.Correction>
0.5338

> <Gold.Rescore>
     Score         DG    S(hbond)    S(metal)    S(lipo)     H(rot)  DE(clash)    DE(int)     intcor
     11.01     -12.98       2.72        0.00      60.13       3.37       0.01       1.95       ----

> <Gold.Chemscore.Fitness>
11.0148

> <Gold.Chemscore.DG>
-12.9755

> <Gold.Chemscore.ZeroCoef>
-5.4800

> <Gold.Chemscore.Hbond>
2.7233

> <Gold.Chemscore.Metal>
0.0000

> <Gold.Chemscore.Lipo>
60.1279

> <Gold.Chemscore.Internal_Hbond>
0.0000

> <Gold.Chemscore.DEClash>
0.0135

> <Gold.Chemscore.DEInternal>
1.9471

> <Gold.Chemscore.Rot>
3.3732

> <Gold.Chemscore.Internal.Correction>
   9.000000E+99

> <Gold.Chemscore.Hbonds>
donor molecule, donor type, donor heavy atom, donor atom, acceptor molecule, acceptor atom, score
      L1  H    21    42       P1 10957  0.99
      P1  H  6896  6907       L1     9  0.31
      P1  H  6931  6943       L1     2  0.97

> <Gold.Chemscore.Hbond.Weighted>
-9.0958

> <Gold.Chemscore.Metal.Weighted>
-0.0000

> <Gold.Chemscore.Lipo.Weighted>
-7.0350

> <Gold.Chemscore.Internal_Hbond.Weighted>
0.0000

> <Gold.Chemscore.DEClash.Weighted>
0.0135

> <Gold.Chemscore.DEInternal.Weighted>
1.9471

> <Gold.Chemscore.Rot.Weighted>
8.6354

> <Gold.Chemscore.Internal.Correction.Weighted>
   9.000000E+99

> <Gold.Protein.RotatedTorsions>
[ 6907 6896 6895 6894 ] final   20.53 input  -60.11 | X-H torsion
[ 7974 7965 7964 7962 ] final  -57.06 input  175.53 | X-H torsion
[ 8008 7997 7996 7995 ] final -170.24 input   59.86 | X-H torsion
[ 10167 10162 10161 10158 ] final    3.72 input  -65.29 | X-H torsion
[ 10718 10713 10712 10709 ] final -154.22 input   66.30 | X-H torsion
[ 10763 10752 10751 10750 ] final -112.53 input  -60.55 | X-H torsion
[ 11005 11000 10999 10996 ] final -113.62 input  -57.11 | X-H torsion

> <Gold.Protein.ActiveResidues>
 VAL166  LYS551  ARG553  GLY616  TRP617  ASP618  TYR619  PRO620  LYS621  CYS622 
 ASP623  PHE694  ASN695  SER759  ASP760  ASP761  ALA762  ILE779  LEU786  VAL792 
 PHE793  MET794  SER795  GLU796  ALA797  LYS798  CYS799  TRP800  GLU811  SER814 

> <Gold.Protein.RotatedAtoms>
  151.8977  135.0391  160.0503 H   0  0  0  0  0  0  0  0  0  0  0  0  # atno 6907 bound_to 6896
  152.2384  133.5110  159.5264 H   0  0  0  0  0  0  0  0  0  0  0  0  # atno 6908 bound_to 6896
  150.7046  134.1039  159.4018 H   0  0  0  0  0  0  0  0  0  0  0  0  # atno 6909 bound_to 6896
  145.8555  140.8323  142.9964 H   0  0  0  0  0  0  0  0  0  0  0  0  # atno 7974 bound_to 7965
  155.9157  140.1065  157.1245 H   0  0  0  0  0  0  0  0  0  0  0  0  # atno 8008 bound_to 7997
  154.4046  140.1265  156.4680 H   0  0  0  0  0  0  0  0  0  0  0  0  # atno 8009 bound_to 7997
  155.7256  140.3469  155.5038 H   0  0  0  0  0  0  0  0  0  0  0  0  # atno 8010 bound_to 7997
  140.6572  143.7398  150.7674 H   0  0  0  0  0  0  0  0  0  0  0  0  # atno 10167 bound_to 10162
  156.4963  130.8370  151.2591 H   0  0  0  0  0  0  0  0  0  0  0  0  # atno 10718 bound_to 10713
  154.8354  135.4487  154.1208 H   0  0  0  0  0  0  0  0  0  0  0  0  # atno 10763 bound_to 10752
  153.2444  135.6920  153.7753 H   0  0  0  0  0  0  0  0  0  0  0  0  # atno 10764 bound_to 10752
  153.7089  135.3360  155.3217 H   0  0  0  0  0  0  0  0  0  0  0  0  # atno 10765 bound_to 10752
  141.0603  133.9546  157.2679 H   0  0  0  0  0  0  0  0  0  0  0  0  # atno 11005 bound_to 11000
  144.6728  140.1016  143.7460 LP  0  0  0  0  0  0  0  0  0  0  0  0  # atno 17320 bound_to 7965
  145.9309  139.2605  143.1326 LP  0  0  0  0  0  0  0  0  0  0  0  0  # atno 17321 bound_to 7965
  140.1060  143.4743  152.2398 LP  0  0  0  0  0  0  0  0  0  0  0  0  # atno 17342 bound_to 10162
  139.5797  144.7504  151.3673 LP  0  0  0  0  0  0  0  0  0  0  0  0  # atno 17343 bound_to 10162
  157.7468  130.9996  150.2897 LP  0  0  0  0  0  0  0  0  0  0  0  0  # atno 17370 bound_to 10713
  156.3377  130.3810  149.7436 LP  0  0  0  0  0  0  0  0  0  0  0  0  # atno 17371 bound_to 10713
  139.9426  135.0189  156.8756 LP  0  0  0  0  0  0  0  0  0  0  0  0  # atno 17394 bound_to 11000
  140.5882  134.0287  155.7489 LP  0  0  0  0  0  0  0  0  0  0  0  0  # atno 17395 bound_to 11000

$$$$
