AV-unprocessed.smi:236|AV-procd|sdf|1816|dock6
  -GOLD-   2262020403D 1   1.00000     0.00000
 Structure written by MMmdl.
 58 62  0  0  0  0  0  0  0  0  1 V2000
  143.2656  135.0874  162.4254 C   0  0  0  0  0  0  0  0  0  0  0  0
  144.6678  135.5838  162.8071 C   0  0  1  0  0  0  0  0  0  0  0  0
  145.5643  134.4883  162.9720 O   0  0  0  0  0  0  0  0  0  0  0  0
  146.8786  134.8642  162.5701 C   0  0  0  0  0  0  0  0  0  0  0  0
  146.8065  136.3572  162.2622 C   0  0  0  0  0  0  0  0  0  0  0  0
  145.3610  136.5372  161.8151 C   0  0  2  0  0  0  0  0  0  0  0  0
  144.9695  137.8742  162.0630 O   0  0  0  0  0  0  0  0  0  0  0  0
  145.1169  136.1864  160.3209 C   0  0  0  0  0  0  0  0  0  0  0  0
  145.8402  137.0373  159.3890 N   0  0  0  0  0  0  0  0  0  0  0  0
  145.2963  137.9285  158.4918 C   0  0  0  0  0  0  0  0  0  0  0  0
  146.1594  138.5719  157.7541 N   0  0  0  0  0  0  0  0  0  0  0  0
  147.3950  138.1062  158.1896 C   0  0  0  0  0  0  0  0  0  0  0  0
  148.7443  138.3766  157.8215 C   0  0  0  0  0  0  0  0  0  0  0  0
  149.0803  139.2703  156.8557 N   0  0  0  0  0  0  0  0  0  0  0  0
  149.2714  138.7697  155.4964 C   0  0  0  0  0  0  0  0  0  0  0  0
  149.3730  139.9427  154.5095 C   0  0  0  0  0  0  0  0  0  0  0  0
  150.4089  140.8241  154.9292 O   0  0  0  0  0  0  0  0  0  0  0  0
  150.1450  141.3965  156.2080 C   0  0  2  0  0  0  0  0  0  0  0  0
  151.2632  142.3967  156.5270 C   0  0  0  0  0  0  0  0  0  0  0  0
  151.0666  142.9049  157.8362 O   0  0  0  0  0  0  0  0  0  0  0  0
  151.2387  144.3091  157.9100 C   0  0  0  0  0  0  0  0  0  0  0  0
  152.2610  144.6244  158.9810 C   0  0  0  0  0  0  0  0  0  0  0  0
  152.0767  144.1120  160.3913 C   0  0  0  0  0  0  0  0  0  0  0  0
  151.9328  145.5846  160.1016 C   0  0  0  0  0  0  0  0  0  0  0  0
  150.0782  140.2610  157.2482 C   0  0  0  0  0  0  0  0  0  0  0  0
  149.7182  137.6918  158.4800 N   0  0  0  0  0  0  0  0  0  0  0  0
  149.4013  136.8153  159.4374 C   0  0  0  0  0  0  0  0  0  0  0  0
  148.1934  136.4695  159.8849 N   0  0  0  0  0  0  0  0  0  0  0  0
  147.2101  137.1413  159.2207 C   0  0  0  0  0  0  0  0  0  0  0  0
  142.5850  135.9235  162.2632 H   0  0  0  0  0  0  0  0  0  0  0  0
  142.8475  134.4696  163.2202 H   0  0  0  0  0  0  0  0  0  0  0  0
  143.2834  134.4825  161.5187 H   0  0  0  0  0  0  0  0  0  0  0  0
  144.6079  136.0739  163.7809 H   0  0  0  0  0  0  0  0  0  0  0  0
  147.6112  134.6378  163.3449 H   0  0  0  0  0  0  0  0  0  0  0  0
  147.1455  134.2992  161.6764 H   0  0  0  0  0  0  0  0  0  0  0  0
  146.9874  136.9138  163.1835 H   0  0  0  0  0  0  0  0  0  0  0  0
  147.5534  136.6842  161.5403 H   0  0  0  0  0  0  0  0  0  0  0  0
  144.7144  138.2697  161.2435 H   0  0  0  0  0  0  0  0  0  0  0  0
  145.3991  135.1520  160.1216 H   0  0  0  0  0  0  0  0  0  0  0  0
  144.0555  136.2612  160.0818 H   0  0  0  0  0  0  0  0  0  0  0  0
  144.2309  138.0781  158.3921 H   0  0  0  0  0  0  0  0  0  0  0  0
  150.1815  138.1697  155.4531 H   0  0  0  0  0  0  0  0  0  0  0  0
  148.4394  138.1240  155.2121 H   0  0  0  0  0  0  0  0  0  0  0  0
  149.6023  139.5738  153.5098 H   0  0  0  0  0  0  0  0  0  0  0  0
  148.4259  140.4802  154.4418 H   0  0  0  0  0  0  0  0  0  0  0  0
  149.1906  141.9264  156.1868 H   0  0  0  0  0  0  0  0  0  0  0  0
  152.2317  141.8960  156.4795 H   0  0  0  0  0  0  0  0  0  0  0  0
  151.2746  143.2048  155.7937 H   0  0  0  0  0  0  0  0  0  0  0  0
  151.5734  144.7036  156.9492 H   0  0  0  0  0  0  0  0  0  0  0  0
  150.2974  144.7977  158.1657 H   0  0  0  0  0  0  0  0  0  0  0  0
  153.2859  144.6496  158.6152 H   0  0  0  0  0  0  0  0  0  0  0  0
  151.1691  143.5554  160.6162 H   0  0  0  0  0  0  0  0  0  0  0  0
  152.9665  143.7891  160.9281 H   0  0  0  0  0  0  0  0  0  0  0  0
  152.7264  146.2454  160.4445 H   0  0  0  0  0  0  0  0  0  0  0  0
  150.9302  146.0071  160.1294 H   0  0  0  0  0  0  0  0  0  0  0  0
  149.8563  140.6825  158.2276 H   0  0  0  0  0  0  0  0  0  0  0  0
  151.0485  139.7688  157.3291 H   0  0  0  0  0  0  0  0  0  0  0  0
  150.2357  136.3194  159.9112 H   0  0  0  0  0  0  0  0  0  0  0  0
  1  2  1  0  0  0  0
  1 30  1  0  0  0  0
  1 31  1  0  0  0  0
  1 32  1  0  0  0  0
  2  6  1  0  0  0  0
  2  3  1  0  0  0  0
  2 33  1  0  0  0  0
  3  4  1  0  0  0  0
  4  5  1  0  0  0  0
  4 34  1  0  0  0  0
  4 35  1  0  0  0  0
  5  6  1  0  0  0  0
  5 36  1  0  0  0  0
  5 37  1  0  0  0  0
  6  7  1  0  0  0  0
  6  8  1  0  0  0  0
  7 38  1  0  0  0  0
  8  9  1  0  0  0  0
  8 39  1  0  0  0  0
  8 40  1  0  0  0  0
  9 29  1  0  0  0  0
  9 10  1  0  0  0  0
 10 11  2  0  0  0  0
 10 41  1  0  0  0  0
 11 12  1  0  0  0  0
 12 29  2  0  0  0  0
 12 13  1  0  0  0  0
 13 14  1  0  0  0  0
 13 26  2  0  0  0  0
 14 25  1  0  0  0  0
 14 15  1  0  0  0  0
 15 16  1  0  0  0  0
 15 42  1  0  0  0  0
 15 43  1  0  0  0  0
 16 17  1  0  0  0  0
 16 44  1  0  0  0  0
 16 45  1  0  0  0  0
 17 18  1  0  0  0  0
 18 19  1  0  0  0  0
 18 25  1  0  0  0  0
 18 46  1  0  0  0  0
 19 20  1  0  0  0  0
 19 47  1  0  0  0  0
 19 48  1  0  0  0  0
 20 21  1  0  0  0  0
 21 22  1  0  0  0  0
 21 49  1  0  0  0  0
 21 50  1  0  0  0  0
 22 24  1  0  0  0  0
 22 23  1  0  0  0  0
 22 51  1  0  0  0  0
 23 24  1  0  0  0  0
 23 52  1  0  0  0  0
 23 53  1  0  0  0  0
 24 54  1  0  0  0  0
 24 55  1  0  0  0  0
 25 56  1  0  0  0  0
 25 57  1  0  0  0  0
 26 27  1  0  0  0  0
 27 28  2  0  0  0  0
 27 58  1  0  0  0  0
 28 29  1  0  0  0  0
M  END
> <s_m_source_file>
AV-unprocessed.smi

> <i_m_source_file_index>
236

> <i_lp_mmshare_version>
43012

> <i_f3d_flags>
0

> <s_epik_input>
W0NIMl0xW0NIMl1PW0NAQEhdKFtDSDNdKVtDQEBdMShbT0hdKVtDSDJdbihbY0hdbjIpYyhjMjMpbltjSF1uYzNONFtDSDJdW0NIMl1PW0NASF0oW0NIMl00KVtDSDJdT1tDSDJdW0NIXTVbQ0gyXVtDSDJdNQ==

> <s_epik_cmdline>
J2VwaWtfcHl0aG9uJywgJy1waCcsICc3LjAnLCAnLXRuJywgJzgnLCAnLW1hJywgJzIwMCcsICctbWV0YWxfYmluZGluZycsICctaW1hZScsICc8aW5maWxlLm1hZT4nLCAnLW9tYWUnLCAnPG91dGZpbGUubWFlPic=

> <r_lp_tautomer_probability>
1

> <r_epik_Ionization_Penalty>
7.21838e-05

> <r_epik_Ionization_Penalty_Charging>
0

> <r_epik_Ionization_Penalty_Neutral>
7.21838e-05

> <r_epik_State_Penalty>
-0

> <r_epik_Charging_Adjusted_Penalty>
0

> <i_epik_Tot_Q>
0

> <i_epik_Tot_abs_Q>
0

> <r_epik_Metal_State_Penalty>
-0

> <b_epik_Metal_Only>
0

> <s_lp_Force_Field>
OPLS_2005

> <r_lp_Energy>
48.2383

> <b_lp_Chiralities_Consistent>
1

> <s_lp_Variant>
AV-unprocessed.smi:236-8

> <Gold.Version>
5.8.1

> <Gold.Id.Protein>
6NUR|6NUR_protein|mol2

> <Gold.PLP.Fitness>
45.7761

> <Gold.PLP.PLP>
-45.4119

> <Gold.PLP.part.hbond>
-1.7927

> <Gold.PLP.part.metal>
0.0000

> <Gold.PLP.part.buried>
-8.2884

> <Gold.PLP.part.nonpolar>
-35.9525

> <Gold.PLP.part.repulsive>
0.2238

> <Gold.PLP.ligand.clash>
0.0000

> <Gold.PLP.ligand.torsion>
1.5334

> <Gold.PLP.Chemscore.Hbond>
0.8160

> <Gold.PLP.Chemscore.CHOScore>
0.0000

> <Gold.PLP.Chemscore.Metal>
0.0000

> <Gold.Chemscore.Hbonds>
donor molecule, donor type, donor heavy atom, donor atom, acceptor molecule, acceptor atom, score
      P1  H  7989  7998       L1    17  0.82

> <Gold.PLP.Chemscore.Internal.Correction>
0.9831

> <Gold.Rescore>
     Score         DG    S(hbond)    S(metal)    S(lipo)     H(rot)  DE(clash)    DE(int)     intcor
     11.18     -14.09       0.65        0.00     117.70       2.87       1.08       1.82       ----

> <Gold.Chemscore.Fitness>
11.1842

> <Gold.Chemscore.DG>
-14.0931

> <Gold.Chemscore.ZeroCoef>
-5.4800

> <Gold.Chemscore.Hbond>
0.6523

> <Gold.Chemscore.Metal>
0.0000

> <Gold.Chemscore.Lipo>
117.6952

> <Gold.Chemscore.Internal_Hbond>
0.0000

> <Gold.Chemscore.DEClash>
1.0845

> <Gold.Chemscore.DEInternal>
1.8244

> <Gold.Chemscore.Rot>
2.8655

> <Gold.Chemscore.Internal.Correction>
   9.000000E+99

> <Gold.Chemscore.Hbonds>
donor molecule, donor type, donor heavy atom, donor atom, acceptor molecule, acceptor atom, score
      P1  H  7989  7998       L1    17  0.45

> <Gold.Chemscore.Hbond.Weighted>
-2.1785

> <Gold.Chemscore.Metal.Weighted>
-0.0000

> <Gold.Chemscore.Lipo.Weighted>
-13.7703

> <Gold.Chemscore.Internal_Hbond.Weighted>
0.0000

> <Gold.Chemscore.DEClash.Weighted>
1.0845

> <Gold.Chemscore.DEInternal.Weighted>
1.8244

> <Gold.Chemscore.Rot.Weighted>
7.3358

> <Gold.Chemscore.Internal.Correction.Weighted>
   9.000000E+99

> <Gold.Protein.RotatedTorsions>
[ 6907 6896 6895 6894 ] final  148.09 input  -60.11 | X-H torsion
[ 7974 7965 7964 7962 ] final -179.53 input  175.53 | X-H torsion
[ 8008 7997 7996 7995 ] final  153.96 input   59.86 | X-H torsion
[ 10167 10162 10161 10158 ] final   34.19 input  -65.29 | X-H torsion
[ 10718 10713 10712 10709 ] final   98.16 input   66.30 | X-H torsion
[ 10763 10752 10751 10750 ] final  168.24 input  -60.55 | X-H torsion
[ 11005 11000 10999 10996 ] final   78.08 input  -57.11 | X-H torsion

> <Gold.Protein.ActiveResidues>
 VAL166  LYS551  ARG553  GLY616  TRP617  ASP618  TYR619  PRO620  LYS621  CYS622 
 ASP623  PHE694  ASN695  SER759  ASP760  ASP761  ALA762  ILE779  LEU786  VAL792 
 PHE793  MET794  SER795  GLU796  ALA797  LYS798  CYS799  TRP800  GLU811  SER814 

> <Gold.Protein.RotatedAtoms>
  152.1461  133.4493  159.4790 H   0  0  0  0  0  0  0  0  0  0  0  0  # atno 6907 bound_to 6896
  150.6890  134.2246  159.4419 H   0  0  0  0  0  0  0  0  0  0  0  0  # atno 6908 bound_to 6896
  152.0140  134.9860  160.0619 H   0  0  0  0  0  0  0  0  0  0  0  0  # atno 6909 bound_to 6896
  144.7137  140.0703  143.6429 H   0  0  0  0  0  0  0  0  0  0  0  0  # atno 7974 bound_to 7965
  156.2555  140.1979  156.6571 H   0  0  0  0  0  0  0  0  0  0  0  0  # atno 8008 bound_to 7997
  154.6492  140.0574  156.9961 H   0  0  0  0  0  0  0  0  0  0  0  0  # atno 8009 bound_to 7997
  155.1444  140.3245  155.4448 H   0  0  0  0  0  0  0  0  0  0  0  0  # atno 8010 bound_to 7997
  140.4338  144.1287  150.6163 H   0  0  0  0  0  0  0  0  0  0  0  0  # atno 10167 bound_to 10162
  157.6900  131.0632  150.4754 H   0  0  0  0  0  0  0  0  0  0  0  0  # atno 10718 bound_to 10713
  154.3657  135.2753  155.2295 H   0  0  0  0  0  0  0  0  0  0  0  0  # atno 10763 bound_to 10752
  154.4464  135.5942  153.6166 H   0  0  0  0  0  0  0  0  0  0  0  0  # atno 10764 bound_to 10752
  152.9841  135.6031  154.3882 H   0  0  0  0  0  0  0  0  0  0  0  0  # atno 10765 bound_to 10752
  139.9227  134.7734  156.1603 H   0  0  0  0  0  0  0  0  0  0  0  0  # atno 11005 bound_to 11000
  145.9789  139.2926  143.1054 LP  0  0  0  0  0  0  0  0  0  0  0  0  # atno 17320 bound_to 7965
  145.9033  140.9228  143.0491 LP  0  0  0  0  0  0  0  0  0  0  0  0  # atno 17321 bound_to 7965
  140.4397  143.2532  151.9488 LP  0  0  0  0  0  0  0  0  0  0  0  0  # atno 17342 bound_to 10162
  139.4786  144.5666  151.8155 LP  0  0  0  0  0  0  0  0  0  0  0  0  # atno 17343 bound_to 10162
  156.5090  130.4135  149.6312 LP  0  0  0  0  0  0  0  0  0  0  0  0  # atno 17370 bound_to 10713
  156.3258  130.7305  151.2226 LP  0  0  0  0  0  0  0  0  0  0  0  0  # atno 17371 bound_to 10713
  141.0762  133.6774  156.2240 LP  0  0  0  0  0  0  0  0  0  0  0  0  # atno 17394 bound_to 11000
  140.6425  134.5151  157.5571 LP  0  0  0  0  0  0  0  0  0  0  0  0  # atno 17395 bound_to 11000

$$$$
