AV-unprocessed.smi:1602|AV-procd|sdf|6440|dock9
  -GOLD-   22720 7 83D 1   1.00000     0.00000
 Structure written by MMmdl.
 36 37  0  0  0  0  0  0  0  0  1 V2000
  154.6267  140.9258  160.3455 C   0  0  0  0  0  0  0  0  0  0  0  0
  153.1429  141.3081  160.4169 C   0  0  1  0  0  0  0  0  0  0  0  0
  152.9421  142.8111  160.6921 C   0  0  0  0  0  0  0  0  0  0  0  0
  152.1548  143.4660  159.6630 N   0  0  0  0  0  0  0  0  0  0  0  0
  152.5969  144.1951  158.5789 C   0  0  0  0  0  0  0  0  0  0  0  0
  151.4927  144.6037  157.8873 C   0  0  0  0  0  0  0  0  0  0  0  0
  150.4076  144.0698  158.6376 C   0  0  0  0  0  0  0  0  0  0  0  0
  150.8070  143.3922  159.7018 N   0  0  0  0  0  0  0  0  0  0  0  0
  152.4913  140.9318  159.1599 N   0  0  0  0  0  0  0  0  0  0  0  0
  152.6481  139.3210  158.5648 S   0  0  0  0  0  0  0  0  0  0  0  0
  154.0560  139.0896  158.2077 O   0  0  0  0  0  0  0  0  0  0  0  0
  151.9467  138.4192  159.4912 O   0  0  0  0  0  0  0  0  0  0  0  0
  151.7201  139.4634  157.1110 N   0  0  0  0  0  0  0  0  0  0  0  0
  150.9133  140.6845  156.9349 C   0  0  0  0  0  0  0  0  0  0  0  0
  149.9716  140.5559  155.7268 C   0  0  0  0  0  0  0  0  0  0  0  0
  150.7116  140.2135  154.5653 O   0  0  0  0  0  0  0  0  0  0  0  0
  151.3492  138.9538  154.7102 C   0  0  0  0  0  0  0  0  0  0  0  0
  152.3589  139.0010  155.8684 C   0  0  0  0  0  0  0  0  0  0  0  0
  155.1366  141.1604  161.2802 H   0  0  0  0  0  0  0  0  0  0  0  0
  155.1372  141.4607  159.5439 H   0  0  0  0  0  0  0  0  0  0  0  0
  154.7478  139.8572  160.1642 H   0  0  0  0  0  0  0  0  0  0  0  0
  152.6916  140.7366  161.2297 H   0  0  0  0  0  0  0  0  0  0  0  0
  152.4353  142.9532  161.6477 H   0  0  0  0  0  0  0  0  0  0  0  0
  153.9043  143.3188  160.7732 H   0  0  0  0  0  0  0  0  0  0  0  0
  153.6479  144.3555  158.3891 H   0  0  0  0  0  0  0  0  0  0  0  0
  151.4638  145.1920  156.9823 H   0  0  0  0  0  0  0  0  0  0  0  0
  149.3489  144.1543  158.4420 H   0  0  0  0  0  0  0  0  0  0  0  0
  151.5497  141.3075  159.0530 H   0  0  0  0  0  0  0  0  0  0  0  0
  150.3319  140.8846  157.8345 H   0  0  0  0  0  0  0  0  0  0  0  0
  151.5848  141.5324  156.7948 H   0  0  0  0  0  0  0  0  0  0  0  0
  149.1997  139.8079  155.9151 H   0  0  0  0  0  0  0  0  0  0  0  0
  149.4586  141.5017  155.5517 H   0  0  0  0  0  0  0  0  0  0  0  0
  150.6049  138.1735  154.8768 H   0  0  0  0  0  0  0  0  0  0  0  0
  151.8605  138.7082  153.7793 H   0  0  0  0  0  0  0  0  0  0  0  0
  153.1809  139.6747  155.6235 H   0  0  0  0  0  0  0  0  0  0  0  0
  152.7899  138.0115  156.0211 H   0  0  0  0  0  0  0  0  0  0  0  0
  1  2  1  0  0  0  0
  1 19  1  0  0  0  0
  1 20  1  0  0  0  0
  1 21  1  0  0  0  0
  2  3  1  0  0  0  0
  2  9  1  0  0  0  0
  2 22  1  0  0  0  0
  3  4  1  0  0  0  0
  3 23  1  0  0  0  0
  3 24  1  0  0  0  0
  4  8  1  0  0  0  0
  4  5  1  0  0  0  0
  5  6  2  0  0  0  0
  5 25  1  0  0  0  0
  6  7  1  0  0  0  0
  6 26  1  0  0  0  0
  7  8  2  0  0  0  0
  7 27  1  0  0  0  0
  9 10  1  0  0  0  0
  9 28  1  0  0  0  0
 10 11  2  0  0  0  0
 10 12  2  0  0  0  0
 10 13  1  0  0  0  0
 13 18  1  0  0  0  0
 13 14  1  0  0  0  0
 14 15  1  0  0  0  0
 14 29  1  0  0  0  0
 14 30  1  0  0  0  0
 15 16  1  0  0  0  0
 15 31  1  0  0  0  0
 15 32  1  0  0  0  0
 16 17  1  0  0  0  0
 17 18  1  0  0  0  0
 17 33  1  0  0  0  0
 17 34  1  0  0  0  0
 18 35  1  0  0  0  0
 18 36  1  0  0  0  0
M  END
> <s_m_source_file>
AV-unprocessed.smi

> <i_m_source_file_index>
1602

> <i_lp_mmshare_version>
43012

> <i_f3d_flags>
0

> <s_epik_input>
bjFbY0hdW2NIXVtjSF1uMVtDSDJdW0NAQEhdKFtDSDNdKVtOSF1TKD1PKSg9TylOMltDSDJdW0NIMl1PW0NIMl1bQ0gyXTI=

> <s_epik_cmdline>
J2VwaWtfcHl0aG9uJywgJy1waCcsICc3LjAnLCAnLXRuJywgJzgnLCAnLW1hJywgJzIwMCcsICctbWV0YWxfYmluZGluZycsICctaW1hZScsICc8aW5maWxlLm1hZT4nLCAnLW9tYWUnLCAnPG91dGZpbGUubWFlPic=

> <r_lp_tautomer_probability>
1

> <r_epik_Ionization_Penalty>
0.114248

> <r_epik_Ionization_Penalty_Charging>
0

> <r_epik_Ionization_Penalty_Neutral>
0.114248

> <r_epik_State_Penalty>
0.103909

> <r_epik_Charging_Adjusted_Penalty>
0.103909

> <i_epik_Tot_Q>
0

> <i_epik_Tot_abs_Q>
0

> <r_epik_Metal_State_Penalty>
0.436178

> <b_epik_Metal_Only>
0

> <s_lp_Force_Field>
OPLS_2005

> <r_lp_Energy>
8.02202

> <b_lp_Chiralities_Consistent>
1

> <s_lp_Variant>
AV-unprocessed.smi:1602-2

> <Gold.Version>
5.8.1

> <Gold.Id.Protein>
6NUR|6NUR_protein|mol2

> <Gold.PLP.Fitness>
46.5922

> <Gold.PLP.PLP>
-39.9410

> <Gold.PLP.part.hbond>
-1.9681

> <Gold.PLP.part.metal>
0.0000

> <Gold.PLP.part.buried>
-4.8271

> <Gold.PLP.part.nonpolar>
-33.5567

> <Gold.PLP.part.repulsive>
0.1540

> <Gold.PLP.ligand.clash>
0.4016

> <Gold.PLP.ligand.torsion>
1.4490

> <Gold.PLP.Chemscore.Hbond>
1.9913

> <Gold.PLP.Chemscore.CHOScore>
1.0796

> <Gold.PLP.Chemscore.Metal>
0.0000

> <Gold.Chemscore.Hbonds>
donor molecule, donor type, donor heavy atom, donor atom, acceptor molecule, acceptor atom, score
      P1  H  7989  7998       L1    16  1.00
      P1  H  7997  8009       L1    11  1.00
      L1  C     7    27       P1  8028  0.05
      L1  C     7    27       P1  8029  0.88

> <Gold.PLP.Chemscore.Internal.Correction>
0.7382

> <Gold.Rescore>
     Score         DG    S(hbond)    S(metal)    S(lipo)     H(rot)  DE(clash)    DE(int)     intcor
     15.24     -18.02       1.90        0.00      95.87       1.97       0.01       2.76       ----

> <Gold.Chemscore.Fitness>
15.2443

> <Gold.Chemscore.DG>
-18.0165

> <Gold.Chemscore.ZeroCoef>
-5.4800

> <Gold.Chemscore.Hbond>
1.9016

> <Gold.Chemscore.Metal>
0.0000

> <Gold.Chemscore.Lipo>
95.8693

> <Gold.Chemscore.Internal_Hbond>
0.0000

> <Gold.Chemscore.DEClash>
0.0118

> <Gold.Chemscore.DEInternal>
2.7604

> <Gold.Chemscore.Rot>
1.9654

> <Gold.Chemscore.Internal.Correction>
   9.000000E+99

> <Gold.Chemscore.Hbonds>
donor molecule, donor type, donor heavy atom, donor atom, acceptor molecule, acceptor atom, score
      P1  H  7989  7998       L1    16  0.29
      P1  H  7997  8009       L1    11  0.97

> <Gold.Chemscore.Hbond.Weighted>
-6.3513

> <Gold.Chemscore.Metal.Weighted>
-0.0000

> <Gold.Chemscore.Lipo.Weighted>
-11.2167

> <Gold.Chemscore.Internal_Hbond.Weighted>
0.0000

> <Gold.Chemscore.DEClash.Weighted>
0.0118

> <Gold.Chemscore.DEInternal.Weighted>
2.7604

> <Gold.Chemscore.Rot.Weighted>
5.0315

> <Gold.Chemscore.Internal.Correction.Weighted>
   9.000000E+99

> <Gold.Protein.RotatedTorsions>
[ 6907 6896 6895 6894 ] final   42.70 input  -60.11 | X-H torsion
[ 7974 7965 7964 7962 ] final  -87.27 input  175.53 | X-H torsion
[ 8008 7997 7996 7995 ] final  129.72 input   59.86 | X-H torsion
[ 10167 10162 10161 10158 ] final  167.99 input  -65.29 | X-H torsion
[ 10718 10713 10712 10709 ] final  126.27 input   66.30 | X-H torsion
[ 10763 10752 10751 10750 ] final -172.66 input  -60.55 | X-H torsion
[ 11005 11000 10999 10996 ] final  -37.45 input  -57.11 | X-H torsion

> <Gold.Protein.ActiveResidues>
 VAL166  LYS551  ARG553  GLY616  TRP617  ASP618  TYR619  PRO620  LYS621  CYS622 
 ASP623  PHE694  ASN695  SER759  ASP760  ASP761  ALA762  ILE779  LEU786  VAL792 
 PHE793  MET794  SER795  GLU796  ALA797  LYS798  CYS799  TRP800  GLU811  SER814 

> <Gold.Protein.RotatedAtoms>
  152.2111  134.8500  160.0497 H   0  0  0  0  0  0  0  0  0  0  0  0  # atno 6907 bound_to 6896
  151.9319  133.3608  159.3942 H   0  0  0  0  0  0  0  0  0  0  0  0  # atno 6908 bound_to 6896
  150.6976  134.4454  159.5355 H   0  0  0  0  0  0  0  0  0  0  0  0  # atno 6909 bound_to 6896
  145.4688  140.9560  143.1929 H   0  0  0  0  0  0  0  0  0  0  0  0  # atno 7974 bound_to 7965
  156.2941  140.2613  156.2645 H   0  0  0  0  0  0  0  0  0  0  0  0  # atno 8008 bound_to 7997
  154.9756  140.0390  157.2273 H   0  0  0  0  0  0  0  0  0  0  0  0  # atno 8009 bound_to 7997
  154.7819  140.2796  155.6062 H   0  0  0  0  0  0  0  0  0  0  0  0  # atno 8010 bound_to 7997
  139.4957  144.3863  151.9567 H   0  0  0  0  0  0  0  0  0  0  0  0  # atno 10167 bound_to 10162
  157.5433  131.1096  150.8823 H   0  0  0  0  0  0  0  0  0  0  0  0  # atno 10718 bound_to 10713
  154.6168  135.2870  155.0371 H   0  0  0  0  0  0  0  0  0  0  0  0  # atno 10763 bound_to 10752
  154.1581  135.6492  153.4983 H   0  0  0  0  0  0  0  0  0  0  0  0  # atno 10764 bound_to 10752
  153.0218  135.5371  154.6942 H   0  0  0  0  0  0  0  0  0  0  0  0  # atno 10765 bound_to 10752
  140.9952  133.6984  156.1922 H   0  0  0  0  0  0  0  0  0  0  0  0  # atno 11005 bound_to 11000
  144.7958  139.6237  143.7093 LP  0  0  0  0  0  0  0  0  0  0  0  0  # atno 17320 bound_to 7965
  146.2409  139.5999  142.9492 LP  0  0  0  0  0  0  0  0  0  0  0  0  # atno 17321 bound_to 7965
  140.3300  144.3328  150.5989 LP  0  0  0  0  0  0  0  0  0  0  0  0  # atno 17342 bound_to 10162
  140.5653  143.2187  151.7694 LP  0  0  0  0  0  0  0  0  0  0  0  0  # atno 17343 bound_to 10162
  156.9369  130.5370  149.5279 LP  0  0  0  0  0  0  0  0  0  0  0  0  # atno 17370 bound_to 10713
  156.0515  130.5583  150.8999 LP  0  0  0  0  0  0  0  0  0  0  0  0  # atno 17371 bound_to 10713
  140.6977  134.4598  157.5587 LP  0  0  0  0  0  0  0  0  0  0  0  0  # atno 17394 bound_to 11000
  139.9011  134.8553  156.1891 LP  0  0  0  0  0  0  0  0  0  0  0  0  # atno 17395 bound_to 11000

$$$$
