#       Name:                AV-unprocessed.smi:3195
#       Creating user name   scv26
#       Creation time:       Fri Mar 27 18:05:24 2020


#       File generated by GOLD software.
#

@<TRIPOS>MOLECULE
AV-unprocessed.smi:3195
    34    35     1
SMALL
NO_CHARGES


@<TRIPOS>ATOM
      1 ****        -2.1162  -1.8712   1.2503 C.3            1 S1                 0.0000
      2 ****        -1.5880  -0.9957   0.1008 C.3            1 S1                 0.0000
      3 ****        -0.0442  -0.9516   0.1236 C.2            1 S1                 0.0000
      4 ****         0.5864  -1.9836  -0.1115 O.2            1 S1                 0.0000
      5 ****         0.5253   0.2346   0.4120 N.am           1 S1                 0.0000
      6 ****         1.9054   0.5696   0.4874 C.ar           1 S1                 0.0000
      7 ****         2.8954  -0.3346   0.2774 N.ar           1 S1                 0.0000
      8 ****         4.1819   0.0600   0.3687 C.ar           1 S1                 0.0000
      9 ****         4.5640   1.3778   0.6747 C.ar           1 S1                 0.0000
     10 ****         3.5502   2.3264   0.8937 C.ar           1 S1                 0.0000
     11 ****         2.2033   1.9227   0.7991 C.ar           1 S1                 0.0000
     12 ****         1.2170   2.8479   1.0103 O.co2          1 S1                -1.0000
     13 ****        -2.1277  -1.4532  -1.2755 C.3            1 S1                 0.0000
     14 ****        -3.0005  -0.3024  -1.7461 C.3            1 S1                 0.0000
     15 ****        -2.4251   0.8833  -0.9890 C.3            1 S1                 0.0000
     16 ****        -2.1225   0.3205   0.2784 O.3            1 S1                 0.0000
     17 ****        -1.7892  -2.9067   1.1487 H              1 S1                 0.0000
     18 ****        -3.2064  -1.8701   1.2729 H              1 S1                 0.0000
     19 ****        -1.7691  -1.5054   2.2174 H              1 S1                 0.0000
     20 ****        -0.1067   1.0015   0.5936 H              1 S1                 0.0000
     21 ****         4.9294  -0.6991   0.1922 H              1 S1                 0.0000
     22 ****         5.6058   1.6535   0.7392 H              1 S1                 0.0000
     23 ****         3.8048   3.3492   1.1302 H              1 S1                 0.0000
     24 ****        -1.3232  -1.6140  -1.9954 H              1 S1                 0.0000
     25 ****        -2.6939  -2.3835  -1.2203 H              1 S1                 0.0000
     26 ****        -2.9844  -0.1657  -2.8276 H              1 S1                 0.0000
     27 ****        -4.0334  -0.4702  -1.4382 H              1 S1                 0.0000
     28 ****        -1.5121   1.2459  -1.4636 H              1 S1                 0.0000
     29 ****        -3.1256   1.7140  -0.9046 H              1 S1                 0.0000
     30 ****         0.0983  -2.8328  -0.3131 LP             1 S1                 0.0000
     31 ****         1.5863  -1.9720  -0.1006 LP             1 S1                 0.0000
     32 ****         2.6731  -1.2844   0.0571 LP             1 S1                 0.0000
     33 ****        -1.4491   0.8936   0.7454 LP             1 S1                 0.0000
     34 ****        -2.9561   0.2703   0.8285 LP             1 S1                 0.0000
@<TRIPOS>BOND
    1    1    2 1     
    2    1   17 1     
    3    1   18 1     
    4    1   19 1     
    5    2   16 1     
    6    2    3 1     
    7    2   13 1     
    8    3    4 2     
    9    3    5 am    
   10    5   20 1     
   11    5    6 1     
   12    6   11 ar    
   13    6    7 ar    
   14    7    8 ar    
   15    8   21 1     
   16    8    9 ar    
   17    9   22 1     
   18    9   10 ar    
   19   10   11 ar    
   20   10   23 1     
   21   11   12 ar    
   22   13   14 1     
   23   13   24 1     
   24   13   25 1     
   25   14   15 1     
   26   14   26 1     
   27   14   27 1     
   28   15   16 1     
   29   15   28 1     
   30   15   29 1     
   31    4   30 1     
   32    4   31 1     
   33    7   32 1     
   34   16   33 1     
   35   16   34 1     
@<TRIPOS>SUBSTRUCTURE
      1 S1             1
@<TRIPOS>SET
LONE_PAIRS      STATIC     ATOMS    <user>   **** ""
6 30 31 32 12 33 34
DONOR_HYDROGENS      STATIC     ATOMS    <user>   **** ""
1 20
ATOM$BLUE        STATIC     ATOMS    COLORGROUP SYSTEM
6 30 31 32 12 33 34
ATOM$RED        STATIC     ATOMS    COLORGROUP SYSTEM
1 20
