AV-unprocessed.smi:2735|AV-procd|sdf|10542|dock5
  -GOLD-   2272014593D 1   1.00000     0.00000
 Structure written by MMmdl.
 42 42  0  0  0  0  0  0  0  0  2 V2000
  154.7799  140.2643  160.7225 C   0  0  0  0  0  0  0  0  0  0  0  0
  153.7034  141.1866  160.2312 C   0  0  0  0  0  0  0  0  0  0  0  0
  153.3634  142.4793  160.7158 C   0  0  0  0  0  0  0  0  0  0  0  0
  152.3128  142.8681  159.9336 C   0  0  0  0  0  0  0  0  0  0  0  0
  151.5053  144.1244  159.9767 C   0  0  0  0  0  0  0  0  0  0  0  0
  152.0780  141.8444  159.0288 N   0  0  0  0  0  0  0  0  0  0  0  0
  151.0235  141.7322  158.0187 C   0  0  1  0  0  0  0  0  0  0  0  0
  151.0531  142.9071  157.0188 C   0  0  0  0  0  0  0  0  0  0  0  0
  151.0900  140.3555  157.3341 C   0  0  0  0  0  0  0  0  0  0  0  0
  151.1958  139.3212  157.9941 O   0  0  0  0  0  0  0  0  0  0  0  0
  151.0122  140.3677  155.9944 N   0  0  0  0  0  0  0  0  0  0  0  0
  150.9702  139.1992  155.1204 C   0  0  1  0  0  0  0  0  0  0  0  0
  149.8940  139.4358  154.0325 C   0  0  0  0  0  0  0  0  0  0  0  0
  148.4577  139.6641  154.5626 C   0  0  0  0  0  0  0  0  0  0  0  0
  147.5199  138.4835  154.2623 C   0  0  0  0  0  0  0  0  0  0  0  0
  147.8761  140.9704  154.0020 C   0  0  0  0  0  0  0  0  0  0  0  0
  152.3316  139.0216  154.4292 C   0  0  0  0  0  0  0  0  0  0  0  0
  152.4376  138.0707  153.6242 O   0  0  0  0  0  0  0  0  0  0  0  0
  153.2400  139.8375  154.7071 O   0  5  0  0  0  0  0  0  0  0  0  0
  152.9312  140.8117  159.2261 N   0  0  0  0  0  0  0  0  0  0  0  0
  150.7362  138.2990  155.6911 H   0  0  0  0  0  0  0  0  0  0  0  0
  155.0278  140.4716  161.7634 H   0  0  0  0  0  0  0  0  0  0  0  0
  155.6904  140.3783  160.1345 H   0  0  0  0  0  0  0  0  0  0  0  0
  154.4694  139.2207  160.6601 H   0  0  0  0  0  0  0  0  0  0  0  0
  153.8152  143.0335  161.5251 H   0  0  0  0  0  0  0  0  0  0  0  0
  151.8556  144.7847  160.7702 H   0  0  0  0  0  0  0  0  0  0  0  0
  150.4540  143.9066  160.1655 H   0  0  0  0  0  0  0  0  0  0  0  0
  151.5783  144.6666  159.0339 H   0  0  0  0  0  0  0  0  0  0  0  0
  150.0630  141.7787  158.5322 H   0  0  0  0  0  0  0  0  0  0  0  0
  150.2100  142.8572  156.3289 H   0  0  0  0  0  0  0  0  0  0  0  0
  151.9672  142.9153  156.4234 H   0  0  0  0  0  0  0  0  0  0  0  0
  150.9899  143.8623  157.5408 H   0  0  0  0  0  0  0  0  0  0  0  0
  150.9489  141.2652  155.5379 H   0  0  0  0  0  0  0  0  0  0  0  0
  150.1742  140.3013  153.4287 H   0  0  0  0  0  0  0  0  0  0  0  0
  149.8874  138.5866  153.3472 H   0  0  0  0  0  0  0  0  0  0  0  0
  148.5001  139.7820  155.6460 H   0  0  0  0  0  0  0  0  0  0  0  0
  147.4702  138.2784  153.1926 H   0  0  0  0  0  0  0  0  0  0  0  0
  146.5072  138.6904  154.6096 H   0  0  0  0  0  0  0  0  0  0  0  0
  147.8485  137.5736  154.7645 H   0  0  0  0  0  0  0  0  0  0  0  0
  147.7894  140.9320  152.9157 H   0  0  0  0  0  0  0  0  0  0  0  0
  148.5070  141.8227  154.2558 H   0  0  0  0  0  0  0  0  0  0  0  0
  146.8836  141.1660  154.4087 H   0  0  0  0  0  0  0  0  0  0  0  0
  1  2  1  0  0  0  0
  1 22  1  0  0  0  0
  1 23  1  0  0  0  0
  1 24  1  0  0  0  0
  2 20  2  0  0  0  0
  2  3  1  0  0  0  0
  3  4  2  0  0  0  0
  3 25  1  0  0  0  0
  4  5  1  0  0  0  0
  4  6  1  0  0  0  0
  5 26  1  0  0  0  0
  5 27  1  0  0  0  0
  5 28  1  0  0  0  0
  6  7  1  0  0  0  0
  6 20  1  0  0  0  0
  7  8  1  0  0  0  0
  7  9  1  0  0  0  0
  7 29  1  0  0  0  0
  8 30  1  0  0  0  0
  8 31  1  0  0  0  0
  8 32  1  0  0  0  0
  9 10  2  0  0  0  0
  9 11  1  0  0  0  0
 11 12  1  0  0  0  0
 11 33  1  0  0  0  0
 12 21  1  0  0  0  0
 12 13  1  0  0  0  0
 12 17  1  0  0  0  0
 13 14  1  0  0  0  0
 13 34  1  0  0  0  0
 13 35  1  0  0  0  0
 14 15  1  0  0  0  0
 14 16  1  0  0  0  0
 14 36  1  0  0  0  0
 15 37  1  0  0  0  0
 15 38  1  0  0  0  0
 15 39  1  0  0  0  0
 16 40  1  0  0  0  0
 16 41  1  0  0  0  0
 16 42  1  0  0  0  0
 17 18  2  0  0  0  0
 17 19  1  0  0  0  0
M  CHG  1  19  -1
M  END
> <s_m_source_file>
AV-unprocessed.smi

> <i_m_source_file_index>
2735

> <i_lp_mmshare_version>
43012

> <i_f3d_flags>
0

> <s_epik_input>
W0NIM11jMVtjSF1jKFtDSDNdKW4objEpW0NASF0oW0NIM10pQyg9TylbTkhdW0NASF0oQyg9TylbT0hdKVtDSDJdW0NIXShbQ0gzXSlbQ0gzXQ==

> <s_epik_cmdline>
J2VwaWtfcHl0aG9uJywgJy1waCcsICc3LjAnLCAnLXRuJywgJzgnLCAnLW1hJywgJzIwMCcsICctbWV0YWxfYmluZGluZycsICctaW1hZScsICc8aW5maWxlLm1hZT4nLCAnLW9tYWUnLCAnPG91dGZpbGUubWFlPic=

> <r_lp_tautomer_probability>
1

> <r_epik_Ionization_Penalty>
0.0012303

> <r_epik_Ionization_Penalty_Charging>
0.000186407

> <r_epik_Ionization_Penalty_Neutral>
0.0010439

> <r_epik_State_Penalty>
-0

> <r_epik_Charging_Adjusted_Penalty>
0.000186407

> <i_epik_Tot_Q>
-1

> <i_epik_Tot_abs_Q>
1

> <r_epik_Metal_State_Penalty>
-0

> <b_epik_Metal_Only>
0

> <s_lp_Force_Field>
OPLS_2005

> <r_lp_Energy>
6.48876

> <b_lp_Chiralities_Consistent>
1

> <s_lp_Variant>
AV-unprocessed.smi:2735-2

> <Gold.Version>
5.8.1

> <Gold.Id.Protein>
6NUR|6NUR_protein|mol2

> <Gold.PLP.Fitness>
50.4440

> <Gold.PLP.PLP>
-41.6226

> <Gold.PLP.part.hbond>
-2.0297

> <Gold.PLP.part.metal>
0.0000

> <Gold.PLP.part.buried>
-6.2225

> <Gold.PLP.part.nonpolar>
-34.1830

> <Gold.PLP.part.repulsive>
0.2777

> <Gold.PLP.ligand.clash>
0.4175

> <Gold.PLP.ligand.torsion>
1.1434

> <Gold.PLP.Chemscore.Hbond>
3.7600

> <Gold.PLP.Chemscore.CHOScore>
0.0000

> <Gold.PLP.Chemscore.Metal>
0.0000

> <Gold.Chemscore.Hbonds>
donor molecule, donor type, donor heavy atom, donor atom, acceptor molecule, acceptor atom, score
      P1  H  7997  8010       L1    19  2.00

> <Gold.PLP.Chemscore.Internal.Correction>
0.2457

> <Gold.Rescore>
     Score         DG    S(hbond)    S(metal)    S(lipo)     H(rot)  DE(clash)    DE(int)     intcor
     13.45     -16.93       1.61        0.00     100.81       2.24       0.64       2.84       ----

> <Gold.Chemscore.Fitness>
13.4547

> <Gold.Chemscore.DG>
-16.9273

> <Gold.Chemscore.ZeroCoef>
-5.4800

> <Gold.Chemscore.Hbond>
1.6120

> <Gold.Chemscore.Metal>
0.0000

> <Gold.Chemscore.Lipo>
100.8069

> <Gold.Chemscore.Internal_Hbond>
0.0000

> <Gold.Chemscore.DEClash>
0.6362

> <Gold.Chemscore.DEInternal>
2.8364

> <Gold.Chemscore.Rot>
2.2388

> <Gold.Chemscore.Internal.Correction>
   9.000000E+99

> <Gold.Chemscore.Hbonds>
donor molecule, donor type, donor heavy atom, donor atom, acceptor molecule, acceptor atom, score
      P1  H  7997  8010       L1    19  1.00
      P1  H 10752 10763       L1    18  0.02

> <Gold.Chemscore.Hbond.Weighted>
-5.3842

> <Gold.Chemscore.Metal.Weighted>
-0.0000

> <Gold.Chemscore.Lipo.Weighted>
-11.7944

> <Gold.Chemscore.Internal_Hbond.Weighted>
0.0000

> <Gold.Chemscore.DEClash.Weighted>
0.6362

> <Gold.Chemscore.DEInternal.Weighted>
2.8364

> <Gold.Chemscore.Rot.Weighted>
5.7314

> <Gold.Chemscore.Internal.Correction.Weighted>
   9.000000E+99

> <Gold.Protein.RotatedTorsions>
[ 6907 6896 6895 6894 ] final    4.47 input  -60.11 | X-H torsion
[ 7974 7965 7964 7962 ] final -100.63 input  175.53 | X-H torsion
[ 8008 7997 7996 7995 ] final  109.51 input   59.86 | X-H torsion
[ 10167 10162 10161 10158 ] final   36.93 input  -65.29 | X-H torsion
[ 10718 10713 10712 10709 ] final -170.03 input   66.30 | X-H torsion
[ 10763 10752 10751 10750 ] final   32.07 input  -60.55 | X-H torsion
[ 11005 11000 10999 10996 ] final  -72.09 input  -57.11 | X-H torsion

> <Gold.Protein.ActiveResidues>
 VAL166  LYS551  ARG553  GLY616  TRP617  ASP618  TYR619  PRO620  LYS621  CYS622 
 ASP623  PHE694  ASN695  SER759  ASP760  ASP761  ALA762  ILE779  LEU786  VAL792 
 PHE793  MET794  SER795  GLU796  ALA797  LYS798  CYS799  TRP800  GLU811  SER814 

> <Gold.Protein.RotatedAtoms>
  151.6418  135.1012  160.0142 H   0  0  0  0  0  0  0  0  0  0  0  0  # atno 6907 bound_to 6896
  152.4050  133.6870  159.6357 H   0  0  0  0  0  0  0  0  0  0  0  0  # atno 6908 bound_to 6896
  150.7945  133.8642  159.3281 H   0  0  0  0  0  0  0  0  0  0  0  0  # atno 6909 bound_to 6896
  145.2920  140.9355  143.2872 H   0  0  0  0  0  0  0  0  0  0  0  0  # atno 7974 bound_to 7965
  156.1984  140.3056  155.9475 H   0  0  0  0  0  0  0  0  0  0  0  0  # atno 8008 bound_to 7997
  155.3011  140.0446  157.3046 H   0  0  0  0  0  0  0  0  0  0  0  0  # atno 8009 bound_to 7997
  154.5539  140.2300  155.8450 H   0  0  0  0  0  0  0  0  0  0  0  0  # atno 8010 bound_to 7997
  140.4081  144.1631  150.6137 H   0  0  0  0  0  0  0  0  0  0  0  0  # atno 10167 bound_to 10162
  156.7202  130.9267  151.3097 H   0  0  0  0  0  0  0  0  0  0  0  0  # atno 10718 bound_to 10713
  153.0282  135.6422  154.1298 H   0  0  0  0  0  0  0  0  0  0  0  0  # atno 10763 bound_to 10752
  154.1024  135.2858  155.3250 H   0  0  0  0  0  0  0  0  0  0  0  0  # atno 10764 bound_to 10752
  154.6389  135.5466  153.7829 H   0  0  0  0  0  0  0  0  0  0  0  0  # atno 10765 bound_to 10752
  141.1603  133.6836  156.7006 H   0  0  0  0  0  0  0  0  0  0  0  0  # atno 11005 bound_to 11000
  144.9164  139.4465  143.6562 LP  0  0  0  0  0  0  0  0  0  0  0  0  # atno 17320 bound_to 7965
  146.3181  139.8001  142.8967 LP  0  0  0  0  0  0  0  0  0  0  0  0  # atno 17321 bound_to 7965
  140.4668  143.2428  151.9144 LP  0  0  0  0  0  0  0  0  0  0  0  0  # atno 17342 bound_to 10162
  139.4783  144.5411  151.8527 LP  0  0  0  0  0  0  0  0  0  0  0  0  # atno 17343 bound_to 10162
  157.6901  130.9225  150.0490 LP  0  0  0  0  0  0  0  0  0  0  0  0  # atno 17370 bound_to 10713
  156.1599  130.3643  149.9314 LP  0  0  0  0  0  0  0  0  0  0  0  0  # atno 17371 bound_to 10713
  140.2962  134.8201  157.4059 LP  0  0  0  0  0  0  0  0  0  0  0  0  # atno 17394 bound_to 11000
  140.1303  134.5104  155.8111 LP  0  0  0  0  0  0  0  0  0  0  0  0  # atno 17395 bound_to 11000

$$$$
