AV-unprocessed.smi:3183|AV-procd|sdf|12158|dock1
  -GOLD-   2272017593D 1   1.00000     0.00000
 Structure written by MMmdl.
 43 44  0  0  0  0  0  0  0  0  2 V2000
  147.3185  132.7720  153.2674 C   0  0  0  0  0  0  0  0  0  0  0  0
  146.1841  133.5755  152.6068 C   0  0  1  0  0  0  0  0  0  0  0  0
  145.8739  134.8290  153.4498 C   0  0  0  0  0  0  0  0  0  0  0  0
  144.7349  135.6659  152.8472 C   0  0  0  0  0  0  0  0  0  0  0  0
  145.0203  136.0631  151.3896 C   0  0  1  0  0  0  0  0  0  0  0  0
  146.1069  137.0663  151.3173 N   0  3  0  0  0  0  0  0  0  0  0  0
  146.0580  138.1146  152.3556 C   0  0  0  0  0  0  0  0  0  0  0  0
  146.8260  139.3676  151.9099 C   0  0  0  0  0  0  0  0  0  0  0  0
  147.1223  140.3348  153.0160 C   0  0  0  0  0  0  0  0  0  0  0  0
  146.6678  141.6063  153.2393 C   0  0  0  0  0  0  0  0  0  0  0  0
  147.3066  141.9997  154.4468 C   0  0  0  0  0  0  0  0  0  0  0  0
  148.0916  141.0560  154.9342 N   0  0  0  0  0  0  0  0  0  0  0  0
  147.9815  140.0338  154.0603 N   0  0  0  0  0  0  0  0  0  0  0  0
  148.7370  138.8225  154.3187 C   0  0  0  0  0  0  0  0  0  0  0  0
  145.3582  134.8239  150.5409 C   0  0  0  0  0  0  0  0  0  0  0  0
  146.4963  133.9655  151.1375 C   0  0  2  0  0  0  0  0  0  0  0  0
  146.7510  132.7434  150.2369 C   0  0  0  0  0  0  0  0  0  0  0  0
  148.2632  133.3156  153.2319 H   0  0  0  0  0  0  0  0  0  0  0  0
  147.4674  131.8072  152.7833 H   0  0  0  0  0  0  0  0  0  0  0  0
  147.0947  132.5666  154.3146 H   0  0  0  0  0  0  0  0  0  0  0  0
  145.2925  132.9463  152.6094 H   0  0  0  0  0  0  0  0  0  0  0  0
  145.6020  134.5347  154.4642 H   0  0  0  0  0  0  0  0  0  0  0  0
  146.7714  135.4422  153.5430 H   0  0  0  0  0  0  0  0  0  0  0  0
  143.8120  135.0856  152.8857 H   0  0  0  0  0  0  0  0  0  0  0  0
  144.5588  136.5543  153.4552 H   0  0  0  0  0  0  0  0  0  0  0  0
  144.1103  136.5073  150.9826 H   0  0  0  0  0  0  0  0  0  0  0  0
  146.9896  136.5814  151.3947 H   0  0  0  0  0  0  0  0  0  0  0  0
  145.0161  138.3662  152.5587 H   0  0  0  0  0  0  0  0  0  0  0  0
  146.4868  137.7213  153.2786 H   0  0  0  0  0  0  0  0  0  0  0  0
  147.7646  139.0635  151.4446 H   0  0  0  0  0  0  0  0  0  0  0  0
  146.2526  139.8797  151.1358 H   0  0  0  0  0  0  0  0  0  0  0  0
  145.9797  142.1763  152.6327 H   0  0  0  0  0  0  0  0  0  0  0  0
  147.2240  142.9356  154.9797 H   0  0  0  0  0  0  0  0  0  0  0  0
  148.5632  138.0801  153.5406 H   0  0  0  0  0  0  0  0  0  0  0  0
  148.4370  138.4007  155.2785 H   0  0  0  0  0  0  0  0  0  0  0  0
  149.8021  139.0539  154.3503 H   0  0  0  0  0  0  0  0  0  0  0  0
  144.4620  134.2084  150.4483 H   0  0  0  0  0  0  0  0  0  0  0  0
  145.6137  135.1336  149.5264 H   0  0  0  0  0  0  0  0  0  0  0  0
  147.4071  134.5662  151.1331 H   0  0  0  0  0  0  0  0  0  0  0  0
  145.9084  132.0514  150.2585 H   0  0  0  0  0  0  0  0  0  0  0  0
  147.6429  132.1953  150.5397 H   0  0  0  0  0  0  0  0  0  0  0  0
  146.9037  133.0451  149.2004 H   0  0  0  0  0  0  0  0  0  0  0  0
  146.0662  137.5111  150.4115 H   0  0  0  0  0  0  0  0  0  0  0  0
  1  2  1  0  0  0  0
  1 18  1  0  0  0  0
  1 19  1  0  0  0  0
  1 20  1  0  0  0  0
  2 16  1  0  0  0  0
  2  3  1  0  0  0  0
  2 21  1  0  0  0  0
  3  4  1  0  0  0  0
  3 22  1  0  0  0  0
  3 23  1  0  0  0  0
  4  5  1  0  0  0  0
  4 24  1  0  0  0  0
  4 25  1  0  0  0  0
  5  6  1  0  0  0  0
  5 15  1  0  0  0  0
  5 26  1  0  0  0  0
  6  7  1  0  0  0  0
  6 27  1  0  0  0  0
  6 43  1  0  0  0  0
  7  8  1  0  0  0  0
  7 28  1  0  0  0  0
  7 29  1  0  0  0  0
  8  9  1  0  0  0  0
  8 30  1  0  0  0  0
  8 31  1  0  0  0  0
  9 13  1  0  0  0  0
  9 10  2  0  0  0  0
 10 11  1  0  0  0  0
 10 32  1  0  0  0  0
 11 12  2  0  0  0  0
 11 33  1  0  0  0  0
 12 13  1  0  0  0  0
 13 14  1  0  0  0  0
 14 34  1  0  0  0  0
 14 35  1  0  0  0  0
 14 36  1  0  0  0  0
 15 16  1  0  0  0  0
 15 37  1  0  0  0  0
 15 38  1  0  0  0  0
 16 17  1  0  0  0  0
 16 39  1  0  0  0  0
 17 40  1  0  0  0  0
 17 41  1  0  0  0  0
 17 42  1  0  0  0  0
M  CHG  1   6   1
M  END
> <s_m_source_file>
AV-unprocessed.smi

> <i_m_source_file_index>
3183

> <i_lp_mmshare_version>
43012

> <i_f3d_flags>
0

> <s_epik_input>
W0NIM11bQ0BASF0xW0NIMl1bQ0gyXVtDQEhdKFtDSDJdW0NASF0xW0NIM10pW05IXVtDSDJdW0NIMl1jMltjSF1bY0hdbm4yW0NIM10=

> <s_epik_cmdline>
J2VwaWtfcHl0aG9uJywgJy1waCcsICc3LjAnLCAnLXRuJywgJzgnLCAnLW1hJywgJzIwMCcsICctbWV0YWxfYmluZGluZycsICctaW1hZScsICc8aW5maWxlLm1hZT4nLCAnLW9tYWUnLCAnPG91dGZpbGUubWFlPic=

> <r_lp_tautomer_probability>
1

> <r_epik_Ionization_Penalty>
0.000327718

> <r_epik_Ionization_Penalty_Charging>
0.000294043

> <r_epik_Ionization_Penalty_Neutral>
3.36755e-05

> <r_epik_State_Penalty>
-0

> <r_epik_Charging_Adjusted_Penalty>
0.000294043

> <i_epik_Tot_Q>
1

> <i_epik_Tot_abs_Q>
1

> <r_epik_Metal_State_Penalty>
-0

> <b_epik_Metal_Only>
0

> <s_lp_Force_Field>
OPLS_2005

> <r_lp_Energy>
17.888

> <b_lp_Chiralities_Consistent>
1

> <s_lp_Variant>
AV-unprocessed.smi:3183-6

> <Gold.Version>
5.8.1

> <Gold.Id.Protein>
6NUR|6NUR_protein|mol2

> <Gold.PLP.Fitness>
39.4676

> <Gold.PLP.PLP>
-31.1260

> <Gold.PLP.part.hbond>
-1.6800

> <Gold.PLP.part.metal>
0.0000

> <Gold.PLP.part.buried>
2.5925

> <Gold.PLP.part.nonpolar>
-31.8483

> <Gold.PLP.part.repulsive>
0.1935

> <Gold.PLP.ligand.clash>
0.0000

> <Gold.PLP.ligand.torsion>
0.3510

> <Gold.PLP.Chemscore.Hbond>
2.0000

> <Gold.PLP.Chemscore.CHOScore>
1.0000

> <Gold.PLP.Chemscore.Metal>
0.0000

> <Gold.Chemscore.Hbonds>
donor molecule, donor type, donor heavy atom, donor atom, acceptor molecule, acceptor atom, score
      L1  H     6    27       P1  7948  2.00
      L1  C    11    33       P1  8028  1.00

> <Gold.PLP.Chemscore.Internal.Correction>
0.0436

> <Gold.Rescore>
     Score         DG    S(hbond)    S(metal)    S(lipo)     H(rot)  DE(clash)    DE(int)     intcor
     14.03     -14.68       0.98        0.00      80.84       1.38       0.28       0.38       ----

> <Gold.Chemscore.Fitness>
14.0299

> <Gold.Chemscore.DG>
-14.6826

> <Gold.Chemscore.ZeroCoef>
-5.4800

> <Gold.Chemscore.Hbond>
0.9787

> <Gold.Chemscore.Metal>
0.0000

> <Gold.Chemscore.Lipo>
80.8409

> <Gold.Chemscore.Internal_Hbond>
0.0000

> <Gold.Chemscore.DEClash>
0.2754

> <Gold.Chemscore.DEInternal>
0.3774

> <Gold.Chemscore.Rot>
1.3768

> <Gold.Chemscore.Internal.Correction>
   9.000000E+99

> <Gold.Chemscore.Hbonds>
donor molecule, donor type, donor heavy atom, donor atom, acceptor molecule, acceptor atom, score
      L1  H     6    27       P1  7948  0.95

> <Gold.Chemscore.Hbond.Weighted>
-3.2689

> <Gold.Chemscore.Metal.Weighted>
-0.0000

> <Gold.Chemscore.Lipo.Weighted>
-9.4584

> <Gold.Chemscore.Internal_Hbond.Weighted>
0.0000

> <Gold.Chemscore.DEClash.Weighted>
0.2754

> <Gold.Chemscore.DEInternal.Weighted>
0.3774

> <Gold.Chemscore.Rot.Weighted>
3.5247

> <Gold.Chemscore.Internal.Correction.Weighted>
   9.000000E+99

> <Gold.Protein.RotatedTorsions>
[ 6907 6896 6895 6894 ] final  117.32 input  -60.11 | X-H torsion
[ 7974 7965 7964 7962 ] final  174.83 input  175.53 | X-H torsion
[ 8008 7997 7996 7995 ] final -101.97 input   59.86 | X-H torsion
[ 10167 10162 10161 10158 ] final -173.58 input  -65.29 | X-H torsion
[ 10718 10713 10712 10709 ] final  -16.89 input   66.30 | X-H torsion
[ 10763 10752 10751 10750 ] final -134.86 input  -60.55 | X-H torsion
[ 11005 11000 10999 10996 ] final  -53.98 input  -57.11 | X-H torsion

> <Gold.Protein.ActiveResidues>
 VAL166  LYS551  ARG553  GLY616  TRP617  ASP618  TYR619  PRO620  LYS621  CYS622 
 ASP623  PHE694  ASN695  SER759  ASP760  ASP761  ALA762  ILE779  LEU786  VAL792 
 PHE793  MET794  SER795  GLU796  ALA797  LYS798  CYS799  TRP800  GLU811  SER814 

> <Gold.Protein.RotatedAtoms>
  152.4620  133.7841  159.6866 H   0  0  0  0  0  0  0  0  0  0  0  0  # atno 6907 bound_to 6896
  150.8567  133.7694  159.3012 H   0  0  0  0  0  0  0  0  0  0  0  0  # atno 6908 bound_to 6896
  151.5273  135.1071  159.9945 H   0  0  0  0  0  0  0  0  0  0  0  0  # atno 6909 bound_to 6896
  144.7213  139.9856  143.6439 H   0  0  0  0  0  0  0  0  0  0  0  0  # atno 7974 bound_to 7965
  154.8500  140.0431  157.1598 H   0  0  0  0  0  0  0  0  0  0  0  0  # atno 8008 bound_to 7997
  154.8953  140.2992  155.5327 H   0  0  0  0  0  0  0  0  0  0  0  0  # atno 8009 bound_to 7997
  156.2996  140.2386  156.3973 H   0  0  0  0  0  0  0  0  0  0  0  0  # atno 8010 bound_to 7997
  139.5680  144.1709  152.1342 H   0  0  0  0  0  0  0  0  0  0  0  0  # atno 10167 bound_to 10162
  156.5813  130.4775  149.6319 H   0  0  0  0  0  0  0  0  0  0  0  0  # atno 10718 bound_to 10713
  154.8712  135.3721  154.4804 H   0  0  0  0  0  0  0  0  0  0  0  0  # atno 10763 bound_to 10752
  153.5458  135.7025  153.5619 H   0  0  0  0  0  0  0  0  0  0  0  0  # atno 10764 bound_to 10752
  153.3761  135.4009  155.1787 H   0  0  0  0  0  0  0  0  0  0  0  0  # atno 10765 bound_to 10752
  141.1003  133.6619  156.4253 H   0  0  0  0  0  0  0  0  0  0  0  0  # atno 11005 bound_to 11000
  146.0453  139.3460  143.0672 LP  0  0  0  0  0  0  0  0  0  0  0  0  # atno 17320 bound_to 7965
  145.8284  140.9643  143.0862 LP  0  0  0  0  0  0  0  0  0  0  0  0  # atno 17321 bound_to 7965
  140.1236  144.5352  150.6847 LP  0  0  0  0  0  0  0  0  0  0  0  0  # atno 17342 bound_to 10162
  140.6964  143.2407  151.4988 LP  0  0  0  0  0  0  0  0  0  0  0  0  # atno 17343 bound_to 10162
  156.2629  130.6973  151.1747 LP  0  0  0  0  0  0  0  0  0  0  0  0  # atno 17370 bound_to 10713
  157.7326  131.0598  150.5621 LP  0  0  0  0  0  0  0  0  0  0  0  0  # atno 17371 bound_to 10713
  140.5038  134.6460  157.5259 LP  0  0  0  0  0  0  0  0  0  0  0  0  # atno 17394 bound_to 11000
  139.9852  134.7072  155.9786 LP  0  0  0  0  0  0  0  0  0  0  0  0  # atno 17395 bound_to 11000

$$$$
