AV-unprocessed.smi:1145|AV-procd|sdf|4884|dock7
  -GOLD-   22720 3453D 1   1.00000     0.00000
 Structure written by MMmdl.
 36 37  0  0  0  0  0  0  0  0  1 V2000
  153.0763  142.3304  162.4698 C   0  0  0  0  0  0  0  0  0  0  0  0
  153.5743  141.9499  161.0689 C   0  0  2  0  0  0  0  0  0  0  0  0
  152.4747  142.1582  160.0056 C   0  0  0  0  0  0  0  0  0  0  0  0
  152.2070  143.5624  159.7453 N   0  0  0  0  0  0  0  0  0  0  0  0
  152.3978  144.2676  158.5757 C   0  0  0  0  0  0  0  0  0  0  0  0
  151.9851  145.5492  158.8024 C   0  0  0  0  0  0  0  0  0  0  0  0
  151.5549  145.5310  160.1586 C   0  0  0  0  0  0  0  0  0  0  0  0
  151.6937  144.3419  160.7221 N   0  0  0  0  0  0  0  0  0  0  0  0
  154.0220  140.5580  161.0841 N   0  0  0  0  0  0  0  0  0  0  0  0
  155.1895  140.1147  161.5779 C   0  0  0  0  0  0  0  0  0  0  0  0
  156.0084  140.8438  162.1390 O   0  0  0  0  0  0  0  0  0  0  0  0
  155.4884  138.6229  161.3811 C   0  0  1  0  0  0  0  0  0  0  0  0
  154.4036  137.7609  162.0471 C   0  0  0  0  0  0  0  0  0  0  0  0
  154.7252  136.2643  161.9114 C   0  0  0  0  0  0  0  0  0  0  0  0
  155.1655  135.8586  160.4966 C   0  0  0  0  0  0  0  0  0  0  0  0
  155.1472  134.6727  160.1749 O   0  0  0  0  0  0  0  0  0  0  0  0
  155.5977  136.8096  159.6496 N   0  0  0  0  0  0  0  0  0  0  0  0
  155.5857  138.2537  159.8855 C   0  0  0  0  0  0  0  0  0  0  0  0
  152.7517  143.3708  162.5006 H   0  0  0  0  0  0  0  0  0  0  0  0
  153.8650  142.2107  163.2132 H   0  0  0  0  0  0  0  0  0  0  0  0
  152.2325  141.7100  162.7744 H   0  0  0  0  0  0  0  0  0  0  0  0
  154.4130  142.6084  160.8359 H   0  0  0  0  0  0  0  0  0  0  0  0
  152.7460  141.6647  159.0707 H   0  0  0  0  0  0  0  0  0  0  0  0
  151.5424  141.7001  160.3381 H   0  0  0  0  0  0  0  0  0  0  0  0
  152.7997  143.8017  157.6879 H   0  0  0  0  0  0  0  0  0  0  0  0
  151.9872  146.3733  158.1046 H   0  0  0  0  0  0  0  0  0  0  0  0
  151.1491  146.3409  160.7466 H   0  0  0  0  0  0  0  0  0  0  0  0
  153.4160  139.8845  160.6385 H   0  0  0  0  0  0  0  0  0  0  0  0
  156.4449  138.3932  161.8551 H   0  0  0  0  0  0  0  0  0  0  0  0
  154.3117  138.0173  163.1037 H   0  0  0  0  0  0  0  0  0  0  0  0
  153.4304  137.9643  161.5968 H   0  0  0  0  0  0  0  0  0  0  0  0
  155.5337  136.0033  162.5951 H   0  0  0  0  0  0  0  0  0  0  0  0
  153.8613  135.6689  162.2090 H   0  0  0  0  0  0  0  0  0  0  0  0
  155.9102  136.5074  158.7379 H   0  0  0  0  0  0  0  0  0  0  0  0
  154.7429  138.6654  159.3279 H   0  0  0  0  0  0  0  0  0  0  0  0
  156.4882  138.6843  159.4504 H   0  0  0  0  0  0  0  0  0  0  0  0
  1  2  1  0  0  0  0
  1 19  1  0  0  0  0
  1 20  1  0  0  0  0
  1 21  1  0  0  0  0
  2  3  1  0  0  0  0
  2  9  1  0  0  0  0
  2 22  1  0  0  0  0
  3  4  1  0  0  0  0
  3 23  1  0  0  0  0
  3 24  1  0  0  0  0
  4  8  1  0  0  0  0
  4  5  1  0  0  0  0
  5  6  2  0  0  0  0
  5 25  1  0  0  0  0
  6  7  1  0  0  0  0
  6 26  1  0  0  0  0
  7  8  2  0  0  0  0
  7 27  1  0  0  0  0
  9 10  1  0  0  0  0
  9 28  1  0  0  0  0
 10 11  2  0  0  0  0
 10 12  1  0  0  0  0
 12 18  1  0  0  0  0
 12 13  1  0  0  0  0
 12 29  1  0  0  0  0
 13 14  1  0  0  0  0
 13 30  1  0  0  0  0
 13 31  1  0  0  0  0
 14 15  1  0  0  0  0
 14 32  1  0  0  0  0
 14 33  1  0  0  0  0
 15 16  2  0  0  0  0
 15 17  1  0  0  0  0
 17 18  1  0  0  0  0
 17 34  1  0  0  0  0
 18 35  1  0  0  0  0
 18 36  1  0  0  0  0
M  END
> <s_m_source_file>
AV-unprocessed.smi

> <i_m_source_file_index>
1145

> <i_lp_mmshare_version>
43012

> <i_f3d_flags>
0

> <s_epik_input>
bjFbY0hdW2NIXVtjSF1uMVtDSDJdW0NAQEhdKFtDSDNdKVtOSF1DKD1PKVtDQEBIXTJbQ0gyXVtDSDJdQyg9TylbTkhdW0NIMl0y

> <s_epik_cmdline>
J2VwaWtfcHl0aG9uJywgJy1waCcsICc3LjAnLCAnLXRuJywgJzgnLCAnLW1hJywgJzIwMCcsICctbWV0YWxfYmluZGluZycsICctaW1hZScsICc8aW5maWxlLm1hZT4nLCAnLW9tYWUnLCAnPG91dGZpbGUubWFlPic=

> <r_lp_tautomer_probability>
1

> <r_epik_Ionization_Penalty>
0.000314064

> <r_epik_Ionization_Penalty_Charging>
0

> <r_epik_Ionization_Penalty_Neutral>
0.000314064

> <r_epik_State_Penalty>
-0

> <r_epik_Charging_Adjusted_Penalty>
0

> <i_epik_Tot_Q>
0

> <i_epik_Tot_abs_Q>
0

> <r_epik_Metal_State_Penalty>
-0

> <b_epik_Metal_Only>
0

> <s_lp_Force_Field>
OPLS_2005

> <r_lp_Energy>
12.228

> <b_lp_Chiralities_Consistent>
1

> <s_lp_Variant>
AV-unprocessed.smi:1145-3

> <Gold.Version>
5.8.1

> <Gold.Id.Protein>
6NUR|6NUR_protein|mol2

> <Gold.PLP.Fitness>
42.9304

> <Gold.PLP.PLP>
-40.6376

> <Gold.PLP.part.hbond>
-1.9292

> <Gold.PLP.part.metal>
0.0000

> <Gold.PLP.part.buried>
-4.7211

> <Gold.PLP.part.nonpolar>
-34.0974

> <Gold.PLP.part.repulsive>
0.1784

> <Gold.PLP.ligand.clash>
0.0000

> <Gold.PLP.ligand.torsion>
0.3686

> <Gold.PLP.Chemscore.Hbond>
1.0000

> <Gold.PLP.Chemscore.CHOScore>
0.0000

> <Gold.PLP.Chemscore.Metal>
0.0000

> <Gold.PLP.Chemscore.Internal.Correction>
0.0299

> <Gold.Rescore>
     Score         DG    S(hbond)    S(metal)    S(lipo)     H(rot)  DE(clash)    DE(int)     intcor
     10.41     -14.62       0.78        0.00      95.20       1.80       2.33       1.88       ----

> <Gold.Chemscore.Fitness>
10.4118

> <Gold.Chemscore.DG>
-14.6219

> <Gold.Chemscore.ZeroCoef>
-5.4800

> <Gold.Chemscore.Hbond>
0.7804

> <Gold.Chemscore.Metal>
0.0000

> <Gold.Chemscore.Lipo>
95.2042

> <Gold.Chemscore.Internal_Hbond>
0.0000

> <Gold.Chemscore.DEClash>
2.3326

> <Gold.Chemscore.DEInternal>
1.8775

> <Gold.Chemscore.Rot>
1.7982

> <Gold.Chemscore.Internal.Correction>
   9.000000E+99

> <Gold.Chemscore.Hbond.Weighted>
-2.6064

> <Gold.Chemscore.Metal.Weighted>
-0.0000

> <Gold.Chemscore.Lipo.Weighted>
-11.1389

> <Gold.Chemscore.Internal_Hbond.Weighted>
0.0000

> <Gold.Chemscore.DEClash.Weighted>
2.3326

> <Gold.Chemscore.DEInternal.Weighted>
1.8775

> <Gold.Chemscore.Rot.Weighted>
4.6035

> <Gold.Chemscore.Internal.Correction.Weighted>
   9.000000E+99

> <Gold.Protein.RotatedTorsions>
[ 6907 6896 6895 6894 ] final -160.67 input  -60.11 | X-H torsion
[ 7974 7965 7964 7962 ] final  -38.16 input  175.53 | X-H torsion
[ 8008 7997 7996 7995 ] final  -14.32 input   59.86 | X-H torsion
[ 10167 10162 10161 10158 ] final -126.76 input  -65.29 | X-H torsion
[ 10718 10713 10712 10709 ] final -162.61 input   66.30 | X-H torsion
[ 10763 10752 10751 10750 ] final -124.20 input  -60.55 | X-H torsion
[ 11005 11000 10999 10996 ] final -149.36 input  -57.11 | X-H torsion

> <Gold.Protein.ActiveResidues>
 VAL166  LYS551  ARG553  GLY616  TRP617  ASP618  TYR619  PRO620  LYS621  CYS622 
 ASP623  PHE694  ASN695  SER759  ASP760  ASP761  ALA762  ILE779  LEU786  VAL792 
 PHE793  MET794  SER795  GLU796  ALA797  LYS798  CYS799  TRP800  GLU811  SER814 

> <Gold.Protein.RotatedAtoms>
  151.3527  133.3919  159.2681 H   0  0  0  0  0  0  0  0  0  0  0  0  # atno 6907 bound_to 6896
  150.9788  134.9148  159.7842 H   0  0  0  0  0  0  0  0  0  0  0  0  # atno 6908 bound_to 6896
  152.5210  134.3491  159.9297 H   0  0  0  0  0  0  0  0  0  0  0  0  # atno 6909 bound_to 6896
  146.0511  140.6480  142.9041 H   0  0  0  0  0  0  0  0  0  0  0  0  # atno 7974 bound_to 7965
  154.5219  140.2226  155.8959 H   0  0  0  0  0  0  0  0  0  0  0  0  # atno 8008 bound_to 7997
  156.1672  140.3129  155.8874 H   0  0  0  0  0  0  0  0  0  0  0  0  # atno 8009 bound_to 7997
  155.3633  140.0462  157.3037 H   0  0  0  0  0  0  0  0  0  0  0  0  # atno 8010 bound_to 7997
  139.9681  143.5876  152.2422 H   0  0  0  0  0  0  0  0  0  0  0  0  # atno 10167 bound_to 10162
  156.6129  130.8858  151.2940 H   0  0  0  0  0  0  0  0  0  0  0  0  # atno 10718 bound_to 10713
  154.8719  135.4072  154.3066 H   0  0  0  0  0  0  0  0  0  0  0  0  # atno 10763 bound_to 10752
  153.3917  135.7015  153.6495 H   0  0  0  0  0  0  0  0  0  0  0  0  # atno 10764 bound_to 10752
  153.5275  135.3674  155.2632 H   0  0  0  0  0  0  0  0  0  0  0  0  # atno 10765 bound_to 10752
  140.7516  134.3400  157.5124 H   0  0  0  0  0  0  0  0  0  0  0  0  # atno 11005 bound_to 11000
  144.7123  140.4084  143.7071 LP  0  0  0  0  0  0  0  0  0  0  0  0  # atno 17320 bound_to 7965
  145.6723  139.1601  143.2747 LP  0  0  0  0  0  0  0  0  0  0  0  0  # atno 17321 bound_to 7965
  139.6502  144.7660  151.2163 LP  0  0  0  0  0  0  0  0  0  0  0  0  # atno 17342 bound_to 10162
  140.7531  143.6173  150.8547 LP  0  0  0  0  0  0  0  0  0  0  0  0  # atno 17343 bound_to 10162
  157.7249  130.9609  150.1593 LP  0  0  0  0  0  0  0  0  0  0  0  0  # atno 17370 bound_to 10713
  156.2375  130.3688  149.8375 LP  0  0  0  0  0  0  0  0  0  0  0  0  # atno 17371 bound_to 10713
  139.8786  134.9145  156.3109 LP  0  0  0  0  0  0  0  0  0  0  0  0  # atno 17394 bound_to 11000
  140.9746  133.7306  156.0583 LP  0  0  0  0  0  0  0  0  0  0  0  0  # atno 17395 bound_to 11000

$$$$
