#       Name:                AV-unprocessed.smi:2201
#       Creating user name   scv26
#       Creation time:       Fri Mar 27 12:14:21 2020


#       File generated by GOLD software.
#

@<TRIPOS>MOLECULE
AV-unprocessed.smi:2201
    36    36     1
SMALL
NO_CHARGES


@<TRIPOS>ATOM
      1 ****        -3.6914  -0.4218  -1.1930 C.3            1 S1                 0.0000
      2 ****        -2.8720  -0.2230   0.1037 C.3            1 S1                 0.0000
      3 ****        -3.0740   1.2345   0.5789 C.3            1 S1                 0.0000
      4 ****        -3.4155  -1.2006   1.1707 C.3            1 S1                 0.0000
      5 ****        -1.3656  -0.5017  -0.1622 C.2            1 S1                 0.0000
      6 ****        -0.9953  -0.8500  -1.2862 O.2            1 S1                 0.0000
      7 ****        -0.5937  -0.3203   0.9400 N.pl3          1 S1                -1.0000
      8 ****         0.7309  -0.5193   0.8643 C.2            1 S1                 0.0000
      9 ****         1.6088   0.4743   0.6892 N.2            1 S1                 0.0000
     10 ****         2.9379   0.0442   0.6318 C.2            1 S1                 0.0000
     11 ****         4.0461   1.0385   0.4247 C.3            1 S1                 0.0000
     12 ****         4.1510   1.4703  -1.0426 C.2            1 S1                 0.0000
     13 ****         4.2182   0.5108  -1.9709 N.am           1 S1                 0.0000
     14 ****         4.1945   2.6635  -1.3354 O.2            1 S1                 0.0000
     15 ****         3.0695  -1.3114   0.7914 C.2            1 S1                 0.0000
     16 ****         1.5266  -2.0880   1.0020 S.3            1 S1                 0.0000
     17 ****        -4.7514  -0.2305  -1.0238 H              1 S1                 0.0000
     18 ****        -3.6060  -1.4412  -1.5720 H              1 S1                 0.0000
     19 ****        -3.3649   0.2559  -1.9833 H              1 S1                 0.0000
     20 ****        -2.6385   1.9466  -0.1234 H              1 S1                 0.0000
     21 ****        -2.6209   1.4149   1.5545 H              1 S1                 0.0000
     22 ****        -4.1334   1.4748   0.6721 H              1 S1                 0.0000
     23 ****        -4.4904  -1.0775   1.3060 H              1 S1                 0.0000
     24 ****        -2.9526  -1.0431   2.1456 H              1 S1                 0.0000
     25 ****        -3.2397  -2.2387   0.8860 H              1 S1                 0.0000
     26 ****         3.8852   1.9193   1.0479 H              1 S1                 0.0000
     27 ****         5.0037   0.6168   0.7316 H              1 S1                 0.0000
     28 ****         4.3173   0.7590  -2.9447 H              1 S1                 0.0000
     29 ****         4.1988  -0.4590  -1.6914 H              1 S1                 0.0000
     30 ****         3.9753  -1.8985   0.7953 H              1 S1                 0.0000
     31 ****        -1.6633  -0.9524  -2.0233 LP             1 S1                 0.0000
     32 ****        -0.0271  -1.0300  -1.4603 LP             1 S1                 0.0000
     33 ****        -1.0107  -0.0396   1.8044 LP             1 S1                 0.0000
     34 ****         1.3400   1.4340   0.6071 LP             1 S1                 0.0000
     35 ****         4.1615   3.3565  -0.6153 LP             1 S1                 0.0000
     36 ****         4.2629   2.9410  -2.2937 LP             1 S1                 0.0000
@<TRIPOS>BOND
    1    1    2 1     
    2    1   17 1     
    3    1   18 1     
    4    1   19 1     
    5    2    3 1     
    6    2    4 1     
    7    2    5 1     
    8    3   20 1     
    9    3   21 1     
   10    3   22 1     
   11    4   23 1     
   12    4   24 1     
   13    4   25 1     
   14    5    6 2     
   15    5    7 1     
   16    7    8 1     
   17    8   16 1     
   18    8    9 2     
   19    9   10 1     
   20   10   11 1     
   21   10   15 2     
   22   11   12 1     
   23   11   26 1     
   24   11   27 1     
   25   12   13 am    
   26   12   14 2     
   27   13   28 1     
   28   13   29 1     
   29   15   16 1     
   30   15   30 1     
   31    6   31 1     
   32    6   32 1     
   33    7   33 1     
   34    9   34 1     
   35   14   35 1     
   36   14   36 1     
@<TRIPOS>SUBSTRUCTURE
      1 S1             1
@<TRIPOS>SET
LONE_PAIRS      STATIC     ATOMS    <user>   **** ""
6 31 32 33 34 35 36
DONOR_HYDROGENS      STATIC     ATOMS    <user>   **** ""
2 28 29
ATOM$BLUE        STATIC     ATOMS    COLORGROUP SYSTEM
6 31 32 33 34 35 36
ATOM$RED        STATIC     ATOMS    COLORGROUP SYSTEM
2 28 29
