AV-unprocessed.smi:2974|AV-procd|sdf|11353|dock1
  -GOLD-   2272016273D 1   1.00000     0.00000
 Structure written by MMmdl.
 27 28  0  0  0  0  0  0  0  0  3 V2000
  150.9863  140.1177  156.1635 O   0  0  0  0  0  0  0  0  0  0  0  0
  150.4026  141.2066  156.3573 C   0  0  0  0  0  0  0  0  0  0  0  0
  149.3795  141.5497  155.7238 O   0  5  0  0  0  0  0  0  0  0  0  0
  150.9496  142.1443  157.3929 C   0  0  0  0  0  0  0  0  0  0  0  0
  151.7659  141.6953  158.4567 C   0  0  0  0  0  0  0  0  0  0  0  0
  152.2530  142.6214  159.4035 C   0  0  0  0  0  0  0  0  0  0  0  0
  153.0629  142.1659  160.4528 N   0  0  0  0  0  0  0  0  0  0  0  0
  154.3063  141.5534  160.0021 C   0  0  0  0  0  0  0  0  0  0  0  0
  155.0721  140.9714  161.2031 C   0  0  0  0  0  0  0  0  0  0  0  0
  155.2883  141.9937  162.1718 O   0  0  0  0  0  0  0  0  0  0  0  0
  154.0640  142.5312  162.6641 C   0  0  0  0  0  0  0  0  0  0  0  0
  153.2717  143.1557  161.5023 C   0  0  0  0  0  0  0  0  0  0  0  0
  151.9099  143.9870  159.2631 C   0  0  0  0  0  0  0  0  0  0  0  0
  151.0939  144.3832  158.1852 C   0  0  0  0  0  0  0  0  0  0  0  0
  150.6515  143.4609  157.3043 N   0  3  0  0  0  0  0  0  0  0  0  0
  152.0189  140.6484  158.5493 H   0  0  0  0  0  0  0  0  0  0  0  0
  154.0906  140.7654  159.2793 H   0  0  0  0  0  0  0  0  0  0  0  0
  154.9243  142.2965  159.4964 H   0  0  0  0  0  0  0  0  0  0  0  0
  154.5225  140.1417  161.6505 H   0  0  0  0  0  0  0  0  0  0  0  0
  156.0360  140.5780  160.8803 H   0  0  0  0  0  0  0  0  0  0  0  0
  153.4827  141.7496  163.1562 H   0  0  0  0  0  0  0  0  0  0  0  0
  154.2851  143.2865  163.4182 H   0  0  0  0  0  0  0  0  0  0  0  0
  153.8176  144.0117  161.1031 H   0  0  0  0  0  0  0  0  0  0  0  0
  152.3096  143.5237  161.8611 H   0  0  0  0  0  0  0  0  0  0  0  0
  152.2657  144.7232  159.9688 H   0  0  0  0  0  0  0  0  0  0  0  0
  150.7842  145.4014  158.0014 H   0  0  0  0  0  0  0  0  0  0  0  0
  150.0612  143.7630  156.5283 H   0  0  0  0  0  0  0  0  0  0  0  0
  1  2  2  0  0  0  0
  2  3  1  0  0  0  0
  2  4  1  0  0  0  0
  4 15  1  0  0  0  0
  4  5  2  0  0  0  0
  5  6  1  0  0  0  0
  5 16  1  0  0  0  0
  6  7  1  0  0  0  0
  6 13  2  0  0  0  0
  7 12  1  0  0  0  0
  7  8  1  0  0  0  0
  8  9  1  0  0  0  0
  8 17  1  0  0  0  0
  8 18  1  0  0  0  0
  9 10  1  0  0  0  0
  9 19  1  0  0  0  0
  9 20  1  0  0  0  0
 10 11  1  0  0  0  0
 11 12  1  0  0  0  0
 11 21  1  0  0  0  0
 11 22  1  0  0  0  0
 12 23  1  0  0  0  0
 12 24  1  0  0  0  0
 13 14  1  0  0  0  0
 13 25  1  0  0  0  0
 14 15  2  0  0  0  0
 14 26  1  0  0  0  0
 15 27  1  0  0  0  0
M  CHG  1   3  -1
M  CHG  1  15   1
M  END
> <s_m_source_file>
AV-unprocessed.smi

> <i_m_source_file_index>
2974

> <i_lp_mmshare_version>
43012

> <i_f3d_flags>
0

> <s_epik_input>
Tz1DKFtPSF0pYzFbY0hdYyhbY0hdW2NIXW4xKU4yW0NIMl1bQ0gyXU9bQ0gyXVtDSDJdMg==

> <s_epik_cmdline>
J2VwaWtfcHl0aG9uJywgJy1waCcsICc3LjAnLCAnLXRuJywgJzgnLCAnLW1hJywgJzIwMCcsICctbWV0YWxfYmluZGluZycsICctaW1hZScsICc8aW5maWxlLm1hZT4nLCAnLW9tYWUnLCAnPG91dGZpbGUubWFlPic=

> <r_epik_Ionization_Penalty>
0.0248724

> <r_epik_Ionization_Penalty_Charging>
0.0248724

> <r_epik_Ionization_Penalty_Neutral>
3.18831e-12

> <r_epik_State_Penalty>
0.0202062

> <r_epik_Charging_Adjusted_Penalty>
0.0450787

> <i_epik_Tot_Q>
0

> <i_epik_Tot_abs_Q>
2

> <r_epik_Metal_State_Penalty>
2.1181

> <b_epik_Metal_Only>
0

> <s_lp_Force_Field>
OPLS_2005

> <r_lp_Energy>
18.0137

> <b_lp_Chiralities_Consistent>
1

> <s_lp_Variant>
AV-unprocessed.smi:2974-1

> <Gold.Version>
5.8.1

> <Gold.Id.Protein>
6NUR|6NUR_protein|mol2

> <Gold.PLP.Fitness>
40.9566

> <Gold.PLP.PLP>
-36.3849

> <Gold.PLP.part.hbond>
-2.0000

> <Gold.PLP.part.metal>
0.0000

> <Gold.PLP.part.buried>
-5.3620

> <Gold.PLP.part.nonpolar>
-29.7989

> <Gold.PLP.part.repulsive>
0.2054

> <Gold.PLP.ligand.clash>
0.0205

> <Gold.PLP.ligand.torsion>
0.3525

> <Gold.PLP.Chemscore.Hbond>
1.7280

> <Gold.PLP.Chemscore.CHOScore>
0.0000

> <Gold.PLP.Chemscore.Metal>
0.0000

> <Gold.Chemscore.Hbonds>
donor molecule, donor type, donor heavy atom, donor atom, acceptor molecule, acceptor atom, score
      L1  H    15    27       P1  8028  2.00

> <Gold.PLP.Chemscore.Internal.Correction>
0.1132

> <Gold.Rescore>
     Score         DG    S(hbond)    S(metal)    S(lipo)     H(rot)  DE(clash)    DE(int)     intcor
     15.09     -16.66       0.97        0.00      89.76       1.00       1.50       0.07       ----

> <Gold.Chemscore.Fitness>
15.0888

> <Gold.Chemscore.DG>
-16.6582

> <Gold.Chemscore.ZeroCoef>
-5.4800

> <Gold.Chemscore.Hbond>
0.9691

> <Gold.Chemscore.Metal>
0.0000

> <Gold.Chemscore.Lipo>
89.7550

> <Gold.Chemscore.Internal_Hbond>
0.0000

> <Gold.Chemscore.DEClash>
1.4975

> <Gold.Chemscore.DEInternal>
0.0719

> <Gold.Chemscore.Rot>
1.0000

> <Gold.Chemscore.Internal.Correction>
   9.000000E+99

> <Gold.Chemscore.Hbonds>
donor molecule, donor type, donor heavy atom, donor atom, acceptor molecule, acceptor atom, score
      L1  H    15    27       P1  8028  0.99

> <Gold.Chemscore.Hbond.Weighted>
-3.2369

> <Gold.Chemscore.Metal.Weighted>
-0.0000

> <Gold.Chemscore.Lipo.Weighted>
-10.5013

> <Gold.Chemscore.Internal_Hbond.Weighted>
0.0000

> <Gold.Chemscore.DEClash.Weighted>
1.4975

> <Gold.Chemscore.DEInternal.Weighted>
0.0719

> <Gold.Chemscore.Rot.Weighted>
2.5600

> <Gold.Chemscore.Internal.Correction.Weighted>
   9.000000E+99

> <Gold.Protein.RotatedTorsions>
[ 6907 6896 6895 6894 ] final    1.41 input  -60.11 | X-H torsion
[ 7974 7965 7964 7962 ] final  -32.17 input  175.53 | X-H torsion
[ 8008 7997 7996 7995 ] final  143.25 input   59.86 | X-H torsion
[ 10167 10162 10161 10158 ] final  -39.44 input  -65.29 | X-H torsion
[ 10718 10713 10712 10709 ] final  -69.49 input   66.30 | X-H torsion
[ 10763 10752 10751 10750 ] final -170.83 input  -60.55 | X-H torsion
[ 11005 11000 10999 10996 ] final  156.98 input  -57.11 | X-H torsion

> <Gold.Protein.ActiveResidues>
 VAL166  LYS551  ARG553  GLY616  TRP617  ASP618  TYR619  PRO620  LYS621  CYS622 
 ASP623  PHE694  ASN695  SER759  ASP760  ASP761  ALA762  ILE779  LEU786  VAL792 
 PHE793  MET794  SER795  GLU796  ALA797  LYS798  CYS799  TRP800  GLU811  SER814 

> <Gold.Protein.RotatedAtoms>
  151.5921  135.1052  160.0041 H   0  0  0  0  0  0  0  0  0  0  0  0  # atno 6907 bound_to 6896
  152.4301  133.7258  159.6570 H   0  0  0  0  0  0  0  0  0  0  0  0  # atno 6908 bound_to 6896
  150.8192  133.8211  159.3169 H   0  0  0  0  0  0  0  0  0  0  0  0  # atno 6909 bound_to 6896
  146.1010  140.5759  142.8821 H   0  0  0  0  0  0  0  0  0  0  0  0  # atno 7974 bound_to 7965
  156.2934  140.2267  156.4860 H   0  0  0  0  0  0  0  0  0  0  0  0  # atno 8008 bound_to 7997
  154.7812  140.0460  157.1150 H   0  0  0  0  0  0  0  0  0  0  0  0  # atno 8009 bound_to 7997
  154.9756  140.3072  155.4972 H   0  0  0  0  0  0  0  0  0  0  0  0  # atno 8010 bound_to 7997
  140.7064  143.3214  151.2783 H   0  0  0  0  0  0  0  0  0  0  0  0  # atno 10167 bound_to 10162
  156.0453  130.4313  150.2155 H   0  0  0  0  0  0  0  0  0  0  0  0  # atno 10718 bound_to 10713
  154.6372  135.2894  155.0147 H   0  0  0  0  0  0  0  0  0  0  0  0  # atno 10763 bound_to 10752
  154.1287  135.6537  153.4921 H   0  0  0  0  0  0  0  0  0  0  0  0  # atno 10764 bound_to 10752
  153.0308  135.5305  154.7223 H   0  0  0  0  0  0  0  0  0  0  0  0  # atno 10765 bound_to 10752
  140.1726  134.8532  157.2708 H   0  0  0  0  0  0  0  0  0  0  0  0  # atno 11005 bound_to 11000
  144.7433  140.5001  143.6854 LP  0  0  0  0  0  0  0  0  0  0  0  0  # atno 17320 bound_to 7965
  145.5854  139.1491  143.3212 LP  0  0  0  0  0  0  0  0  0  0  0  0  # atno 17321 bound_to 7965
  139.6669  144.0089  152.2728 LP  0  0  0  0  0  0  0  0  0  0  0  0  # atno 17342 bound_to 10162
  139.9675  144.6516  150.8021 LP  0  0  0  0  0  0  0  0  0  0  0  0  # atno 17343 bound_to 10162
  157.0245  130.9989  151.3330 LP  0  0  0  0  0  0  0  0  0  0  0  0  # atno 17370 bound_to 10713
  157.5321  130.8065  149.7928 LP  0  0  0  0  0  0  0  0  0  0  0  0  # atno 17371 bound_to 10713
  140.2360  134.3853  155.7501 LP  0  0  0  0  0  0  0  0  0  0  0  0  # atno 17394 bound_to 11000
  141.2218  133.7239  156.8714 LP  0  0  0  0  0  0  0  0  0  0  0  0  # atno 17395 bound_to 11000

$$$$
