#       Name:                AV-unprocessed.smi:3228
#       Creating user name   scv26
#       Creation time:       Fri Mar 27 18:17:39 2020


#       File generated by GOLD software.
#

@<TRIPOS>MOLECULE
AV-unprocessed.smi:3228
    36    37     1
SMALL
NO_CHARGES


@<TRIPOS>ATOM
      1 ****        -0.8163   2.0929   1.4307 O.2            1 S1                 0.0000
      2 ****        -1.3163   1.2212   0.7157 C.2            1 S1                 0.0000
      3 ****        -0.5620   0.2045   0.2783 N.am           1 S1                 0.0000
      4 ****         0.8535   0.0197   0.5739 C.3            1 S1                 0.0000
      5 ****         1.3896  -1.2681  -0.0762 C.3            1 S1                 0.0000
      6 ****         1.2957  -1.2810  -1.6092 C.3            1 S1                 0.0000
      7 ****         2.4047  -2.2244  -2.1001 C.3            1 S1                 0.0000
      8 ****         3.2695  -2.5528  -0.8755 C.3            1 S1                 0.0000
      9 ****         2.8768  -1.5231   0.1865 C.3            1 S1                 0.0000
     10 ****         3.1165  -2.0102   1.4907 O.3            1 S1                 0.0000
     11 ****        -2.6019   1.1644   0.2989 N.pl3          1 S1                -1.0000
     12 ****        -3.4693   2.1220   0.6644 C.2            1 S1                 0.0000
     13 ****        -3.8072   3.1427  -0.1321 N.2            1 S1                 0.0000
     14 ****        -4.7297   4.0165   0.4461 C.2            1 S1                 0.0000
     15 ****        -5.1101   3.6476   1.7091 C.2            1 S1                 0.0000
     16 ****        -4.3155   2.1833   2.2133 S.3            1 S1                 0.0000
     17 ****        -1.0053  -0.4891  -0.3058 H              1 S1                 0.0000
     18 ****         1.4134   0.8859   0.2175 H              1 S1                 0.0000
     19 ****         0.9900  -0.0262   1.6554 H              1 S1                 0.0000
     20 ****         0.8216  -2.1205   0.3020 H              1 S1                 0.0000
     21 ****         0.3088  -1.5905  -1.9552 H              1 S1                 0.0000
     22 ****         1.4769  -0.2798  -2.0033 H              1 S1                 0.0000
     23 ****         1.9879  -3.1353  -2.5309 H              1 S1                 0.0000
     24 ****         2.9965  -1.7384  -2.8766 H              1 S1                 0.0000
     25 ****         3.0266  -3.5589  -0.5298 H              1 S1                 0.0000
     26 ****         4.3367  -2.5320  -1.0985 H              1 S1                 0.0000
     27 ****         3.4469  -0.6054   0.0338 H              1 S1                 0.0000
     28 ****         2.5906  -2.7841   1.6226 H              1 S1                 0.0000
     29 ****        -5.0629   4.8769  -0.1150 H              1 S1                 0.0000
     30 ****        -5.8050   4.1432   2.3699 H              1 S1                 0.0000
     31 ****         0.1500   2.0395   1.6825 LP             1 S1                 0.0000
     32 ****        -1.3772   2.8530   1.7586 LP             1 S1                 0.0000
     33 ****         2.8657  -1.3133   2.1626 LP             1 S1                 0.0000
     34 ****         4.0846  -2.2387   1.5929 LP             1 S1                 0.0000
     35 ****        -2.9064   0.4091  -0.2815 LP             1 S1                 0.0000
     36 ****        -3.4352   3.2674  -1.0519 LP             1 S1                 0.0000
@<TRIPOS>BOND
    1    1    2 2     
    2    2    3 am    
    3    2   11 1     
    4    3    4 1     
    5    3   17 1     
    6    4    5 1     
    7    4   18 1     
    8    4   19 1     
    9    5    9 1     
   10    5    6 1     
   11    5   20 1     
   12    6    7 1     
   13    6   21 1     
   14    6   22 1     
   15    7    8 1     
   16    7   23 1     
   17    7   24 1     
   18    8    9 1     
   19    8   25 1     
   20    8   26 1     
   21    9   10 1     
   22    9   27 1     
   23   10   28 1     
   24   11   12 1     
   25   12   16 1     
   26   12   13 2     
   27   13   14 1     
   28   14   15 2     
   29   14   29 1     
   30   15   16 1     
   31   15   30 1     
   32    1   31 1     
   33    1   32 1     
   34   10   33 1     
   35   10   34 1     
   36   11   35 1     
   37   13   36 1     
@<TRIPOS>SUBSTRUCTURE
      1 S1             1
@<TRIPOS>SET
LONE_PAIRS      STATIC     ATOMS    <user>   **** ""
6 31 32 33 34 35 36
DONOR_HYDROGENS      STATIC     ATOMS    <user>   **** ""
2 17 28
ATOM$BLUE        STATIC     ATOMS    COLORGROUP SYSTEM
6 31 32 33 34 35 36
ATOM$RED        STATIC     ATOMS    COLORGROUP SYSTEM
2 17 28
