#       Name:                AV-unprocessed.smi:223
#       Creating user name   scv26
#       Creation time:       Thu Mar 26 20:16:40 2020


#       File generated by GOLD software.
#

@<TRIPOS>MOLECULE
AV-unprocessed.smi:223
    55    58     1
SMALL
NO_CHARGES


@<TRIPOS>ATOM
      1 ****        -3.5572  -0.3629  -2.4162 C.3            1 S1                 0.0000
      2 ****        -2.0408  -0.1915  -2.5613 C.3            1 S1                 0.0000
      3 ****        -1.7183   0.6342  -3.7362 C.1            1 S1                 0.0000
      4 ****        -1.4640   1.2829  -4.6598 N.1            1 S1                 0.0000
      5 ****        -1.3299  -1.5565  -2.6275 C.3            1 S1                 0.0000
      6 ****         0.1277  -1.4370  -2.6288 N.pl3          1 S1                 0.0000
      7 ****         0.7860  -1.0324  -1.5013 C.ar           1 S1                 0.0000
      8 ****         2.1029  -0.7169  -1.6279 N.ar           1 S1                 0.0000
      9 ****         2.8196  -0.3040  -0.5807 C.ar           1 S1                 0.0000
     10 ****         2.4261  -0.1328   0.6797 N.ar           1 S1                 0.0000
     11 ****         1.1083  -0.4446   0.8303 C.ar           1 S1                 0.0000
     12 ****         0.2223  -0.9037  -0.1904 C.ar           1 S1                 0.0000
     13 ****        -1.0314  -1.1341   0.3707 N.2            1 S1                 0.0000
     14 ****        -0.8980  -0.8188   1.6285 C.2            1 S1                 0.0000
     15 ****         0.3541  -0.3823   1.9895 N.pl3          1 S1                 0.0000
     16 ****         0.7839   0.0347   3.3162 C.3            1 S1                 0.0000
     17 ****         0.6535   1.5570   3.5621 C.3            1 S1                 0.0000
     18 ****         1.4765   2.2485   2.6389 O.3            1 S1                 0.0000
     19 ****         1.0653   1.9672   4.9701 C.3            1 S1                 0.0000
     20 ****         0.2315   3.2180   5.2121 C.3            1 S1                 0.0000
     21 ****        -1.0137   2.8899   4.6190 O.3            1 S1                 0.0000
     22 ****        -0.7808   2.1136   3.4469 C.3            1 S1                 0.0000
     23 ****         0.8536  -2.3506  -3.5117 C.3            1 S1                 0.0000
     24 ****         1.8973  -1.8032  -4.4660 C.3            1 S1                 0.0000
     25 ****         0.5825  -2.3040  -5.0015 C.3            1 S1                 0.0000
     26 ****        -4.0547   0.6045  -2.3453 H              1 S1                 0.0000
     27 ****        -3.8030  -0.9283  -1.5170 H              1 S1                 0.0000
     28 ****        -3.9780  -0.8926  -3.2714 H              1 S1                 0.0000
     29 ****        -1.6844   0.3732  -1.7010 H              1 S1                 0.0000
     30 ****        -1.6464  -2.2079  -1.8141 H              1 S1                 0.0000
     31 ****        -1.6507  -2.0689  -3.5348 H              1 S1                 0.0000
     32 ****         3.8557  -0.0759  -0.7826 H              1 S1                 0.0000
     33 ****        -1.7161  -0.8965   2.3297 H              1 S1                 0.0000
     34 ****         0.1928  -0.5144   4.0502 H              1 S1                 0.0000
     35 ****         1.8177  -0.2833   3.4584 H              1 S1                 0.0000
     36 ****         1.3899   3.1762   2.7960 H              1 S1                 0.0000
     37 ****         0.7729   1.2009   5.6895 H              1 S1                 0.0000
     38 ****         2.1369   2.1367   5.0833 H              1 S1                 0.0000
     39 ****         0.1235   3.4568   6.2702 H              1 S1                 0.0000
     40 ****         0.6637   4.0818   4.7046 H              1 S1                 0.0000
     41 ****        -0.9188   2.7248   2.5534 H              1 S1                 0.0000
     42 ****        -1.5293   1.3224   3.4190 H              1 S1                 0.0000
     43 ****         1.0588  -3.3360  -3.0974 H              1 S1                 0.0000
     44 ****         2.0621  -0.7276  -4.4850 H              1 S1                 0.0000
     45 ****         2.7805  -2.4127  -4.6448 H              1 S1                 0.0000
     46 ****         0.5864  -3.2487  -5.5411 H              1 S1                 0.0000
     47 ****        -0.1161  -1.5575  -5.3749 H              1 S1                 0.0000
     48 ****        -1.2442   1.8437  -5.4581 LP             1 S1                 0.0000
     49 ****         2.5424  -0.7958  -2.5227 LP             1 S1                 0.0000
     50 ****         3.0202   0.1834   1.4193 LP             1 S1                 0.0000
     51 ****        -1.8536  -1.4681  -0.0902 LP             1 S1                 0.0000
     52 ****         1.1882   2.0362   1.7052 LP             1 S1                 0.0000
     53 ****         2.4295   1.9728   2.7643 LP             1 S1                 0.0000
     54 ****        -1.4995   3.7290   4.3741 LP             1 S1                 0.0000
     55 ****        -1.5644   2.3627   5.2661 LP             1 S1                 0.0000
@<TRIPOS>BOND
    1    1    2 1     
    2    1   26 1     
    3    1   27 1     
    4    1   28 1     
    5    2    3 1     
    6    2    5 1     
    7    2   29 1     
    8    3    4 3     
    9    5    6 1     
   10    5   30 1     
   11    5   31 1     
   12    6    7 1     
   13    6   23 1     
   14    7   12 ar    
   15    7    8 ar    
   16    8    9 ar    
   17    9   10 ar    
   18    9   32 1     
   19   10   11 ar    
   20   11   15 1     
   21   11   12 ar    
   22   12   13 1     
   23   13   14 2     
   24   14   15 1     
   25   14   33 1     
   26   15   16 1     
   27   16   17 1     
   28   16   34 1     
   29   16   35 1     
   30   17   22 1     
   31   17   18 1     
   32   17   19 1     
   33   18   36 1     
   34   19   20 1     
   35   19   37 1     
   36   19   38 1     
   37   20   21 1     
   38   20   39 1     
   39   20   40 1     
   40   21   22 1     
   41   22   41 1     
   42   22   42 1     
   43   23   25 1     
   44   23   24 1     
   45   23   43 1     
   46   24   25 1     
   47   24   44 1     
   48   24   45 1     
   49   25   46 1     
   50   25   47 1     
   51    4   48 1     
   52    8   49 1     
   53   10   50 1     
   54   13   51 1     
   55   18   52 1     
   56   18   53 1     
   57   21   54 1     
   58   21   55 1     
@<TRIPOS>SUBSTRUCTURE
      1 S1             1
@<TRIPOS>SET
LONE_PAIRS      STATIC     ATOMS    <user>   **** ""
8 48 49 50 51 52 53 54 55
DONOR_HYDROGENS      STATIC     ATOMS    <user>   **** ""
1 36
ATOM$BLUE        STATIC     ATOMS    COLORGROUP SYSTEM
8 48 49 50 51 52 53 54 55
ATOM$RED        STATIC     ATOMS    COLORGROUP SYSTEM
1 36
