AV-unprocessed.smi:1255|AV-procd|sdf|5281|dock7
  -GOLD-   22720 4403D 1   1.00000     0.00000
 Structure written by MMmdl.
 40 41  0  0  0  0  0  0  0  0  1 V2000
  143.3138  135.2627  153.2695 C   0  0  0  0  0  0  0  0  0  0  0  0
  143.6696  136.7284  152.9687 C   0  0  2  0  0  0  0  0  0  0  0  0
  144.1335  136.8065  151.5839 N   0  0  0  0  0  0  0  0  0  0  0  0
  144.9812  135.9424  151.0069 C   0  0  0  0  0  0  0  0  0  0  0  0
  145.2089  136.2337  149.7258 N   0  0  0  0  0  0  0  0  0  0  0  0
  145.4970  134.9839  151.5789 O   0  0  0  0  0  0  0  0  0  0  0  0
  144.7841  137.1571  153.9381 C   0  0  0  0  0  0  0  0  0  0  0  0
  145.1948  136.3690  154.7909 O   0  0  0  0  0  0  0  0  0  0  0  0
  145.2438  138.4111  153.7732 N   0  0  0  0  0  0  0  0  0  0  0  0
  146.2547  139.0896  154.5061 C   0  0  0  0  0  0  0  0  0  0  0  0
  146.4325  140.4924  154.5100 C   0  0  0  0  0  0  0  0  0  0  0  0
  147.4860  141.0446  155.2632 C   0  0  0  0  0  0  0  0  0  0  0  0
  148.3451  140.1853  155.9880 C   0  0  0  0  0  0  0  0  0  0  0  0
  149.4068  140.7193  156.7505 N   0  0  0  0  0  0  0  0  0  0  0  0
  150.2147  141.7413  156.0892 C   0  0  0  0  0  0  0  0  0  0  0  0
  151.1144  142.4569  157.1117 C   0  0  0  0  0  0  0  0  0  0  0  0
  151.8985  141.5015  157.8189 O   0  0  0  0  0  0  0  0  0  0  0  0
  151.0874  140.5848  158.5459 C   0  0  0  0  0  0  0  0  0  0  0  0
  150.1932  139.8002  157.5717 C   0  0  0  0  0  0  0  0  0  0  0  0
  148.1762  138.8402  155.9752 N   0  0  0  0  0  0  0  0  0  0  0  0
  147.1660  138.3148  155.2509 C   0  0  0  0  0  0  0  0  0  0  0  0
  142.9555  135.1441  154.2930 H   0  0  0  0  0  0  0  0  0  0  0  0
  144.1705  134.5999  153.1378 H   0  0  0  0  0  0  0  0  0  0  0  0
  142.5217  134.9112  152.6073 H   0  0  0  0  0  0  0  0  0  0  0  0
  142.7853  137.3550  153.1021 H   0  0  0  0  0  0  0  0  0  0  0  0
  143.7606  137.5578  151.0223 H   0  0  0  0  0  0  0  0  0  0  0  0
  145.8350  135.6627  149.1774 H   0  0  0  0  0  0  0  0  0  0  0  0
  144.7544  137.0340  149.3101 H   0  0  0  0  0  0  0  0  0  0  0  0
  144.8697  138.9161  152.9828 H   0  0  0  0  0  0  0  0  0  0  0  0
  145.7940  141.1539  153.9457 H   0  0  0  0  0  0  0  0  0  0  0  0
  147.6139  142.1165  155.2837 H   0  0  0  0  0  0  0  0  0  0  0  0
  150.8278  141.2631  155.3241 H   0  0  0  0  0  0  0  0  0  0  0  0
  149.5969  142.4812  155.5825 H   0  0  0  0  0  0  0  0  0  0  0  0
  151.7798  143.1537  156.6020 H   0  0  0  0  0  0  0  0  0  0  0  0
  150.5166  143.0427  157.8120 H   0  0  0  0  0  0  0  0  0  0  0  0
  151.7313  139.9001  159.0982 H   0  0  0  0  0  0  0  0  0  0  0  0
  150.4849  141.1195  159.2821 H   0  0  0  0  0  0  0  0  0  0  0  0
  149.5342  139.1410  158.1384 H   0  0  0  0  0  0  0  0  0  0  0  0
  150.8071  139.1721  156.9245 H   0  0  0  0  0  0  0  0  0  0  0  0
  147.0816  137.2379  155.2720 H   0  0  0  0  0  0  0  0  0  0  0  0
  1  2  1  0  0  0  0
  1 22  1  0  0  0  0
  1 23  1  0  0  0  0
  1 24  1  0  0  0  0
  2  3  1  0  0  0  0
  2  7  1  0  0  0  0
  2 25  1  0  0  0  0
  3  4  1  0  0  0  0
  3 26  1  0  0  0  0
  4  5  1  0  0  0  0
  4  6  2  0  0  0  0
  5 27  1  0  0  0  0
  5 28  1  0  0  0  0
  7  8  2  0  0  0  0
  7  9  1  0  0  0  0
  9 10  1  0  0  0  0
  9 29  1  0  0  0  0
 10 21  1  0  0  0  0
 10 11  2  0  0  0  0
 11 12  1  0  0  0  0
 11 30  1  0  0  0  0
 12 13  2  0  0  0  0
 12 31  1  0  0  0  0
 13 14  1  0  0  0  0
 13 20  1  0  0  0  0
 14 19  1  0  0  0  0
 14 15  1  0  0  0  0
 15 16  1  0  0  0  0
 15 32  1  0  0  0  0
 15 33  1  0  0  0  0
 16 17  1  0  0  0  0
 16 34  1  0  0  0  0
 16 35  1  0  0  0  0
 17 18  1  0  0  0  0
 18 19  1  0  0  0  0
 18 36  1  0  0  0  0
 18 37  1  0  0  0  0
 19 38  1  0  0  0  0
 19 39  1  0  0  0  0
 20 21  2  0  0  0  0
 21 40  1  0  0  0  0
M  END
> <s_m_source_file>
AV-unprocessed.smi

> <i_m_source_file_index>
1255

> <i_lp_mmshare_version>
43012

> <i_f3d_flags>
0

> <s_epik_input>
W05IMl1DKD1PKVtOSF1bQ0BASF0oW0NIM10pQyg9TylbTkhdYzFbY0hdW2NIXWMobltjSF0xKU4yW0NIMl1bQ0gyXU9bQ0gyXVtDSDJdMg==

> <s_epik_cmdline>
J2VwaWtfcHl0aG9uJywgJy1waCcsICc3LjAnLCAnLXRuJywgJzgnLCAnLW1hJywgJzIwMCcsICctbWV0YWxfYmluZGluZycsICctaW1hZScsICc8aW5maWxlLm1hZT4nLCAnLW9tYWUnLCAnPG91dGZpbGUubWFlPic=

> <r_lp_tautomer_probability>
1

> <r_epik_Ionization_Penalty>
0.00069351

> <r_epik_Ionization_Penalty_Charging>
0

> <r_epik_Ionization_Penalty_Neutral>
0.00069351

> <r_epik_State_Penalty>
0.000408291

> <r_epik_Charging_Adjusted_Penalty>
0.000408291

> <i_epik_Tot_Q>
0

> <i_epik_Tot_abs_Q>
0

> <r_epik_Metal_State_Penalty>
-0

> <b_epik_Metal_Only>
0

> <s_lp_Force_Field>
OPLS_2005

> <r_lp_Energy>
17.9712

> <b_lp_Chiralities_Consistent>
1

> <s_lp_Variant>
AV-unprocessed.smi:1255-1

> <Gold.Version>
5.8.1

> <Gold.Id.Protein>
6NUR|6NUR_protein|mol2

> <Gold.PLP.Fitness>
33.2339

> <Gold.PLP.PLP>
-22.9216

> <Gold.PLP.part.hbond>
-3.9687

> <Gold.PLP.part.metal>
0.0000

> <Gold.PLP.part.buried>
-5.0682

> <Gold.PLP.part.nonpolar>
-14.4751

> <Gold.PLP.part.repulsive>
0.3997

> <Gold.PLP.ligand.clash>
0.0000

> <Gold.PLP.ligand.torsion>
0.4646

> <Gold.PLP.Chemscore.Hbond>
3.6240

> <Gold.PLP.Chemscore.CHOScore>
0.0000

> <Gold.PLP.Chemscore.Metal>
0.0000

> <Gold.Chemscore.Hbonds>
donor molecule, donor type, donor heavy atom, donor atom, acceptor molecule, acceptor atom, score
      L1  H     3    26       P1 10171  1.00
      L1  H     5    27       P1  7921  0.94
      L1  H     5    28       P1 10171  0.83
      L1  H     9    29       P1 10175  0.86

> <Gold.PLP.Chemscore.Internal.Correction>
0.3696

> <Gold.Rescore>
     Score         DG    S(hbond)    S(metal)    S(lipo)     H(rot)  DE(clash)    DE(int)     intcor
     14.13     -17.37       3.56        0.00      41.72       1.91       0.09       3.15       ----

> <Gold.Chemscore.Fitness>
14.1325

> <Gold.Chemscore.DG>
-17.3686

> <Gold.Chemscore.ZeroCoef>
-5.4800

> <Gold.Chemscore.Hbond>
3.5593

> <Gold.Chemscore.Metal>
0.0000

> <Gold.Chemscore.Lipo>
41.7227

> <Gold.Chemscore.Internal_Hbond>
0.0000

> <Gold.Chemscore.DEClash>
0.0869

> <Gold.Chemscore.DEInternal>
3.1492

> <Gold.Chemscore.Rot>
1.9067

> <Gold.Chemscore.Internal.Correction>
   9.000000E+99

> <Gold.Chemscore.Hbonds>
donor molecule, donor type, donor heavy atom, donor atom, acceptor molecule, acceptor atom, score
      L1  H     3    26       P1 10171  0.95
      L1  H     5    27       P1  7921  0.92
      L1  H     5    28       P1 10171  0.83
      L1  H     9    29       P1 10175  0.80

> <Gold.Chemscore.Hbond.Weighted>
-11.8882

> <Gold.Chemscore.Metal.Weighted>
-0.0000

> <Gold.Chemscore.Lipo.Weighted>
-4.8816

> <Gold.Chemscore.Internal_Hbond.Weighted>
0.0000

> <Gold.Chemscore.DEClash.Weighted>
0.0869

> <Gold.Chemscore.DEInternal.Weighted>
3.1492

> <Gold.Chemscore.Rot.Weighted>
4.8811

> <Gold.Chemscore.Internal.Correction.Weighted>
   9.000000E+99

> <Gold.Protein.RotatedTorsions>
[ 6907 6896 6895 6894 ] final  173.48 input  -60.11 | X-H torsion
[ 7974 7965 7964 7962 ] final   20.88 input  175.53 | X-H torsion
[ 8008 7997 7996 7995 ] final -151.50 input   59.86 | X-H torsion
[ 10167 10162 10161 10158 ] final  143.97 input  -65.29 | X-H torsion
[ 10718 10713 10712 10709 ] final   21.43 input   66.30 | X-H torsion
[ 10763 10752 10751 10750 ] final  156.13 input  -60.55 | X-H torsion
[ 11005 11000 10999 10996 ] final   50.65 input  -57.11 | X-H torsion

> <Gold.Protein.ActiveResidues>
 VAL166  LYS551  ARG553  GLY616  TRP617  ASP618  TYR619  PRO620  LYS621  CYS622 
 ASP623  PHE694  ASN695  SER759  ASP760  ASP761  ALA762  ILE779  LEU786  VAL792 
 PHE793  MET794  SER795  GLU796  ALA797  LYS798  CYS799  TRP800  GLU811  SER814 

> <Gold.Protein.RotatedAtoms>
  151.7676  133.3338  159.3434 H   0  0  0  0  0  0  0  0  0  0  0  0  # atno 6907 bound_to 6896
  150.7474  134.6049  159.6065 H   0  0  0  0  0  0  0  0  0  0  0  0  # atno 6908 bound_to 6896
  152.3363  134.7195  160.0327 H   0  0  0  0  0  0  0  0  0  0  0  0  # atno 6909 bound_to 6896
  146.2094  139.8106  142.8701 H   0  0  0  0  0  0  0  0  0  0  0  0  # atno 7974 bound_to 7965
  155.6404  140.0701  157.2620 H   0  0  0  0  0  0  0  0  0  0  0  0  # atno 8008 bound_to 7997
  154.4185  140.1751  156.1617 H   0  0  0  0  0  0  0  0  0  0  0  0  # atno 8009 bound_to 7997
  155.9860  140.3349  155.6711 H   0  0  0  0  0  0  0  0  0  0  0  0  # atno 8010 bound_to 7997
  139.4957  144.6004  151.6493 H   0  0  0  0  0  0  0  0  0  0  0  0  # atno 10167 bound_to 10162
  157.1383  130.6621  149.5973 H   0  0  0  0  0  0  0  0  0  0  0  0  # atno 10718 bound_to 10713
  154.1795  135.2800  155.3056 H   0  0  0  0  0  0  0  0  0  0  0  0  # atno 10763 bound_to 10752
  154.6014  135.5528  153.7381 H   0  0  0  0  0  0  0  0  0  0  0  0  # atno 10764 bound_to 10752
  153.0142  135.6392  154.1934 H   0  0  0  0  0  0  0  0  0  0  0  0  # atno 10765 bound_to 10752
  140.0999  134.5095  155.8772 H   0  0  0  0  0  0  0  0  0  0  0  0  # atno 11005 bound_to 11000
  145.3200  141.0241  143.3506 LP  0  0  0  0  0  0  0  0  0  0  0  0  # atno 17320 bound_to 7965
  144.8874  139.4821  143.6694 LP  0  0  0  0  0  0  0  0  0  0  0  0  # atno 17321 bound_to 7965
  140.5652  144.0202  150.6189 LP  0  0  0  0  0  0  0  0  0  0  0  0  # atno 17342 bound_to 10162
  140.3301  143.3083  152.0696 LP  0  0  0  0  0  0  0  0  0  0  0  0  # atno 17343 bound_to 10162
  155.9794  130.4786  150.6711 LP  0  0  0  0  0  0  0  0  0  0  0  0  # atno 17370 bound_to 10713
  157.4330  131.0852  151.1019 LP  0  0  0  0  0  0  0  0  0  0  0  0  # atno 17371 bound_to 10713
  141.2103  133.6693  156.6497 LP  0  0  0  0  0  0  0  0  0  0  0  0  # atno 17394 bound_to 11000
  140.3234  134.7988  157.4270 LP  0  0  0  0  0  0  0  0  0  0  0  0  # atno 17395 bound_to 11000

$$$$
