#       Name:                AV-unprocessed.smi:865
#       Creating user name   scv26
#       Creation time:       Fri Mar 27 01:47:05 2020


#       File generated by GOLD software.
#

@<TRIPOS>MOLECULE
AV-unprocessed.smi:865
    43    43     1
SMALL
NO_CHARGES


@<TRIPOS>ATOM
      1 ****        -1.7881  -2.4860  -1.2776 C.3            1 S1                 0.0000
      2 ****        -2.4844  -1.1202  -1.1816 C.3            1 S1                 0.0000
      3 ****        -2.0225  -0.2374   0.0063 C.3            1 S1                 0.0000
      4 ****        -2.9328   1.0072   0.1739 C.3            1 S1                 0.0000
      5 ****        -4.3552   0.6922   0.6608 C.3            1 S1                 0.0000
      6 ****        -0.5156   0.1368  -0.0827 C.3            1 S1                 0.0000
      7 ****        -0.3132   0.9772  -1.2030 O.3            1 S1                 0.0000
      8 ****         0.0177   0.8480   1.1814 C.3            1 S1                 0.0000
      9 ****         1.4396   0.5923   1.3814 N.am           1 S1                 0.0000
     10 ****         2.4360   1.3645   0.9221 C.2            1 S1                 0.0000
     11 ****         2.2570   2.4133   0.3038 O.2            1 S1                 0.0000
     12 ****         3.8570   0.8711   1.1902 C.3            1 S1                 0.0000
     13 ****         4.2887  -0.0357   0.1442 N.pl3          1 S1                 0.0000
     14 ****         4.8276   0.2006  -1.0537 C.2            1 S1                 0.0000
     15 ****         5.0628  -0.9231  -1.7138 N.2            1 S1                 0.0000
     16 ****         4.6267  -1.9015  -0.8355 N.2            1 S1                 0.0000
     17 ****         4.1658  -1.3809   0.2685 N.2            1 S1                 0.0000
     18 ****        -2.2534  -3.0984  -2.0501 H              1 S1                 0.0000
     19 ****        -1.8580  -3.0326  -0.3370 H              1 S1                 0.0000
     20 ****        -0.7346  -2.3899  -1.5378 H              1 S1                 0.0000
     21 ****        -2.3616  -0.5822  -2.1219 H              1 S1                 0.0000
     22 ****        -3.5518  -1.3164  -1.0938 H              1 S1                 0.0000
     23 ****        -2.1396  -0.8392   0.9088 H              1 S1                 0.0000
     24 ****        -2.4959   1.6925   0.8989 H              1 S1                 0.0000
     25 ****        -2.9846   1.5616  -0.7638 H              1 S1                 0.0000
     26 ****        -4.9077   1.6129   0.8486 H              1 S1                 0.0000
     27 ****        -4.3368   0.1242   1.5913 H              1 S1                 0.0000
     28 ****        -4.9228   0.1213  -0.0729 H              1 S1                 0.0000
     29 ****         0.0677  -0.7717  -0.2297 H              1 S1                 0.0000
     30 ****        -0.5889   0.5137  -1.9789 H              1 S1                 0.0000
     31 ****        -0.1983   1.9179   1.1697 H              1 S1                 0.0000
     32 ****        -0.4841   0.4484   2.0630 H              1 S1                 0.0000
     33 ****         1.6847  -0.2527   1.8771 H              1 S1                 0.0000
     34 ****         4.5439   1.7174   1.2272 H              1 S1                 0.0000
     35 ****         3.9125   0.3668   2.1565 H              1 S1                 0.0000
     36 ****         5.0418   1.1866  -1.4393 H              1 S1                 0.0000
     37 ****         0.6558   1.2130  -1.2773 LP             1 S1                 0.0000
     38 ****        -0.8526   1.8129  -1.0997 LP             1 S1                 0.0000
     39 ****         1.3275   2.7323   0.1189 LP             1 S1                 0.0000
     40 ****         3.0411   2.9466  -0.0138 LP             1 S1                 0.0000
     41 ****         5.4589  -1.0375  -2.6249 LP             1 S1                 0.0000
     42 ****         4.6608  -2.8830  -1.0239 LP             1 S1                 0.0000
     43 ****         3.7943  -1.8769   1.0533 LP             1 S1                 0.0000
@<TRIPOS>BOND
    1    1    2 1     
    2    1   18 1     
    3    1   19 1     
    4    1   20 1     
    5    2    3 1     
    6    2   21 1     
    7    2   22 1     
    8    3    4 1     
    9    3    6 1     
   10    3   23 1     
   11    4    5 1     
   12    4   24 1     
   13    4   25 1     
   14    5   26 1     
   15    5   27 1     
   16    5   28 1     
   17    6    7 1     
   18    6    8 1     
   19    6   29 1     
   20    7   30 1     
   21    8    9 1     
   22    8   31 1     
   23    8   32 1     
   24    9   10 am    
   25    9   33 1     
   26   10   11 2     
   27   10   12 1     
   28   12   13 1     
   29   12   34 1     
   30   12   35 1     
   31   13   17 1     
   32   13   14 1     
   33   14   15 2     
   34   14   36 1     
   35   15   16 1     
   36   16   17 2     
   37    7   37 1     
   38    7   38 1     
   39   11   39 1     
   40   11   40 1     
   41   15   41 1     
   42   16   42 1     
   43   17   43 1     
@<TRIPOS>SUBSTRUCTURE
      1 S1             1
@<TRIPOS>SET
LONE_PAIRS      STATIC     ATOMS    <user>   **** ""
7 37 38 39 40 41 42 43
DONOR_HYDROGENS      STATIC     ATOMS    <user>   **** ""
2 30 33
ATOM$BLUE        STATIC     ATOMS    COLORGROUP SYSTEM
7 37 38 39 40 41 42 43
ATOM$RED        STATIC     ATOMS    COLORGROUP SYSTEM
2 30 33
