AV-unprocessed.smi:344|AV-procd|sdf|2389|dock3
  -GOLD-   2262022313D 1   1.00000     0.00000
 Structure written by MMmdl.
 38 39  0  0  0  0  0  0  0  0  1 V2000
  145.4619  138.7141  151.8330 N   0  0  0  0  0  0  0  0  0  0  0  0
  146.7088  138.9291  151.4052 C   0  0  0  0  0  0  0  0  0  0  0  0
  147.4162  138.0227  150.9698 O   0  0  0  0  0  0  0  0  0  0  0  0
  147.2359  140.3650  151.4790 C   0  0  0  0  0  0  0  0  0  0  0  0
  147.2826  140.8385  152.9036 C   0  0  0  0  0  0  0  0  0  0  0  0
  146.2509  140.8286  153.8119 C   0  0  0  0  0  0  0  0  0  0  0  0
  146.7343  141.4676  155.3600 S   0  0  0  0  0  0  0  0  0  0  0  0
  148.3459  141.7203  154.7088 C   0  0  0  0  0  0  0  0  0  0  0  0
  149.3950  142.2677  155.4929 N   0  0  0  0  0  0  0  0  0  0  0  0
  150.6070  141.7423  155.7514 C   0  0  0  0  0  0  0  0  0  0  0  0
  151.0061  140.6616  155.3150 O   0  0  0  0  0  0  0  0  0  0  0  0
  151.5035  142.5947  156.6569 C   0  0  0  0  0  0  0  0  0  0  0  0
  151.8292  141.9368  158.0126 C   0  0  0  0  0  0  0  0  0  0  0  0
  152.3352  142.9402  159.0642 C   0  0  0  0  0  0  0  0  0  0  0  0
  152.2941  142.4267  160.5078 C   0  0  0  0  0  0  0  0  0  0  0  0
  152.2797  143.6814  161.3904 C   0  0  0  0  0  0  0  0  0  0  0  0
  151.8612  144.8471  160.4824 C   0  0  0  0  0  0  0  0  0  0  0  0
  151.5050  144.2236  159.1304 C   0  0  0  0  0  0  0  0  0  0  0  0
  148.4749  141.3453  153.4313 N   0  0  0  0  0  0  0  0  0  0  0  0
  145.0780  137.7804  151.8044 H   0  0  0  0  0  0  0  0  0  0  0  0
  144.9088  139.4812  152.1861 H   0  0  0  0  0  0  0  0  0  0  0  0
  148.2272  140.4254  151.0276 H   0  0  0  0  0  0  0  0  0  0  0  0
  146.5866  141.0033  150.8785 H   0  0  0  0  0  0  0  0  0  0  0  0
  145.2373  140.4882  153.6620 H   0  0  0  0  0  0  0  0  0  0  0  0
  149.2004  143.1660  155.9103 H   0  0  0  0  0  0  0  0  0  0  0  0
  152.4281  142.8086  156.1193 H   0  0  0  0  0  0  0  0  0  0  0  0
  151.0082  143.5521  156.8230 H   0  0  0  0  0  0  0  0  0  0  0  0
  150.9332  141.4511  158.4019 H   0  0  0  0  0  0  0  0  0  0  0  0
  152.5688  141.1468  157.8735 H   0  0  0  0  0  0  0  0  0  0  0  0
  153.3635  143.2173  158.8260 H   0  0  0  0  0  0  0  0  0  0  0  0
  151.3778  141.8585  160.6738 H   0  0  0  0  0  0  0  0  0  0  0  0
  153.1332  141.7703  160.7403 H   0  0  0  0  0  0  0  0  0  0  0  0
  151.5934  143.5595  162.2288 H   0  0  0  0  0  0  0  0  0  0  0  0
  153.2702  143.8701  161.8057 H   0  0  0  0  0  0  0  0  0  0  0  0
  151.0289  145.4156  160.8983 H   0  0  0  0  0  0  0  0  0  0  0  0
  152.6988  145.5353  160.3618 H   0  0  0  0  0  0  0  0  0  0  0  0
  151.7060  144.8963  158.2960 H   0  0  0  0  0  0  0  0  0  0  0  0
  150.4414  143.9809  159.1109 H   0  0  0  0  0  0  0  0  0  0  0  0
  1  2  1  0  0  0  0
  1 20  1  0  0  0  0
  1 21  1  0  0  0  0
  2  3  2  0  0  0  0
  2  4  1  0  0  0  0
  4  5  1  0  0  0  0
  4 22  1  0  0  0  0
  4 23  1  0  0  0  0
  5 19  1  0  0  0  0
  5  6  2  0  0  0  0
  6  7  1  0  0  0  0
  6 24  1  0  0  0  0
  7  8  1  0  0  0  0
  8  9  1  0  0  0  0
  8 19  2  0  0  0  0
  9 10  1  0  0  0  0
  9 25  1  0  0  0  0
 10 11  2  0  0  0  0
 10 12  1  0  0  0  0
 12 13  1  0  0  0  0
 12 26  1  0  0  0  0
 12 27  1  0  0  0  0
 13 14  1  0  0  0  0
 13 28  1  0  0  0  0
 13 29  1  0  0  0  0
 14 18  1  0  0  0  0
 14 15  1  0  0  0  0
 14 30  1  0  0  0  0
 15 16  1  0  0  0  0
 15 31  1  0  0  0  0
 15 32  1  0  0  0  0
 16 17  1  0  0  0  0
 16 33  1  0  0  0  0
 16 34  1  0  0  0  0
 17 18  1  0  0  0  0
 17 35  1  0  0  0  0
 17 36  1  0  0  0  0
 18 37  1  0  0  0  0
 18 38  1  0  0  0  0
M  END
> <s_m_source_file>
AV-unprocessed.smi

> <i_m_source_file_index>
344

> <i_lp_mmshare_version>
43012

> <i_f3d_flags>
0

> <s_epik_input>
W05IMl1DKD1PKVtDSDJdYzFbY0hdc2MobjEpW05IXUMoPU8pW0NIMl1bQ0gyXVtDSF0yW0NIMl1bQ0gyXVtDSDJdW0NIMl0y

> <s_epik_cmdline>
J2VwaWtfcHl0aG9uJywgJy1waCcsICc3LjAnLCAnLXRuJywgJzgnLCAnLW1hJywgJzIwMCcsICctbWV0YWxfYmluZGluZycsICctaW1hZScsICc8aW5maWxlLm1hZT4nLCAnLW9tYWUnLCAnPG91dGZpbGUubWFlPic=

> <r_lp_tautomer_probability>
1

> <r_epik_Ionization_Penalty>
0.000156249

> <r_epik_Ionization_Penalty_Charging>
0

> <r_epik_Ionization_Penalty_Neutral>
0.000156249

> <r_epik_State_Penalty>
-0

> <r_epik_Charging_Adjusted_Penalty>
0

> <i_epik_Tot_Q>
0

> <i_epik_Tot_abs_Q>
0

> <r_epik_Metal_State_Penalty>
0.0972404

> <b_epik_Metal_Only>
0

> <s_lp_Force_Field>
OPLS_2005

> <r_lp_Energy>
21.4861

> <b_lp_Chiralities_Consistent>
1

> <s_lp_Variant>
AV-unprocessed.smi:344-1

> <Gold.Version>
5.8.1

> <Gold.Id.Protein>
6NUR|6NUR_protein|mol2

> <Gold.PLP.Fitness>
49.3126

> <Gold.PLP.PLP>
-36.1751

> <Gold.PLP.part.hbond>
-5.5601

> <Gold.PLP.part.metal>
0.0000

> <Gold.PLP.part.buried>
-1.8676

> <Gold.PLP.part.nonpolar>
-33.9412

> <Gold.PLP.part.repulsive>
5.5652

> <Gold.PLP.ligand.clash>
0.0000

> <Gold.PLP.ligand.torsion>
0.7772

> <Gold.PLP.Chemscore.Hbond>
3.8838

> <Gold.PLP.Chemscore.CHOScore>
1.0000

> <Gold.PLP.Chemscore.Metal>
0.0000

> <Gold.Chemscore.Hbonds>
donor molecule, donor type, donor heavy atom, donor atom, acceptor molecule, acceptor atom, score
      L1  H     1    21       P1 10175  1.00
      L1  H     9    25       P1  8028  0.93
      P1  H  7954  7966       L1     3  0.47
      P1  H  7989  7998       L1    11  0.88
      P1  H  8011  8017       L1    19  0.82
      L1  C     6    24       P1 10175  0.80

> <Gold.PLP.Chemscore.Internal.Correction>
0.0404

> <Gold.Rescore>
     Score         DG    S(hbond)    S(metal)    S(lipo)     H(rot)  DE(clash)    DE(int)     intcor
     17.25     -23.39       3.64        0.00     102.47       2.44       5.34       0.80       ----

> <Gold.Chemscore.Fitness>
17.2498

> <Gold.Chemscore.DG>
-23.3874

> <Gold.Chemscore.ZeroCoef>
-5.4800

> <Gold.Chemscore.Hbond>
3.6420

> <Gold.Chemscore.Metal>
0.0000

> <Gold.Chemscore.Lipo>
102.4740

> <Gold.Chemscore.Internal_Hbond>
0.0000

> <Gold.Chemscore.DEClash>
5.3361

> <Gold.Chemscore.DEInternal>
0.8015

> <Gold.Chemscore.Rot>
2.4400

> <Gold.Chemscore.Internal.Correction>
   9.000000E+99

> <Gold.Chemscore.Hbonds>
donor molecule, donor type, donor heavy atom, donor atom, acceptor molecule, acceptor atom, score
      L1  H     1    21       P1 10175  0.98
      L1  H     9    25       P1  8028  0.88
      P1  H  7954  7966       L1     3  0.48
      P1  H  7989  7998       L1    11  0.60
      P1  H  8011  8017       L1    19  0.70

> <Gold.Chemscore.Hbond.Weighted>
-12.1644

> <Gold.Chemscore.Metal.Weighted>
-0.0000

> <Gold.Chemscore.Lipo.Weighted>
-11.9895

> <Gold.Chemscore.Internal_Hbond.Weighted>
0.0000

> <Gold.Chemscore.DEClash.Weighted>
5.3361

> <Gold.Chemscore.DEInternal.Weighted>
0.8015

> <Gold.Chemscore.Rot.Weighted>
6.2465

> <Gold.Chemscore.Internal.Correction.Weighted>
   9.000000E+99

> <Gold.Protein.RotatedTorsions>
[ 6907 6896 6895 6894 ] final  155.09 input  -60.11 | X-H torsion
[ 7974 7965 7964 7962 ] final  -51.93 input  175.53 | X-H torsion
[ 8008 7997 7996 7995 ] final  148.76 input   59.86 | X-H torsion
[ 10167 10162 10161 10158 ] final -154.07 input  -65.29 | X-H torsion
[ 10718 10713 10712 10709 ] final   -6.32 input   66.30 | X-H torsion
[ 10763 10752 10751 10750 ] final  -18.13 input  -60.55 | X-H torsion
[ 11005 11000 10999 10996 ] final -100.84 input  -57.11 | X-H torsion

> <Gold.Protein.ActiveResidues>
 VAL166  LYS551  ARG553  GLY616  TRP617  ASP618  TYR619  PRO620  LYS621  CYS622 
 ASP623  PHE694  ASN695  SER759  ASP760  ASP761  ALA762  ILE779  LEU786  VAL792 
 PHE793  MET794  SER795  GLU796  ALA797  LYS798  CYS799  TRP800  GLU811  SER814 

> <Gold.Protein.RotatedAtoms>
  152.0492  133.4011  159.4369 H   0  0  0  0  0  0  0  0  0  0  0  0  # atno 6907 bound_to 6896
  150.6871  134.3327  159.4843 H   0  0  0  0  0  0  0  0  0  0  0  0  # atno 6908 bound_to 6896
  152.1135  134.9257  160.0616 H   0  0  0  0  0  0  0  0  0  0  0  0  # atno 6909 bound_to 6896
  145.9135  140.7895  142.9683 H   0  0  0  0  0  0  0  0  0  0  0  0  # atno 7974 bound_to 7965
  156.2779  140.2120  156.5750 H   0  0  0  0  0  0  0  0  0  0  0  0  # atno 8008 bound_to 7997
  154.7105  140.0512  157.0568 H   0  0  0  0  0  0  0  0  0  0  0  0  # atno 8009 bound_to 7997
  155.0612  140.3167  155.4663 H   0  0  0  0  0  0  0  0  0  0  0  0  # atno 8010 bound_to 7997
  139.7044  143.9211  152.2442 H   0  0  0  0  0  0  0  0  0  0  0  0  # atno 10167 bound_to 10162
  156.7337  130.5188  149.5840 H   0  0  0  0  0  0  0  0  0  0  0  0  # atno 10718 bound_to 10713
  153.5845  135.7004  153.5449 H   0  0  0  0  0  0  0  0  0  0  0  0  # atno 10763 bound_to 10752
  153.3232  135.4068  155.1434 H   0  0  0  0  0  0  0  0  0  0  0  0  # atno 10764 bound_to 10752
  154.8611  135.3700  154.5374 H   0  0  0  0  0  0  0  0  0  0  0  0  # atno 10765 bound_to 10752
  141.1255  133.8431  157.1155 H   0  0  0  0  0  0  0  0  0  0  0  0  # atno 11005 bound_to 11000
  144.6745  140.1863  143.7401 LP  0  0  0  0  0  0  0  0  0  0  0  0  # atno 17320 bound_to 7965
  145.8641  139.2238  143.1699 LP  0  0  0  0  0  0  0  0  0  0  0  0  # atno 17321 bound_to 7965
  139.9062  144.6883  150.8611 LP  0  0  0  0  0  0  0  0  0  0  0  0  # atno 17342 bound_to 10162
  140.7718  143.3477  151.2078 LP  0  0  0  0  0  0  0  0  0  0  0  0  # atno 17343 bound_to 10162
  156.1512  130.6311  151.0597 LP  0  0  0  0  0  0  0  0  0  0  0  0  # atno 17370 bound_to 10713
  157.6848  131.0828  150.7272 LP  0  0  0  0  0  0  0  0  0  0  0  0  # atno 17371 bound_to 10713
  140.0249  134.9928  157.0666 LP  0  0  0  0  0  0  0  0  0  0  0  0  # atno 17394 bound_to 11000
  140.4379  134.1712  155.7172 LP  0  0  0  0  0  0  0  0  0  0  0  0  # atno 17395 bound_to 11000

$$$$
