#       Name:                AV-unprocessed.smi:2295
#       Creating user name   scv26
#       Creation time:       Fri Mar 27 12:43:56 2020


#       File generated by GOLD software.
#

@<TRIPOS>MOLECULE
AV-unprocessed.smi:2295
    40    41     1
SMALL
NO_CHARGES


@<TRIPOS>ATOM
      1 ****        -4.4048   3.6834  -0.3132 C.3            1 S1                 0.0000
      2 ****        -3.7139   2.3394  -0.4102 C.ar           1 S1                 0.0000
      3 ****        -4.4541   1.1419  -0.3886 C.ar           1 S1                 0.0000
      4 ****        -3.7516  -0.0756  -0.4840 C.ar           1 S1                 0.0000
      5 ****        -4.4836  -1.4011  -0.4664 C.3            1 S1                 0.0000
      6 ****        -2.4075  -0.1442  -0.5935 N.ar           1 S1                 0.0000
      7 ****        -1.6842   1.0029  -0.6157 C.ar           1 S1                 0.0000
      8 ****        -0.2691   1.0410  -0.7304 N.am           1 S1                 0.0000
      9 ****         0.5830   0.0095  -0.8648 C.2            1 S1                 0.0000
     10 ****         0.2640  -1.1795  -0.8937 O.2            1 S1                 0.0000
     11 ****         1.8494   0.4394  -0.9640 N.am           1 S1                 0.0000
     12 ****         3.0240  -0.4108  -1.1336 C.3            1 S1                 0.0000
     13 ****         3.7439  -0.6747   0.2014 C.3            1 S1                 0.0000
     14 ****         2.9282  -1.4969   1.2108 C.3            1 S1                 0.0000
     15 ****         3.9268  -2.1058   2.1956 C.3            1 S1                 0.0000
     16 ****         5.0700  -2.6729   1.3534 C.3            1 S1                 0.0000
     17 ****         5.3119  -1.5536  -0.0497 S.3            1 S1                 0.0000
     18 ****        -2.3110   2.2661  -0.5242 C.ar           1 S1                 0.0000
     19 ****        -5.4891   3.5715  -0.2895 H              1 S1                 0.0000
     20 ****        -4.1454   4.3044  -1.1709 H              1 S1                 0.0000
     21 ****        -4.0950   4.2026   0.5940 H              1 S1                 0.0000
     22 ****        -5.5309   1.1559  -0.3010 H              1 S1                 0.0000
     23 ****        -5.5643  -1.2566  -0.4675 H              1 S1                 0.0000
     24 ****        -4.2161  -1.9687   0.4252 H              1 S1                 0.0000
     25 ****        -4.2198  -1.9929  -1.3434 H              1 S1                 0.0000
     26 ****         0.1414   1.9628  -0.7217 H              1 S1                 0.0000
     27 ****         2.0151   1.4344  -0.9285 H              1 S1                 0.0000
     28 ****         2.7624  -1.3515  -1.6212 H              1 S1                 0.0000
     29 ****         3.7013   0.1045  -1.8152 H              1 S1                 0.0000
     30 ****         4.0021   0.2786   0.6645 H              1 S1                 0.0000
     31 ****         2.1801  -0.8883   1.7197 H              1 S1                 0.0000
     32 ****         2.3974  -2.2994   0.6967 H              1 S1                 0.0000
     33 ****         4.3084  -1.3264   2.8563 H              1 S1                 0.0000
     34 ****         3.4681  -2.8699   2.8236 H              1 S1                 0.0000
     35 ****         5.9890  -2.7881   1.9287 H              1 S1                 0.0000
     36 ****         4.7962  -3.6533   0.9625 H              1 S1                 0.0000
     37 ****        -1.7238   3.1729  -0.5429 H              1 S1                 0.0000
     38 ****        -1.9503  -1.0313  -0.6575 LP             1 S1                 0.0000
     39 ****        -0.6978  -1.4412  -0.8137 LP             1 S1                 0.0000
     40 ****         0.9668  -1.8834  -0.9971 LP             1 S1                 0.0000
@<TRIPOS>BOND
    1    1    2 1     
    2    1   19 1     
    3    1   20 1     
    4    1   21 1     
    5    2   18 ar    
    6    2    3 ar    
    7    3    4 ar    
    8    3   22 1     
    9    4    5 1     
   10    4    6 ar    
   11    5   23 1     
   12    5   24 1     
   13    5   25 1     
   14    6    7 ar    
   15    7    8 1     
   16    7   18 ar    
   17    8    9 am    
   18    8   26 1     
   19    9   10 2     
   20    9   11 am    
   21   11   12 1     
   22   11   27 1     
   23   12   13 1     
   24   12   28 1     
   25   12   29 1     
   26   13   17 1     
   27   13   14 1     
   28   13   30 1     
   29   14   15 1     
   30   14   31 1     
   31   14   32 1     
   32   15   16 1     
   33   15   33 1     
   34   15   34 1     
   35   16   17 1     
   36   16   35 1     
   37   16   36 1     
   38   18   37 1     
   39    6   38 1     
   40   10   39 1     
   41   10   40 1     
@<TRIPOS>SUBSTRUCTURE
      1 S1             1
@<TRIPOS>SET
LONE_PAIRS      STATIC     ATOMS    <user>   **** ""
3 38 39 40
DONOR_HYDROGENS      STATIC     ATOMS    <user>   **** ""
2 26 27
ATOM$BLUE        STATIC     ATOMS    COLORGROUP SYSTEM
3 38 39 40
ATOM$RED        STATIC     ATOMS    COLORGROUP SYSTEM
2 26 27
