AV-unprocessed.smi:1248|AV-procd|sdf|5250|dock4
  -GOLD-   22720 4363D 1   1.00000     0.00000
 Structure written by MMmdl.
 44 46  0  0  0  0  0  0  0  0  2 V2000
  151.0437  140.7008  155.9384 C   0  0  0  0  0  0  0  0  0  0  0  0
  152.1362  139.6255  155.9207 C   0  0  0  0  0  0  0  0  0  0  0  0
  151.5807  138.2976  155.7487 N   0  0  0  0  0  0  0  0  0  0  0  0
  150.7550  137.8413  154.7407 C   0  0  0  0  0  0  0  0  0  0  0  0
  150.5098  136.5319  155.0256 C   0  0  0  0  0  0  0  0  0  0  0  0
  149.6989  135.6724  154.2436 N   0  0  0  0  0  0  0  0  0  0  0  0
  149.3112  134.4237  154.5482 C   0  0  0  0  0  0  0  0  0  0  0  0
  149.6207  133.8150  155.5722 O   0  0  0  0  0  0  0  0  0  0  0  0
  148.5287  133.9083  153.5891 N   0  0  0  0  0  0  0  0  0  0  0  0
  147.9358  132.5745  153.6158 C   0  0  2  0  0  0  0  0  0  0  0  0
  149.0461  131.5106  153.5949 C   0  0  0  0  0  0  0  0  0  0  0  0
  148.4564  130.0921  153.5228 C   0  0  0  0  0  0  0  0  0  0  0  0
  147.5672  129.9452  152.3440 N   0  3  1  0  0  0  0  0  0  0  0  0
  147.0828  128.5575  152.1798 C   0  0  0  0  0  0  0  0  0  0  0  0
  148.0963  127.5105  152.5790 C   0  0  0  0  0  0  0  0  0  0  0  0
  147.8205  127.7781  151.1161 C   0  0  0  0  0  0  0  0  0  0  0  0
  146.4561  130.9280  152.3692 C   0  0  0  0  0  0  0  0  0  0  0  0
  146.9955  132.3673  152.4127 C   0  0  0  0  0  0  0  0  0  0  0  0
  151.2230  136.2551  156.2263 C   0  0  0  0  0  0  0  0  0  0  0  0
  151.8663  137.3305  156.6551 N   0  0  0  0  0  0  0  0  0  0  0  0
  151.4779  141.6917  156.0710 H   0  0  0  0  0  0  0  0  0  0  0  0
  150.3402  140.5328  156.7541 H   0  0  0  0  0  0  0  0  0  0  0  0
  150.4802  140.7076  155.0048 H   0  0  0  0  0  0  0  0  0  0  0  0
  152.8450  139.8165  155.1139 H   0  0  0  0  0  0  0  0  0  0  0  0
  152.7026  139.6492  156.8523 H   0  0  0  0  0  0  0  0  0  0  0  0
  150.4232  138.4736  153.9304 H   0  0  0  0  0  0  0  0  0  0  0  0
  149.3727  136.0520  153.3670 H   0  0  0  0  0  0  0  0  0  0  0  0
  148.3284  134.4813  152.7822 H   0  0  0  0  0  0  0  0  0  0  0  0
  147.3650  132.4563  154.5393 H   0  0  0  0  0  0  0  0  0  0  0  0
  149.7016  131.6726  152.7377 H   0  0  0  0  0  0  0  0  0  0  0  0
  149.6708  131.6044  154.4840 H   0  0  0  0  0  0  0  0  0  0  0  0
  149.2664  129.3643  153.4635 H   0  0  0  0  0  0  0  0  0  0  0  0
  147.8969  129.8696  154.4331 H   0  0  0  0  0  0  0  0  0  0  0  0
  146.0200  128.3924  152.3481 H   0  0  0  0  0  0  0  0  0  0  0  0
  149.0531  127.8433  152.9778 H   0  0  0  0  0  0  0  0  0  0  0  0
  147.7193  126.5780  152.9941 H   0  0  0  0  0  0  0  0  0  0  0  0
  147.2605  127.0230  150.5682 H   0  0  0  0  0  0  0  0  0  0  0  0
  148.5933  128.2893  150.5446 H   0  0  0  0  0  0  0  0  0  0  0  0
  145.8330  130.7999  151.4833 H   0  0  0  0  0  0  0  0  0  0  0  0
  145.8188  130.7384  153.2343 H   0  0  0  0  0  0  0  0  0  0  0  0
  146.1610  133.0682  152.4588 H   0  0  0  0  0  0  0  0  0  0  0  0
  147.5279  132.5822  151.4849 H   0  0  0  0  0  0  0  0  0  0  0  0
  151.3003  135.3398  156.7937 H   0  0  0  0  0  0  0  0  0  0  0  0
  148.1243  130.1553  151.5281 H   0  0  0  0  0  0  0  0  0  0  0  0
  1  2  1  0  0  0  0
  1 21  1  0  0  0  0
  1 22  1  0  0  0  0
  1 23  1  0  0  0  0
  2  3  1  0  0  0  0
  2 24  1  0  0  0  0
  2 25  1  0  0  0  0
  3 20  1  0  0  0  0
  3  4  1  0  0  0  0
  4  5  2  0  0  0  0
  4 26  1  0  0  0  0
  5  6  1  0  0  0  0
  5 19  1  0  0  0  0
  6  7  1  0  0  0  0
  6 27  1  0  0  0  0
  7  8  2  0  0  0  0
  7  9  1  0  0  0  0
  9 10  1  0  0  0  0
  9 28  1  0  0  0  0
 10 18  1  0  0  0  0
 10 11  1  0  0  0  0
 10 29  1  0  0  0  0
 11 12  1  0  0  0  0
 11 30  1  0  0  0  0
 11 31  1  0  0  0  0
 12 13  1  0  0  0  0
 12 32  1  0  0  0  0
 12 33  1  0  0  0  0
 13 14  1  0  0  0  0
 13 17  1  0  0  0  0
 13 44  1  0  0  0  0
 14 16  1  0  0  0  0
 14 15  1  0  0  0  0
 14 34  1  0  0  0  0
 15 16  1  0  0  0  0
 15 35  1  0  0  0  0
 15 36  1  0  0  0  0
 16 37  1  0  0  0  0
 16 38  1  0  0  0  0
 17 18  1  0  0  0  0
 17 39  1  0  0  0  0
 17 40  1  0  0  0  0
 18 41  1  0  0  0  0
 18 42  1  0  0  0  0
 19 20  2  0  0  0  0
 19 43  1  0  0  0  0
M  CHG  1  13   1
M  END
> <s_m_source_file>
AV-unprocessed.smi

> <i_m_source_file_index>
1248

> <i_lp_mmshare_version>
43012

> <i_f3d_flags>
0

> <s_epik_input>
W0NIM11bQ0gyXW4xW2NIXWMoW2NIXW4xKVtOSF1DKD1PKVtOSF1bQ0hdMltDSDJdW0NIMl1OKFtDSDJdW0NIMl0yKVtDSF0zW0NIMl1bQ0gyXTM=

> <s_epik_cmdline>
J2VwaWtfcHl0aG9uJywgJy1waCcsICc3LjAnLCAnLXRuJywgJzgnLCAnLW1hJywgJzIwMCcsICctbWV0YWxfYmluZGluZycsICctaW1hZScsICc8aW5maWxlLm1hZT4nLCAnLW9tYWUnLCAnPG91dGZpbGUubWFlPic=

> <r_lp_tautomer_probability>
1

> <r_epik_Ionization_Penalty>
0.115699

> <r_epik_Ionization_Penalty_Charging>
0.115549

> <r_epik_Ionization_Penalty_Neutral>
0.00014958

> <r_epik_State_Penalty>
0.105184

> <r_epik_Charging_Adjusted_Penalty>
0.220733

> <i_epik_Tot_Q>
1

> <i_epik_Tot_abs_Q>
1

> <r_epik_Metal_State_Penalty>
0.105189

> <b_epik_Metal_Only>
0

> <s_lp_Force_Field>
OPLS_2005

> <r_lp_Energy>
30.1422

> <b_lp_Chiralities_Consistent>
1

> <s_lp_Variant>
AV-unprocessed.smi:1248-1

> <Gold.Version>
5.8.1

> <Gold.Id.Protein>
6NUR|6NUR_protein|mol2

> <Gold.PLP.Fitness>
45.0433

> <Gold.PLP.PLP>
-37.0901

> <Gold.PLP.part.hbond>
-3.8063

> <Gold.PLP.part.metal>
0.0000

> <Gold.PLP.part.buried>
-1.3585

> <Gold.PLP.part.nonpolar>
-31.6118

> <Gold.PLP.part.repulsive>
0.1038

> <Gold.PLP.ligand.clash>
0.0000

> <Gold.PLP.ligand.torsion>
0.9043

> <Gold.PLP.Chemscore.Hbond>
2.8320

> <Gold.PLP.Chemscore.CHOScore>
0.0000

> <Gold.PLP.Chemscore.Metal>
0.0000

> <Gold.Chemscore.Hbonds>
donor molecule, donor type, donor heavy atom, donor atom, acceptor molecule, acceptor atom, score
      L1  H     6    27       P1  7948  1.00
      L1  H     9    28       P1  7948  0.82
      L1  H    13    44       P1 10747  1.00

> <Gold.PLP.Chemscore.Internal.Correction>
1.2658

> <Gold.Rescore>
     Score         DG    S(hbond)    S(metal)    S(lipo)     H(rot)  DE(clash)    DE(int)     intcor
     18.26     -20.34       2.46        0.00      86.16       1.34       0.05       2.03       ----

> <Gold.Chemscore.Fitness>
18.2608

> <Gold.Chemscore.DG>
-20.3412

> <Gold.Chemscore.ZeroCoef>
-5.4800

> <Gold.Chemscore.Hbond>
2.4613

> <Gold.Chemscore.Metal>
0.0000

> <Gold.Chemscore.Lipo>
86.1577

> <Gold.Chemscore.Internal_Hbond>
0.0000

> <Gold.Chemscore.DEClash>
0.0487

> <Gold.Chemscore.DEInternal>
2.0317

> <Gold.Chemscore.Rot>
1.3438

> <Gold.Chemscore.Internal.Correction>
   9.000000E+99

> <Gold.Chemscore.Hbonds>
donor molecule, donor type, donor heavy atom, donor atom, acceptor molecule, acceptor atom, score
      L1  H     6    27       P1  7948  0.52
      L1  H     9    28       P1  7948  0.23
      L1  H    13    44       P1 10747  0.97

> <Gold.Chemscore.Hbond.Weighted>
-8.2208

> <Gold.Chemscore.Metal.Weighted>
-0.0000

> <Gold.Chemscore.Lipo.Weighted>
-10.0804

> <Gold.Chemscore.Internal_Hbond.Weighted>
0.0000

> <Gold.Chemscore.DEClash.Weighted>
0.0487

> <Gold.Chemscore.DEInternal.Weighted>
2.0317

> <Gold.Chemscore.Rot.Weighted>
3.4401

> <Gold.Chemscore.Internal.Correction.Weighted>
   9.000000E+99

> <Gold.Protein.RotatedTorsions>
[ 6907 6896 6895 6894 ] final  160.96 input  -60.11 | X-H torsion
[ 7974 7965 7964 7962 ] final   14.22 input  175.53 | X-H torsion
[ 8008 7997 7996 7995 ] final  -27.21 input   59.86 | X-H torsion
[ 10167 10162 10161 10158 ] final  -55.00 input  -65.29 | X-H torsion
[ 10718 10713 10712 10709 ] final  173.59 input   66.30 | X-H torsion
[ 10763 10752 10751 10750 ] final   97.91 input  -60.55 | X-H torsion
[ 11005 11000 10999 10996 ] final   10.23 input  -57.11 | X-H torsion

> <Gold.Protein.ActiveResidues>
 VAL166  LYS551  ARG553  GLY616  TRP617  ASP618  TYR619  PRO620  LYS621  CYS622 
 ASP623  PHE694  ASN695  SER759  ASP760  ASP761  ALA762  ILE779  LEU786  VAL792 
 PHE793  MET794  SER795  GLU796  ALA797  LYS798  CYS799  TRP800  GLU811  SER814 

> <Gold.Protein.RotatedAtoms>
  151.9628  133.3700  159.4041 H   0  0  0  0  0  0  0  0  0  0  0  0  # atno 6907 bound_to 6896
  150.6961  134.4222  159.5219 H   0  0  0  0  0  0  0  0  0  0  0  0  # atno 6908 bound_to 6896
  152.1914  134.8668  160.0568 H   0  0  0  0  0  0  0  0  0  0  0  0  # atno 6909 bound_to 6896
  146.2310  139.9073  142.8530 H   0  0  0  0  0  0  0  0  0  0  0  0  # atno 7974 bound_to 7965
  154.4388  140.1878  156.0897 H   0  0  0  0  0  0  0  0  0  0  0  0  # atno 8008 bound_to 7997
  156.0375  140.3323  155.7181 H   0  0  0  0  0  0  0  0  0  0  0  0  # atno 8009 bound_to 7997
  155.5748  140.0616  157.2788 H   0  0  0  0  0  0  0  0  0  0  0  0  # atno 8010 bound_to 7997
  140.6399  143.2502  151.5017 H   0  0  0  0  0  0  0  0  0  0  0  0  # atno 10167 bound_to 10162
  156.9621  131.0064  151.2925 H   0  0  0  0  0  0  0  0  0  0  0  0  # atno 10718 bound_to 10713
  153.2826  135.4167  155.1093 H   0  0  0  0  0  0  0  0  0  0  0  0  # atno 10763 bound_to 10752
  154.8494  135.3499  154.6091 H   0  0  0  0  0  0  0  0  0  0  0  0  # atno 10764 bound_to 10752
  153.6512  135.7052  153.5266 H   0  0  0  0  0  0  0  0  0  0  0  0  # atno 10765 bound_to 10752
  140.5168  134.0598  155.7833 H   0  0  0  0  0  0  0  0  0  0  0  0  # atno 11005 bound_to 11000
  145.2264  140.9956  143.4016 LP  0  0  0  0  0  0  0  0  0  0  0  0  # atno 17320 bound_to 7965
  144.9567  139.4024  143.6376 LP  0  0  0  0  0  0  0  0  0  0  0  0  # atno 17321 bound_to 7965
  139.5608  144.2160  152.1688 LP  0  0  0  0  0  0  0  0  0  0  0  0  # atno 17342 bound_to 10162
  140.1428  144.5187  150.6734 LP  0  0  0  0  0  0  0  0  0  0  0  0  # atno 17343 bound_to 10162
  157.5650  130.8272  149.8316 LP  0  0  0  0  0  0  0  0  0  0  0  0  # atno 17370 bound_to 10713
  156.0318  130.3762  150.1668 LP  0  0  0  0  0  0  0  0  0  0  0  0  # atno 17371 bound_to 10713
  141.1356  133.9227  157.2441 LP  0  0  0  0  0  0  0  0  0  0  0  0  # atno 17394 bound_to 11000
  139.9628  135.0150  156.9307 LP  0  0  0  0  0  0  0  0  0  0  0  0  # atno 17395 bound_to 11000

$$$$
