AV-unprocessed.smi:2836|AV-procd|sdf|10919|dock8
  -GOLD-   2272015363D 1   1.00000     0.00000
 Structure written by MMmdl.
 30 31  0  0  0  0  0  0  0  0  1 V2000
  146.2832  141.0029  153.5481 N   0  0  0  0  0  0  0  0  0  0  0  0
  146.9539  141.6641  154.4957 C   0  0  0  0  0  0  0  0  0  0  0  0
  146.4814  142.6236  155.1009 O   0  0  0  0  0  0  0  0  0  0  0  0
  148.3567  141.2049  154.7444 C   0  0  0  0  0  0  0  0  0  0  0  0
  149.1209  140.3457  153.9118 C   0  0  0  0  0  0  0  0  0  0  0  0
  150.3354  140.1643  154.4095 N   0  0  0  0  0  0  0  0  0  0  0  0
  150.3695  140.9119  155.5422 N   0  0  0  0  0  0  0  0  0  0  0  0
  151.5826  140.9570  156.3373 C   0  0  0  0  0  0  0  0  0  0  0  0
  151.3878  141.7437  157.6413 C   0  0  0  0  0  0  0  0  0  0  0  0
  152.4739  141.4744  158.5174 O   0  0  0  0  0  0  0  0  0  0  0  0
  152.5306  142.1383  159.7242 C   0  0  0  0  0  0  0  0  0  0  0  0
  151.9113  143.3907  159.9675 C   0  0  0  0  0  0  0  0  0  0  0  0
  152.0121  144.0033  161.2315 C   0  0  0  0  0  0  0  0  0  0  0  0
  152.7306  143.3760  162.2654 C   0  0  0  0  0  0  0  0  0  0  0  0
  152.8259  143.9660  163.4803 F   0  0  0  0  0  0  0  0  0  0  0  0
  153.3497  142.1342  162.0340 C   0  0  0  0  0  0  0  0  0  0  0  0
  153.2500  141.5191  160.7707 C   0  0  0  0  0  0  0  0  0  0  0  0
  154.0218  139.9956  160.5105 Cl  0  0  0  0  0  0  0  0  0  0  0  0
  149.1763  141.5683  155.7723 C   0  0  0  0  0  0  0  0  0  0  0  0
  145.3337  141.2684  153.3302 H   0  0  0  0  0  0  0  0  0  0  0  0
  146.7269  140.2450  153.0504 H   0  0  0  0  0  0  0  0  0  0  0  0
  148.8431  139.8583  152.9888 H   0  0  0  0  0  0  0  0  0  0  0  0
  151.8902  139.9341  156.5573 H   0  0  0  0  0  0  0  0  0  0  0  0
  152.3801  141.4045  155.7421 H   0  0  0  0  0  0  0  0  0  0  0  0
  151.3372  142.8113  157.4203 H   0  0  0  0  0  0  0  0  0  0  0  0
  150.4452  141.4491  158.1049 H   0  0  0  0  0  0  0  0  0  0  0  0
  151.3497  143.9020  159.2008 H   0  0  0  0  0  0  0  0  0  0  0  0
  151.5357  144.9564  161.4080 H   0  0  0  0  0  0  0  0  0  0  0  0
  153.9018  141.6525  162.8277 H   0  0  0  0  0  0  0  0  0  0  0  0
  149.0244  142.2185  156.6214 H   0  0  0  0  0  0  0  0  0  0  0  0
  1  2  1  0  0  0  0
  1 20  1  0  0  0  0
  1 21  1  0  0  0  0
  2  3  2  0  0  0  0
  2  4  1  0  0  0  0
  4 19  2  0  0  0  0
  4  5  1  0  0  0  0
  5  6  2  0  0  0  0
  5 22  1  0  0  0  0
  6  7  1  0  0  0  0
  7  8  1  0  0  0  0
  7 19  1  0  0  0  0
  8  9  1  0  0  0  0
  8 23  1  0  0  0  0
  8 24  1  0  0  0  0
  9 10  1  0  0  0  0
  9 25  1  0  0  0  0
  9 26  1  0  0  0  0
 10 11  1  0  0  0  0
 11 17  1  0  0  0  0
 11 12  2  0  0  0  0
 12 13  1  0  0  0  0
 12 27  1  0  0  0  0
 13 14  2  0  0  0  0
 13 28  1  0  0  0  0
 14 15  1  0  0  0  0
 14 16  1  0  0  0  0
 16 17  2  0  0  0  0
 16 29  1  0  0  0  0
 17 18  1  0  0  0  0
 19 30  1  0  0  0  0
M  END
> <s_m_source_file>
AV-unprocessed.smi

> <i_m_source_file_index>
2836

> <i_lp_mmshare_version>
43012

> <i_f3d_flags>
0

> <s_epik_input>
W05IMl1DKD1PKWMxW2NIXW5uKFtjSF0xKVtDSDJdW0NIMl1PYzJbY0hdW2NIXWMoRilbY0hdYzJDbA==

> <s_epik_cmdline>
J2VwaWtfcHl0aG9uJywgJy1waCcsICc3LjAnLCAnLXRuJywgJzgnLCAnLW1hJywgJzIwMCcsICctbWV0YWxfYmluZGluZycsICctaW1hZScsICc8aW5maWxlLm1hZT4nLCAnLW9tYWUnLCAnPG91dGZpbGUubWFlPic=

> <r_lp_tautomer_probability>
1

> <r_epik_Ionization_Penalty>
2.53738e-06

> <r_epik_Ionization_Penalty_Charging>
0

> <r_epik_Ionization_Penalty_Neutral>
2.53738e-06

> <r_epik_State_Penalty>
-0

> <r_epik_Charging_Adjusted_Penalty>
0

> <i_epik_Tot_Q>
0

> <i_epik_Tot_abs_Q>
0

> <r_epik_Metal_State_Penalty>
-0

> <b_epik_Metal_Only>
0

> <s_lp_Force_Field>
OPLS_2005

> <r_lp_Energy>
11.0812

> <b_lp_Chiralities_Consistent>
1

> <s_lp_Variant>
AV-unprocessed.smi:2836-1

> <Gold.Version>
5.8.1

> <Gold.Id.Protein>
6NUR|6NUR_protein|mol2

> <Gold.PLP.Fitness>
52.6628

> <Gold.PLP.PLP>
-44.1724

> <Gold.PLP.part.hbond>
-2.0000

> <Gold.PLP.part.metal>
0.0000

> <Gold.PLP.part.buried>
-1.1603

> <Gold.PLP.part.nonpolar>
-40.1102

> <Gold.PLP.part.repulsive>
0.2964

> <Gold.PLP.ligand.clash>
0.0000

> <Gold.PLP.ligand.torsion>
0.5178

> <Gold.PLP.Chemscore.Hbond>
1.8000

> <Gold.PLP.Chemscore.CHOScore>
1.3591

> <Gold.PLP.Chemscore.Metal>
0.0000

> <Gold.Chemscore.Hbonds>
donor molecule, donor type, donor heavy atom, donor atom, acceptor molecule, acceptor atom, score
      L1  H     1    20       P1 10175  0.76
      P1  H  7989  7998       L1     6  1.00
      L1  C     5    22       P1  7957  0.90
      L1  C    19    30       P1  8028  0.34

> <Gold.PLP.Chemscore.Internal.Correction>
0.0487

> <Gold.Rescore>
     Score         DG    S(hbond)    S(metal)    S(lipo)     H(rot)  DE(clash)    DE(int)     intcor
     17.11     -18.22       1.46        0.00     108.30       1.89       0.61       0.50       ----

> <Gold.Chemscore.Fitness>
17.1050

> <Gold.Chemscore.DG>
-18.2165

> <Gold.Chemscore.ZeroCoef>
-5.4800

> <Gold.Chemscore.Hbond>
1.4648

> <Gold.Chemscore.Metal>
0.0000

> <Gold.Chemscore.Lipo>
108.3027

> <Gold.Chemscore.Internal_Hbond>
0.0000

> <Gold.Chemscore.DEClash>
0.6118

> <Gold.Chemscore.DEInternal>
0.4997

> <Gold.Chemscore.Rot>
1.8857

> <Gold.Chemscore.Internal.Correction>
   9.000000E+99

> <Gold.Chemscore.Hbonds>
donor molecule, donor type, donor heavy atom, donor atom, acceptor molecule, acceptor atom, score
      L1  H     1    20       P1 10175  0.16
      P1  H  7989  7998       L1     6  0.31

> <Gold.Chemscore.Hbond.Weighted>
-4.8925

> <Gold.Chemscore.Metal.Weighted>
-0.0000

> <Gold.Chemscore.Lipo.Weighted>
-12.6714

> <Gold.Chemscore.Internal_Hbond.Weighted>
0.0000

> <Gold.Chemscore.DEClash.Weighted>
0.6118

> <Gold.Chemscore.DEInternal.Weighted>
0.4997

> <Gold.Chemscore.Rot.Weighted>
4.8275

> <Gold.Chemscore.Internal.Correction.Weighted>
   9.000000E+99

> <Gold.Protein.RotatedTorsions>
[ 6907 6896 6895 6894 ] final  -51.57 input  -60.11 | X-H torsion
[ 7974 7965 7964 7962 ] final  -27.85 input  175.53 | X-H torsion
[ 8008 7997 7996 7995 ] final  178.75 input   59.86 | X-H torsion
[ 10167 10162 10161 10158 ] final  142.12 input  -65.29 | X-H torsion
[ 10718 10713 10712 10709 ] final   19.26 input   66.30 | X-H torsion
[ 10763 10752 10751 10750 ] final   63.89 input  -60.55 | X-H torsion
[ 11005 11000 10999 10996 ] final   13.02 input  -57.11 | X-H torsion

> <Gold.Protein.ActiveResidues>
 VAL166  LYS551  ARG553  GLY616  TRP617  ASP618  TYR619  PRO620  LYS621  CYS622 
 ASP623  PHE694  ASN695  SER759  ASP760  ASP761  ALA762  ILE779  LEU786  VAL792 
 PHE793  MET794  SER795  GLU796  ALA797  LYS798  CYS799  TRP800  GLU811  SER814 

> <Gold.Protein.RotatedAtoms>
  150.8599  134.7948  159.7074 H   0  0  0  0  0  0  0  0  0  0  0  0  # atno 6907 bound_to 6896
  152.4639  134.5117  159.9766 H   0  0  0  0  0  0  0  0  0  0  0  0  # atno 6908 bound_to 6896
  151.5223  133.3426  159.2939 H   0  0  0  0  0  0  0  0  0  0  0  0  # atno 6909 bound_to 6896
  146.1329  140.5206  142.8685 H   0  0  0  0  0  0  0  0  0  0  0  0  # atno 7974 bound_to 7965
  156.0512  140.1326  157.0048 H   0  0  0  0  0  0  0  0  0  0  0  0  # atno 8008 bound_to 7997
  154.4436  140.1010  156.6449 H   0  0  0  0  0  0  0  0  0  0  0  0  # atno 8009 bound_to 7997
  155.5521  140.3463  155.4473 H   0  0  0  0  0  0  0  0  0  0  0  0  # atno 8010 bound_to 7997
  139.5002  144.6128  151.6233 H   0  0  0  0  0  0  0  0  0  0  0  0  # atno 10167 bound_to 10162
  157.1080  130.6496  149.5890 H   0  0  0  0  0  0  0  0  0  0  0  0  # atno 10718 bound_to 10713
  153.0035  135.5412  154.6424 H   0  0  0  0  0  0  0  0  0  0  0  0  # atno 10763 bound_to 10752
  154.5676  135.2839  155.0861 H   0  0  0  0  0  0  0  0  0  0  0  0  # atno 10764 bound_to 10752
  154.2039  135.6479  153.5148 H   0  0  0  0  0  0  0  0  0  0  0  0  # atno 10765 bound_to 10752
  140.4854  134.0893  155.7760 H   0  0  0  0  0  0  0  0  0  0  0  0  # atno 11005 bound_to 11000
  144.7709  140.5635  143.6671 LP  0  0  0  0  0  0  0  0  0  0  0  0  # atno 17320 bound_to 7965
  145.5221  139.1476  143.3546 LP  0  0  0  0  0  0  0  0  0  0  0  0  # atno 17321 bound_to 7965
  140.5807  143.9951  150.6266 LP  0  0  0  0  0  0  0  0  0  0  0  0  # atno 17342 bound_to 10162
  140.3099  143.3205  152.0889 LP  0  0  0  0  0  0  0  0  0  0  0  0  # atno 17343 bound_to 10162
  155.9857  130.4888  150.7045 LP  0  0  0  0  0  0  0  0  0  0  0  0  # atno 17370 bound_to 10713
  157.4584  131.0880  151.0772 LP  0  0  0  0  0  0  0  0  0  0  0  0  # atno 17371 bound_to 10713
  141.1510  133.8968  157.2097 LP  0  0  0  0  0  0  0  0  0  0  0  0  # atno 17394 bound_to 11000
  139.9801  135.0101  156.9728 LP  0  0  0  0  0  0  0  0  0  0  0  0  # atno 17395 bound_to 11000

$$$$
