#       Name:                AV-unprocessed.smi:232
#       Creating user name   scv26
#       Creation time:       Thu Mar 26 20:30:54 2020


#       File generated by GOLD software.
#

@<TRIPOS>MOLECULE
AV-unprocessed.smi:232
    60    63     1
SMALL
NO_CHARGES


@<TRIPOS>ATOM
      1 ****        -3.5997  -2.0045  -5.0076 C.3            1 S1                 0.0000
      2 ****        -3.1817  -1.8136  -3.5442 C.3            1 S1                 0.0000
      3 ****        -3.1923  -0.3340  -3.1012 C.3            1 S1                 0.0000
      4 ****        -4.6077   0.2744  -3.0545 C.3            1 S1                 0.0000
      5 ****        -4.7181   0.9630  -1.6893 C.3            1 S1                 0.0000
      6 ****        -3.2799   1.0418  -1.1752 C.3            1 S1                 0.0000
      7 ****        -2.5986   2.3620  -1.5924 C.3            1 S1                 0.0000
      8 ****        -2.6485  -0.1381  -1.7569 N.3            1 S1                 0.0000
      9 ****        -1.3262  -0.3233  -1.4968 C.ar           1 S1                 0.0000
     10 ****        -0.4395  -0.4247  -2.5231 N.ar           1 S1                 0.0000
     11 ****         0.8642  -0.5843  -2.2797 C.ar           1 S1                 0.0000
     12 ****         1.4893  -0.6650  -1.1041 N.ar           1 S1                 0.0000
     13 ****         0.6069  -0.5657  -0.0694 C.ar           1 S1                 0.0000
     14 ****        -0.8030  -0.3954  -0.1743 C.ar           1 S1                 0.0000
     15 ****        -1.3662  -0.3438   1.0960 N.2            1 S1                 0.0000
     16 ****        -0.3481  -0.4637   1.9036 C.2            1 S1                 0.0000
     17 ****         0.8743  -0.6013   1.2876 N.pl3          1 S1                 0.0000
     18 ****         2.1631  -0.7500   1.9411 C.3            1 S1                 0.0000
     19 ****         2.7159   0.5900   2.4732 C.3            1 S1                 0.0000
     20 ****         2.7996   1.4982   1.3912 O.3            1 S1                 0.0000
     21 ****         4.1240   0.4596   3.0876 C.3            1 S1                 0.0000
     22 ****         4.2641  -0.6351   4.1465 C.3            1 S1                 0.0000
     23 ****         5.4597  -0.1816   4.9662 C.3            1 S1                 0.0000
     24 ****         5.5534   1.3183   4.6753 C.3            1 S1                 0.0000
     25 ****         4.4288   1.6133   3.8572 O.3            1 S1                 0.0000
     26 ****        -3.5582  -3.0574  -5.2877 H              1 S1                 0.0000
     27 ****        -2.9372  -1.4568  -5.6783 H              1 S1                 0.0000
     28 ****        -4.6176  -1.6566  -5.1832 H              1 S1                 0.0000
     29 ****        -3.8366  -2.3975  -2.8965 H              1 S1                 0.0000
     30 ****        -2.1858  -2.2389  -3.4221 H              1 S1                 0.0000
     31 ****        -2.5920   0.2513  -3.7994 H              1 S1                 0.0000
     32 ****        -4.7320   0.9928  -3.8654 H              1 S1                 0.0000
     33 ****        -5.3916  -0.4765  -3.1611 H              1 S1                 0.0000
     34 ****        -5.2123   1.9336  -1.7419 H              1 S1                 0.0000
     35 ****        -5.3053   0.3349  -1.0180 H              1 S1                 0.0000
     36 ****        -3.2905   0.9736  -0.0878 H              1 S1                 0.0000
     37 ****        -3.1336   3.2192  -1.1836 H              1 S1                 0.0000
     38 ****        -2.5680   2.4782  -2.6761 H              1 S1                 0.0000
     39 ****        -1.5742   2.4169  -1.2229 H              1 S1                 0.0000
     40 ****         1.4970  -0.6550  -3.1519 H              1 S1                 0.0000
     41 ****        -0.4609  -0.4534   2.9778 H              1 S1                 0.0000
     42 ****         2.0412  -1.4655   2.7546 H              1 S1                 0.0000
     43 ****         2.8648  -1.1986   1.2365 H              1 S1                 0.0000
     44 ****         2.0260   0.9933   3.2158 H              1 S1                 0.0000
     45 ****         3.3813   1.1371   0.7401 H              1 S1                 0.0000
     46 ****         4.8808   0.3201   2.3126 H              1 S1                 0.0000
     47 ****         3.3765  -0.6595   4.7804 H              1 S1                 0.0000
     48 ****         4.4003  -1.6281   3.7172 H              1 S1                 0.0000
     49 ****         5.3175  -0.3886   6.0274 H              1 S1                 0.0000
     50 ****         6.3703  -0.6871   4.6425 H              1 S1                 0.0000
     51 ****         5.5376   1.9216   5.5832 H              1 S1                 0.0000
     52 ****         6.4694   1.5481   4.1292 H              1 S1                 0.0000
     53 ****        -2.9054  -0.9629  -1.2533 LP             1 S1                 0.0000
     54 ****        -0.7661  -0.3794  -3.4672 LP             1 S1                 0.0000
     55 ****         2.4764  -0.7829  -0.9957 LP             1 S1                 0.0000
     56 ****        -2.3313  -0.2387   1.3360 LP             1 S1                 0.0000
     57 ****         3.1570   2.3748   1.7137 LP             1 S1                 0.0000
     58 ****         1.8919   1.6342   0.9942 LP             1 S1                 0.0000
     59 ****         3.6462   1.8534   4.4316 LP             1 S1                 0.0000
     60 ****         4.6435   2.3782   3.2499 LP             1 S1                 0.0000
@<TRIPOS>BOND
    1    1    2 1     
    2    1   26 1     
    3    1   27 1     
    4    1   28 1     
    5    2    3 1     
    6    2   29 1     
    7    2   30 1     
    8    3    8 1     
    9    3    4 1     
   10    3   31 1     
   11    4    5 1     
   12    4   32 1     
   13    4   33 1     
   14    5    6 1     
   15    5   34 1     
   16    5   35 1     
   17    6    7 1     
   18    6    8 1     
   19    6   36 1     
   20    7   37 1     
   21    7   38 1     
   22    7   39 1     
   23    8    9 1     
   24    9   14 ar    
   25    9   10 ar    
   26   10   11 ar    
   27   11   12 ar    
   28   11   40 1     
   29   12   13 ar    
   30   13   17 1     
   31   13   14 ar    
   32   14   15 1     
   33   15   16 2     
   34   16   17 1     
   35   16   41 1     
   36   17   18 1     
   37   18   19 1     
   38   18   42 1     
   39   18   43 1     
   40   19   20 1     
   41   19   21 1     
   42   19   44 1     
   43   20   45 1     
   44   21   25 1     
   45   21   22 1     
   46   21   46 1     
   47   22   23 1     
   48   22   47 1     
   49   22   48 1     
   50   23   24 1     
   51   23   49 1     
   52   23   50 1     
   53   24   25 1     
   54   24   51 1     
   55   24   52 1     
   56    8   53 1     
   57   10   54 1     
   58   12   55 1     
   59   15   56 1     
   60   20   57 1     
   61   20   58 1     
   62   25   59 1     
   63   25   60 1     
@<TRIPOS>SUBSTRUCTURE
      1 S1             1
@<TRIPOS>SET
LONE_PAIRS      STATIC     ATOMS    <user>   **** ""
8 53 54 55 56 57 58 59 60
DONOR_HYDROGENS      STATIC     ATOMS    <user>   **** ""
1 45
ATOM$BLUE        STATIC     ATOMS    COLORGROUP SYSTEM
8 53 54 55 56 57 58 59 60
ATOM$RED        STATIC     ATOMS    COLORGROUP SYSTEM
1 45
