AV-unprocessed.smi:1695|AV-procd|sdf|6795|dock2
  -GOLD-   22720 7563D 1   1.00000     0.00000
 Structure written by MMmdl.
 52 54  0  0  0  0  0  0  0  0  3 V2000
  153.9710  142.7649  163.3030 C   0  0  0  0  0  0  0  0  0  0  0  0
  153.3028  142.8651  161.9423 C   0  0  0  0  0  0  0  0  0  0  0  0
  152.2978  143.8403  161.7549 C   0  0  0  0  0  0  0  0  0  0  0  0
  151.7024  143.9052  160.5009 C   0  0  0  0  0  0  0  0  0  0  0  0
  150.6966  144.7404  160.0108 N   0  3  0  0  0  0  0  0  0  0  0  0
  150.4380  144.4267  158.7116 C   0  0  0  0  0  0  0  0  0  0  0  0
  151.2690  143.4071  158.3612 N   0  0  0  0  0  0  0  0  0  0  0  0
  151.3818  142.6954  157.0801 C   0  0  0  0  0  0  0  0  0  0  0  0
  150.3851  141.5268  156.9521 C   0  0  2  0  0  0  0  0  0  0  0  0
  151.0914  140.3324  157.2194 O   0  0  0  0  0  0  0  0  0  0  0  0
  149.7264  141.4143  155.5597 C   0  0  0  0  0  0  0  0  0  0  0  0
  148.3839  142.0493  155.5183 N   0  3  1  0  0  0  0  0  0  0  0  0
  147.6795  141.8562  154.2230 C   0  0  0  0  0  0  0  0  0  0  0  0
  146.3716  142.6629  154.1821 C   0  0  0  0  0  0  0  0  0  0  0  0
  145.4451  142.2840  155.3537 C   0  0  2  0  0  0  0  0  0  0  0  0
  144.1706  143.1390  155.3446 C   0  0  0  0  0  0  0  0  0  0  0  0
  143.0157  142.5119  155.1096 N   0  0  0  0  0  0  0  0  0  0  0  0
  144.2264  144.3503  155.5470 O   0  0  0  0  0  0  0  0  0  0  0  0
  146.2149  142.4490  156.6786 C   0  0  0  0  0  0  0  0  0  0  0  0
  147.5285  141.6494  156.6647 C   0  0  0  0  0  0  0  0  0  0  0  0
  152.0741  143.0445  159.4491 C   0  0  0  0  0  0  0  0  0  0  0  0
  153.0655  142.0795  159.6173 C   0  0  0  0  0  0  0  0  0  0  0  0
  153.6812  141.9957  160.8868 C   0  0  0  0  0  0  0  0  0  0  0  0
  154.7612  140.9485  161.1003 C   0  0  0  0  0  0  0  0  0  0  0  0
  153.5812  143.5117  163.9953 H   0  0  0  0  0  0  0  0  0  0  0  0
  155.0463  142.9217  163.2155 H   0  0  0  0  0  0  0  0  0  0  0  0
  153.7983  141.7821  163.7423 H   0  0  0  0  0  0  0  0  0  0  0  0
  152.0033  144.5048  162.5543 H   0  0  0  0  0  0  0  0  0  0  0  0
  149.7029  144.8995  158.0757 H   0  0  0  0  0  0  0  0  0  0  0  0
  151.2728  143.4019  156.2575 H   0  0  0  0  0  0  0  0  0  0  0  0
  152.4036  142.3175  157.0196 H   0  0  0  0  0  0  0  0  0  0  0  0
  149.6238  141.6416  157.7230 H   0  0  0  0  0  0  0  0  0  0  0  0
  150.5103  139.5980  157.0897 H   0  0  0  0  0  0  0  0  0  0  0  0
  150.3524  141.8663  154.7893 H   0  0  0  0  0  0  0  0  0  0  0  0
  149.6463  140.3569  155.3025 H   0  0  0  0  0  0  0  0  0  0  0  0
  148.3125  142.1696  153.3938 H   0  0  0  0  0  0  0  0  0  0  0  0
  147.4700  140.7956  154.0749 H   0  0  0  0  0  0  0  0  0  0  0  0
  146.6071  143.7280  154.2138 H   0  0  0  0  0  0  0  0  0  0  0  0
  145.8652  142.4875  153.2319 H   0  0  0  0  0  0  0  0  0  0  0  0
  145.1631  141.2348  155.2469 H   0  0  0  0  0  0  0  0  0  0  0  0
  142.1496  143.0306  155.0948 H   0  0  0  0  0  0  0  0  0  0  0  0
  143.0131  141.5148  154.9481 H   0  0  0  0  0  0  0  0  0  0  0  0
  146.4399  143.5019  156.8577 H   0  0  0  0  0  0  0  0  0  0  0  0
  145.5966  142.1197  157.5149 H   0  0  0  0  0  0  0  0  0  0  0  0
  147.3209  140.5795  156.6118 H   0  0  0  0  0  0  0  0  0  0  0  0
  148.0598  141.8246  157.6010 H   0  0  0  0  0  0  0  0  0  0  0  0
  153.3584  141.4147  158.8186 H   0  0  0  0  0  0  0  0  0  0  0  0
  154.9127  140.3428  160.2063 H   0  0  0  0  0  0  0  0  0  0  0  0
  154.4885  140.2761  161.9138 H   0  0  0  0  0  0  0  0  0  0  0  0
  155.7113  141.4231  161.3466 H   0  0  0  0  0  0  0  0  0  0  0  0
  148.5421  143.0420  155.6222 H   0  0  0  0  0  0  0  0  0  0  0  0
  150.2156  145.4673  160.5255 H   0  0  0  0  0  0  0  0  0  0  0  0
  1  2  1  0  0  0  0
  1 25  1  0  0  0  0
  1 26  1  0  0  0  0
  1 27  1  0  0  0  0
  2 23  1  0  0  0  0
  2  3  2  0  0  0  0
  3  4  1  0  0  0  0
  3 28  1  0  0  0  0
  4 21  2  0  0  0  0
  4  5  1  0  0  0  0
  5  6  2  0  0  0  0
  5 52  1  0  0  0  0
  6  7  1  0  0  0  0
  6 29  1  0  0  0  0
  7  8  1  0  0  0  0
  7 21  1  0  0  0  0
  8  9  1  0  0  0  0
  8 30  1  0  0  0  0
  8 31  1  0  0  0  0
  9 10  1  0  0  0  0
  9 11  1  0  0  0  0
  9 32  1  0  0  0  0
 10 33  1  0  0  0  0
 11 12  1  0  0  0  0
 11 34  1  0  0  0  0
 11 35  1  0  0  0  0
 12 20  1  0  0  0  0
 12 13  1  0  0  0  0
 12 51  1  0  0  0  0
 13 14  1  0  0  0  0
 13 36  1  0  0  0  0
 13 37  1  0  0  0  0
 14 15  1  0  0  0  0
 14 38  1  0  0  0  0
 14 39  1  0  0  0  0
 15 16  1  0  0  0  0
 15 19  1  0  0  0  0
 15 40  1  0  0  0  0
 16 17  1  0  0  0  0
 16 18  2  0  0  0  0
 17 41  1  0  0  0  0
 17 42  1  0  0  0  0
 19 20  1  0  0  0  0
 19 43  1  0  0  0  0
 19 44  1  0  0  0  0
 20 45  1  0  0  0  0
 20 46  1  0  0  0  0
 21 22  1  0  0  0  0
 22 23  2  0  0  0  0
 22 47  1  0  0  0  0
 23 24  1  0  0  0  0
 24 48  1  0  0  0  0
 24 49  1  0  0  0  0
 24 50  1  0  0  0  0
M  CHG  1   5   1
M  CHG  1  12   1
M  END
> <s_m_source_file>
AV-unprocessed.smi

> <i_m_source_file_index>
1695

> <i_lp_mmshare_version>
43012

> <i_f3d_flags>
0

> <s_epik_input>
W0NIM11jKFtjSF0xKWMoW0NIM10pW2NIXWMoYzEyKW4oW2NIXW4yKVtDSDJdW0NASF0oW09IXSlbQ0gyXU4zW0NIMl1bQ0gyXVtDSF0oQyg9TylbTkgyXSlbQ0gyXVtDSDJdMw==

> <s_epik_cmdline>
J2VwaWtfcHl0aG9uJywgJy1waCcsICc3LjAnLCAnLXRuJywgJzgnLCAnLW1hJywgJzIwMCcsICctbWV0YWxfYmluZGluZycsICctaW1hZScsICc8aW5maWxlLm1hZT4nLCAnLW9tYWUnLCAnPG91dGZpbGUubWFlPic=

> <r_epik_Ionization_Penalty>
1.20173

> <r_epik_Ionization_Penalty_Charging>
1.20172

> <r_epik_Ionization_Penalty_Neutral>
1.7852e-06

> <r_epik_State_Penalty>
1.28089

> <r_epik_Charging_Adjusted_Penalty>
2.48261

> <i_epik_Tot_Q>
2

> <i_epik_Tot_abs_Q>
2

> <r_epik_Metal_State_Penalty>
1.35652

> <b_epik_Metal_Only>
0

> <s_lp_Force_Field>
OPLS_2005

> <r_lp_Energy>
30.6346

> <b_lp_Chiralities_Consistent>
1

> <s_lp_Variant>
AV-unprocessed.smi:1695-7

> <Gold.Version>
5.8.1

> <Gold.Id.Protein>
6NUR|6NUR_protein|mol2

> <Gold.PLP.Fitness>
61.2332

> <Gold.PLP.PLP>
-55.3346

> <Gold.PLP.part.hbond>
-2.0000

> <Gold.PLP.part.metal>
0.0000

> <Gold.PLP.part.buried>
-7.5311

> <Gold.PLP.part.nonpolar>
-46.9542

> <Gold.PLP.part.repulsive>
0.4068

> <Gold.PLP.ligand.clash>
0.0000

> <Gold.PLP.ligand.torsion>
1.5593

> <Gold.PLP.Chemscore.Hbond>
2.0000

> <Gold.PLP.Chemscore.CHOScore>
0.9773

> <Gold.PLP.Chemscore.Metal>
0.0000

> <Gold.Chemscore.Hbonds>
donor molecule, donor type, donor heavy atom, donor atom, acceptor molecule, acceptor atom, score
      L1  H    12    51       P1  8028  2.00
      L1  C     6    29       P1  8028  0.17
      L1  C     6    29       P1  8029  0.82

> <Gold.PLP.Chemscore.Internal.Correction>
0.0853

> <Gold.Rescore>
     Score         DG    S(hbond)    S(metal)    S(lipo)     H(rot)  DE(clash)    DE(int)     intcor
     15.18     -16.70       0.97        0.00     131.80       2.91       0.05       1.47       ----

> <Gold.Chemscore.Fitness>
15.1767

> <Gold.Chemscore.DG>
-16.6954

> <Gold.Chemscore.ZeroCoef>
-5.4800

> <Gold.Chemscore.Hbond>
0.9736

> <Gold.Chemscore.Metal>
0.0000

> <Gold.Chemscore.Lipo>
131.7955

> <Gold.Chemscore.Internal_Hbond>
0.0000

> <Gold.Chemscore.DEClash>
0.0535

> <Gold.Chemscore.DEInternal>
1.4652

> <Gold.Chemscore.Rot>
2.9127

> <Gold.Chemscore.Internal.Correction>
   9.000000E+99

> <Gold.Chemscore.Hbonds>
donor molecule, donor type, donor heavy atom, donor atom, acceptor molecule, acceptor atom, score
      L1  H    12    51       P1  8028  1.00

> <Gold.Chemscore.Hbond.Weighted>
-3.2518

> <Gold.Chemscore.Metal.Weighted>
-0.0000

> <Gold.Chemscore.Lipo.Weighted>
-15.4201

> <Gold.Chemscore.Internal_Hbond.Weighted>
0.0000

> <Gold.Chemscore.DEClash.Weighted>
0.0535

> <Gold.Chemscore.DEInternal.Weighted>
1.4652

> <Gold.Chemscore.Rot.Weighted>
7.4565

> <Gold.Chemscore.Internal.Correction.Weighted>
   9.000000E+99

> <Gold.Protein.RotatedTorsions>
[ 6907 6896 6895 6894 ] final  133.10 input  -60.11 | X-H torsion
[ 7974 7965 7964 7962 ] final -116.40 input  175.53 | X-H torsion
[ 8008 7997 7996 7995 ] final   41.46 input   59.86 | X-H torsion
[ 10167 10162 10161 10158 ] final -151.14 input  -65.29 | X-H torsion
[ 10718 10713 10712 10709 ] final  -60.69 input   66.30 | X-H torsion
[ 10763 10752 10751 10750 ] final   34.54 input  -60.55 | X-H torsion
[ 11005 11000 10999 10996 ] final  -53.51 input  -57.11 | X-H torsion

> <Gold.Protein.ActiveResidues>
 VAL166  LYS551  ARG553  GLY616  TRP617  ASP618  TYR619  PRO620  LYS621  CYS622 
 ASP623  PHE694  ASN695  SER759  ASP760  ASP761  ALA762  ILE779  LEU786  VAL792 
 PHE793  MET794  SER795  GLU796  ALA797  LYS798  CYS799  TRP800  GLU811  SER814 

> <Gold.Protein.RotatedAtoms>
  152.3255  133.5900  159.5773 H   0  0  0  0  0  0  0  0  0  0  0  0  # atno 6907 bound_to 6896
  150.7394  133.9947  159.3627 H   0  0  0  0  0  0  0  0  0  0  0  0  # atno 6908 bound_to 6896
  151.7827  135.0758  160.0427 H   0  0  0  0  0  0  0  0  0  0  0  0  # atno 6909 bound_to 6896
  145.0972  140.8529  143.3947 H   0  0  0  0  0  0  0  0  0  0  0  0  # atno 7974 bound_to 7965
  155.2701  140.3365  155.4266 H   0  0  0  0  0  0  0  0  0  0  0  0  # atno 8008 bound_to 7997
  156.2136  140.1780  156.7680 H   0  0  0  0  0  0  0  0  0  0  0  0  # atno 8009 bound_to 7997
  154.5722  140.0668  156.8965 H   0  0  0  0  0  0  0  0  0  0  0  0  # atno 8010 bound_to 7997
  139.7293  143.8833  152.2529 H   0  0  0  0  0  0  0  0  0  0  0  0  # atno 10167 bound_to 10162
  156.0973  130.4191  150.0889 H   0  0  0  0  0  0  0  0  0  0  0  0  # atno 10718 bound_to 10713
  153.0159  135.6357  154.1685 H   0  0  0  0  0  0  0  0  0  0  0  0  # atno 10763 bound_to 10752
  154.1424  135.2834  155.3159 H   0  0  0  0  0  0  0  0  0  0  0  0  # atno 10764 bound_to 10752
  154.6114  135.5555  153.7539 H   0  0  0  0  0  0  0  0  0  0  0  0  # atno 10765 bound_to 10752
  141.0979  133.6622  156.4183 H   0  0  0  0  0  0  0  0  0  0  0  0  # atno 11005 bound_to 11000
  145.0997  139.2831  143.5693 LP  0  0  0  0  0  0  0  0  0  0  0  0  # atno 17320 bound_to 7965
  146.3530  140.0560  142.8632 LP  0  0  0  0  0  0  0  0  0  0  0  0  # atno 17321 bound_to 7965
  139.8751  144.7047  150.8942 LP  0  0  0  0  0  0  0  0  0  0  0  0  # atno 17342 bound_to 10162
  140.7768  143.3706  151.1656 LP  0  0  0  0  0  0  0  0  0  0  0  0  # atno 17343 bound_to 10162
  156.8885  130.9580  151.3591 LP  0  0  0  0  0  0  0  0  0  0  0  0  # atno 17370 bound_to 10713
  157.6137  130.8602  149.8993 LP  0  0  0  0  0  0  0  0  0  0  0  0  # atno 17371 bound_to 10713
  140.5094  134.6410  157.5278 LP  0  0  0  0  0  0  0  0  0  0  0  0  # atno 17394 bound_to 11000
  139.9822  134.7119  155.9839 LP  0  0  0  0  0  0  0  0  0  0  0  0  # atno 17395 bound_to 11000

$$$$
