AV-unprocessed.smi:37|AV-procd|sdf|326|dock7
  -GOLD-   2262016153D 1   1.00000     0.00000
 Structure written by MMmdl.
 43 44  0  0  0  0  0  0  0  0  2 V2000
  150.8044  137.5326  154.6297 C   0  0  0  0  0  0  0  0  0  0  0  0
  152.1072  138.3145  154.8450 C   0  0  0  0  0  0  0  0  0  0  0  0
  151.9355  139.4541  155.8464 C   0  0  0  0  0  0  0  0  0  0  0  0
  151.2421  140.4379  155.5869 O   0  0  0  0  0  0  0  0  0  0  0  0
  152.6139  139.2473  156.9853 O   0  0  0  0  0  0  0  0  0  0  0  0
  152.2015  139.8975  158.1754 C   0  0  0  0  0  0  0  0  0  0  0  0
  153.2524  139.6618  159.2679 C   0  0  1  0  0  0  0  0  0  0  0  0
  154.5683  139.8802  158.7727 O   0  0  0  0  0  0  0  0  0  0  0  0
  155.4172  140.2512  159.8210 C   0  0  2  0  0  0  0  0  0  0  0  0
  156.4852  139.1979  160.0136 N   0  0  0  0  0  0  0  0  0  0  0  0
  156.5782  138.1023  159.1706 C   0  0  0  0  0  0  0  0  0  0  0  0
  157.5348  137.1678  159.3448 C   0  0  0  0  0  0  0  0  0  0  0  0
  157.5979  136.1123  158.5148 F   0  0  0  0  0  0  0  0  0  0  0  0
  158.4946  137.3095  160.4382 C   0  0  0  0  0  0  0  0  0  0  0  0
  159.3685  136.4568  160.5881 O   0  0  0  0  0  0  0  0  0  0  0  0
  158.3759  138.3965  161.2547 N   0  5  0  0  0  0  0  0  0  0  0  0
  157.4064  139.3426  161.0858 C   0  0  0  0  0  0  0  0  0  0  0  0
  157.2814  140.3204  161.8235 O   0  0  0  0  0  0  0  0  0  0  0  0
  154.5426  140.4665  161.0757 C   0  0  2  0  0  0  0  0  0  0  0  0
  154.5140  138.8958  162.3133 Br  0  0  0  0  0  0  0  0  0  0  0  0
  153.1584  140.6090  160.4666 C   0  0  1  0  0  0  0  0  0  0  0  0
  152.9362  141.9424  160.0183 O   0  0  0  0  0  0  0  0  0  0  0  0
  152.4850  142.8820  160.8687 C   0  0  0  0  0  0  0  0  0  0  0  0
  152.1912  142.7050  162.0510 O   0  0  0  0  0  0  0  0  0  0  0  0
  152.3741  144.2593  160.2185 C   0  0  0  0  0  0  0  0  0  0  0  0
  152.6670  144.2161  158.7123 C   0  0  0  0  0  0  0  0  0  0  0  0
  150.9495  136.7419  153.8938 H   0  0  0  0  0  0  0  0  0  0  0  0
  150.0089  138.1824  154.2632 H   0  0  0  0  0  0  0  0  0  0  0  0
  150.4600  137.0645  155.5528 H   0  0  0  0  0  0  0  0  0  0  0  0
  152.8900  137.6458  155.2034 H   0  0  0  0  0  0  0  0  0  0  0  0
  152.4527  138.7268  153.8965 H   0  0  0  0  0  0  0  0  0  0  0  0
  152.0581  140.9653  158.0028 H   0  0  0  0  0  0  0  0  0  0  0  0
  151.2427  139.4819  158.4885 H   0  0  0  0  0  0  0  0  0  0  0  0
  153.1836  138.6343  159.6291 H   0  0  0  0  0  0  0  0  0  0  0  0
  155.9407  141.1544  159.5025 H   0  0  0  0  0  0  0  0  0  0  0  0
  155.8748  137.9767  158.3614 H   0  0  0  0  0  0  0  0  0  0  0  0
  154.8756  141.3366  161.6425 H   0  0  0  0  0  0  0  0  0  0  0  0
  152.3676  140.3021  161.1533 H   0  0  0  0  0  0  0  0  0  0  0  0
  151.3697  144.6485  160.3879 H   0  0  0  0  0  0  0  0  0  0  0  0
  153.0653  144.9407  160.7153 H   0  0  0  0  0  0  0  0  0  0  0  0
  152.5308  145.2014  158.2666 H   0  0  0  0  0  0  0  0  0  0  0  0
  151.9978  143.5255  158.1977 H   0  0  0  0  0  0  0  0  0  0  0  0
  153.6925  143.9033  158.5124 H   0  0  0  0  0  0  0  0  0  0  0  0
  1  2  1  0  0  0  0
  1 27  1  0  0  0  0
  1 28  1  0  0  0  0
  1 29  1  0  0  0  0
  2  3  1  0  0  0  0
  2 30  1  0  0  0  0
  2 31  1  0  0  0  0
  3  4  2  0  0  0  0
  3  5  1  0  0  0  0
  5  6  1  0  0  0  0
  6  7  1  0  0  0  0
  6 32  1  0  0  0  0
  6 33  1  0  0  0  0
  7 21  1  0  0  0  0
  7  8  1  0  0  0  0
  7 34  1  0  0  0  0
  8  9  1  0  0  0  0
  9 10  1  0  0  0  0
  9 19  1  0  0  0  0
  9 35  1  0  0  0  0
 10 17  1  0  0  0  0
 10 11  1  0  0  0  0
 11 12  2  0  0  0  0
 11 36  1  0  0  0  0
 12 13  1  0  0  0  0
 12 14  1  0  0  0  0
 14 15  2  0  0  0  0
 14 16  1  0  0  0  0
 16 17  1  0  0  0  0
 17 18  2  0  0  0  0
 19 20  1  0  0  0  0
 19 21  1  0  0  0  0
 19 37  1  0  0  0  0
 21 22  1  0  0  0  0
 21 38  1  0  0  0  0
 22 23  1  0  0  0  0
 23 24  2  0  0  0  0
 23 25  1  0  0  0  0
 25 26  1  0  0  0  0
 25 39  1  0  0  0  0
 25 40  1  0  0  0  0
 26 41  1  0  0  0  0
 26 42  1  0  0  0  0
 26 43  1  0  0  0  0
M  CHG  1  16  -1
M  END
> <s_m_source_file>
AV-unprocessed.smi

> <i_m_source_file_index>
37

> <i_lp_mmshare_version>
43012

> <i_f3d_flags>
0

> <s_epik_input>
W0NIM11bQ0gyXUMoPU8pT1tDSDJdW0NAQEhdMU9bQ0BASF0objJbY0hdYyhGKWMoPU8pW25IXWMyPU8pW0NAQEhdKEJyKVtDQEhdMU9DKD1PKVtDSDJdW0NIM10=

> <s_epik_cmdline>
J2VwaWtfcHl0aG9uJywgJy1waCcsICc3LjAnLCAnLXRuJywgJzgnLCAnLW1hJywgJzIwMCcsICctbWV0YWxfYmluZGluZycsICctaW1hZScsICc8aW5maWxlLm1hZT4nLCAnLW9tYWUnLCAnPG91dGZpbGUubWFlPic=

> <r_epik_Ionization_Penalty>
1.08158

> <r_epik_Ionization_Penalty_Charging>
9.05154e-09

> <r_epik_Ionization_Penalty_Neutral>
1.08158

> <r_epik_State_Penalty>
1.13706

> <r_epik_Charging_Adjusted_Penalty>
1.13706

> <i_epik_Tot_Q>
-1

> <i_epik_Tot_abs_Q>
1

> <r_epik_Metal_State_Penalty>
0.00343535

> <b_epik_Metal_Only>
0

> <s_epik_Chemistry_Notes>
This compound has an ester and may undergo hydrolysis at high or low pH. This compound contains an acetal/aminal-like group ( X-CH(R)-Y where X, Y are N, S, or O) that may be acid/base labile, releasing an aldehyde.

> <s_lp_Force_Field>
OPLS_2005

> <r_lp_Energy>
32.8467

> <b_lp_Chiralities_Consistent>
1

> <s_lp_Variant>
AV-unprocessed.smi:37-24

> <Gold.Version>
5.8.1

> <Gold.Id.Protein>
6NUR|6NUR_protein|mol2

> <Gold.PLP.Fitness>
47.0923

> <Gold.PLP.PLP>
-41.4052

> <Gold.PLP.part.hbond>
-4.5707

> <Gold.PLP.part.metal>
0.0000

> <Gold.PLP.part.buried>
-5.0235

> <Gold.PLP.part.nonpolar>
-34.6152

> <Gold.PLP.part.repulsive>
0.2652

> <Gold.PLP.ligand.clash>
0.0000

> <Gold.PLP.ligand.torsion>
0.8052

> <Gold.PLP.Chemscore.Hbond>
2.3658

> <Gold.PLP.Chemscore.CHOScore>
0.0000

> <Gold.PLP.Chemscore.Metal>
0.0000

> <Gold.Chemscore.Hbonds>
donor molecule, donor type, donor heavy atom, donor atom, acceptor molecule, acceptor atom, score
      P1  H  6933  6945       L1    24  0.20
      P1  H  7989  7998       L1     4  0.61
      P1  H  7997  8010       L1     8  0.93

> <Gold.PLP.Chemscore.Internal.Correction>
0.2002

> <Gold.Rescore>
     Score         DG    S(hbond)    S(metal)    S(lipo)     H(rot)  DE(clash)    DE(int)     intcor
     10.63     -15.15       2.61        0.00      79.72       3.27       2.53       1.98       ----

> <Gold.Chemscore.Fitness>
10.6335

> <Gold.Chemscore.DG>
-15.1524

> <Gold.Chemscore.ZeroCoef>
-5.4800

> <Gold.Chemscore.Hbond>
2.6075

> <Gold.Chemscore.Metal>
0.0000

> <Gold.Chemscore.Lipo>
79.7159

> <Gold.Chemscore.Internal_Hbond>
0.0000

> <Gold.Chemscore.DEClash>
2.5340

> <Gold.Chemscore.DEInternal>
1.9849

> <Gold.Chemscore.Rot>
3.2669

> <Gold.Chemscore.Internal.Correction>
   9.000000E+99

> <Gold.Chemscore.Hbonds>
donor molecule, donor type, donor heavy atom, donor atom, acceptor molecule, acceptor atom, score
      P1  H  6933  6945       L1    24  0.15
      P1  H  7989  7998       L1     4  0.29
      P1  H  7997  8010       L1     8  0.70

> <Gold.Chemscore.Hbond.Weighted>
-8.7090

> <Gold.Chemscore.Metal.Weighted>
-0.0000

> <Gold.Chemscore.Lipo.Weighted>
-9.3268

> <Gold.Chemscore.Internal_Hbond.Weighted>
0.0000

> <Gold.Chemscore.DEClash.Weighted>
2.5340

> <Gold.Chemscore.DEInternal.Weighted>
1.9849

> <Gold.Chemscore.Rot.Weighted>
8.3634

> <Gold.Chemscore.Internal.Correction.Weighted>
   9.000000E+99

> <Gold.Protein.RotatedTorsions>
[ 6907 6896 6895 6894 ] final  111.24 input  -60.11 | X-H torsion
[ 7974 7965 7964 7962 ] final   82.83 input  175.53 | X-H torsion
[ 8008 7997 7996 7995 ] final  -11.35 input   59.86 | X-H torsion
[ 10167 10162 10161 10158 ] final  -61.74 input  -65.29 | X-H torsion
[ 10718 10713 10712 10709 ] final  -25.98 input   66.30 | X-H torsion
[ 10763 10752 10751 10750 ] final  -53.79 input  -60.55 | X-H torsion
[ 11005 11000 10999 10996 ] final  109.98 input  -57.11 | X-H torsion

> <Gold.Protein.ActiveResidues>
 VAL166  LYS551  ARG553  GLY616  TRP617  ASP618  TYR619  PRO620  LYS621  CYS622 
 ASP623  PHE694  ASN695  SER759  ASP760  ASP761  ALA762  ILE779  LEU786  VAL792 
 PHE793  MET794  SER795  GLU796  ALA797  LYS798  CYS799  TRP800  GLU811  SER814 

> <Gold.Protein.RotatedAtoms>
  152.4979  133.8685  159.7286 H   0  0  0  0  0  0  0  0  0  0  0  0  # atno 6907 bound_to 6896
  150.9178  133.6909  159.2846 H   0  0  0  0  0  0  0  0  0  0  0  0  # atno 6908 bound_to 6896
  151.4296  135.1012  159.9691 H   0  0  0  0  0  0  0  0  0  0  0  0  # atno 6909 bound_to 6896
  145.6200  139.2384  143.2144 H   0  0  0  0  0  0  0  0  0  0  0  0  # atno 7974 bound_to 7965
  154.5472  140.2305  155.8543 H   0  0  0  0  0  0  0  0  0  0  0  0  # atno 8008 bound_to 7997
  156.1914  140.3076  155.9301 H   0  0  0  0  0  0  0  0  0  0  0  0  # atno 8009 bound_to 7997
  155.3141  140.0437  157.3027 H   0  0  0  0  0  0  0  0  0  0  0  0  # atno 8010 bound_to 7997
  140.5986  143.2356  151.5980 H   0  0  0  0  0  0  0  0  0  0  0  0  # atno 10167 bound_to 10162
  156.4572  130.4496  149.6952 H   0  0  0  0  0  0  0  0  0  0  0  0  # atno 10718 bound_to 10713
  154.1645  135.6469  153.4994 H   0  0  0  0  0  0  0  0  0  0  0  0  # atno 10763 bound_to 10752
  153.0101  135.5368  154.6677 H   0  0  0  0  0  0  0  0  0  0  0  0  # atno 10764 bound_to 10752
  154.5999  135.2942  155.0518 H   0  0  0  0  0  0  0  0  0  0  0  0  # atno 10765 bound_to 10752
  139.8872  134.9472  156.6209 H   0  0  0  0  0  0  0  0  0  0  0  0  # atno 11005 bound_to 11000
  146.1439  140.7020  142.9354 LP  0  0  0  0  0  0  0  0  0  0  0  0  # atno 17320 bound_to 7965
  144.7235  140.4450  143.6990 LP  0  0  0  0  0  0  0  0  0  0  0  0  # atno 17321 bound_to 7965
  139.5275  144.3015  152.1070 LP  0  0  0  0  0  0  0  0  0  0  0  0  # atno 17342 bound_to 10162
  140.2191  144.4484  150.6350 LP  0  0  0  0  0  0  0  0  0  0  0  0  # atno 17343 bound_to 10162
  156.3754  130.7552  151.2540 LP  0  0  0  0  0  0  0  0  0  0  0  0  # atno 17370 bound_to 10713
  157.7500  131.0311  150.4166 LP  0  0  0  0  0  0  0  0  0  0  0  0  # atno 17371 bound_to 10713
  140.7740  133.8715  155.8514 LP  0  0  0  0  0  0  0  0  0  0  0  0  # atno 17394 bound_to 11000
  140.9818  134.1396  157.4488 LP  0  0  0  0  0  0  0  0  0  0  0  0  # atno 17395 bound_to 11000

$$$$
