AV-unprocessed.smi:227|AV-procd|sdf|1738|dock4
  -GOLD-   2262020243D 1   1.00000     0.00000
 Structure written by MMmdl.
 54 58  0  0  0  0  0  0  0  0  1 V2000
  153.0183  135.3869  157.0261 O   0  0  0  0  0  0  0  0  0  0  0  0
  152.0553  136.3837  156.7508 C   0  0  0  0  0  0  0  0  0  0  0  0
  151.1449  135.9771  155.5666 C   0  0  1  0  0  0  0  0  0  0  0  0
  150.0625  134.9851  156.0776 C   0  0  0  0  0  0  0  0  0  0  0  0
  149.1028  134.5582  155.0750 N   0  0  0  0  0  0  0  0  0  0  0  0
  149.3628  133.7984  153.9578 C   0  0  0  0  0  0  0  0  0  0  0  0
  148.3282  133.5525  153.2022 N   0  0  0  0  0  0  0  0  0  0  0  0
  147.2751  134.2040  153.8345 C   0  0  0  0  0  0  0  0  0  0  0  0
  145.8836  134.3517  153.5622 C   0  0  0  0  0  0  0  0  0  0  0  0
  145.2563  133.7883  152.4933 N   0  0  0  0  0  0  0  0  0  0  0  0
  143.8384  134.0200  152.2699 C   0  0  1  0  0  0  0  0  0  0  0  0
  143.7735  135.4688  151.7477 C   0  0  0  0  0  0  0  0  0  0  0  0
  145.0717  135.5518  150.9296 C   0  0  0  0  0  0  0  0  0  0  0  0
  145.6466  134.1327  151.1317 C   0  0  2  0  0  0  0  0  0  0  0  0
  144.8251  133.1412  150.2781 C   0  0  1  0  0  0  0  0  0  0  0  0
  145.5116  131.7762  150.0889 C   0  0  0  0  0  0  0  0  0  0  0  0
  146.7258  131.9302  149.3851 O   0  0  0  0  0  0  0  0  0  0  0  0
  143.5332  133.0508  151.1157 C   0  0  0  0  0  0  0  0  0  0  0  0
  145.1632  135.1265  154.4166 N   0  0  0  0  0  0  0  0  0  0  0  0
  145.7456  135.6923  155.4770 C   0  0  0  0  0  0  0  0  0  0  0  0
  147.0197  135.6222  155.8638 N   0  0  0  0  0  0  0  0  0  0  0  0
  147.7547  134.8622  155.0035 C   0  0  0  0  0  0  0  0  0  0  0  0
  150.5426  137.2241  154.8511 C   0  0  1  0  0  0  0  0  0  0  0  0
  149.6214  138.0806  155.7082 C   0  0  0  0  0  0  0  0  0  0  0  0
  149.5905  139.3938  154.9417 C   0  0  0  0  0  0  0  0  0  0  0  0
  150.9209  139.5583  154.4802 O   0  0  0  0  0  0  0  0  0  0  0  0
  151.5576  138.2870  154.3921 C   0  0  0  0  0  0  0  0  0  0  0  0
  152.9130  135.1048  157.9218 H   0  0  0  0  0  0  0  0  0  0  0  0
  151.4651  136.5751  157.6476 H   0  0  0  0  0  0  0  0  0  0  0  0
  152.6132  137.2936  156.5346 H   0  0  0  0  0  0  0  0  0  0  0  0
  151.7782  135.4595  154.8447 H   0  0  0  0  0  0  0  0  0  0  0  0
  150.5268  134.0803  156.4702 H   0  0  0  0  0  0  0  0  0  0  0  0
  149.5167  135.4309  156.9102 H   0  0  0  0  0  0  0  0  0  0  0  0
  150.3470  133.4185  153.7252 H   0  0  0  0  0  0  0  0  0  0  0  0
  143.1892  133.8451  153.1257 H   0  0  0  0  0  0  0  0  0  0  0  0
  142.8816  135.6612  151.1502 H   0  0  0  0  0  0  0  0  0  0  0  0
  143.7914  136.1834  152.5718 H   0  0  0  0  0  0  0  0  0  0  0  0
  144.8986  135.7931  149.8804 H   0  0  0  0  0  0  0  0  0  0  0  0
  145.7369  136.3115  151.3414 H   0  0  0  0  0  0  0  0  0  0  0  0
  146.7175  134.0742  150.9335 H   0  0  0  0  0  0  0  0  0  0  0  0
  144.6085  133.5624  149.2950 H   0  0  0  0  0  0  0  0  0  0  0  0
  145.7083  131.2976  151.0489 H   0  0  0  0  0  0  0  0  0  0  0  0
  144.8682  131.1054  149.5187 H   0  0  0  0  0  0  0  0  0  0  0  0
  147.3937  131.4268  149.8251 H   0  0  0  0  0  0  0  0  0  0  0  0
  143.3778  132.0414  151.4992 H   0  0  0  0  0  0  0  0  0  0  0  0
  142.6435  133.3352  150.5528 H   0  0  0  0  0  0  0  0  0  0  0  0
  145.0972  136.2839  156.1061 H   0  0  0  0  0  0  0  0  0  0  0  0
  149.9703  136.8933  153.9827 H   0  0  0  0  0  0  0  0  0  0  0  0
  148.6247  137.6553  155.8292 H   0  0  0  0  0  0  0  0  0  0  0  0
  150.0530  138.2365  156.6981 H   0  0  0  0  0  0  0  0  0  0  0  0
  148.9222  139.3208  154.0826 H   0  0  0  0  0  0  0  0  0  0  0  0
  149.2699  140.2356  155.5558 H   0  0  0  0  0  0  0  0  0  0  0  0
  152.4343  138.3068  155.0402 H   0  0  0  0  0  0  0  0  0  0  0  0
  151.8961  138.1165  153.3711 H   0  0  0  0  0  0  0  0  0  0  0  0
  1  2  1  0  0  0  0
  1 28  1  0  0  0  0
  2  3  1  0  0  0  0
  2 29  1  0  0  0  0
  2 30  1  0  0  0  0
  3  4  1  0  0  0  0
  3 23  1  0  0  0  0
  3 31  1  0  0  0  0
  4  5  1  0  0  0  0
  4 32  1  0  0  0  0
  4 33  1  0  0  0  0
  5 22  1  0  0  0  0
  5  6  1  0  0  0  0
  6  7  2  0  0  0  0
  6 34  1  0  0  0  0
  7  8  1  0  0  0  0
  8 22  2  0  0  0  0
  8  9  1  0  0  0  0
  9 10  1  0  0  0  0
  9 19  2  0  0  0  0
 10 14  1  0  0  0  0
 10 11  1  0  0  0  0
 11 18  1  0  0  0  0
 11 12  1  0  0  0  0
 11 35  1  0  0  0  0
 12 13  1  0  0  0  0
 12 36  1  0  0  0  0
 12 37  1  0  0  0  0
 13 14  1  0  0  0  0
 13 38  1  0  0  0  0
 13 39  1  0  0  0  0
 14 15  1  0  0  0  0
 14 40  1  0  0  0  0
 15 16  1  0  0  0  0
 15 18  1  0  0  0  0
 15 41  1  0  0  0  0
 16 17  1  0  0  0  0
 16 42  1  0  0  0  0
 16 43  1  0  0  0  0
 17 44  1  0  0  0  0
 18 45  1  0  0  0  0
 18 46  1  0  0  0  0
 19 20  1  0  0  0  0
 20 21  2  0  0  0  0
 20 47  1  0  0  0  0
 21 22  1  0  0  0  0
 23 27  1  0  0  0  0
 23 24  1  0  0  0  0
 23 48  1  0  0  0  0
 24 25  1  0  0  0  0
 24 49  1  0  0  0  0
 24 50  1  0  0  0  0
 25 26  1  0  0  0  0
 25 51  1  0  0  0  0
 25 52  1  0  0  0  0
 26 27  1  0  0  0  0
 27 53  1  0  0  0  0
 27 54  1  0  0  0  0
M  END
> <s_m_source_file>
AV-unprocessed.smi

> <i_m_source_file_index>
227

> <i_lp_mmshare_version>
43012

> <i_f3d_flags>
0

> <s_epik_input>
W0NIMl0xT1tDSDJdW0NIMl1bQ0BIXTFbQ0BIXShbQ0gyXVtPSF0pW0NIMl1uKFtjSF1uMiljKGMyMyluW2NIXW5jM04oW0NASF00NSlbQ0BASF0oW0NIMl1bQ0gyXTQpW0NASF0oW0NIMl01KVtDSDJdW09IXQ==

> <s_epik_cmdline>
J2VwaWtfcHl0aG9uJywgJy1waCcsICc3LjAnLCAnLXRuJywgJzgnLCAnLW1hJywgJzIwMCcsICctbWV0YWxfYmluZGluZycsICctaW1hZScsICc8aW5maWxlLm1hZT4nLCAnLW9tYWUnLCAnPG91dGZpbGUubWFlPic=

> <r_lp_tautomer_probability>
1

> <r_epik_Ionization_Penalty>
0.0055791

> <r_epik_Ionization_Penalty_Charging>
0

> <r_epik_Ionization_Penalty_Neutral>
0.0055791

> <r_epik_State_Penalty>
0.00401299

> <r_epik_Charging_Adjusted_Penalty>
0.00401299

> <i_epik_Tot_Q>
0

> <i_epik_Tot_abs_Q>
0

> <r_epik_Metal_State_Penalty>
-0

> <b_epik_Metal_Only>
0

> <s_lp_Force_Field>
OPLS_2005

> <r_lp_Energy>
89.2194

> <b_lp_Chiralities_Consistent>
1

> <s_lp_Variant>
AV-unprocessed.smi:227-12

> <Gold.Version>
5.8.1

> <Gold.Id.Protein>
6NUR|6NUR_protein|mol2

> <Gold.PLP.Fitness>
48.4571

> <Gold.PLP.PLP>
-39.9566

> <Gold.PLP.part.hbond>
-2.9214

> <Gold.PLP.part.metal>
0.0000

> <Gold.PLP.part.buried>
-7.0011

> <Gold.PLP.part.nonpolar>
-30.3914

> <Gold.PLP.part.repulsive>
0.9057

> <Gold.PLP.ligand.clash>
0.0000

> <Gold.PLP.ligand.torsion>
0.3261

> <Gold.PLP.Chemscore.Hbond>
2.9920

> <Gold.PLP.Chemscore.CHOScore>
0.0000

> <Gold.PLP.Chemscore.Metal>
0.0000

> <Gold.Chemscore.Hbonds>
donor molecule, donor type, donor heavy atom, donor atom, acceptor molecule, acceptor atom, score
      L1  H    17    44       P1 10747  1.00
      P1  H  7989  7998       L1    26  1.00
      P1  H 10752 10765       L1     1  0.99

> <Gold.PLP.Chemscore.Internal.Correction>
0.1766

> <Gold.Rescore>
     Score         DG    S(hbond)    S(metal)    S(lipo)     H(rot)  DE(clash)    DE(int)     intcor
     12.72     -14.38       2.38        0.00      86.98       3.61       0.32       1.34       ----

> <Gold.Chemscore.Fitness>
12.7200

> <Gold.Chemscore.DG>
-14.3792

> <Gold.Chemscore.ZeroCoef>
-5.4800

> <Gold.Chemscore.Hbond>
2.3824

> <Gold.Chemscore.Metal>
0.0000

> <Gold.Chemscore.Lipo>
86.9753

> <Gold.Chemscore.Internal_Hbond>
0.0000

> <Gold.Chemscore.DEClash>
0.3215

> <Gold.Chemscore.DEInternal>
1.3377

> <Gold.Chemscore.Rot>
3.6071

> <Gold.Chemscore.Internal.Correction>
   9.000000E+99

> <Gold.Chemscore.Hbonds>
donor molecule, donor type, donor heavy atom, donor atom, acceptor molecule, acceptor atom, score
      L1  H    17    44       P1 10747  0.99
      P1  H  7989  7998       L1    26  0.93
      P1  H 10752 10765       L1     1  0.24

> <Gold.Chemscore.Hbond.Weighted>
-7.9573

> <Gold.Chemscore.Metal.Weighted>
-0.0000

> <Gold.Chemscore.Lipo.Weighted>
-10.1761

> <Gold.Chemscore.Internal_Hbond.Weighted>
0.0000

> <Gold.Chemscore.DEClash.Weighted>
0.3215

> <Gold.Chemscore.DEInternal.Weighted>
1.3377

> <Gold.Chemscore.Rot.Weighted>
9.2342

> <Gold.Chemscore.Internal.Correction.Weighted>
   9.000000E+99

> <Gold.Protein.RotatedTorsions>
[ 6907 6896 6895 6894 ] final   30.04 input  -60.11 | X-H torsion
[ 7974 7965 7964 7962 ] final -170.19 input  175.53 | X-H torsion
[ 8008 7997 7996 7995 ] final  135.30 input   59.86 | X-H torsion
[ 10167 10162 10161 10158 ] final  114.09 input  -65.29 | X-H torsion
[ 10718 10713 10712 10709 ] final  -43.89 input   66.30 | X-H torsion
[ 10763 10752 10751 10750 ] final  -99.69 input  -60.55 | X-H torsion
[ 11005 11000 10999 10996 ] final -132.26 input  -57.11 | X-H torsion

> <Gold.Protein.ActiveResidues>
 VAL166  LYS551  ARG553  GLY616  TRP617  ASP618  TYR619  PRO620  LYS621  CYS622 
 ASP623  PHE694  ASN695  SER759  ASP760  ASP761  ALA762  ILE779  LEU786  VAL792 
 PHE793  MET794  SER795  GLU796  ALA797  LYS798  CYS799  TRP800  GLU811  SER814 

> <Gold.Protein.RotatedAtoms>
  152.0402  134.9716  160.0573 H   0  0  0  0  0  0  0  0  0  0  0  0  # atno 6907 bound_to 6896
  152.1158  133.4321  159.4660 H   0  0  0  0  0  0  0  0  0  0  0  0  # atno 6908 bound_to 6896
  150.6846  134.2513  159.4555 H   0  0  0  0  0  0  0  0  0  0  0  0  # atno 6909 bound_to 6896
  144.7174  140.2108  143.6327 H   0  0  0  0  0  0  0  0  0  0  0  0  # atno 7974 bound_to 7965
  156.3002  140.2474  156.3559 H   0  0  0  0  0  0  0  0  0  0  0  0  # atno 8008 bound_to 7997
  154.8922  140.0409  157.1864 H   0  0  0  0  0  0  0  0  0  0  0  0  # atno 8009 bound_to 7997
  154.8586  140.2917  155.5557 H   0  0  0  0  0  0  0  0  0  0  0  0  # atno 8010 bound_to 7997
  139.6414  144.7124  151.2230 H   0  0  0  0  0  0  0  0  0  0  0  0  # atno 10167 bound_to 10162
  156.2443  130.4182  149.8724 H   0  0  0  0  0  0  0  0  0  0  0  0  # atno 10718 bound_to 10713
  154.7518  135.4963  153.9303 H   0  0  0  0  0  0  0  0  0  0  0  0  # atno 10763 bound_to 10752
  153.1152  135.6719  153.9438 H   0  0  0  0  0  0  0  0  0  0  0  0  # atno 10764 bound_to 10752
  153.9186  135.3091  155.3427 H   0  0  0  0  0  0  0  0  0  0  0  0  # atno 10765 bound_to 10752
  140.9186  134.1474  157.4332 H   0  0  0  0  0  0  0  0  0  0  0  0  # atno 11005 bound_to 11000
  145.8592  139.2214  143.1726 LP  0  0  0  0  0  0  0  0  0  0  0  0  # atno 17320 bound_to 7965
  146.0189  140.8366  142.9933 LP  0  0  0  0  0  0  0  0  0  0  0  0  # atno 17321 bound_to 7965
  140.7492  143.6306  150.8427 LP  0  0  0  0  0  0  0  0  0  0  0  0  # atno 17342 bound_to 10162
  139.9943  143.5812  152.2899 LP  0  0  0  0  0  0  0  0  0  0  0  0  # atno 17343 bound_to 10162
  156.6295  130.8659  151.3492 LP  0  0  0  0  0  0  0  0  0  0  0  0  # atno 17370 bound_to 10713
  157.7188  130.9532  150.1358 LP  0  0  0  0  0  0  0  0  0  0  0  0  # atno 17371 bound_to 10713
  139.8771  134.9963  156.5787 LP  0  0  0  0  0  0  0  0  0  0  0  0  # atno 17394 bound_to 11000
  140.8017  133.8500  155.8732 LP  0  0  0  0  0  0  0  0  0  0  0  0  # atno 17395 bound_to 11000

$$$$
