AV-unprocessed.smi:23|AV-procd|sdf|174|dock5
  -GOLD-   2262015433D 1   1.00000     0.00000
 Structure written by MMmdl.
 53 56  0  0  0  0  0  0  0  0  1 V2000
  154.3949  131.6157  159.2855 C   0  0  0  0  0  0  0  0  0  0  0  0
  153.7920  132.0855  158.0854 O   0  0  0  0  0  0  0  0  0  0  0  0
  152.7490  131.3084  157.4872 C   0  0  2  0  0  0  0  0  0  0  0  0
  151.6859  131.2592  158.6032 C   0  0  0  0  0  0  0  0  0  0  0  0
  153.2554  129.8866  157.1313 C   0  0  0  0  0  0  0  0  0  0  0  0
  152.1714  129.0591  156.4177 C   0  0  0  0  0  0  0  0  0  0  0  0
  151.6039  129.8146  155.2043 C   0  0  0  0  0  0  0  0  0  0  0  0
  151.1511  131.1516  155.5896 N   0  0  0  0  0  0  0  0  0  0  0  0
  150.3079  131.8066  154.7530 C   0  0  0  0  0  0  0  0  0  0  0  0
  150.6167  133.0587  154.3214 N   0  0  0  0  0  0  0  0  0  0  0  0
  149.7844  133.7157  153.5083 C   0  0  0  0  0  0  0  0  0  0  0  0
  148.6147  133.3130  153.0083 N   0  0  0  0  0  0  0  0  0  0  0  0
  148.3045  132.0526  153.4272 C   0  0  0  0  0  0  0  0  0  0  0  0
  149.0852  131.2386  154.2961 C   0  0  0  0  0  0  0  0  0  0  0  0
  148.4478  130.0206  154.5025 N   0  0  0  0  0  0  0  0  0  0  0  0
  147.3460  130.1165  153.8097 C   0  0  0  0  0  0  0  0  0  0  0  0
  147.1931  131.2914  153.1081 N   0  0  0  0  0  0  0  0  0  0  0  0
  146.0675  131.6707  152.3045 C   0  0  0  0  0  0  0  0  0  0  0  0
  145.4072  130.6743  151.3463 C   0  0  0  0  0  0  0  0  0  0  0  0
  145.1528  131.8052  150.3252 C   0  0  0  0  0  0  0  0  0  0  0  0
  145.5282  131.4707  148.8733 C   0  0  0  0  0  0  0  0  0  0  0  0
  146.4822  130.4296  148.8135 O   0  0  0  0  0  0  0  0  0  0  0  0
  143.7374  132.4248  150.2966 C   0  0  0  0  0  0  0  0  0  0  0  0
  142.8483  131.7560  149.4252 O   0  0  0  0  0  0  0  0  0  0  0  0
  146.2329  132.5973  151.0958 C   0  0  0  0  0  0  0  0  0  0  0  0
  152.1657  131.9924  156.2259 C   0  0  0  0  0  0  0  0  0  0  0  0
  155.1272  132.3515  159.6177 H   0  0  0  0  0  0  0  0  0  0  0  0
  154.9324  130.6800  159.1361 H   0  0  0  0  0  0  0  0  0  0  0  0
  153.6788  131.4900  160.0960 H   0  0  0  0  0  0  0  0  0  0  0  0
  150.7918  130.7141  158.3021 H   0  0  0  0  0  0  0  0  0  0  0  0
  151.3676  132.2640  158.8831 H   0  0  0  0  0  0  0  0  0  0  0  0
  152.0773  130.7780  159.5001 H   0  0  0  0  0  0  0  0  0  0  0  0
  154.1135  129.9430  156.4633 H   0  0  0  0  0  0  0  0  0  0  0  0
  153.5983  129.3674  158.0269 H   0  0  0  0  0  0  0  0  0  0  0  0
  152.5849  128.1025  156.0973 H   0  0  0  0  0  0  0  0  0  0  0  0
  151.3650  128.8209  157.1113 H   0  0  0  0  0  0  0  0  0  0  0  0
  152.3672  129.9045  154.4302 H   0  0  0  0  0  0  0  0  0  0  0  0
  150.7773  129.2446  154.7777 H   0  0  0  0  0  0  0  0  0  0  0  0
  150.1015  134.7059  153.2156 H   0  0  0  0  0  0  0  0  0  0  0  0
  146.6135  129.3227  153.7865 H   0  0  0  0  0  0  0  0  0  0  0  0
  145.3331  132.0763  153.0011 H   0  0  0  0  0  0  0  0  0  0  0  0
  146.1088  129.9248  150.9759 H   0  0  0  0  0  0  0  0  0  0  0  0
  144.5063  130.2020  151.7392 H   0  0  0  0  0  0  0  0  0  0  0  0
  144.6505  131.1807  148.2947 H   0  0  0  0  0  0  0  0  0  0  0  0
  145.9540  132.3398  148.3712 H   0  0  0  0  0  0  0  0  0  0  0  0
  147.1716  130.6174  149.4321 H   0  0  0  0  0  0  0  0  0  0  0  0
  143.2928  132.4156  151.2923 H   0  0  0  0  0  0  0  0  0  0  0  0
  143.7744  133.4680  149.9818 H   0  0  0  0  0  0  0  0  0  0  0  0
  141.9671  131.8762  149.7451 H   0  0  0  0  0  0  0  0  0  0  0  0
  145.9846  133.6407  151.2934 H   0  0  0  0  0  0  0  0  0  0  0  0
  147.2241  132.5150  150.6468 H   0  0  0  0  0  0  0  0  0  0  0  0
  151.7744  132.9756  156.4860 H   0  0  0  0  0  0  0  0  0  0  0  0
  152.9449  132.1566  155.4819 H   0  0  0  0  0  0  0  0  0  0  0  0
  1  2  1  0  0  0  0
  1 27  1  0  0  0  0
  1 28  1  0  0  0  0
  1 29  1  0  0  0  0
  2  3  1  0  0  0  0
  3 26  1  0  0  0  0
  3  4  1  0  0  0  0
  3  5  1  0  0  0  0
  4 30  1  0  0  0  0
  4 31  1  0  0  0  0
  4 32  1  0  0  0  0
  5  6  1  0  0  0  0
  5 33  1  0  0  0  0
  5 34  1  0  0  0  0
  6  7  1  0  0  0  0
  6 35  1  0  0  0  0
  6 36  1  0  0  0  0
  7  8  1  0  0  0  0
  7 37  1  0  0  0  0
  7 38  1  0  0  0  0
  8  9  1  0  0  0  0
  8 26  1  0  0  0  0
  9 14  1  0  0  0  0
  9 10  2  0  0  0  0
 10 11  1  0  0  0  0
 11 12  2  0  0  0  0
 11 39  1  0  0  0  0
 12 13  1  0  0  0  0
 13 17  1  0  0  0  0
 13 14  2  0  0  0  0
 14 15  1  0  0  0  0
 15 16  2  0  0  0  0
 16 17  1  0  0  0  0
 16 40  1  0  0  0  0
 17 18  1  0  0  0  0
 18 25  1  0  0  0  0
 18 19  1  0  0  0  0
 18 41  1  0  0  0  0
 19 20  1  0  0  0  0
 19 42  1  0  0  0  0
 19 43  1  0  0  0  0
 20 21  1  0  0  0  0
 20 23  1  0  0  0  0
 20 25  1  0  0  0  0
 21 22  1  0  0  0  0
 21 44  1  0  0  0  0
 21 45  1  0  0  0  0
 22 46  1  0  0  0  0
 23 24  1  0  0  0  0
 23 47  1  0  0  0  0
 23 48  1  0  0  0  0
 24 49  1  0  0  0  0
 25 50  1  0  0  0  0
 25 51  1  0  0  0  0
 26 52  1  0  0  0  0
 26 53  1  0  0  0  0
M  END
> <s_m_source_file>
AV-unprocessed.smi

> <i_m_source_file_index>
23

> <i_lp_mmshare_version>
43012

> <i_f3d_flags>
0

> <s_epik_input>
W0NIM11PW0NAQF0xKFtDSDNdKVtDSDJdW0NIMl1bQ0gyXU4oW0NIMl0xKWMobltjSF1uMiljKGMyMyluW2NIXW4zW0NIXShbQ0gyXTQpW0NIMl1DNChbQ0gyXVtPSF0pW0NIMl1bT0hd

> <s_epik_cmdline>
J2VwaWtfcHl0aG9uJywgJy1waCcsICc3LjAnLCAnLXRuJywgJzgnLCAnLW1hJywgJzIwMCcsICctbWV0YWxfYmluZGluZycsICctaW1hZScsICc8aW5maWxlLm1hZT4nLCAnLW9tYWUnLCAnPG91dGZpbGUubWFlPic=

> <r_lp_tautomer_probability>
1

> <r_epik_Ionization_Penalty>
0.00233978

> <r_epik_Ionization_Penalty_Charging>
0

> <r_epik_Ionization_Penalty_Neutral>
0.00233978

> <r_epik_State_Penalty>
0.00146422

> <r_epik_Charging_Adjusted_Penalty>
0.00146422

> <i_epik_Tot_Q>
0

> <i_epik_Tot_abs_Q>
0

> <r_epik_Metal_State_Penalty>
-0

> <b_epik_Metal_Only>
0

> <s_lp_Force_Field>
OPLS_2005

> <r_lp_Energy>
49.2291

> <b_lp_Chiralities_Consistent>
1

> <s_lp_Variant>
AV-unprocessed.smi:23-2

> <Gold.Version>
5.8.1

> <Gold.Id.Protein>
6NUR|6NUR_protein|mol2

> <Gold.PLP.Fitness>
50.6536

> <Gold.PLP.PLP>
-40.1947

> <Gold.PLP.part.hbond>
-4.4291

> <Gold.PLP.part.metal>
0.0000

> <Gold.PLP.part.buried>
-4.9351

> <Gold.PLP.part.nonpolar>
-30.7831

> <Gold.PLP.part.repulsive>
0.2734

> <Gold.PLP.ligand.clash>
0.0000

> <Gold.PLP.ligand.torsion>
1.5730

> <Gold.PLP.Chemscore.Hbond>
3.5680

> <Gold.PLP.Chemscore.CHOScore>
0.6761

> <Gold.PLP.Chemscore.Metal>
0.0000

> <Gold.Chemscore.Hbonds>
donor molecule, donor type, donor heavy atom, donor atom, acceptor molecule, acceptor atom, score
      L1  H    22    46       P1 10747  1.00
      L1  H    24    49       P1 10952  0.32
      P1  H 10777 10791       L1    22  0.46
      P1  H 10785 10796       L1    24  1.00

> <Gold.PLP.Chemscore.Internal.Correction>
0.8725

> <Gold.Rescore>
     Score         DG    S(hbond)    S(metal)    S(lipo)     H(rot)  DE(clash)    DE(int)     intcor
     14.05     -17.32       2.99        0.00      89.77       3.38       1.42       1.84       ----

> <Gold.Chemscore.Fitness>
14.0496

> <Gold.Chemscore.DG>
-17.3171

> <Gold.Chemscore.ZeroCoef>
-5.4800

> <Gold.Chemscore.Hbond>
2.9929

> <Gold.Chemscore.Metal>
0.0000

> <Gold.Chemscore.Lipo>
89.7690

> <Gold.Chemscore.Internal_Hbond>
0.0000

> <Gold.Chemscore.DEClash>
1.4245

> <Gold.Chemscore.DEInternal>
1.8430

> <Gold.Chemscore.Rot>
3.3837

> <Gold.Chemscore.Internal.Correction>
   9.000000E+99

> <Gold.Chemscore.Hbonds>
donor molecule, donor type, donor heavy atom, donor atom, acceptor molecule, acceptor atom, score
      L1  H    22    46       P1 10747  0.98
      L1  H    24    49       P1 10952  0.32
      P1  H 10777 10791       L1    22  0.32
      P1  H 10785 10796       L1    24  0.90

> <Gold.Chemscore.Hbond.Weighted>
-9.9964

> <Gold.Chemscore.Metal.Weighted>
-0.0000

> <Gold.Chemscore.Lipo.Weighted>
-10.5030

> <Gold.Chemscore.Internal_Hbond.Weighted>
0.0000

> <Gold.Chemscore.DEClash.Weighted>
1.4245

> <Gold.Chemscore.DEInternal.Weighted>
1.8430

> <Gold.Chemscore.Rot.Weighted>
8.6622

> <Gold.Chemscore.Internal.Correction.Weighted>
   9.000000E+99

> <Gold.Protein.RotatedTorsions>
[ 6907 6896 6895 6894 ] final  154.80 input  -60.11 | X-H torsion
[ 7974 7965 7964 7962 ] final  -72.58 input  175.53 | X-H torsion
[ 8008 7997 7996 7995 ] final  -16.73 input   59.86 | X-H torsion
[ 10167 10162 10161 10158 ] final  -58.91 input  -65.29 | X-H torsion
[ 10718 10713 10712 10709 ] final  173.10 input   66.30 | X-H torsion
[ 10763 10752 10751 10750 ] final  -45.58 input  -60.55 | X-H torsion
[ 11005 11000 10999 10996 ] final   94.95 input  -57.11 | X-H torsion

> <Gold.Protein.ActiveResidues>
 VAL166  LYS551  ARG553  GLY616  TRP617  ASP618  TYR619  PRO620  LYS621  CYS622 
 ASP623  PHE694  ASN695  SER759  ASP760  ASP761  ALA762  ILE779  LEU786  VAL792 
 PHE793  MET794  SER795  GLU796  ALA797  LYS798  CYS799  TRP800  GLU811  SER814 

> <Gold.Protein.RotatedAtoms>
  152.0533  133.4028  159.4385 H   0  0  0  0  0  0  0  0  0  0  0  0  # atno 6907 bound_to 6896
  150.6869  134.3283  159.4825 H   0  0  0  0  0  0  0  0  0  0  0  0  # atno 6908 bound_to 6896
  152.1096  134.9283  160.0617 H   0  0  0  0  0  0  0  0  0  0  0  0  # atno 6909 bound_to 6896
  145.6633  140.9245  143.0922 H   0  0  0  0  0  0  0  0  0  0  0  0  # atno 7974 bound_to 7965
  154.5031  140.2161  155.9306 H   0  0  0  0  0  0  0  0  0  0  0  0  # atno 8008 bound_to 7997
  156.1459  140.3171  155.8537 H   0  0  0  0  0  0  0  0  0  0  0  0  # atno 8009 bound_to 7997
  155.4032  140.0485  157.3026 H   0  0  0  0  0  0  0  0  0  0  0  0  # atno 8010 bound_to 7997
  140.6168  143.2405  151.5578 H   0  0  0  0  0  0  0  0  0  0  0  0  # atno 10167 bound_to 10162
  156.9693  131.0085  151.2909 H   0  0  0  0  0  0  0  0  0  0  0  0  # atno 10718 bound_to 10713
  154.0308  135.6657  153.4780 H   0  0  0  0  0  0  0  0  0  0  0  0  # atno 10763 bound_to 10752
  153.0541  135.5066  154.7934 H   0  0  0  0  0  0  0  0  0  0  0  0  # atno 10764 bound_to 10752
  154.6879  135.3056  154.9486 H   0  0  0  0  0  0  0  0  0  0  0  0  # atno 10765 bound_to 10752
  139.8793  134.8872  156.3939 H   0  0  0  0  0  0  0  0  0  0  0  0  # atno 11005 bound_to 11000
  144.7081  139.8477  143.7423 LP  0  0  0  0  0  0  0  0  0  0  0  0  # atno 17320 bound_to 7965
  146.1107  139.4111  143.0289 LP  0  0  0  0  0  0  0  0  0  0  0  0  # atno 17321 bound_to 7965
  139.5405  144.2661  152.1341 LP  0  0  0  0  0  0  0  0  0  0  0  0  # atno 17342 bound_to 10162
  140.1872  144.4787  150.6498 LP  0  0  0  0  0  0  0  0  0  0  0  0  # atno 17343 bound_to 10162
  157.5604  130.8242  149.8258 LP  0  0  0  0  0  0  0  0  0  0  0  0  # atno 17370 bound_to 10713
  156.0289  130.3770  150.1743 LP  0  0  0  0  0  0  0  0  0  0  0  0  # atno 17371 bound_to 10713
  140.9314  133.7577  156.0029 LP  0  0  0  0  0  0  0  0  0  0  0  0  # atno 17394 bound_to 11000
  140.8326  134.3160  157.5343 LP  0  0  0  0  0  0  0  0  0  0  0  0  # atno 17395 bound_to 11000

$$$$
