#       Name:                AV-unprocessed.smi:3253
#       Creating user name   scv26
#       Creation time:       Fri Mar 27 18:34:00 2020


#       File generated by GOLD software.
#

@<TRIPOS>MOLECULE
AV-unprocessed.smi:3253
    41    42     1
SMALL
NO_CHARGES


@<TRIPOS>ATOM
      1 ****        -1.8535  -1.1855   1.1935 C.3            1 S1                 0.0000
      2 ****        -1.3704  -0.4183  -0.0516 C.3            1 S1                 0.0000
      3 ****        -2.0550  -0.8841  -1.3522 C.3            1 S1                 0.0000
      4 ****        -3.5147  -0.7550  -1.3111 N.pl3          1 S1                 0.0000
      5 ****        -4.4375  -1.7592  -1.1652 C.2            1 S1                 0.0000
      6 ****        -5.6715  -1.1617  -1.1879 C.2            1 S1                 0.0000
      7 ****        -5.4501   0.1798  -1.3498 N.pl3          1 S1                 1.0000
      8 ****        -4.1380   0.4247  -1.4276 C.2            1 S1                 0.0000
      9 ****         0.0763  -0.5526  -0.1985 N.am           1 S1                 0.0000
     10 ****         0.9943   0.1865   0.4441 C.2            1 S1                 0.0000
     11 ****         0.7043   1.0745   1.2465 O.2            1 S1                 0.0000
     12 ****         2.4667  -0.1247   0.1319 C.3            1 S1                 0.0000
     13 ****         3.2146  -0.6275   1.3837 C.3            1 S1                 0.0000
     14 ****         4.2060   0.4822   1.6920 C.2            1 S1                 0.0000
     15 ****         4.9233   0.4792   2.6912 O.2            1 S1                 0.0000
     16 ****         4.1717   1.4288   0.7503 N.am           1 S1                 0.0000
     17 ****         4.9763   2.6427   0.7344 C.3            1 S1                 0.0000
     18 ****         3.2488   1.1252  -0.3299 C.3            1 S1                 0.0000
     19 ****        -2.9212  -1.0444   1.3613 H              1 S1                 0.0000
     20 ****        -1.3409  -0.8427   2.0929 H              1 S1                 0.0000
     21 ****        -1.6701  -2.2558   1.0949 H              1 S1                 0.0000
     22 ****        -1.6068   0.6384   0.0874 H              1 S1                 0.0000
     23 ****        -1.6953  -0.3055  -2.2047 H              1 S1                 0.0000
     24 ****        -1.8185  -1.9294  -1.5568 H              1 S1                 0.0000
     25 ****        -4.1556  -2.7966  -1.0560 H              1 S1                 0.0000
     26 ****        -6.6643  -1.5798  -1.1038 H              1 S1                 0.0000
     27 ****        -3.6738   1.3864  -1.5557 H              1 S1                 0.0000
     28 ****         0.4061  -1.2616  -0.8375 H              1 S1                 0.0000
     29 ****         2.5102  -0.8854  -0.6497 H              1 S1                 0.0000
     30 ****         2.5645  -0.8065   2.2419 H              1 S1                 0.0000
     31 ****         3.7564  -1.5502   1.1737 H              1 S1                 0.0000
     32 ****         6.0389   2.3993   0.7627 H              1 S1                 0.0000
     33 ****         4.7431   3.2654   1.5986 H              1 S1                 0.0000
     34 ****         4.7869   3.2277  -0.1659 H              1 S1                 0.0000
     35 ****         3.8143   0.9147  -1.2387 H              1 S1                 0.0000
     36 ****         2.6056   1.9831  -0.5345 H              1 S1                 0.0000
     37 ****        -6.1729   0.8867  -1.4037 H              1 S1                 0.0000
     38 ****        -0.2550   1.2741   1.4463 LP             1 S1                 0.0000
     39 ****         1.4282   1.5961   1.6983 LP             1 S1                 0.0000
     40 ****         4.8689  -0.2767   3.3435 LP             1 S1                 0.0000
     41 ****         5.5610   1.2327   2.8512 LP             1 S1                 0.0000
@<TRIPOS>BOND
    1    1    2 1     
    2    1   19 1     
    3    1   20 1     
    4    1   21 1     
    5    2    3 1     
    6    2    9 1     
    7    2   22 1     
    8    3    4 1     
    9    3   23 1     
   10    3   24 1     
   11    4    8 1     
   12    4    5 1     
   13    5    6 2     
   14    5   25 1     
   15    6    7 1     
   16    6   26 1     
   17    7    8 2     
   18    7   37 1     
   19    8   27 1     
   20    9   10 am    
   21    9   28 1     
   22   10   11 2     
   23   10   12 1     
   24   12   18 1     
   25   12   13 1     
   26   12   29 1     
   27   13   14 1     
   28   13   30 1     
   29   13   31 1     
   30   14   15 2     
   31   14   16 am    
   32   16   17 1     
   33   16   18 1     
   34   17   32 1     
   35   17   33 1     
   36   17   34 1     
   37   18   35 1     
   38   18   36 1     
   39   11   38 1     
   40   11   39 1     
   41   15   40 1     
   42   15   41 1     
@<TRIPOS>SUBSTRUCTURE
      1 S1             1
@<TRIPOS>SET
LONE_PAIRS      STATIC     ATOMS    <user>   **** ""
4 38 39 40 41
DONOR_HYDROGENS      STATIC     ATOMS    <user>   **** ""
2 37 28
ATOM$BLUE        STATIC     ATOMS    COLORGROUP SYSTEM
4 38 39 40 41
ATOM$RED        STATIC     ATOMS    COLORGROUP SYSTEM
2 37 28
