AV-unprocessed.smi:2226|AV-procd|sdf|9013|dock2
  -GOLD-   2272012213D 1   1.00000     0.00000
 Structure written by MMmdl.
 40 42  0  0  0  0  0  0  0  0  2 V2000
  146.6902  138.6175  152.7248 C   0  0  0  0  0  0  0  0  0  0  0  0
  147.6097  139.6116  153.3281 N   0  3  2  0  0  0  0  0  0  0  0  0
  148.6072  139.0468  154.2678 C   0  0  2  0  0  0  0  0  0  0  0  0
  147.9396  138.5650  155.5806 C   0  0  0  0  0  0  0  0  0  0  0  0
  147.0289  139.6117  156.2481 C   0  0  0  0  0  0  0  0  0  0  0  0
  146.1830  140.3990  155.2316 C   0  0  0  0  0  0  0  0  0  0  0  0
  146.9439  140.7868  153.9392 C   0  0  1  0  0  0  0  0  0  0  0  0
  147.9771  141.9264  154.1006 C   0  0  0  0  0  0  0  0  0  0  0  0
  149.3351  141.5221  154.7388 C   0  0  1  0  0  0  0  0  0  0  0  0
  149.4081  141.8245  156.1662 N   0  0  0  0  0  0  0  0  0  0  0  0
  150.4177  141.5177  156.9952 C   0  0  0  0  0  0  0  0  0  0  0  0
  151.4222  140.9184  156.5988 O   0  0  0  0  0  0  0  0  0  0  0  0
  150.1434  141.9918  158.2697 N   0  0  0  0  0  0  0  0  0  0  0  0
  150.8814  142.9266  158.7860 C   0  0  0  0  0  0  0  0  0  0  0  0
  151.9774  143.6423  158.3111 N   0  0  0  0  0  0  0  0  0  0  0  0
  152.3663  144.5212  159.2829 C   0  0  0  0  0  0  0  0  0  0  0  0
  151.5534  144.3702  160.3240 C   0  0  0  0  0  0  0  0  0  0  0  0
  150.6341  143.4025  160.0490 O   0  0  0  0  0  0  0  0  0  0  0  0
  149.7616  140.0608  154.4462 C   0  0  0  0  0  0  0  0  0  0  0  0
  146.0493  138.1429  153.4671 H   0  0  0  0  0  0  0  0  0  0  0  0
  147.2562  137.8351  152.2186 H   0  0  0  0  0  0  0  0  0  0  0  0
  146.0501  139.0933  151.9814 H   0  0  0  0  0  0  0  0  0  0  0  0
  149.0469  138.1669  153.7954 H   0  0  0  0  0  0  0  0  0  0  0  0
  147.3402  137.6806  155.3627 H   0  0  0  0  0  0  0  0  0  0  0  0
  148.6987  138.2305  156.2883 H   0  0  0  0  0  0  0  0  0  0  0  0
  146.3695  139.1158  156.9609 H   0  0  0  0  0  0  0  0  0  0  0  0
  147.6156  140.2913  156.8566 H   0  0  0  0  0  0  0  0  0  0  0  0
  145.3199  139.7905  154.9604 H   0  0  0  0  0  0  0  0  0  0  0  0
  145.7704  141.2897  155.7068 H   0  0  0  0  0  0  0  0  0  0  0  0
  146.1984  141.1509  153.2304 H   0  0  0  0  0  0  0  0  0  0  0  0
  148.1957  142.2991  153.0987 H   0  0  0  0  0  0  0  0  0  0  0  0
  147.5288  142.7733  154.6213 H   0  0  0  0  0  0  0  0  0  0  0  0
  150.1002  142.1525  154.2813 H   0  0  0  0  0  0  0  0  0  0  0  0
  148.6207  142.3173  156.5627 H   0  0  0  0  0  0  0  0  0  0  0  0
  152.4394  143.5589  157.4168 H   0  0  0  0  0  0  0  0  0  0  0  0
  153.2072  145.1793  159.1205 H   0  0  0  0  0  0  0  0  0  0  0  0
  151.5001  144.8524  161.2890 H   0  0  0  0  0  0  0  0  0  0  0  0
  150.4723  139.7047  155.1935 H   0  0  0  0  0  0  0  0  0  0  0  0
  150.3203  140.0715  153.5090 H   0  0  0  0  0  0  0  0  0  0  0  0
  148.1417  139.9732  152.5494 H   0  0  0  0  0  0  0  0  0  0  0  0
  1  2  1  0  0  0  0
  1 20  1  0  0  0  0
  1 21  1  0  0  0  0
  1 22  1  0  0  0  0
  2  7  1  0  0  0  0
  2  3  1  0  0  0  0
  2 40  1  0  0  0  0
  3 19  1  0  0  0  0
  3  4  1  0  0  0  0
  3 23  1  0  0  0  0
  4  5  1  0  0  0  0
  4 24  1  0  0  0  0
  4 25  1  0  0  0  0
  5  6  1  0  0  0  0
  5 26  1  0  0  0  0
  5 27  1  0  0  0  0
  6  7  1  0  0  0  0
  6 28  1  0  0  0  0
  6 29  1  0  0  0  0
  7  8  1  0  0  0  0
  7 30  1  0  0  0  0
  8  9  1  0  0  0  0
  8 31  1  0  0  0  0
  8 32  1  0  0  0  0
  9 10  1  0  0  0  0
  9 19  1  0  0  0  0
  9 33  1  0  0  0  0
 10 34  1  0  0  0  0
 10 11  1  0  0  0  0
 11 13  1  0  0  0  0
 11 12  2  0  0  0  0
 13 14  2  0  0  0  0
 14 18  1  0  0  0  0
 14 15  1  0  0  0  0
 15 35  1  0  0  0  0
 15 16  1  0  0  0  0
 16 36  1  0  0  0  0
 16 17  2  0  0  0  0
 17 37  1  0  0  0  0
 17 18  1  0  0  0  0
 19 38  1  0  0  0  0
 19 39  1  0  0  0  0
M  CHG  1   2   1
M  END
> <s_m_source_file>
AV-unprocessed.smi

> <i_m_source_file_index>
2226

> <i_lp_mmshare_version>
43012

> <i_f3d_flags>
0

> <s_epik_input>
W0NIMl0xW0NIMl1bQ0gyXVtDQEhdKE4oW0NIM10pW0NIXTEyKVtDSDJdW0NASF0oW0NIMl0yKVtOSF1DKD1PKVtOSF1jM25bY0hdW2NIXW8z

> <s_epik_cmdline>
J2VwaWtfcHl0aG9uJywgJy1waCcsICc3LjAnLCAnLXRuJywgJzgnLCAnLW1hJywgJzIwMCcsICctbWV0YWxfYmluZGluZycsICctaW1hZScsICc8aW5maWxlLm1hZT4nLCAnLW9tYWUnLCAnPG91dGZpbGUubWFlPic=

> <r_lp_tautomer_probability>
0.107061

> <r_epik_Ionization_Penalty>
1.08307

> <r_epik_Ionization_Penalty_Charging>
1.08272

> <r_epik_Ionization_Penalty_Neutral>
0.000345913

> <r_epik_State_Penalty>
2.5744

> <r_epik_Charging_Adjusted_Penalty>
3.65713

> <i_epik_Tot_Q>
1

> <i_epik_Tot_abs_Q>
1

> <r_epik_Metal_State_Penalty>
3.72133

> <b_epik_Metal_Only>
0

> <s_lp_Force_Field>
OPLS_2005

> <r_lp_Energy>
59.8025

> <b_lp_Chiralities_Consistent>
1

> <s_lp_Variant>
AV-unprocessed.smi:2226-13

> <Gold.Version>
5.8.1

> <Gold.Id.Protein>
6NUR|6NUR_protein|mol2

> <Gold.PLP.Fitness>
34.2563

> <Gold.PLP.PLP>
-32.6268

> <Gold.PLP.part.hbond>
-2.7073

> <Gold.PLP.part.metal>
0.0000

> <Gold.PLP.part.buried>
-2.8109

> <Gold.PLP.part.nonpolar>
-26.6730

> <Gold.PLP.part.repulsive>
0.3950

> <Gold.PLP.ligand.clash>
0.0000

> <Gold.PLP.ligand.torsion>
0.7109

> <Gold.PLP.Chemscore.Hbond>
1.0000

> <Gold.PLP.Chemscore.CHOScore>
0.0000

> <Gold.PLP.Chemscore.Metal>
0.0000

> <Gold.Chemscore.Hbonds>
donor molecule, donor type, donor heavy atom, donor atom, acceptor molecule, acceptor atom, score
      L1  H     2    40       P1  7957  1.00

> <Gold.PLP.Chemscore.Internal.Correction>
0.0513

> <Gold.Rescore>
     Score         DG    S(hbond)    S(metal)    S(lipo)     H(rot)  DE(clash)    DE(int)     intcor
     12.59     -14.77       1.02        0.00      72.21       1.00       0.22       1.97       ----

> <Gold.Chemscore.Fitness>
12.5885

> <Gold.Chemscore.DG>
-14.7731

> <Gold.Chemscore.ZeroCoef>
-5.4800

> <Gold.Chemscore.Hbond>
1.0193

> <Gold.Chemscore.Metal>
0.0000

> <Gold.Chemscore.Lipo>
72.2103

> <Gold.Chemscore.Internal_Hbond>
0.0000

> <Gold.Chemscore.DEClash>
0.2190

> <Gold.Chemscore.DEInternal>
1.9656

> <Gold.Chemscore.Rot>
1.0000

> <Gold.Chemscore.Internal.Correction>
   9.000000E+99

> <Gold.Chemscore.Hbonds>
donor molecule, donor type, donor heavy atom, donor atom, acceptor molecule, acceptor atom, score
      L1  H     2    40       P1  7957  0.94

> <Gold.Chemscore.Hbond.Weighted>
-3.4045

> <Gold.Chemscore.Metal.Weighted>
-0.0000

> <Gold.Chemscore.Lipo.Weighted>
-8.4486

> <Gold.Chemscore.Internal_Hbond.Weighted>
0.0000

> <Gold.Chemscore.DEClash.Weighted>
0.2190

> <Gold.Chemscore.DEInternal.Weighted>
1.9656

> <Gold.Chemscore.Rot.Weighted>
2.5600

> <Gold.Chemscore.Internal.Correction.Weighted>
   9.000000E+99

> <Gold.Protein.RotatedTorsions>
[ 6907 6896 6895 6894 ] final  -91.30 input  -60.11 | X-H torsion
[ 7974 7965 7964 7962 ] final -133.89 input  175.53 | X-H torsion
[ 8008 7997 7996 7995 ] final   49.83 input   59.86 | X-H torsion
[ 10167 10162 10161 10158 ] final -147.75 input  -65.29 | X-H torsion
[ 10718 10713 10712 10709 ] final -163.06 input   66.30 | X-H torsion
[ 10763 10752 10751 10750 ] final   80.25 input  -60.55 | X-H torsion
[ 11005 11000 10999 10996 ] final   41.30 input  -57.11 | X-H torsion

> <Gold.Protein.ActiveResidues>
 VAL166  LYS551  ARG553  GLY616  TRP617  ASP618  TYR619  PRO620  LYS621  CYS622 
 ASP623  PHE694  ASN695  SER759  ASP760  ASP761  ALA762  ILE779  LEU786  VAL792 
 PHE793  MET794  SER795  GLU796  ALA797  LYS798  CYS799  TRP800  GLU811  SER814 

> <Gold.Protein.RotatedAtoms>
  150.6891  134.2299  159.4430 H   0  0  0  0  0  0  0  0  0  0  0  0  # atno 6907 bound_to 6896
  152.0250  134.9798  160.0580 H   0  0  0  0  0  0  0  0  0  0  0  0  # atno 6908 bound_to 6896
  152.1360  133.4401  159.4780 H   0  0  0  0  0  0  0  0  0  0  0  0  # atno 6909 bound_to 6896
  144.9152  140.6945  143.5000 H   0  0  0  0  0  0  0  0  0  0  0  0  # atno 7974 bound_to 7965
  155.4087  140.3441  155.4262 H   0  0  0  0  0  0  0  0  0  0  0  0  # atno 8008 bound_to 7997
  156.1461  140.1557  156.8876 H   0  0  0  0  0  0  0  0  0  0  0  0  # atno 8009 bound_to 7997
  154.5012  140.0814  156.7783 H   0  0  0  0  0  0  0  0  0  0  0  0  # atno 8010 bound_to 7997
  139.7594  143.8400  152.2604 H   0  0  0  0  0  0  0  0  0  0  0  0  # atno 10167 bound_to 10162
  156.6193  130.8883  151.2954 H   0  0  0  0  0  0  0  0  0  0  0  0  # atno 10718 bound_to 10713
  153.1018  135.4809  154.8880 H   0  0  0  0  0  0  0  0  0  0  0  0  # atno 10763 bound_to 10752
  154.7387  135.3077  154.8769 H   0  0  0  0  0  0  0  0  0  0  0  0  # atno 10764 bound_to 10752
  153.9383  135.6837  153.4798 H   0  0  0  0  0  0  0  0  0  0  0  0  # atno 10765 bound_to 10752
  140.1848  134.4060  155.8180 H   0  0  0  0  0  0  0  0  0  0  0  0  # atno 11005 bound_to 11000
  145.3388  139.1738  143.4497 LP  0  0  0  0  0  0  0  0  0  0  0  0  # atno 17320 bound_to 7965
  146.3178  140.3426  142.8649 LP  0  0  0  0  0  0  0  0  0  0  0  0  # atno 17321 bound_to 7965
  139.8401  144.7214  150.9341 LP  0  0  0  0  0  0  0  0  0  0  0  0  # atno 17342 bound_to 10162
  140.7806  143.3991  151.1179 LP  0  0  0  0  0  0  0  0  0  0  0  0  # atno 17343 bound_to 10162
  157.7232  130.9587  150.1525 LP  0  0  0  0  0  0  0  0  0  0  0  0  # atno 17370 bound_to 10713
  156.2325  130.3683  149.8429 LP  0  0  0  0  0  0  0  0  0  0  0  0  # atno 17371 bound_to 10713
  141.2224  133.7017  156.7993 LP  0  0  0  0  0  0  0  0  0  0  0  0  # atno 17394 bound_to 11000
  140.2227  134.8745  157.3394 LP  0  0  0  0  0  0  0  0  0  0  0  0  # atno 17395 bound_to 11000

$$$$
