AV-unprocessed.smi:628|AV-procd|sdf|3114|dock7
  -GOLD-   22720 0 33D 1   1.00000     0.00000
 Structure written by MMmdl.
 31 32  0  0  0  0  0  0  0  0  2 V2000
  151.8571  141.9664  158.0654 O   0  0  0  0  0  0  0  0  0  0  0  0
  151.0258  142.4012  157.2666 C   0  0  0  0  0  0  0  0  0  0  0  0
  150.3726  141.4912  156.2186 C   0  0  0  0  0  0  0  0  0  0  0  0
  150.9239  140.1462  156.2097 N   0  0  0  0  0  0  0  0  0  0  0  0
  150.8855  139.2030  157.2197 C   0  0  0  0  0  0  0  0  0  0  0  0
  151.5378  138.1162  156.7212 C   0  0  0  0  0  0  0  0  0  0  0  0
  151.7723  136.8159  157.4225 C   0  0  0  0  0  0  0  0  0  0  0  0
  152.5220  135.9742  156.8807 O   0  0  0  0  0  0  0  0  0  0  0  0
  151.2081  136.6220  158.5219 O   0  5  0  0  0  0  0  0  0  0  0  0
  151.9509  138.4585  155.4076 C   0  0  0  0  0  0  0  0  0  0  0  0
  151.5713  139.6923  155.1040 N   0  0  0  0  0  0  0  0  0  0  0  0
  150.6266  143.6821  157.2517 N   0  0  0  0  0  0  0  0  0  0  0  0
  151.1133  144.7252  158.1509 C   0  0  0  0  0  0  0  0  0  0  0  0
  152.6295  144.5977  158.4030 C   0  0  0  0  0  0  0  0  0  0  0  0
  152.7770  144.1024  159.8415 C   0  0  0  0  0  0  0  0  0  0  0  0
  151.5682  144.6898  160.5627 C   0  0  0  0  0  0  0  0  0  0  0  0
  150.4396  144.6153  159.5325 C   0  0  0  0  0  0  0  0  0  0  0  0
  149.3022  141.4245  156.4175 H   0  0  0  0  0  0  0  0  0  0  0  0
  150.4887  141.9315  155.2270 H   0  0  0  0  0  0  0  0  0  0  0  0
  150.4130  139.3833  158.1739 H   0  0  0  0  0  0  0  0  0  0  0  0
  152.4953  137.8709  154.6831 H   0  0  0  0  0  0  0  0  0  0  0  0
  149.9392  143.9559  156.5647 H   0  0  0  0  0  0  0  0  0  0  0  0
  150.8983  145.7050  157.7195 H   0  0  0  0  0  0  0  0  0  0  0  0
  153.1377  143.9445  157.6925 H   0  0  0  0  0  0  0  0  0  0  0  0
  153.0897  145.5828  158.3144 H   0  0  0  0  0  0  0  0  0  0  0  0
  152.7244  143.0132  159.8631 H   0  0  0  0  0  0  0  0  0  0  0  0
  153.7232  144.4003  160.2939 H   0  0  0  0  0  0  0  0  0  0  0  0
  151.3305  144.1600  161.4854 H   0  0  0  0  0  0  0  0  0  0  0  0
  151.7652  145.7318  160.8181 H   0  0  0  0  0  0  0  0  0  0  0  0
  149.6935  145.3949  159.6895 H   0  0  0  0  0  0  0  0  0  0  0  0
  149.9284  143.6567  159.6375 H   0  0  0  0  0  0  0  0  0  0  0  0
  1  2  2  0  0  0  0
  2  3  1  0  0  0  0
  2 12  1  0  0  0  0
  3  4  1  0  0  0  0
  3 18  1  0  0  0  0
  3 19  1  0  0  0  0
  4 11  1  0  0  0  0
  4  5  1  0  0  0  0
  5  6  2  0  0  0  0
  5 20  1  0  0  0  0
  6  7  1  0  0  0  0
  6 10  1  0  0  0  0
  7  8  2  0  0  0  0
  7  9  1  0  0  0  0
 10 11  2  0  0  0  0
 10 21  1  0  0  0  0
 12 13  1  0  0  0  0
 12 22  1  0  0  0  0
 13 17  1  0  0  0  0
 13 14  1  0  0  0  0
 13 23  1  0  0  0  0
 14 15  1  0  0  0  0
 14 24  1  0  0  0  0
 14 25  1  0  0  0  0
 15 16  1  0  0  0  0
 15 26  1  0  0  0  0
 15 27  1  0  0  0  0
 16 17  1  0  0  0  0
 16 28  1  0  0  0  0
 16 29  1  0  0  0  0
 17 30  1  0  0  0  0
 17 31  1  0  0  0  0
M  CHG  1   9  -1
M  END
> <s_m_source_file>
AV-unprocessed.smi

> <i_m_source_file_index>
628

> <i_lp_mmshare_version>
43012

> <i_f3d_flags>
0

> <s_epik_input>
W0NIMl0xW0NIMl1bQ0gyXVtDSDJdW0NIXTFbTkhdQyg9TylbQ0gyXW4yW2NIXWMoW2NIXW4yKUMoPU8pW09IXQ==

> <s_epik_cmdline>
J2VwaWtfcHl0aG9uJywgJy1waCcsICc3LjAnLCAnLXRuJywgJzgnLCAnLW1hJywgJzIwMCcsICctbWV0YWxfYmluZGluZycsICctaW1hZScsICc8aW5maWxlLm1hZT4nLCAnLW9tYWUnLCAnPG91dGZpbGUubWFlPic=

> <r_epik_Ionization_Penalty>
0.000955839

> <r_epik_Ionization_Penalty_Charging>
0.000925564

> <r_epik_Ionization_Penalty_Neutral>
3.02757e-05

> <r_epik_State_Penalty>
0.000600209

> <r_epik_Charging_Adjusted_Penalty>
0.00152577

> <i_epik_Tot_Q>
-1

> <i_epik_Tot_abs_Q>
1

> <r_epik_Metal_State_Penalty>
-0

> <b_epik_Metal_Only>
0

> <s_lp_Force_Field>
OPLS_2005

> <r_lp_Energy>
22.3574

> <b_lp_Chiralities_Consistent>
1

> <s_lp_Variant>
AV-unprocessed.smi:628-1

> <Gold.Version>
5.8.1

> <Gold.Id.Protein>
6NUR|6NUR_protein|mol2

> <Gold.PLP.Fitness>
50.2225

> <Gold.PLP.PLP>
-34.1890

> <Gold.PLP.part.hbond>
-4.0000

> <Gold.PLP.part.metal>
0.0000

> <Gold.PLP.part.buried>
-6.5130

> <Gold.PLP.part.nonpolar>
-25.5592

> <Gold.PLP.part.repulsive>
0.0433

> <Gold.PLP.ligand.clash>
0.0000

> <Gold.PLP.ligand.torsion>
0.3388

> <Gold.PLP.Chemscore.Hbond>
5.5680

> <Gold.PLP.Chemscore.CHOScore>
0.0000

> <Gold.PLP.Chemscore.Metal>
0.0000

> <Gold.Chemscore.Hbonds>
donor molecule, donor type, donor heavy atom, donor atom, acceptor molecule, acceptor atom, score
      L1  H    12    22       P1  8028  1.00
      P1  H  6896  6908       L1     9  1.57
      P1  H  7989  7998       L1    11  1.00
      P1  H 10752 10765       L1     8  2.00

> <Gold.PLP.Chemscore.Internal.Correction>
0.0070

> <Gold.Rescore>
     Score         DG    S(hbond)    S(metal)    S(lipo)     H(rot)  DE(clash)    DE(int)     intcor
     20.20     -23.24       3.63        0.00      83.37       1.61       0.02       3.02       ----

> <Gold.Chemscore.Fitness>
20.1988

> <Gold.Chemscore.DG>
-23.2417

> <Gold.Chemscore.ZeroCoef>
-5.4800

> <Gold.Chemscore.Hbond>
3.6305

> <Gold.Chemscore.Metal>
0.0000

> <Gold.Chemscore.Lipo>
83.3728

> <Gold.Chemscore.Internal_Hbond>
0.0000

> <Gold.Chemscore.DEClash>
0.0208

> <Gold.Chemscore.DEInternal>
3.0220

> <Gold.Chemscore.Rot>
1.6089

> <Gold.Chemscore.Internal.Correction>
   9.000000E+99

> <Gold.Chemscore.Hbonds>
donor molecule, donor type, donor heavy atom, donor atom, acceptor molecule, acceptor atom, score
      L1  H    12    22       P1  8028  0.97
      P1  H  6896  6908       L1     9  0.73
      P1  H  7989  7998       L1    11  0.93
      P1  H 10752 10765       L1     8  0.99

> <Gold.Chemscore.Hbond.Weighted>
-12.1259

> <Gold.Chemscore.Metal.Weighted>
-0.0000

> <Gold.Chemscore.Lipo.Weighted>
-9.7546

> <Gold.Chemscore.Internal_Hbond.Weighted>
0.0000

> <Gold.Chemscore.DEClash.Weighted>
0.0208

> <Gold.Chemscore.DEInternal.Weighted>
3.0220

> <Gold.Chemscore.Rot.Weighted>
4.1188

> <Gold.Chemscore.Internal.Correction.Weighted>
   9.000000E+99

> <Gold.Protein.RotatedTorsions>
[ 6907 6896 6895 6894 ] final -146.32 input  -60.11 | X-H torsion
[ 7974 7965 7964 7962 ] final  -27.46 input  175.53 | X-H torsion
[ 8008 7997 7996 7995 ] final   64.65 input   59.86 | X-H torsion
[ 10167 10162 10161 10158 ] final  -16.87 input  -65.29 | X-H torsion
[ 10718 10713 10712 10709 ] final  -74.46 input   66.30 | X-H torsion
[ 10763 10752 10751 10750 ] final -123.71 input  -60.55 | X-H torsion
[ 11005 11000 10999 10996 ] final   64.56 input  -57.11 | X-H torsion

> <Gold.Protein.ActiveResidues>
 VAL166  LYS551  ARG553  GLY616  TRP617  ASP618  TYR619  PRO620  LYS621  CYS622 
 ASP623  PHE694  ASN695  SER759  ASP760  ASP761  ALA762  ILE779  LEU786  VAL792 
 PHE793  MET794  SER795  GLU796  ALA797  LYS798  CYS799  TRP800  GLU811  SER814 

> <Gold.Protein.RotatedAtoms>
  151.1400  133.4978  159.2596 H   0  0  0  0  0  0  0  0  0  0  0  0  # atno 6907 bound_to 6896
  151.1665  135.0297  159.8743 H   0  0  0  0  0  0  0  0  0  0  0  0  # atno 6908 bound_to 6896
  152.5462  134.1268  159.8475 H   0  0  0  0  0  0  0  0  0  0  0  0  # atno 6909 bound_to 6896
  146.1356  140.5155  142.8674 H   0  0  0  0  0  0  0  0  0  0  0  0  # atno 7974 bound_to 7965
  155.6494  140.3497  155.4742 H   0  0  0  0  0  0  0  0  0  0  0  0  # atno 8008 bound_to 7997
  155.9861  140.1184  157.0705 H   0  0  0  0  0  0  0  0  0  0  0  0  # atno 8009 bound_to 7997
  154.4205  140.1129  156.5487 H   0  0  0  0  0  0  0  0  0  0  0  0  # atno 8010 bound_to 7997
  140.7240  143.5072  150.9795 H   0  0  0  0  0  0  0  0  0  0  0  0  # atno 10167 bound_to 10162
  156.0242  130.4417  150.2896 H   0  0  0  0  0  0  0  0  0  0  0  0  # atno 10718 bound_to 10713
  154.8712  135.4089  154.2987 H   0  0  0  0  0  0  0  0  0  0  0  0  # atno 10763 bound_to 10752
  153.3851  135.7013  153.6542 H   0  0  0  0  0  0  0  0  0  0  0  0  # atno 10764 bound_to 10752
  153.5348  135.3660  155.2663 H   0  0  0  0  0  0  0  0  0  0  0  0  # atno 10765 bound_to 10752
  139.9950  134.6531  156.0025 H   0  0  0  0  0  0  0  0  0  0  0  0  # atno 11005 bound_to 11000
  144.7736  140.5691  143.6653 LP  0  0  0  0  0  0  0  0  0  0  0  0  # atno 17320 bound_to 7965
  145.5164  139.1478  143.3576 LP  0  0  0  0  0  0  0  0  0  0  0  0  # atno 17321 bound_to 7965
  139.8784  143.7103  152.3159 LP  0  0  0  0  0  0  0  0  0  0  0  0  # atno 17342 bound_to 10162
  139.7377  144.7567  151.0702 LP  0  0  0  0  0  0  0  0  0  0  0  0  # atno 17343 bound_to 10162
  157.1000  131.0193  151.3089 LP  0  0  0  0  0  0  0  0  0  0  0  0  # atno 17370 bound_to 10713
  157.4787  130.7752  149.7393 LP  0  0  0  0  0  0  0  0  0  0  0  0  # atno 17371 bound_to 10713
  141.1597  133.6540  156.4279 LP  0  0  0  0  0  0  0  0  0  0  0  0  # atno 17394 bound_to 11000
  140.4835  134.6643  157.5181 LP  0  0  0  0  0  0  0  0  0  0  0  0  # atno 17395 bound_to 11000

$$$$
