AV-unprocessed.smi:794|AV-procd|sdf|3760|dock5
  -GOLD-   22720 1193D 1   1.00000     0.00000
 Structure written by MMmdl.
 41 43  0  0  0  0  0  0  0  0  1 V2000
  142.1484  133.6831  152.2812 C   0  0  0  0  0  0  0  0  0  0  0  0
  143.5540  134.0100  151.8786 C   0  0  0  0  0  0  0  0  0  0  0  0
  144.2333  135.0477  152.5239 N   0  0  0  0  0  0  0  0  0  0  0  0
  145.4722  135.2143  152.0498 C   0  0  0  0  0  0  0  0  0  0  0  0
  146.3868  136.1913  152.5233 N   0  0  0  0  0  0  0  0  0  0  0  0
  146.1593  137.1859  153.3989 C   0  0  0  0  0  0  0  0  0  0  0  0
  145.0758  137.4355  153.9275 O   0  0  0  0  0  0  0  0  0  0  0  0
  147.2784  137.8838  153.6417 N   0  0  0  0  0  0  0  0  0  0  0  0
  147.3794  139.0339  154.5418 C   0  0  2  0  0  0  0  0  0  0  0  0
  146.9468  140.3232  153.8104 C   0  0  1  0  0  0  0  0  0  0  0  0
  146.6811  141.4267  154.8504 C   0  0  0  0  0  0  0  0  0  0  0  0
  148.1005  141.7765  155.3364 C   0  0  0  0  0  0  0  0  0  0  0  0
  148.9908  140.8285  154.5078 C   0  0  2  0  0  0  0  0  0  0  0  0
  148.2482  140.8013  153.1782 C   0  0  0  0  0  0  0  0  0  0  0  0
  148.8216  139.3787  155.0256 C   0  0  2  0  0  0  0  0  0  0  0  0
  149.9474  138.4278  154.5584 C   0  0  0  0  0  0  0  0  0  0  0  0
  149.9413  138.3097  153.1512 O   0  0  0  0  0  0  0  0  0  0  0  0
  145.8903  134.0943  150.7649 S   0  0  0  0  0  0  0  0  0  0  0  0
  144.3006  133.3854  150.9061 C   0  0  0  0  0  0  0  0  0  0  0  0
  143.8904  132.2467  150.0327 C   0  0  0  0  0  0  0  0  0  0  0  0
  141.4786  133.7039  151.4212 H   0  0  0  0  0  0  0  0  0  0  0  0
  141.7620  134.3919  153.0142 H   0  0  0  0  0  0  0  0  0  0  0  0
  142.0887  132.6882  152.7227 H   0  0  0  0  0  0  0  0  0  0  0  0
  147.3275  136.1130  152.1661 H   0  0  0  0  0  0  0  0  0  0  0  0
  148.1239  137.6093  153.1634 H   0  0  0  0  0  0  0  0  0  0  0  0
  146.7236  138.8654  155.3983 H   0  0  0  0  0  0  0  0  0  0  0  0
  146.1194  140.1836  153.1134 H   0  0  0  0  0  0  0  0  0  0  0  0
  146.2116  142.2944  154.3852 H   0  0  0  0  0  0  0  0  0  0  0  0
  146.0330  141.0907  155.6606 H   0  0  0  0  0  0  0  0  0  0  0  0
  148.3335  142.8191  155.1156 H   0  0  0  0  0  0  0  0  0  0  0  0
  148.2220  141.6293  156.4100 H   0  0  0  0  0  0  0  0  0  0  0  0
  150.0264  141.1637  154.4458 H   0  0  0  0  0  0  0  0  0  0  0  0
  148.6659  140.0976  152.4570 H   0  0  0  0  0  0  0  0  0  0  0  0
  148.1659  141.7833  152.7091 H   0  0  0  0  0  0  0  0  0  0  0  0
  148.8337  139.3788  156.1169 H   0  0  0  0  0  0  0  0  0  0  0  0
  150.9227  138.8178  154.8493 H   0  0  0  0  0  0  0  0  0  0  0  0
  149.8466  137.4367  155.0010 H   0  0  0  0  0  0  0  0  0  0  0  0
  149.4230  137.5554  152.9150 H   0  0  0  0  0  0  0  0  0  0  0  0
  143.3711  131.4817  150.6102 H   0  0  0  0  0  0  0  0  0  0  0  0
  144.7552  131.7789  149.5614 H   0  0  0  0  0  0  0  0  0  0  0  0
  143.2199  132.5881  149.2440 H   0  0  0  0  0  0  0  0  0  0  0  0
  1  2  1  0  0  0  0
  1 21  1  0  0  0  0
  1 22  1  0  0  0  0
  1 23  1  0  0  0  0
  2 19  2  0  0  0  0
  2  3  1  0  0  0  0
  3  4  2  0  0  0  0
  4  5  1  0  0  0  0
  4 18  1  0  0  0  0
  5  6  1  0  0  0  0
  5 24  1  0  0  0  0
  6  7  2  0  0  0  0
  6  8  1  0  0  0  0
  8  9  1  0  0  0  0
  8 25  1  0  0  0  0
  9 15  1  0  0  0  0
  9 10  1  0  0  0  0
  9 26  1  0  0  0  0
 10 14  1  0  0  0  0
 10 11  1  0  0  0  0
 10 27  1  0  0  0  0
 11 12  1  0  0  0  0
 11 28  1  0  0  0  0
 11 29  1  0  0  0  0
 12 13  1  0  0  0  0
 12 30  1  0  0  0  0
 12 31  1  0  0  0  0
 13 14  1  0  0  0  0
 13 15  1  0  0  0  0
 13 32  1  0  0  0  0
 14 33  1  0  0  0  0
 14 34  1  0  0  0  0
 15 16  1  0  0  0  0
 15 35  1  0  0  0  0
 16 17  1  0  0  0  0
 16 36  1  0  0  0  0
 16 37  1  0  0  0  0
 17 38  1  0  0  0  0
 18 19  1  0  0  0  0
 19 20  1  0  0  0  0
 20 39  1  0  0  0  0
 20 40  1  0  0  0  0
 20 41  1  0  0  0  0
M  END
> <s_m_source_file>
AV-unprocessed.smi

> <i_m_source_file_index>
794

> <i_lp_mmshare_version>
43012

> <i_f3d_flags>
0

> <s_epik_input>
W0NIM11jMW5jKHNjMVtDSDNdKVtOSF1DKD1PKVtOSF1bQ0BIXShbQ0BASF0yMylbQ0BIXShbQ0gyXVtPSF0pW0NAQEhdKFtDSDJdMylbQ0gyXVtDSDJdMg==

> <s_epik_cmdline>
J2VwaWtfcHl0aG9uJywgJy1waCcsICc3LjAnLCAnLXRuJywgJzgnLCAnLW1hJywgJzIwMCcsICctbWV0YWxfYmluZGluZycsICctaW1hZScsICc8aW5maWxlLm1hZT4nLCAnLW9tYWUnLCAnPG91dGZpbGUubWFlPic=

> <r_lp_tautomer_probability>
0.999

> <r_epik_Ionization_Penalty>
0.000713029

> <r_epik_Ionization_Penalty_Charging>
0

> <r_epik_Ionization_Penalty_Neutral>
0.000713029

> <r_epik_State_Penalty>
0.000177984

> <r_epik_Charging_Adjusted_Penalty>
0.000177984

> <i_epik_Tot_Q>
0

> <i_epik_Tot_abs_Q>
0

> <r_epik_Metal_State_Penalty>
-0

> <b_epik_Metal_Only>
0

> <s_lp_Force_Field>
OPLS_2005

> <r_lp_Energy>
48.2777

> <b_lp_Chiralities_Consistent>
1

> <s_lp_Variant>
AV-unprocessed.smi:794-5

> <Gold.Version>
5.8.1

> <Gold.Id.Protein>
6NUR|6NUR_protein|mol2

> <Gold.PLP.Fitness>
36.4416

> <Gold.PLP.PLP>
-28.4101

> <Gold.PLP.part.hbond>
-4.8754

> <Gold.PLP.part.metal>
0.0000

> <Gold.PLP.part.buried>
4.3426

> <Gold.PLP.part.nonpolar>
-28.2951

> <Gold.PLP.part.repulsive>
0.2404

> <Gold.PLP.ligand.clash>
0.0000

> <Gold.PLP.ligand.torsion>
0.3238

> <Gold.PLP.Chemscore.Hbond>
2.8882

> <Gold.PLP.Chemscore.CHOScore>
0.0000

> <Gold.PLP.Chemscore.Metal>
0.0000

> <Gold.Chemscore.Hbonds>
donor molecule, donor type, donor heavy atom, donor atom, acceptor molecule, acceptor atom, score
      L1  H     5    24       P1  7948  1.00
      L1  H     8    25       P1  7948  0.84
      L1  H    17    38       P1  7948  1.00

> <Gold.PLP.Chemscore.Internal.Correction>
0.0145

> <Gold.Rescore>
     Score         DG    S(hbond)    S(metal)    S(lipo)     H(rot)  DE(clash)    DE(int)     intcor
     13.41     -20.45       2.78        0.00      87.69       1.78       3.02       4.02       ----

> <Gold.Chemscore.Fitness>
13.4086

> <Gold.Chemscore.DG>
-20.4524

> <Gold.Chemscore.ZeroCoef>
-5.4800

> <Gold.Chemscore.Hbond>
2.7750

> <Gold.Chemscore.Metal>
0.0000

> <Gold.Chemscore.Lipo>
87.6934

> <Gold.Chemscore.Internal_Hbond>
0.0000

> <Gold.Chemscore.DEClash>
3.0213

> <Gold.Chemscore.DEInternal>
4.0225

> <Gold.Chemscore.Rot>
1.7798

> <Gold.Chemscore.Internal.Correction>
   9.000000E+99

> <Gold.Chemscore.Hbonds>
donor molecule, donor type, donor heavy atom, donor atom, acceptor molecule, acceptor atom, score
      L1  H     5    24       P1  7948  1.00
      L1  H     8    25       P1  7948  0.78
      L1  H    17    38       P1  7948  0.85

> <Gold.Chemscore.Hbond.Weighted>
-9.2685

> <Gold.Chemscore.Metal.Weighted>
-0.0000

> <Gold.Chemscore.Lipo.Weighted>
-10.2601

> <Gold.Chemscore.Internal_Hbond.Weighted>
0.0000

> <Gold.Chemscore.DEClash.Weighted>
3.0213

> <Gold.Chemscore.DEInternal.Weighted>
4.0225

> <Gold.Chemscore.Rot.Weighted>
4.5562

> <Gold.Chemscore.Internal.Correction.Weighted>
   9.000000E+99

> <Gold.Protein.RotatedTorsions>
[ 6907 6896 6895 6894 ] final -121.19 input  -60.11 | X-H torsion
[ 7974 7965 7964 7962 ] final  -62.21 input  175.53 | X-H torsion
[ 8008 7997 7996 7995 ] final   75.13 input   59.86 | X-H torsion
[ 10167 10162 10161 10158 ] final   84.58 input  -65.29 | X-H torsion
[ 10718 10713 10712 10709 ] final -104.34 input   66.30 | X-H torsion
[ 10763 10752 10751 10750 ] final   42.38 input  -60.55 | X-H torsion
[ 11005 11000 10999 10996 ] final  -29.21 input  -57.11 | X-H torsion

> <Gold.Protein.ActiveResidues>
 VAL166  LYS551  ARG553  GLY616  TRP617  ASP618  TYR619  PRO620  LYS621  CYS622 
 ASP623  PHE694  ASN695  SER759  ASP760  ASP761  ALA762  ILE779  LEU786  VAL792 
 PHE793  MET794  SER795  GLU796  ALA797  LYS798  CYS799  TRP800  GLU811  SER814 

> <Gold.Protein.RotatedAtoms>
  150.8461  133.7860  159.3042 H   0  0  0  0  0  0  0  0  0  0  0  0  # atno 6907 bound_to 6896
  151.5546  135.1065  159.9967 H   0  0  0  0  0  0  0  0  0  0  0  0  # atno 6908 bound_to 6896
  152.4514  133.7594  159.6794 H   0  0  0  0  0  0  0  0  0  0  0  0  # atno 6909 bound_to 6896
  145.7941  140.8693  143.0265 H   0  0  0  0  0  0  0  0  0  0  0  0  # atno 7974 bound_to 7965
  155.8084  140.3474  155.5443 H   0  0  0  0  0  0  0  0  0  0  0  0  # atno 8008 bound_to 7997
  155.8466  140.0950  157.1721 H   0  0  0  0  0  0  0  0  0  0  0  0  # atno 8009 bound_to 7997
  154.4006  140.1384  156.3781 H   0  0  0  0  0  0  0  0  0  0  0  0  # atno 8010 bound_to 7997
  139.9066  144.6297  150.8581 H   0  0  0  0  0  0  0  0  0  0  0  0  # atno 10167 bound_to 10162
  156.0301  130.5510  150.7383 H   0  0  0  0  0  0  0  0  0  0  0  0  # atno 10718 bound_to 10713
  152.9884  135.6133  154.2940 H   0  0  0  0  0  0  0  0  0  0  0  0  # atno 10763 bound_to 10752
  154.2664  135.2781  155.2758 H   0  0  0  0  0  0  0  0  0  0  0  0  # atno 10764 bound_to 10752
  154.5161  135.5827  153.6700 H   0  0  0  0  0  0  0  0  0  0  0  0  # atno 10765 bound_to 10752
  140.9276  133.7358  156.0890 H   0  0  0  0  0  0  0  0  0  0  0  0  # atno 11005 bound_to 11000
  144.6777  140.0165  143.7484 LP  0  0  0  0  0  0  0  0  0  0  0  0  # atno 17320 bound_to 7965
  145.9946  139.3042  143.0964 LP  0  0  0  0  0  0  0  0  0  0  0  0  # atno 17321 bound_to 7965
  140.7695  143.3397  151.2234 LP  0  0  0  0  0  0  0  0  0  0  0  0  # atno 17342 bound_to 10162
  139.6979  143.9582  152.2891 LP  0  0  0  0  0  0  0  0  0  0  0  0  # atno 17343 bound_to 10162
  157.4958  131.0914  151.0373 LP  0  0  0  0  0  0  0  0  0  0  0  0  # atno 17370 bound_to 10713
  157.0767  130.5886  149.5412 LP  0  0  0  0  0  0  0  0  0  0  0  0  # atno 17371 bound_to 10713
  140.7905  134.3623  157.5466 LP  0  0  0  0  0  0  0  0  0  0  0  0  # atno 17394 bound_to 11000
  139.8789  134.9137  156.3090 LP  0  0  0  0  0  0  0  0  0  0  0  0  # atno 17395 bound_to 11000

$$$$
