AV-unprocessed.smi:1644|AV-procd|sdf|6591|dock6
  -GOLD-   22720 7283D 1   1.00000     0.00000
 Structure written by MMmdl.
 50 52  0  0  0  0  0  0  0  0  2 V2000
  143.8764  143.5321  162.4074 C   0  0  0  0  0  0  0  0  0  0  0  0
  145.0498  144.0860  161.5923 C   0  0  0  0  0  0  0  0  0  0  0  0
  145.7126  143.0095  160.7085 C   0  0  0  0  0  0  0  0  0  0  0  0
  144.8720  142.5114  159.5104 C   0  0  1  0  0  0  0  0  0  0  0  0
  143.8696  143.4645  159.0765 N   0  0  0  0  0  0  0  0  0  0  0  0
  144.0097  143.8069  157.7888 C   0  0  0  0  0  0  0  0  0  0  0  0
  143.2753  144.5812  157.1776 O   0  0  0  0  0  0  0  0  0  0  0  0
  145.0784  143.1586  157.2914 N   0  0  0  0  0  0  0  0  0  0  0  0
  145.5462  143.2732  155.9070 C   0  0  0  0  0  0  0  0  0  0  0  0
  145.7755  141.8879  155.2690 C   0  0  1  0  0  0  0  0  0  0  0  0
  144.5227  141.2679  155.0550 O   0  0  0  0  0  0  0  0  0  0  0  0
  146.4980  141.9944  153.9120 C   0  0  0  0  0  0  0  0  0  0  0  0
  147.2752  140.7912  153.5908 N   0  0  0  0  0  0  0  0  0  0  0  0
  147.0272  139.7977  152.6951 C   0  0  0  0  0  0  0  0  0  0  0  0
  148.0529  138.9050  152.7798 N   0  3  0  0  0  0  0  0  0  0  0  0
  148.9667  139.3350  153.7451 C   0  0  0  0  0  0  0  0  0  0  0  0
  150.1569  138.7717  154.1901 C   0  0  0  0  0  0  0  0  0  0  0  0
  150.8610  139.4657  155.2004 C   0  0  0  0  0  0  0  0  0  0  0  0
  152.1655  138.8769  155.7102 C   0  0  0  0  0  0  0  0  0  0  0  0
  150.3647  140.6849  155.7312 C   0  0  0  0  0  0  0  0  0  0  0  0
  151.1267  141.4205  156.8205 C   0  0  0  0  0  0  0  0  0  0  0  0
  149.1542  141.2431  155.2627 C   0  0  0  0  0  0  0  0  0  0  0  0
  148.4735  140.5455  154.2680 C   0  0  0  0  0  0  0  0  0  0  0  0
  145.6499  142.3736  158.2147 C   0  0  0  0  0  0  0  0  0  0  0  0
  146.6307  141.6433  158.0704 O   0  0  0  0  0  0  0  0  0  0  0  0
  143.4316  144.3115  163.0267 H   0  0  0  0  0  0  0  0  0  0  0  0
  144.2003  142.7275  163.0682 H   0  0  0  0  0  0  0  0  0  0  0  0
  143.0954  143.1386  161.7562 H   0  0  0  0  0  0  0  0  0  0  0  0
  144.6913  144.9085  160.9729 H   0  0  0  0  0  0  0  0  0  0  0  0
  145.7822  144.5126  162.2782 H   0  0  0  0  0  0  0  0  0  0  0  0
  146.6656  143.3891  160.3371 H   0  0  0  0  0  0  0  0  0  0  0  0
  145.9629  142.1504  161.3321 H   0  0  0  0  0  0  0  0  0  0  0  0
  144.3919  141.5611  159.7468 H   0  0  0  0  0  0  0  0  0  0  0  0
  143.1410  143.8109  159.6839 H   0  0  0  0  0  0  0  0  0  0  0  0
  144.8688  143.8791  155.3018 H   0  0  0  0  0  0  0  0  0  0  0  0
  146.4840  143.8314  155.9216 H   0  0  0  0  0  0  0  0  0  0  0  0
  146.3640  141.2577  155.9368 H   0  0  0  0  0  0  0  0  0  0  0  0
  144.4017  141.1466  154.1252 H   0  0  0  0  0  0  0  0  0  0  0  0
  145.7805  142.1544  153.1057 H   0  0  0  0  0  0  0  0  0  0  0  0
  147.1773  142.8477  153.8969 H   0  0  0  0  0  0  0  0  0  0  0  0
  146.1707  139.7288  152.0400 H   0  0  0  0  0  0  0  0  0  0  0  0
  150.5278  137.8426  153.7824 H   0  0  0  0  0  0  0  0  0  0  0  0
  152.9855  139.5819  155.5708 H   0  0  0  0  0  0  0  0  0  0  0  0
  152.4230  137.9588  155.1813 H   0  0  0  0  0  0  0  0  0  0  0  0
  152.0887  138.6399  156.7717 H   0  0  0  0  0  0  0  0  0  0  0  0
  150.6000  142.3214  157.1368 H   0  0  0  0  0  0  0  0  0  0  0  0
  152.1126  141.7188  156.4630 H   0  0  0  0  0  0  0  0  0  0  0  0
  151.2529  140.7844  157.6970 H   0  0  0  0  0  0  0  0  0  0  0  0
  148.7749  142.1711  155.6653 H   0  0  0  0  0  0  0  0  0  0  0  0
  148.1200  138.0645  152.2202 H   0  0  0  0  0  0  0  0  0  0  0  0
  1  2  1  0  0  0  0
  1 26  1  0  0  0  0
  1 27  1  0  0  0  0
  1 28  1  0  0  0  0
  2  3  1  0  0  0  0
  2 29  1  0  0  0  0
  2 30  1  0  0  0  0
  3  4  1  0  0  0  0
  3 31  1  0  0  0  0
  3 32  1  0  0  0  0
  4 24  1  0  0  0  0
  4  5  1  0  0  0  0
  4 33  1  0  0  0  0
  5  6  1  0  0  0  0
  5 34  1  0  0  0  0
  6  7  2  0  0  0  0
  6  8  1  0  0  0  0
  8  9  1  0  0  0  0
  8 24  1  0  0  0  0
  9 10  1  0  0  0  0
  9 35  1  0  0  0  0
  9 36  1  0  0  0  0
 10 11  1  0  0  0  0
 10 12  1  0  0  0  0
 10 37  1  0  0  0  0
 11 38  1  0  0  0  0
 12 13  1  0  0  0  0
 12 39  1  0  0  0  0
 12 40  1  0  0  0  0
 13 23  1  0  0  0  0
 13 14  1  0  0  0  0
 14 15  2  0  0  0  0
 14 41  1  0  0  0  0
 15 16  1  0  0  0  0
 15 50  1  0  0  0  0
 16 23  2  0  0  0  0
 16 17  1  0  0  0  0
 17 18  2  0  0  0  0
 17 42  1  0  0  0  0
 18 19  1  0  0  0  0
 18 20  1  0  0  0  0
 19 43  1  0  0  0  0
 19 44  1  0  0  0  0
 19 45  1  0  0  0  0
 20 21  1  0  0  0  0
 20 22  2  0  0  0  0
 21 46  1  0  0  0  0
 21 47  1  0  0  0  0
 21 48  1  0  0  0  0
 22 23  1  0  0  0  0
 22 49  1  0  0  0  0
 24 25  2  0  0  0  0
M  CHG  1  15   1
M  END
> <s_m_source_file>
AV-unprocessed.smi

> <i_m_source_file_index>
1644

> <i_lp_mmshare_version>
43012

> <i_f3d_flags>
0

> <s_epik_input>
W0NIM11bQ0gyXVtDSDJdW0NAQEhdMVtOSF1DKD1PKU4oQzE9TylbQ0gyXVtDQEhdKFtPSF0pW0NIMl1uKFtjSF1uMiljKGMyMylbY0hdYyhbQ0gzXSljKFtjSF0zKVtDSDNd

> <s_epik_cmdline>
J2VwaWtfcHl0aG9uJywgJy1waCcsICc3LjAnLCAnLXRuJywgJzgnLCAnLW1hJywgJzIwMCcsICctbWV0YWxfYmluZGluZycsICctaW1hZScsICc8aW5maWxlLm1hZT4nLCAnLW9tYWUnLCAnPG91dGZpbGUubWFlPic=

> <r_lp_tautomer_probability>
1

> <r_epik_Ionization_Penalty>
1.06742

> <r_epik_Ionization_Penalty_Charging>
1.06736

> <r_epik_Ionization_Penalty_Neutral>
5.56132e-05

> <r_epik_State_Penalty>
1.12163

> <r_epik_Charging_Adjusted_Penalty>
2.18899

> <i_epik_Tot_Q>
1

> <i_epik_Tot_abs_Q>
1

> <r_epik_Metal_State_Penalty>
1.26636

> <b_epik_Metal_Only>
0

> <s_lp_Force_Field>
OPLS_2005

> <r_lp_Energy>
28.3475

> <b_lp_Chiralities_Consistent>
1

> <s_lp_Variant>
AV-unprocessed.smi:1644-8

> <Gold.Version>
5.8.1

> <Gold.Id.Protein>
6NUR|6NUR_protein|mol2

> <Gold.PLP.Fitness>
55.0216

> <Gold.PLP.PLP>
-45.4680

> <Gold.PLP.part.hbond>
-3.0000

> <Gold.PLP.part.metal>
0.0000

> <Gold.PLP.part.buried>
-0.7063

> <Gold.PLP.part.nonpolar>
-41.5582

> <Gold.PLP.part.repulsive>
0.1538

> <Gold.PLP.ligand.clash>
0.0000

> <Gold.PLP.ligand.torsion>
1.2277

> <Gold.PLP.Chemscore.Hbond>
3.0000

> <Gold.PLP.Chemscore.CHOScore>
0.9697

> <Gold.PLP.Chemscore.Metal>
0.0000

> <Gold.Chemscore.Hbonds>
donor molecule, donor type, donor heavy atom, donor atom, acceptor molecule, acceptor atom, score
      L1  H    11    38       P1 10175  1.00
      L1  H    15    50       P1  7948  2.00
      L1  C    14    41       P1 10175  0.77

> <Gold.PLP.Chemscore.Internal.Correction>
0.0997

> <Gold.Rescore>
     Score         DG    S(hbond)    S(metal)    S(lipo)     H(rot)  DE(clash)    DE(int)     intcor
     13.40     -15.94       1.96        0.00      94.70       2.80       1.53       1.01       ----

> <Gold.Chemscore.Fitness>
13.4007

> <Gold.Chemscore.DG>
-15.9350

> <Gold.Chemscore.ZeroCoef>
-5.4800

> <Gold.Chemscore.Hbond>
1.9562

> <Gold.Chemscore.Metal>
0.0000

> <Gold.Chemscore.Lipo>
94.6951

> <Gold.Chemscore.Internal_Hbond>
0.0000

> <Gold.Chemscore.DEClash>
1.5273

> <Gold.Chemscore.DEInternal>
1.0070

> <Gold.Chemscore.Rot>
2.7961

> <Gold.Chemscore.Internal.Correction>
   9.000000E+99

> <Gold.Chemscore.Hbonds>
donor molecule, donor type, donor heavy atom, donor atom, acceptor molecule, acceptor atom, score
      L1  H    11    38       P1 10175  0.74
      L1  H    15    50       P1  7948  0.90

> <Gold.Chemscore.Hbond.Weighted>
-6.5337

> <Gold.Chemscore.Metal.Weighted>
-0.0000

> <Gold.Chemscore.Lipo.Weighted>
-11.0793

> <Gold.Chemscore.Internal_Hbond.Weighted>
0.0000

> <Gold.Chemscore.DEClash.Weighted>
1.5273

> <Gold.Chemscore.DEInternal.Weighted>
1.0070

> <Gold.Chemscore.Rot.Weighted>
7.1580

> <Gold.Chemscore.Internal.Correction.Weighted>
   9.000000E+99

> <Gold.Protein.RotatedTorsions>
[ 6907 6896 6895 6894 ] final   88.48 input  -60.11 | X-H torsion
[ 7974 7965 7964 7962 ] final -100.88 input  175.53 | X-H torsion
[ 8008 7997 7996 7995 ] final  143.33 input   59.86 | X-H torsion
[ 10167 10162 10161 10158 ] final   65.53 input  -65.29 | X-H torsion
[ 10718 10713 10712 10709 ] final -131.85 input   66.30 | X-H torsion
[ 10763 10752 10751 10750 ] final  -75.93 input  -60.55 | X-H torsion
[ 11005 11000 10999 10996 ] final -154.72 input  -57.11 | X-H torsion

> <Gold.Protein.ActiveResidues>
 VAL166  LYS551  ARG553  GLY616  TRP617  ASP618  TYR619  PRO620  LYS621  CYS622 
 ASP623  PHE694  ASN695  SER759  ASP760  ASP761  ALA762  ILE779  LEU786  VAL792 
 PHE793  MET794  SER795  GLU796  ALA797  LYS798  CYS799  TRP800  GLU811  SER814 

> <Gold.Protein.RotatedAtoms>
  152.5425  134.2114  159.8751 H   0  0  0  0  0  0  0  0  0  0  0  0  # atno 6907 bound_to 6896
  151.2097  133.4556  159.2605 H   0  0  0  0  0  0  0  0  0  0  0  0  # atno 6908 bound_to 6896
  151.0909  134.9928  159.8458 H   0  0  0  0  0  0  0  0  0  0  0  0  # atno 6909 bound_to 6896
  145.2888  140.9347  143.2890 H   0  0  0  0  0  0  0  0  0  0  0  0  # atno 7974 bound_to 7965
  156.2932  140.2265  156.4873 H   0  0  0  0  0  0  0  0  0  0  0  0  # atno 8008 bound_to 7997
  154.7801  140.0461  157.1142 H   0  0  0  0  0  0  0  0  0  0  0  0  # atno 8009 bound_to 7997
  154.9769  140.3073  155.4967 H   0  0  0  0  0  0  0  0  0  0  0  0  # atno 8010 bound_to 7997
  140.1102  144.4825  150.6982 H   0  0  0  0  0  0  0  0  0  0  0  0  # atno 10167 bound_to 10162
  156.2286  130.7023  151.0833 H   0  0  0  0  0  0  0  0  0  0  0  0  # atno 10718 bound_to 10713
  154.4931  135.5814  153.6474 H   0  0  0  0  0  0  0  0  0  0  0  0  # atno 10763 bound_to 10752
  152.9865  135.6117  154.3099 H   0  0  0  0  0  0  0  0  0  0  0  0  # atno 10764 bound_to 10752
  154.3000  135.2847  155.2595 H   0  0  0  0  0  0  0  0  0  0  0  0  # atno 10765 bound_to 10752
  140.6942  134.4008  157.5216 H   0  0  0  0  0  0  0  0  0  0  0  0  # atno 11005 bound_to 11000
  144.9190  139.4434  143.6550 LP  0  0  0  0  0  0  0  0  0  0  0  0  # atno 17320 bound_to 7965
  146.3192  139.8040  142.8959 LP  0  0  0  0  0  0  0  0  0  0  0  0  # atno 17321 bound_to 7965
  140.6929  143.2387  151.5080 LP  0  0  0  0  0  0  0  0  0  0  0  0  # atno 17342 bound_to 10162
  139.5623  144.2126  152.1711 LP  0  0  0  0  0  0  0  0  0  0  0  0  # atno 17343 bound_to 10162
  157.7122  131.0728  150.6459 LP  0  0  0  0  0  0  0  0  0  0  0  0  # atno 17370 bound_to 10713
  156.6525  130.4489  149.5714 LP  0  0  0  0  0  0  0  0  0  0  0  0  # atno 17371 bound_to 10713
  139.8915  134.8779  156.2318 LP  0  0  0  0  0  0  0  0  0  0  0  0  # atno 17394 bound_to 11000
  141.0216  133.7038  156.1278 LP  0  0  0  0  0  0  0  0  0  0  0  0  # atno 17395 bound_to 11000

$$$$
