AV-unprocessed.smi:2390|AV-procd|sdf|9475|dock3
  -GOLD-   2272013103D 1   1.00000     0.00000
 Structure written by MMmdl.
 45 46  0  0  0  0  0  0  0  0  1 V2000
  153.5390  140.8715  160.1263 C   0  0  0  0  0  0  0  0  0  0  0  0
  152.7657  142.0971  159.6869 C   0  0  0  0  0  0  0  0  0  0  0  0
  153.0198  143.3582  160.2607 C   0  0  0  0  0  0  0  0  0  0  0  0
  152.2697  144.4569  159.8051 C   0  0  0  0  0  0  0  0  0  0  0  0
  151.3046  144.2514  158.8005 C   0  0  0  0  0  0  0  0  0  0  0  0
  151.1123  142.9531  158.2765 C   0  0  0  0  0  0  0  0  0  0  0  0
  150.1234  142.8536  157.2622 N   0  0  0  0  0  0  0  0  0  0  0  0
  149.4432  141.7626  156.8682 C   0  0  0  0  0  0  0  0  0  0  0  0
  149.5335  140.6437  157.3748 O   0  0  0  0  0  0  0  0  0  0  0  0
  148.6308  142.0460  155.8394 N   0  0  0  0  0  0  0  0  0  0  0  0
  147.7470  141.0947  155.1661 C   0  0  2  0  0  0  0  0  0  0  0  0
  148.0237  141.1466  153.6532 C   0  0  0  0  0  0  0  0  0  0  0  0
  146.2454  141.3338  155.5315 C   0  0  1  0  0  0  0  0  0  0  0  0
  145.9717  140.8597  156.9832 C   0  0  0  0  0  0  0  0  0  0  0  0
  145.7789  142.7180  155.2771 N   0  0  0  0  0  0  0  0  0  0  0  0
  145.7048  143.0414  153.8475 C   0  0  0  0  0  0  0  0  0  0  0  0
  145.2005  144.4713  153.5853 C   0  0  0  0  0  0  0  0  0  0  0  0
  143.9314  144.6549  154.1976 O   0  0  0  0  0  0  0  0  0  0  0  0
  143.9766  144.4247  155.5988 C   0  0  0  0  0  0  0  0  0  0  0  0
  144.4656  142.9918  155.8708 C   0  0  0  0  0  0  0  0  0  0  0  0
  151.8403  141.8996  158.7234 N   0  0  0  0  0  0  0  0  0  0  0  0
  154.1008  141.0657  161.0403 H   0  0  0  0  0  0  0  0  0  0  0  0
  154.2428  140.5717  159.3495 H   0  0  0  0  0  0  0  0  0  0  0  0
  152.8611  140.0387  160.3161 H   0  0  0  0  0  0  0  0  0  0  0  0
  153.7692  143.4834  161.0286 H   0  0  0  0  0  0  0  0  0  0  0  0
  152.4319  145.4417  160.2177 H   0  0  0  0  0  0  0  0  0  0  0  0
  150.7210  145.0854  158.4380 H   0  0  0  0  0  0  0  0  0  0  0  0
  149.9226  143.7097  156.7671 H   0  0  0  0  0  0  0  0  0  0  0  0
  148.6203  142.9934  155.4915 H   0  0  0  0  0  0  0  0  0  0  0  0
  148.0599  140.1114  155.5151 H   0  0  0  0  0  0  0  0  0  0  0  0
  147.4187  140.4180  153.1134 H   0  0  0  0  0  0  0  0  0  0  0  0
  149.0687  140.9185  153.4410 H   0  0  0  0  0  0  0  0  0  0  0  0
  147.8122  142.1310  153.2351 H   0  0  0  0  0  0  0  0  0  0  0  0
  145.6632  140.6747  154.8853 H   0  0  0  0  0  0  0  0  0  0  0  0
  146.3993  139.8800  157.1925 H   0  0  0  0  0  0  0  0  0  0  0  0
  144.9057  140.7539  157.1811 H   0  0  0  0  0  0  0  0  0  0  0  0
  146.3784  141.5579  157.7150 H   0  0  0  0  0  0  0  0  0  0  0  0
  146.6850  142.9637  153.3817 H   0  0  0  0  0  0  0  0  0  0  0  0
  145.0539  142.3280  153.3397 H   0  0  0  0  0  0  0  0  0  0  0  0
  145.9090  145.2064  153.9704 H   0  0  0  0  0  0  0  0  0  0  0  0
  145.1066  144.6484  152.5137 H   0  0  0  0  0  0  0  0  0  0  0  0
  144.6329  145.1549  156.0754 H   0  0  0  0  0  0  0  0  0  0  0  0
  142.9799  144.5708  156.0155 H   0  0  0  0  0  0  0  0  0  0  0  0
  143.7317  142.2805  155.4892 H   0  0  0  0  0  0  0  0  0  0  0  0
  144.4989  142.8648  156.9516 H   0  0  0  0  0  0  0  0  0  0  0  0
  1  2  1  0  0  0  0
  1 22  1  0  0  0  0
  1 23  1  0  0  0  0
  1 24  1  0  0  0  0
  2 21  1  0  0  0  0
  2  3  2  0  0  0  0
  3  4  1  0  0  0  0
  3 25  1  0  0  0  0
  4  5  2  0  0  0  0
  4 26  1  0  0  0  0
  5  6  1  0  0  0  0
  5 27  1  0  0  0  0
  6  7  1  0  0  0  0
  6 21  2  0  0  0  0
  7  8  1  0  0  0  0
  7 28  1  0  0  0  0
  8  9  2  0  0  0  0
  8 10  1  0  0  0  0
 10 11  1  0  0  0  0
 10 29  1  0  0  0  0
 11 12  1  0  0  0  0
 11 13  1  0  0  0  0
 11 30  1  0  0  0  0
 12 31  1  0  0  0  0
 12 32  1  0  0  0  0
 12 33  1  0  0  0  0
 13 14  1  0  0  0  0
 13 15  1  0  0  0  0
 13 34  1  0  0  0  0
 14 35  1  0  0  0  0
 14 36  1  0  0  0  0
 14 37  1  0  0  0  0
 15 20  1  0  0  0  0
 15 16  1  0  0  0  0
 16 17  1  0  0  0  0
 16 38  1  0  0  0  0
 16 39  1  0  0  0  0
 17 18  1  0  0  0  0
 17 40  1  0  0  0  0
 17 41  1  0  0  0  0
 18 19  1  0  0  0  0
 19 20  1  0  0  0  0
 19 42  1  0  0  0  0
 19 43  1  0  0  0  0
 20 44  1  0  0  0  0
 20 45  1  0  0  0  0
M  END
> <s_m_source_file>
AV-unprocessed.smi

> <i_m_source_file_index>
2390

> <i_lp_mmshare_version>
43012

> <i_f3d_flags>
0

> <s_epik_input>
W0NIM11jMVtjSF1bY0hdW2NIXWMobjEpW05IXUMoPU8pW05IXVtDQEhdKFtDSDNdKVtDQEhdKFtDSDNdKU4yW0NIMl1bQ0gyXU9bQ0gyXVtDSDJdMg==

> <s_epik_cmdline>
J2VwaWtfcHl0aG9uJywgJy1waCcsICc3LjAnLCAnLXRuJywgJzgnLCAnLW1hJywgJzIwMCcsICctbWV0YWxfYmluZGluZycsICctaW1hZScsICc8aW5maWxlLm1hZT4nLCAnLW9tYWUnLCAnPG91dGZpbGUubWFlPic=

> <r_epik_Ionization_Penalty>
0.266074

> <r_epik_Ionization_Penalty_Charging>
0

> <r_epik_Ionization_Penalty_Neutral>
0.266074

> <r_epik_State_Penalty>
0.257924

> <r_epik_Charging_Adjusted_Penalty>
0.257924

> <i_epik_Tot_Q>
0

> <i_epik_Tot_abs_Q>
0

> <r_epik_Metal_State_Penalty>
0.257919

> <b_epik_Metal_Only>
0

> <s_lp_Force_Field>
OPLS_2005

> <r_lp_Energy>
33.31

> <b_lp_Chiralities_Consistent>
1

> <s_lp_Variant>
AV-unprocessed.smi:2390-3

> <Gold.Version>
5.8.1

> <Gold.Id.Protein>
6NUR|6NUR_protein|mol2

> <Gold.PLP.Fitness>
44.1461

> <Gold.PLP.PLP>
-39.0512

> <Gold.PLP.part.hbond>
-2.0000

> <Gold.PLP.part.metal>
0.0000

> <Gold.PLP.part.buried>
-6.6658

> <Gold.PLP.part.nonpolar>
-32.2239

> <Gold.PLP.part.repulsive>
0.4285

> <Gold.PLP.ligand.clash>
0.0000

> <Gold.PLP.ligand.torsion>
0.5288

> <Gold.PLP.Chemscore.Hbond>
2.0000

> <Gold.PLP.Chemscore.CHOScore>
0.0000

> <Gold.PLP.Chemscore.Metal>
0.0000

> <Gold.Chemscore.Hbonds>
donor molecule, donor type, donor heavy atom, donor atom, acceptor molecule, acceptor atom, score
      L1  H     7    28       P1  8028  1.00
      L1  H    10    29       P1  8028  1.00

> <Gold.PLP.Chemscore.Internal.Correction>
0.1525

> <Gold.Rescore>
     Score         DG    S(hbond)    S(metal)    S(lipo)     H(rot)  DE(clash)    DE(int)     intcor
     17.58     -19.46       1.95        0.00      95.34       1.44       0.01       1.87       ----

> <Gold.Chemscore.Fitness>
17.5820

> <Gold.Chemscore.DG>
-19.4611

> <Gold.Chemscore.ZeroCoef>
-5.4800

> <Gold.Chemscore.Hbond>
1.9496

> <Gold.Chemscore.Metal>
0.0000

> <Gold.Chemscore.Lipo>
95.3416

> <Gold.Chemscore.Internal_Hbond>
0.0000

> <Gold.Chemscore.DEClash>
0.0137

> <Gold.Chemscore.DEInternal>
1.8655

> <Gold.Chemscore.Rot>
1.4396

> <Gold.Chemscore.Internal.Correction>
   9.000000E+99

> <Gold.Chemscore.Hbonds>
donor molecule, donor type, donor heavy atom, donor atom, acceptor molecule, acceptor atom, score
      L1  H     7    28       P1  8028  0.97
      L1  H    10    29       P1  8028  0.98

> <Gold.Chemscore.Hbond.Weighted>
-6.5116

> <Gold.Chemscore.Metal.Weighted>
-0.0000

> <Gold.Chemscore.Lipo.Weighted>
-11.1550

> <Gold.Chemscore.Internal_Hbond.Weighted>
0.0000

> <Gold.Chemscore.DEClash.Weighted>
0.0137

> <Gold.Chemscore.DEInternal.Weighted>
1.8655

> <Gold.Chemscore.Rot.Weighted>
3.6855

> <Gold.Chemscore.Internal.Correction.Weighted>
   9.000000E+99

> <Gold.Protein.RotatedTorsions>
[ 6907 6896 6895 6894 ] final   53.03 input  -60.11 | X-H torsion
[ 7974 7965 7964 7962 ] final  -60.87 input  175.53 | X-H torsion
[ 8008 7997 7996 7995 ] final  107.95 input   59.86 | X-H torsion
[ 10167 10162 10161 10158 ] final   37.78 input  -65.29 | X-H torsion
[ 10718 10713 10712 10709 ] final  -94.27 input   66.30 | X-H torsion
[ 10763 10752 10751 10750 ] final   27.71 input  -60.55 | X-H torsion
[ 11005 11000 10999 10996 ] final  -54.33 input  -57.11 | X-H torsion

> <Gold.Protein.ActiveResidues>
 VAL166  LYS551  ARG553  GLY616  TRP617  ASP618  TYR619  PRO620  LYS621  CYS622 
 ASP623  PHE694  ASN695  SER759  ASP760  ASP761  ALA762  ILE779  LEU786  VAL792 
 PHE793  MET794  SER795  GLU796  ALA797  LYS798  CYS799  TRP800  GLU811  SER814 

> <Gold.Protein.RotatedAtoms>
  152.3295  134.7278  160.0293 H   0  0  0  0  0  0  0  0  0  0  0  0  # atno 6907 bound_to 6896
  151.7700  133.3335  159.3449 H   0  0  0  0  0  0  0  0  0  0  0  0  # atno 6908 bound_to 6896
  150.7414  134.5959  159.6056 H   0  0  0  0  0  0  0  0  0  0  0  0  # atno 6909 bound_to 6896
  145.8103  140.8603  143.0185 H   0  0  0  0  0  0  0  0  0  0  0  0  # atno 7974 bound_to 7965
  156.1865  140.3085  155.9248 H   0  0  0  0  0  0  0  0  0  0  0  0  # atno 8008 bound_to 7997
  155.3269  140.0458  157.3058 H   0  0  0  0  0  0  0  0  0  0  0  0  # atno 8009 bound_to 7997
  154.5402  140.2259  155.8664 H   0  0  0  0  0  0  0  0  0  0  0  0  # atno 8010 bound_to 7997
  140.4000  144.1737  150.6133 H   0  0  0  0  0  0  0  0  0  0  0  0  # atno 10167 bound_to 10162
  156.0024  130.5061  150.5901 H   0  0  0  0  0  0  0  0  0  0  0  0  # atno 10718 bound_to 10713
  153.0538  135.6530  154.0628 H   0  0  0  0  0  0  0  0  0  0  0  0  # atno 10763 bound_to 10752
  154.0310  135.2911  155.3370 H   0  0  0  0  0  0  0  0  0  0  0  0  # atno 10764 bound_to 10752
  154.6842  135.5308  153.8370 H   0  0  0  0  0  0  0  0  0  0  0  0  # atno 10765 bound_to 10752
  141.1020  133.6617  156.4305 H   0  0  0  0  0  0  0  0  0  0  0  0  # atno 11005 bound_to 11000
  144.6758  140.0386  143.7481 LP  0  0  0  0  0  0  0  0  0  0  0  0  # atno 17320 bound_to 7965
  145.9784  139.2922  143.1056 LP  0  0  0  0  0  0  0  0  0  0  0  0  # atno 17321 bound_to 7965
  140.4750  143.2399  151.9035 LP  0  0  0  0  0  0  0  0  0  0  0  0  # atno 17342 bound_to 10162
  139.4785  144.5330  151.8640 LP  0  0  0  0  0  0  0  0  0  0  0  0  # atno 17343 bound_to 10162
  157.3767  131.0774  151.1512 LP  0  0  0  0  0  0  0  0  0  0  0  0  # atno 17370 bound_to 10713
  157.2247  130.6497  149.5825 LP  0  0  0  0  0  0  0  0  0  0  0  0  # atno 17371 bound_to 10713
  140.4997  134.6497  157.5243 LP  0  0  0  0  0  0  0  0  0  0  0  0  # atno 17394 bound_to 11000
  139.9876  134.7037  155.9747 LP  0  0  0  0  0  0  0  0  0  0  0  0  # atno 17395 bound_to 11000

$$$$
