#       Name:                AV-unprocessed.smi:2744
#       Creating user name   scv26
#       Creation time:       Fri Mar 27 15:02:18 2020


#       File generated by GOLD software.
#

@<TRIPOS>MOLECULE
AV-unprocessed.smi:2744
    45    46     1
SMALL
NO_CHARGES


@<TRIPOS>ATOM
      1 ****        -3.7929  -2.8938   0.7718 C.3            1 S1                 0.0000
      2 ****        -2.2743  -2.6845   0.8922 C.3            1 S1                 0.0000
      3 ****        -1.8001  -1.9299   2.1616 C.3            1 S1                 0.0000
      4 ****        -2.3271  -2.5761   3.4568 C.3            1 S1                 0.0000
      5 ****        -2.3221  -0.6157   2.1044 O.3            1 S1                 0.0000
      6 ****        -0.2539  -1.8321   2.2352 C.3            1 S1                 0.0000
      7 ****         0.3672  -1.2184   1.0711 N.pl3          1 S1                 0.0000
      8 ****         0.8509  -1.8668  -0.0438 C.2            1 S1                 0.0000
      9 ****         1.3654  -1.0930  -0.9606 N.2            1 S1                 0.0000
     10 ****         1.2367   0.1846  -0.4313 C.ar           1 S1                 0.0000
     11 ****         1.5859   1.4801  -0.8930 C.ar           1 S1                 0.0000
     12 ****         2.1791   1.6532  -2.0954 N.pl3          1 S1                 0.0000
     13 ****         2.4352   2.9861  -2.6342 C.3            1 S1                 0.0000
     14 ****         1.1532   3.6099  -3.2104 C.3            1 S1                 0.0000
     15 ****         3.5380   2.9163  -3.6985 C.3            1 S1                 0.0000
     16 ****         1.3089   2.5355  -0.0826 N.ar           1 S1                 0.0000
     17 ****         0.7242   2.3352   1.1027 C.ar           1 S1                 0.0000
     18 ****         0.3410   1.1846   1.6612 N.ar           1 S1                 0.0000
     19 ****         0.6174   0.1245   0.8485 C.ar           1 S1                 0.0000
     20 ****        -4.0381  -3.3694  -0.1780 H              1 S1                 0.0000
     21 ****        -4.3324  -1.9472   0.8127 H              1 S1                 0.0000
     22 ****        -4.1766  -3.5381   1.5624 H              1 S1                 0.0000
     23 ****        -1.7871  -3.6594   0.8514 H              1 S1                 0.0000
     24 ****        -1.9440  -2.1488   0.0018 H              1 S1                 0.0000
     25 ****        -2.0154  -3.6184   3.5306 H              1 S1                 0.0000
     26 ****        -3.4154  -2.5500   3.5146 H              1 S1                 0.0000
     27 ****        -1.9500  -2.0579   4.3392 H              1 S1                 0.0000
     28 ****        -1.9858  -0.1251   2.8388 H              1 S1                 0.0000
     29 ****         0.0504  -1.2677   3.1179 H              1 S1                 0.0000
     30 ****         0.1730  -2.8288   2.3551 H              1 S1                 0.0000
     31 ****         0.8017  -2.9398  -0.1594 H              1 S1                 0.0000
     32 ****         2.4037   0.8829  -2.7087 H              1 S1                 0.0000
     33 ****         2.8036   3.6267  -1.8320 H              1 S1                 0.0000
     34 ****         1.3468   4.6096  -3.6000 H              1 S1                 0.0000
     35 ****         0.3753   3.7025  -2.4524 H              1 S1                 0.0000
     36 ****         0.7517   3.0072  -4.0258 H              1 S1                 0.0000
     37 ****         3.7661   3.9071  -4.0926 H              1 S1                 0.0000
     38 ****         3.2429   2.2841  -4.5370 H              1 S1                 0.0000
     39 ****         4.4597   2.5088  -3.2819 H              1 S1                 0.0000
     40 ****         0.5368   3.2238   1.6870 H              1 S1                 0.0000
     41 ****        -3.3206  -0.6477   2.1496 LP             1 S1                 0.0000
     42 ****        -2.0409  -0.1785   1.2502 LP             1 S1                 0.0000
     43 ****         1.7605  -1.3586  -1.8400 LP             1 S1                 0.0000
     44 ****         1.5429   3.4632  -0.3735 LP             1 S1                 0.0000
     45 ****        -0.0926   1.1096   2.5592 LP             1 S1                 0.0000
@<TRIPOS>BOND
    1    1    2 1     
    2    1   20 1     
    3    1   21 1     
    4    1   22 1     
    5    2    3 1     
    6    2   23 1     
    7    2   24 1     
    8    3    4 1     
    9    3    5 1     
   10    3    6 1     
   11    4   25 1     
   12    4   26 1     
   13    4   27 1     
   14    5   28 1     
   15    6    7 1     
   16    6   29 1     
   17    6   30 1     
   18    7   19 1     
   19    7    8 1     
   20    8    9 2     
   21    8   31 1     
   22    9   10 1     
   23   10   19 ar    
   24   10   11 ar    
   25   11   12 1     
   26   11   16 ar    
   27   12   13 1     
   28   12   32 1     
   29   13   14 1     
   30   13   15 1     
   31   13   33 1     
   32   14   34 1     
   33   14   35 1     
   34   14   36 1     
   35   15   37 1     
   36   15   38 1     
   37   15   39 1     
   38   16   17 ar    
   39   17   18 ar    
   40   17   40 1     
   41   18   19 ar    
   42    5   41 1     
   43    5   42 1     
   44    9   43 1     
   45   16   44 1     
   46   18   45 1     
@<TRIPOS>SUBSTRUCTURE
      1 S1             1
@<TRIPOS>SET
LONE_PAIRS      STATIC     ATOMS    <user>   **** ""
5 41 42 43 44 45
DONOR_HYDROGENS      STATIC     ATOMS    <user>   **** ""
2 28 32
ATOM$BLUE        STATIC     ATOMS    COLORGROUP SYSTEM
5 41 42 43 44 45
ATOM$RED        STATIC     ATOMS    COLORGROUP SYSTEM
2 28 32
