AV-unprocessed.smi:84|AV-procd|sdf|808|dock2
  -GOLD-   2262017203D 1   1.00000     0.00000
 Structure written by MMmdl.
 51 55  0  0  0  0  0  0  0  0  1 V2000
  148.8904  129.8974  153.9914 O   0  0  0  0  0  0  0  0  0  0  0  0
  149.1094  131.1063  153.9698 C   0  0  0  0  0  0  0  0  0  0  0  0
  149.7001  131.8778  155.1386 C   0  0  0  0  0  0  0  0  0  0  0  0
  149.4069  133.3445  154.7668 C   0  0  1  0  0  0  0  0  0  0  0  0
  148.1182  133.8841  155.4151 C   0  0  0  0  0  0  0  0  0  0  0  0
  148.3189  135.3986  155.4027 C   0  0  0  0  0  0  0  0  0  0  0  0
  149.7540  135.5795  155.5602 N   0  0  0  0  0  0  0  0  0  0  0  0
  150.3418  136.8015  155.4867 C   0  0  0  0  0  0  0  0  0  0  0  0
  151.3475  136.9855  154.5906 N   0  0  0  0  0  0  0  0  0  0  0  0
  151.9572  138.1693  154.4869 C   0  0  0  0  0  0  0  0  0  0  0  0
  151.7176  139.2917  155.1654 N   0  0  0  0  0  0  0  0  0  0  0  0
  150.6983  139.1240  156.0553 C   0  0  0  0  0  0  0  0  0  0  0  0
  149.9649  137.9236  156.2831 C   0  0  0  0  0  0  0  0  0  0  0  0
  149.0096  138.1431  157.2703 N   0  0  0  0  0  0  0  0  0  0  0  0
  149.1794  139.3900  157.6144 C   0  0  0  0  0  0  0  0  0  0  0  0
  150.1532  140.0628  156.9134 N   0  0  0  0  0  0  0  0  0  0  0  0
  150.5697  141.4203  157.1101 C   0  0  0  0  0  0  0  0  0  0  0  0
  152.0323  141.7689  157.3972 C   0  0  0  0  0  0  0  0  0  0  0  0
  151.5687  142.9573  158.2703 C   0  0  0  0  0  0  0  0  0  0  0  0
  152.3483  143.1616  159.5799 C   0  0  0  0  0  0  0  0  0  0  0  0
  152.2780  142.0145  160.4025 O   0  0  0  0  0  0  0  0  0  0  0  0
  151.4493  144.3078  157.5353 C   0  0  0  0  0  0  0  0  0  0  0  0
  150.6413  145.2174  158.2541 O   0  0  0  0  0  0  0  0  0  0  0  0
  150.2491  142.1668  158.4072 C   0  0  0  0  0  0  0  0  0  0  0  0
  150.4706  134.3527  155.2392 C   0  0  0  0  0  0  0  0  0  0  0  0
  149.2627  133.2953  153.2267 C   0  0  0  0  0  0  0  0  0  0  0  0
  148.8771  131.9255  152.9458 N   0  0  0  0  0  0  0  0  0  0  0  0
  149.2587  131.5767  156.0892 H   0  0  0  0  0  0  0  0  0  0  0  0
  150.7725  131.6823  155.1792 H   0  0  0  0  0  0  0  0  0  0  0  0
  147.2055  133.5736  154.9046 H   0  0  0  0  0  0  0  0  0  0  0  0
  148.0472  133.5457  156.4498 H   0  0  0  0  0  0  0  0  0  0  0  0
  147.9970  135.8217  154.4502 H   0  0  0  0  0  0  0  0  0  0  0  0
  147.7610  135.8851  156.2035 H   0  0  0  0  0  0  0  0  0  0  0  0
  152.7492  138.2252  153.7547 H   0  0  0  0  0  0  0  0  0  0  0  0
  148.5887  139.8568  158.3893 H   0  0  0  0  0  0  0  0  0  0  0  0
  150.2033  141.9747  156.2445 H   0  0  0  0  0  0  0  0  0  0  0  0
  152.5409  140.9926  157.9723 H   0  0  0  0  0  0  0  0  0  0  0  0
  152.6115  142.0394  156.5138 H   0  0  0  0  0  0  0  0  0  0  0  0
  153.4013  143.3596  159.3766 H   0  0  0  0  0  0  0  0  0  0  0  0
  151.9789  144.0222  160.1378 H   0  0  0  0  0  0  0  0  0  0  0  0
  153.1357  141.8525  160.7648 H   0  0  0  0  0  0  0  0  0  0  0  0
  152.4266  144.7701  157.3972 H   0  0  0  0  0  0  0  0  0  0  0  0
  151.0328  144.1827  156.5357 H   0  0  0  0  0  0  0  0  0  0  0  0
  149.7859  145.2400  157.8527 H   0  0  0  0  0  0  0  0  0  0  0  0
  149.3443  142.7741  158.3669 H   0  0  0  0  0  0  0  0  0  0  0  0
  150.2363  141.5055  159.2762 H   0  0  0  0  0  0  0  0  0  0  0  0
  150.9615  133.9985  156.1462 H   0  0  0  0  0  0  0  0  0  0  0  0
  151.2384  134.5102  154.4811 H   0  0  0  0  0  0  0  0  0  0  0  0
  148.5275  134.0019  152.8399 H   0  0  0  0  0  0  0  0  0  0  0  0
  150.2111  133.4919  152.7251 H   0  0  0  0  0  0  0  0  0  0  0  0
  148.4873  131.6359  152.0604 H   0  0  0  0  0  0  0  0  0  0  0  0
  1  2  2  0  0  0  0
  2 27  1  0  0  0  0
  2  3  1  0  0  0  0
  3  4  1  0  0  0  0
  3 28  1  0  0  0  0
  3 29  1  0  0  0  0
  4 25  1  0  0  0  0
  4  5  1  0  0  0  0
  4 26  1  0  0  0  0
  5  6  1  0  0  0  0
  5 30  1  0  0  0  0
  5 31  1  0  0  0  0
  6  7  1  0  0  0  0
  6 32  1  0  0  0  0
  6 33  1  0  0  0  0
  7  8  1  0  0  0  0
  7 25  1  0  0  0  0
  8 13  1  0  0  0  0
  8  9  2  0  0  0  0
  9 10  1  0  0  0  0
 10 11  2  0  0  0  0
 10 34  1  0  0  0  0
 11 12  1  0  0  0  0
 12 16  1  0  0  0  0
 12 13  2  0  0  0  0
 13 14  1  0  0  0  0
 14 15  2  0  0  0  0
 15 16  1  0  0  0  0
 15 35  1  0  0  0  0
 16 17  1  0  0  0  0
 17 24  1  0  0  0  0
 17 18  1  0  0  0  0
 17 36  1  0  0  0  0
 18 19  1  0  0  0  0
 18 37  1  0  0  0  0
 18 38  1  0  0  0  0
 19 20  1  0  0  0  0
 19 22  1  0  0  0  0
 19 24  1  0  0  0  0
 20 21  1  0  0  0  0
 20 39  1  0  0  0  0
 20 40  1  0  0  0  0
 21 41  1  0  0  0  0
 22 23  1  0  0  0  0
 22 42  1  0  0  0  0
 22 43  1  0  0  0  0
 23 44  1  0  0  0  0
 24 45  1  0  0  0  0
 24 46  1  0  0  0  0
 25 47  1  0  0  0  0
 25 48  1  0  0  0  0
 26 27  1  0  0  0  0
 26 49  1  0  0  0  0
 26 50  1  0  0  0  0
 27 51  1  0  0  0  0
M  END
> <s_m_source_file>
AV-unprocessed.smi

> <i_m_source_file_index>
84

> <i_lp_mmshare_version>
43012

> <i_f3d_flags>
0

> <s_epik_input>
W0NIMl0xW05IXUMoPU8pW0NIMl1bQ0BdMTJbQ0gyXVtDSDJdTihbQ0gyXTIpYyhuW2NIXW4zKWMoYzM0KW5bY0hdbjRbQ0hdKFtDSDJdNSlbQ0gyXUM1KFtDSDJdW09IXSlbQ0gyXVtPSF0=

> <s_epik_cmdline>
J2VwaWtfcHl0aG9uJywgJy1waCcsICc3LjAnLCAnLXRuJywgJzgnLCAnLW1hJywgJzIwMCcsICctbWV0YWxfYmluZGluZycsICctaW1hZScsICc8aW5maWxlLm1hZT4nLCAnLW9tYWUnLCAnPG91dGZpbGUubWFlPic=

> <r_lp_tautomer_probability>
1

> <r_epik_Ionization_Penalty>
0.00201507

> <r_epik_Ionization_Penalty_Charging>
0

> <r_epik_Ionization_Penalty_Neutral>
0.00201507

> <r_epik_State_Penalty>
0.00133787

> <r_epik_Charging_Adjusted_Penalty>
0.00133787

> <i_epik_Tot_Q>
0

> <i_epik_Tot_abs_Q>
0

> <r_epik_Metal_State_Penalty>
-0

> <b_epik_Metal_Only>
0

> <s_lp_Force_Field>
OPLS_2005

> <r_lp_Energy>
65.4538

> <b_lp_Chiralities_Consistent>
1

> <s_lp_Variant>
AV-unprocessed.smi:84-1

> <Gold.Version>
5.8.1

> <Gold.Id.Protein>
6NUR|6NUR_protein|mol2

> <Gold.PLP.Fitness>
43.3343

> <Gold.PLP.PLP>
-37.1849

> <Gold.PLP.part.hbond>
-3.9063

> <Gold.PLP.part.metal>
0.0000

> <Gold.PLP.part.buried>
-4.8881

> <Gold.PLP.part.nonpolar>
-27.4720

> <Gold.PLP.part.repulsive>
0.2953

> <Gold.PLP.ligand.clash>
0.0000

> <Gold.PLP.ligand.torsion>
1.2516

> <Gold.PLP.Chemscore.Hbond>
2.6653

> <Gold.PLP.Chemscore.CHOScore>
0.0000

> <Gold.PLP.Chemscore.Metal>
0.0000

> <Gold.Chemscore.Hbonds>
donor molecule, donor type, donor heavy atom, donor atom, acceptor molecule, acceptor atom, score
      L1  H    23    44       P1  8029  0.57
      L1  H    27    51       P1 10747  0.83
      P1  H  7989  7998       L1    11  0.36
      P1  H 10752 10765       L1     9  0.86

> <Gold.PLP.Chemscore.Internal.Correction>
0.6570

> <Gold.Rescore>
     Score         DG    S(hbond)    S(metal)    S(lipo)     H(rot)  DE(clash)    DE(int)     intcor
     11.26     -13.30       1.86        0.00      78.67       2.96       0.73       1.31       ----

> <Gold.Chemscore.Fitness>
11.2612

> <Gold.Chemscore.DG>
-13.3041

> <Gold.Chemscore.ZeroCoef>
-5.4800

> <Gold.Chemscore.Hbond>
1.8592

> <Gold.Chemscore.Metal>
0.0000

> <Gold.Chemscore.Lipo>
78.6709

> <Gold.Chemscore.Internal_Hbond>
0.0000

> <Gold.Chemscore.DEClash>
0.7343

> <Gold.Chemscore.DEInternal>
1.3086

> <Gold.Chemscore.Rot>
2.9649

> <Gold.Chemscore.Internal.Correction>
   9.000000E+99

> <Gold.Chemscore.Hbonds>
donor molecule, donor type, donor heavy atom, donor atom, acceptor molecule, acceptor atom, score
      L1  H    23    44       P1  8029  0.05
      L1  H    27    51       P1 10747  0.80
      P1  H  7989  7998       L1    11  0.12
      P1  H 10752 10765       L1     9  0.29

> <Gold.Chemscore.Hbond.Weighted>
-6.2098

> <Gold.Chemscore.Metal.Weighted>
-0.0000

> <Gold.Chemscore.Lipo.Weighted>
-9.2045

> <Gold.Chemscore.Internal_Hbond.Weighted>
0.0000

> <Gold.Chemscore.DEClash.Weighted>
0.7343

> <Gold.Chemscore.DEInternal.Weighted>
1.3086

> <Gold.Chemscore.Rot.Weighted>
7.5902

> <Gold.Chemscore.Internal.Correction.Weighted>
   9.000000E+99

> <Gold.Protein.RotatedTorsions>
[ 6907 6896 6895 6894 ] final -152.17 input  -60.11 | X-H torsion
[ 7974 7965 7964 7962 ] final  101.91 input  175.53 | X-H torsion
[ 8008 7997 7996 7995 ] final  125.17 input   59.86 | X-H torsion
[ 10167 10162 10161 10158 ] final  -42.00 input  -65.29 | X-H torsion
[ 10718 10713 10712 10709 ] final  -20.56 input   66.30 | X-H torsion
[ 10763 10752 10751 10750 ] final  165.42 input  -60.55 | X-H torsion
[ 11005 11000 10999 10996 ] final -177.02 input  -57.11 | X-H torsion

> <Gold.Protein.ActiveResidues>
 VAL166  LYS551  ARG553  GLY616  TRP617  ASP618  TYR619  PRO620  LYS621  CYS622 
 ASP623  PHE694  ASN695  SER759  ASP760  ASP761  ALA762  ILE779  LEU786  VAL792 
 PHE793  MET794  SER795  GLU796  ALA797  LYS798  CYS799  TRP800  GLU811  SER814 

> <Gold.Protein.RotatedAtoms>
  151.2238  133.4488  159.2601 H   0  0  0  0  0  0  0  0  0  0  0  0  # atno 6907 bound_to 6896
  151.0860  134.9887  159.8389 H   0  0  0  0  0  0  0  0  0  0  0  0  # atno 6908 bound_to 6896
  152.5429  134.2174  159.8827 H   0  0  0  0  0  0  0  0  0  0  0  0  # atno 6909 bound_to 6896
  145.3661  139.2407  143.3480 H   0  0  0  0  0  0  0  0  0  0  0  0  # atno 7974 bound_to 7965
  156.2825  140.2722  156.1907 H   0  0  0  0  0  0  0  0  0  0  0  0  # atno 8008 bound_to 7997
  155.0462  140.0386  157.2545 H   0  0  0  0  0  0  0  0  0  0  0  0  # atno 8009 bound_to 7997
  154.7233  140.2692  155.6527 H   0  0  0  0  0  0  0  0  0  0  0  0  # atno 8010 bound_to 7997
  140.6984  143.3062  151.3147 H   0  0  0  0  0  0  0  0  0  0  0  0  # atno 10167 bound_to 10162
  156.5302  130.4653  149.6551 H   0  0  0  0  0  0  0  0  0  0  0  0  # atno 10718 bound_to 10713
  154.3238  135.2755  155.2506 H   0  0  0  0  0  0  0  0  0  0  0  0  # atno 10763 bound_to 10752
  154.4848  135.5849  153.6419 H   0  0  0  0  0  0  0  0  0  0  0  0  # atno 10764 bound_to 10752
  152.9874  135.6120  154.3424 H   0  0  0  0  0  0  0  0  0  0  0  0  # atno 10765 bound_to 10752
  140.4456  134.6391  157.4778 H   0  0  0  0  0  0  0  0  0  0  0  0  # atno 11005 bound_to 11000
  146.2906  140.4304  142.8741 LP  0  0  0  0  0  0  0  0  0  0  0  0  # atno 17320 bound_to 7965
  144.8610  140.7140  143.6107 LP  0  0  0  0  0  0  0  0  0  0  0  0  # atno 17321 bound_to 7965
  139.6469  144.0435  152.2597 LP  0  0  0  0  0  0  0  0  0  0  0  0  # atno 17342 bound_to 10162
  139.9959  144.6328  150.7773 LP  0  0  0  0  0  0  0  0  0  0  0  0  # atno 17343 bound_to 10162
  156.3067  130.7206  151.2090 LP  0  0  0  0  0  0  0  0  0  0  0  0  # atno 17370 bound_to 10713
  157.7423  131.0492  150.5035 LP  0  0  0  0  0  0  0  0  0  0  0  0  # atno 17371 bound_to 10713
  140.0041  134.6791  155.9483 LP  0  0  0  0  0  0  0  0  0  0  0  0  # atno 17394 bound_to 11000
  141.1687  133.6537  156.4571 LP  0  0  0  0  0  0  0  0  0  0  0  0  # atno 17395 bound_to 11000

$$$$
