AV-unprocessed.smi:2558|AV-procd|sdf|10033|dock5
  -GOLD-   2272014 73D 1   1.00000     0.00000
 Structure written by MMmdl.
 42 43  0  0  0  0  0  0  0  0  2 V2000
  154.0967  137.8039  161.0843 C   0  0  0  0  0  0  0  0  0  0  0  0
  154.1215  139.2113  159.8980 S   0  0  0  0  0  0  0  0  0  0  0  0
  154.0587  140.4665  160.6641 O   0  0  0  0  0  0  0  0  0  0  0  0
  155.2326  138.9985  158.9568 O   0  0  0  0  0  0  0  0  0  0  0  0
  152.6189  138.9980  159.0232 N   0  0  0  0  0  0  0  0  0  0  0  0
  151.8798  137.7901  159.0271 C   0  0  0  0  0  0  0  0  0  0  0  0
  152.4860  136.7165  159.0345 O   0  0  0  0  0  0  0  0  0  0  0  0
  150.5397  137.9926  159.1457 N   0  5  0  0  0  0  0  0  0  0  0  0
  149.6075  137.0096  159.2207 C   0  0  0  0  0  0  0  0  0  0  0  0
  149.2782  136.2284  158.3254 O   0  0  0  0  0  0  0  0  0  0  0  0
  149.0074  136.9613  160.4235 N   0  0  0  0  0  0  0  0  0  0  0  0
  148.0319  136.0415  160.8922 C   0  0  0  0  0  0  0  0  0  0  0  0
  147.6579  136.1014  162.2500 C   0  0  0  0  0  0  0  0  0  0  0  0
  146.7138  135.1797  162.7412 C   0  0  0  0  0  0  0  0  0  0  0  0
  146.1883  134.2223  161.8521 C   0  0  0  0  0  0  0  0  0  0  0  0
  146.5489  134.1388  160.5542 N   0  0  0  0  0  0  0  0  0  0  0  0
  147.4528  135.0285  160.0888 C   0  0  0  0  0  0  0  0  0  0  0  0
  152.1730  140.1473  158.1885 C   0  0  0  0  0  0  0  0  0  0  0  0
  151.1362  141.0300  158.9148 C   0  0  0  0  0  0  0  0  0  0  0  0
  150.7737  142.2575  158.0626 C   0  0  0  0  0  0  0  0  0  0  0  0
  150.2908  141.8448  156.6613 C   0  0  0  0  0  0  0  0  0  0  0  0
  151.3326  140.9718  155.9405 C   0  0  0  0  0  0  0  0  0  0  0  0
  151.6955  139.7337  156.7763 C   0  0  0  0  0  0  0  0  0  0  0  0
  155.0109  137.8143  161.6768 H   0  0  0  0  0  0  0  0  0  0  0  0
  154.0301  136.8653  160.5347 H   0  0  0  0  0  0  0  0  0  0  0  0
  153.2354  137.8976  161.7453 H   0  0  0  0  0  0  0  0  0  0  0  0
  149.2419  137.7096  161.0589 H   0  0  0  0  0  0  0  0  0  0  0  0
  148.0835  136.8462  162.9067 H   0  0  0  0  0  0  0  0  0  0  0  0
  146.4014  135.2051  163.7746 H   0  0  0  0  0  0  0  0  0  0  0  0
  145.4635  133.4988  162.1949 H   0  0  0  0  0  0  0  0  0  0  0  0
  147.7283  134.8989  159.0533 H   0  0  0  0  0  0  0  0  0  0  0  0
  153.0446  140.7793  158.0181 H   0  0  0  0  0  0  0  0  0  0  0  0
  150.2275  140.4674  159.1256 H   0  0  0  0  0  0  0  0  0  0  0  0
  151.5298  141.3539  159.8788 H   0  0  0  0  0  0  0  0  0  0  0  0
  150.0025  142.8423  158.5643 H   0  0  0  0  0  0  0  0  0  0  0  0
  151.6443  142.9082  157.9715 H   0  0  0  0  0  0  0  0  0  0  0  0
  149.3520  141.2957  156.7471 H   0  0  0  0  0  0  0  0  0  0  0  0
  150.0758  142.7332  156.0669 H   0  0  0  0  0  0  0  0  0  0  0  0
  150.9502  140.6632  154.9673 H   0  0  0  0  0  0  0  0  0  0  0  0
  152.2313  141.5592  155.7471 H   0  0  0  0  0  0  0  0  0  0  0  0
  152.4732  139.1604  156.2705 H   0  0  0  0  0  0  0  0  0  0  0  0
  150.8195  139.0871  156.8330 H   0  0  0  0  0  0  0  0  0  0  0  0
  1  2  1  0  0  0  0
  1 24  1  0  0  0  0
  1 25  1  0  0  0  0
  1 26  1  0  0  0  0
  2  3  2  0  0  0  0
  2  4  2  0  0  0  0
  2  5  1  0  0  0  0
  5  6  1  0  0  0  0
  5 18  1  0  0  0  0
  6  7  2  0  0  0  0
  6  8  1  0  0  0  0
  8  9  1  0  0  0  0
  9 10  2  0  0  0  0
  9 11  1  0  0  0  0
 11 12  1  0  0  0  0
 11 27  1  0  0  0  0
 12 17  1  0  0  0  0
 12 13  2  0  0  0  0
 13 14  1  0  0  0  0
 13 28  1  0  0  0  0
 14 15  2  0  0  0  0
 14 29  1  0  0  0  0
 15 16  1  0  0  0  0
 15 30  1  0  0  0  0
 16 17  2  0  0  0  0
 17 31  1  0  0  0  0
 18 23  1  0  0  0  0
 18 19  1  0  0  0  0
 18 32  1  0  0  0  0
 19 20  1  0  0  0  0
 19 33  1  0  0  0  0
 19 34  1  0  0  0  0
 20 21  1  0  0  0  0
 20 35  1  0  0  0  0
 20 36  1  0  0  0  0
 21 22  1  0  0  0  0
 21 37  1  0  0  0  0
 21 38  1  0  0  0  0
 22 23  1  0  0  0  0
 22 39  1  0  0  0  0
 22 40  1  0  0  0  0
 23 41  1  0  0  0  0
 23 42  1  0  0  0  0
M  CHG  1   8  -1
M  END
> <s_m_source_file>
AV-unprocessed.smi

> <i_m_source_file_index>
2558

> <i_lp_mmshare_version>
43012

> <i_f3d_flags>
0

> <s_epik_input>
W0NIMl0xW0NIMl1bQ0gyXVtDSDJdW0NIMl1bQ0hdMU4oUyg9TykoPU8pW0NIM10pQyg9TylbTkhdQyg9TylbTkhdYzJbY0hdW2NIXVtjSF1uW2NIXTI=

> <s_epik_cmdline>
J2VwaWtfcHl0aG9uJywgJy1waCcsICc3LjAnLCAnLXRuJywgJzgnLCAnLW1hJywgJzIwMCcsICctbWV0YWxfYmluZGluZycsICctaW1hZScsICc8aW5maWxlLm1hZT4nLCAnLW9tYWUnLCAnPG91dGZpbGUubWFlPic=

> <r_epik_Ionization_Penalty>
6.14208

> <r_epik_Ionization_Penalty_Charging>
6.14039

> <r_epik_Ionization_Penalty_Neutral>
0.00168563

> <r_epik_State_Penalty>
6.14513

> <r_epik_Charging_Adjusted_Penalty>
12.2855

> <i_epik_Tot_Q>
-1

> <i_epik_Tot_abs_Q>
1

> <r_epik_Metal_State_Penalty>
2.09011

> <b_epik_Metal_Only>
1

> <s_lp_Force_Field>
OPLS_2005

> <r_lp_Energy>
23.9967

> <b_lp_Chiralities_Consistent>
1

> <s_lp_Variant>
AV-unprocessed.smi:2558-2

> <Gold.Version>
5.8.1

> <Gold.Id.Protein>
6NUR|6NUR_protein|mol2

> <Gold.PLP.Fitness>
37.9256

> <Gold.PLP.PLP>
-37.3847

> <Gold.PLP.part.hbond>
-2.2431

> <Gold.PLP.part.metal>
0.0000

> <Gold.PLP.part.buried>
-6.2186

> <Gold.PLP.part.nonpolar>
-30.4588

> <Gold.PLP.part.repulsive>
2.2170

> <Gold.PLP.ligand.clash>
0.0000

> <Gold.PLP.ligand.torsion>
3.0770

> <Gold.PLP.Chemscore.Hbond>
1.0801

> <Gold.PLP.Chemscore.CHOScore>
0.0000

> <Gold.PLP.Chemscore.Metal>
0.0000

> <Gold.Chemscore.Hbonds>
donor molecule, donor type, donor heavy atom, donor atom, acceptor molecule, acceptor atom, score
      P1  H  6896  6908       L1     7  0.05
      P1  H  7997  8009       L1     4  1.00

> <Gold.PLP.Chemscore.Internal.Correction>
3.4548

> <Gold.Rescore>
     Score         DG    S(hbond)    S(metal)    S(lipo)     H(rot)  DE(clash)    DE(int)     intcor
      9.08     -16.21       1.16        0.00      80.47       1.00       1.27       5.86       ----

> <Gold.Chemscore.Fitness>
9.0793

> <Gold.Chemscore.DG>
-16.2096

> <Gold.Chemscore.ZeroCoef>
-5.4800

> <Gold.Chemscore.Hbond>
1.1600

> <Gold.Chemscore.Metal>
0.0000

> <Gold.Chemscore.Lipo>
80.4705

> <Gold.Chemscore.Internal_Hbond>
0.0000

> <Gold.Chemscore.DEClash>
1.2677

> <Gold.Chemscore.DEInternal>
5.8625

> <Gold.Chemscore.Rot>
1.0000

> <Gold.Chemscore.Internal.Correction>
   9.000000E+99

> <Gold.Chemscore.Hbonds>
donor molecule, donor type, donor heavy atom, donor atom, acceptor molecule, acceptor atom, score
      P1  H  6896  6908       L1     7  0.04
      P1  H  7997  8009       L1     4  0.98

> <Gold.Chemscore.Hbond.Weighted>
-3.8745

> <Gold.Chemscore.Metal.Weighted>
-0.0000

> <Gold.Chemscore.Lipo.Weighted>
-9.4151

> <Gold.Chemscore.Internal_Hbond.Weighted>
0.0000

> <Gold.Chemscore.DEClash.Weighted>
1.2677

> <Gold.Chemscore.DEInternal.Weighted>
5.8625

> <Gold.Chemscore.Rot.Weighted>
2.5600

> <Gold.Chemscore.Internal.Correction.Weighted>
   9.000000E+99

> <Gold.Protein.RotatedTorsions>
[ 6907 6896 6895 6894 ] final -156.54 input  -60.11 | X-H torsion
[ 7974 7965 7964 7962 ] final  140.33 input  175.53 | X-H torsion
[ 8008 7997 7996 7995 ] final  106.68 input   59.86 | X-H torsion
[ 10167 10162 10161 10158 ] final  161.60 input  -65.29 | X-H torsion
[ 10718 10713 10712 10709 ] final  -33.62 input   66.30 | X-H torsion
[ 10763 10752 10751 10750 ] final  -51.23 input  -60.55 | X-H torsion
[ 11005 11000 10999 10996 ] final  -97.37 input  -57.11 | X-H torsion

> <Gold.Protein.ActiveResidues>
 VAL166  LYS551  ARG553  GLY616  TRP617  ASP618  TYR619  PRO620  LYS621  CYS622 
 ASP623  PHE694  ASN695  SER759  ASP760  ASP761  ALA762  ILE779  LEU786  VAL792 
 PHE793  MET794  SER795  GLU796  ALA797  LYS798  CYS799  TRP800  GLU811  SER814 

> <Gold.Protein.RotatedAtoms>
  151.2892  133.4173  159.2631 H   0  0  0  0  0  0  0  0  0  0  0  0  # atno 6907 bound_to 6896
  151.0292  134.9527  159.8112 H   0  0  0  0  0  0  0  0  0  0  0  0  # atno 6908 bound_to 6896
  152.5342  134.2853  159.9075 H   0  0  0  0  0  0  0  0  0  0  0  0  # atno 6909 bound_to 6896
  144.9196  139.5184  143.5669 H   0  0  0  0  0  0  0  0  0  0  0  0  # atno 7974 bound_to 7965
  156.1762  140.3108  155.9064 H   0  0  0  0  0  0  0  0  0  0  0  0  # atno 8008 bound_to 7997
  155.3481  140.0469  157.3063 H   0  0  0  0  0  0  0  0  0  0  0  0  # atno 8009 bound_to 7997
  154.5293  140.2225  155.8843 H   0  0  0  0  0  0  0  0  0  0  0  0  # atno 8010 bound_to 7997
  139.4851  144.4521  151.8817 H   0  0  0  0  0  0  0  0  0  0  0  0  # atno 10167 bound_to 10162
  156.3605  130.4323  149.7628 H   0  0  0  0  0  0  0  0  0  0  0  0  # atno 10718 bound_to 10713
  154.1232  135.6531  153.4907 H   0  0  0  0  0  0  0  0  0  0  0  0  # atno 10763 bound_to 10752
  153.0219  135.5275  154.7076 H   0  0  0  0  0  0  0  0  0  0  0  0  # atno 10764 bound_to 10752
  154.6289  135.2974  155.0209 H   0  0  0  0  0  0  0  0  0  0  0  0  # atno 10765 bound_to 10752
  141.1381  133.8166  157.0696 H   0  0  0  0  0  0  0  0  0  0  0  0  # atno 11005 bound_to 11000
  146.3198  139.8066  142.8954 LP  0  0  0  0  0  0  0  0  0  0  0  0  # atno 17320 bound_to 7965
  145.3317  141.0268  143.3442 LP  0  0  0  0  0  0  0  0  0  0  0  0  # atno 17321 bound_to 7965
  140.3978  144.2532  150.5895 LP  0  0  0  0  0  0  0  0  0  0  0  0  # atno 17342 bound_to 10162
  140.5086  143.2297  151.8570 LP  0  0  0  0  0  0  0  0  0  0  0  0  # atno 17343 bound_to 10162
  156.4794  130.8034  151.3048 LP  0  0  0  0  0  0  0  0  0  0  0  0  # atno 17370 bound_to 10713
  157.7473  131.0011  150.2949 LP  0  0  0  0  0  0  0  0  0  0  0  0  # atno 17371 bound_to 10713
  140.0519  134.9801  157.1152 LP  0  0  0  0  0  0  0  0  0  0  0  0  # atno 17394 bound_to 11000
  140.3977  134.2116  155.7164 LP  0  0  0  0  0  0  0  0  0  0  0  0  # atno 17395 bound_to 11000

$$$$
