AV-unprocessed.smi:670|AV-procd|sdf|3270|dock10
  -GOLD-   22720 0223D 1   1.00000     0.00000
 Structure written by MMmdl.
 45 46  0  0  0  0  0  0  0  0  1 V2000
  151.1332  137.8034  154.0288 C   0  0  0  0  0  0  0  0  0  0  0  0
  150.6896  139.2408  154.3424 C   0  0  1  0  0  0  0  0  0  0  0  0
  149.1539  139.3629  154.4170 C   0  0  0  0  0  0  0  0  0  0  0  0
  148.7151  140.8094  154.6950 C   0  0  0  0  0  0  0  0  0  0  0  0
  149.3778  141.3593  155.9664 C   0  0  0  0  0  0  0  0  0  0  0  0
  150.9084  141.2421  155.8909 C   0  0  0  0  0  0  0  0  0  0  0  0
  151.3553  139.7874  155.6258 C   0  0  1  0  0  0  0  0  0  0  0  0
  150.9849  138.9492  156.7146 O   0  0  0  0  0  0  0  0  0  0  0  0
  151.8528  137.8485  156.9413 C   0  0  0  0  0  0  0  0  0  0  0  0
  151.6182  137.3270  158.3659 C   0  0  0  0  0  0  0  0  0  0  0  0
  150.2096  137.4050  158.7374 N   0  0  0  0  0  0  0  0  0  0  0  0
  149.3449  136.3802  158.7135 C   0  0  0  0  0  0  0  0  0  0  0  0
  149.6522  135.2489  158.3341 O   0  0  0  0  0  0  0  0  0  0  0  0
  147.9169  136.6987  159.1806 C   0  0  0  0  0  0  0  0  0  0  0  0
  147.6066  136.1764  160.5194 N   0  0  0  0  0  0  0  0  0  0  0  0
  147.7910  137.0953  161.5415 N   0  0  0  0  0  0  0  0  0  0  0  0
  147.5373  136.7620  162.7617 C   0  0  0  0  0  0  0  0  0  0  0  0
  147.7295  137.7037  163.7427 O   0  0  0  0  0  0  0  0  0  0  0  0
  147.0641  135.4356  163.0927 C   0  0  0  0  0  0  0  0  0  0  0  0
  146.8928  134.5460  162.0906 C   0  0  0  0  0  0  0  0  0  0  0  0
  147.1690  134.8915  160.6950 C   0  0  0  0  0  0  0  0  0  0  0  0
  147.0203  134.1010  159.7637 O   0  0  0  0  0  0  0  0  0  0  0  0
  146.8749  138.0691  163.9119 H   0  0  0  0  0  0  0  0  0  0  0  0
  150.8132  137.1083  154.8056 H   0  0  0  0  0  0  0  0  0  0  0  0
  152.2183  137.7363  153.9479 H   0  0  0  0  0  0  0  0  0  0  0  0
  150.7107  137.4607  153.0838 H   0  0  0  0  0  0  0  0  0  0  0  0
  151.0257  139.8629  153.5116 H   0  0  0  0  0  0  0  0  0  0  0  0
  148.7067  139.0218  153.4828 H   0  0  0  0  0  0  0  0  0  0  0  0
  148.7667  138.7088  155.1993 H   0  0  0  0  0  0  0  0  0  0  0  0
  148.9778  141.4402  153.8451 H   0  0  0  0  0  0  0  0  0  0  0  0
  147.6302  140.8567  154.7914 H   0  0  0  0  0  0  0  0  0  0  0  0
  149.0922  142.4011  156.1134 H   0  0  0  0  0  0  0  0  0  0  0  0
  149.0110  140.8129  156.8362 H   0  0  0  0  0  0  0  0  0  0  0  0
  151.2765  141.8810  155.0873 H   0  0  0  0  0  0  0  0  0  0  0  0
  151.3535  141.6312  156.8057 H   0  0  0  0  0  0  0  0  0  0  0  0
  152.4384  139.7573  155.4936 H   0  0  0  0  0  0  0  0  0  0  0  0
  151.6396  137.0616  156.2169 H   0  0  0  0  0  0  0  0  0  0  0  0
  152.8980  138.1286  156.8132 H   0  0  0  0  0  0  0  0  0  0  0  0
  151.9366  136.2868  158.4375 H   0  0  0  0  0  0  0  0  0  0  0  0
  152.2236  137.8883  159.0792 H   0  0  0  0  0  0  0  0  0  0  0  0
  149.8747  138.3009  159.0615 H   0  0  0  0  0  0  0  0  0  0  0  0
  147.7622  137.7791  159.1561 H   0  0  0  0  0  0  0  0  0  0  0  0
  147.2212  136.2876  158.4469 H   0  0  0  0  0  0  0  0  0  0  0  0
  146.8566  135.1706  164.1190 H   0  0  0  0  0  0  0  0  0  0  0  0
  146.5412  133.5516  162.3235 H   0  0  0  0  0  0  0  0  0  0  0  0
  1  2  1  0  0  0  0
  1 24  1  0  0  0  0
  1 25  1  0  0  0  0
  1 26  1  0  0  0  0
  2  7  1  0  0  0  0
  2  3  1  0  0  0  0
  2 27  1  0  0  0  0
  3  4  1  0  0  0  0
  3 28  1  0  0  0  0
  3 29  1  0  0  0  0
  4  5  1  0  0  0  0
  4 30  1  0  0  0  0
  4 31  1  0  0  0  0
  5  6  1  0  0  0  0
  5 32  1  0  0  0  0
  5 33  1  0  0  0  0
  6  7  1  0  0  0  0
  6 34  1  0  0  0  0
  6 35  1  0  0  0  0
  7  8  1  0  0  0  0
  7 36  1  0  0  0  0
  8  9  1  0  0  0  0
  9 10  1  0  0  0  0
  9 37  1  0  0  0  0
  9 38  1  0  0  0  0
 10 11  1  0  0  0  0
 10 39  1  0  0  0  0
 10 40  1  0  0  0  0
 11 12  1  0  0  0  0
 11 41  1  0  0  0  0
 12 13  2  0  0  0  0
 12 14  1  0  0  0  0
 14 42  1  0  0  0  0
 14 43  1  0  0  0  0
 14 15  1  0  0  0  0
 15 16  1  0  0  0  0
 15 21  1  0  0  0  0
 16 17  2  0  0  0  0
 17 18  1  0  0  0  0
 17 19  1  0  0  0  0
 18 23  1  0  0  0  0
 19 44  1  0  0  0  0
 19 20  2  0  0  0  0
 20 45  1  0  0  0  0
 20 21  1  0  0  0  0
 21 22  2  0  0  0  0
M  END
> <s_m_source_file>
AV-unprocessed.smi

> <i_m_source_file_index>
670

> <i_lp_mmshare_version>
43012

> <i_f3d_flags>
0

> <s_epik_input>
W0NIM11bQ0BASF0xW0NIMl1bQ0gyXVtDSDJdW0NIMl1bQ0BIXTFPW0NIMl1bQ0gyXVtOSF1DKD1PKVtDSDJdbjJbbkhdYyg9TylbY0hdW2NIXWMyPU8=

> <s_epik_cmdline>
J2VwaWtfcHl0aG9uJywgJy1waCcsICc3LjAnLCAnLXRuJywgJzgnLCAnLW1hJywgJzIwMCcsICctbWV0YWxfYmluZGluZycsICctaW1hZScsICc8aW5maWxlLm1hZT4nLCAnLW9tYWUnLCAnPG91dGZpbGUubWFlPic=

> <r_lp_tautomer_probability>
0.9996

> <r_epik_Ionization_Penalty>
2.12726

> <r_epik_Ionization_Penalty_Charging>
3.83395e-08

> <r_epik_Ionization_Penalty_Neutral>
2.12726

> <r_epik_State_Penalty>
1.70432

> <r_epik_Charging_Adjusted_Penalty>
1.70432

> <i_epik_Tot_Q>
0

> <i_epik_Tot_abs_Q>
0

> <r_epik_Metal_State_Penalty>
1.70432

> <b_epik_Metal_Only>
0

> <s_lp_Force_Field>
OPLS_2005

> <r_lp_Energy>
19.8416

> <b_lp_Chiralities_Consistent>
1

> <s_lp_Variant>
AV-unprocessed.smi:670-6

> <Gold.Version>
5.8.1

> <Gold.Id.Protein>
6NUR|6NUR_protein|mol2

> <Gold.PLP.Fitness>
45.9408

> <Gold.PLP.PLP>
-40.6521

> <Gold.PLP.part.hbond>
-4.0000

> <Gold.PLP.part.metal>
0.0000

> <Gold.PLP.part.buried>
-1.7577

> <Gold.PLP.part.nonpolar>
-34.5706

> <Gold.PLP.part.repulsive>
0.1711

> <Gold.PLP.ligand.clash>
0.0000

> <Gold.PLP.ligand.torsion>
1.2560

> <Gold.PLP.Chemscore.Hbond>
2.5796

> <Gold.PLP.Chemscore.CHOScore>
0.0000

> <Gold.PLP.Chemscore.Metal>
0.0000

> <Gold.Chemscore.Hbonds>
donor molecule, donor type, donor heavy atom, donor atom, acceptor molecule, acceptor atom, score
      P1  H  6896  6907       L1    13  1.00
      P1  H  6931  6943       L1    16  0.80
      P1  H  6934  6947       L1    16  0.60

> <Gold.PLP.Chemscore.Internal.Correction>
0.0621

> <Gold.Rescore>
     Score         DG    S(hbond)    S(metal)    S(lipo)     H(rot)  DE(clash)    DE(int)     intcor
     11.38     -12.85       1.84        0.00      78.03       3.09       0.15       1.32       ----

> <Gold.Chemscore.Fitness>
11.3799

> <Gold.Chemscore.DG>
-12.8493

> <Gold.Chemscore.ZeroCoef>
-5.4800

> <Gold.Chemscore.Hbond>
1.8415

> <Gold.Chemscore.Metal>
0.0000

> <Gold.Chemscore.Lipo>
78.0279

> <Gold.Chemscore.Internal_Hbond>
0.0000

> <Gold.Chemscore.DEClash>
0.1506

> <Gold.Chemscore.DEInternal>
1.3188

> <Gold.Chemscore.Rot>
3.0901

> <Gold.Chemscore.Internal.Correction>
   9.000000E+99

> <Gold.Chemscore.Hbonds>
donor molecule, donor type, donor heavy atom, donor atom, acceptor molecule, acceptor atom, score
      P1  H  6896  6907       L1    13  0.78
      P1  H  6931  6943       L1    16  0.12
      P1  H  6934  6947       L1    16  0.44

> <Gold.Chemscore.Hbond.Weighted>
-6.1506

> <Gold.Chemscore.Metal.Weighted>
-0.0000

> <Gold.Chemscore.Lipo.Weighted>
-9.1293

> <Gold.Chemscore.Internal_Hbond.Weighted>
0.0000

> <Gold.Chemscore.DEClash.Weighted>
0.1506

> <Gold.Chemscore.DEInternal.Weighted>
1.3188

> <Gold.Chemscore.Rot.Weighted>
7.9106

> <Gold.Chemscore.Internal.Correction.Weighted>
   9.000000E+99

> <Gold.Protein.RotatedTorsions>
[ 6907 6896 6895 6894 ] final  -78.11 input  -60.11 | X-H torsion
[ 7974 7965 7964 7962 ] final  126.01 input  175.53 | X-H torsion
[ 8008 7997 7996 7995 ] final   -3.14 input   59.86 | X-H torsion
[ 10167 10162 10161 10158 ] final   40.14 input  -65.29 | X-H torsion
[ 10718 10713 10712 10709 ] final -157.54 input   66.30 | X-H torsion
[ 10763 10752 10751 10750 ] final  -15.84 input  -60.55 | X-H torsion
[ 11005 11000 10999 10996 ] final  -16.99 input  -57.11 | X-H torsion

> <Gold.Protein.ActiveResidues>
 VAL166  LYS551  ARG553  GLY616  TRP617  ASP618  TYR619  PRO620  LYS621  CYS622 
 ASP623  PHE694  ASN695  SER759  ASP760  ASP761  ALA762  ILE779  LEU786  VAL792 
 PHE793  MET794  SER795  GLU796  ALA797  LYS798  CYS799  TRP800  GLU811  SER814 

> <Gold.Protein.RotatedAtoms>
  150.6981  134.4322  159.5253 H   0  0  0  0  0  0  0  0  0  0  0  0  # atno 6907 bound_to 6896
  152.2046  134.8554  160.0513 H   0  0  0  0  0  0  0  0  0  0  0  0  # atno 6908 bound_to 6896
  151.9461  133.3617  159.4020 H   0  0  0  0  0  0  0  0  0  0  0  0  # atno 6909 bound_to 6896
  145.0665  139.3764  143.4979 H   0  0  0  0  0  0  0  0  0  0  0  0  # atno 7974 bound_to 7965
  154.6281  140.2516  155.7467 H   0  0  0  0  0  0  0  0  0  0  0  0  # atno 8008 bound_to 7997
  156.2464  140.2912  156.0540 H   0  0  0  0  0  0  0  0  0  0  0  0  # atno 8009 bound_to 7997
  155.1789  140.0388  157.2868 H   0  0  0  0  0  0  0  0  0  0  0  0  # atno 8010 bound_to 7997
  140.3771  144.2029  150.6131 H   0  0  0  0  0  0  0  0  0  0  0  0  # atno 10167 bound_to 10162
  156.5417  130.8566  151.2751 H   0  0  0  0  0  0  0  0  0  0  0  0  # atno 10718 bound_to 10713
  153.5495  135.7012  153.5598 H   0  0  0  0  0  0  0  0  0  0  0  0  # atno 10763 bound_to 10752
  153.3528  135.3990  155.1659 H   0  0  0  0  0  0  0  0  0  0  0  0  # atno 10764 bound_to 10752
  154.8663  135.3769  154.5005 H   0  0  0  0  0  0  0  0  0  0  0  0  # atno 10765 bound_to 10752
  140.8123  133.8131  155.9576 H   0  0  0  0  0  0  0  0  0  0  0  0  # atno 11005 bound_to 11000
  146.3527  140.0389  142.8644 LP  0  0  0  0  0  0  0  0  0  0  0  0  # atno 17320 bound_to 7965
  145.1345  140.9536  143.4525 LP  0  0  0  0  0  0  0  0  0  0  0  0  # atno 17321 bound_to 7965
  140.4975  143.2328  151.8728 LP  0  0  0  0  0  0  0  0  0  0  0  0  # atno 17342 bound_to 10162
  139.4798  144.5097  151.8950 LP  0  0  0  0  0  0  0  0  0  0  0  0  # atno 17343 bound_to 10162
  157.7404  130.9850  150.2376 LP  0  0  0  0  0  0  0  0  0  0  0  0  # atno 17370 bound_to 10713
  156.2966  130.3752  149.7791 LP  0  0  0  0  0  0  0  0  0  0  0  0  # atno 17371 bound_to 10713
  140.9185  134.2172  157.4942 LP  0  0  0  0  0  0  0  0  0  0  0  0  # atno 17394 bound_to 11000
  139.8713  134.9781  156.4987 LP  0  0  0  0  0  0  0  0  0  0  0  0  # atno 17395 bound_to 11000

$$$$
