AV-unprocessed.smi:3345|AV-procd|sdf|12902|dock5
  -GOLD-   2272019313D 1   1.00000     0.00000
 Structure written by MMmdl.
 40 41  0  0  0  0  0  0  0  0  1 V2000
  146.2820  137.9325  152.1595 C   0  0  0  0  0  0  0  0  0  0  0  0
  146.2709  137.4224  153.6062 C   0  0  1  0  0  0  0  0  0  0  0  0
  145.4651  136.1122  153.7426 C   0  0  0  0  0  0  0  0  0  0  0  0
  145.5008  135.2280  152.5752 N   0  0  0  0  0  0  0  0  0  0  0  0
  145.3412  133.8190  152.9263 C   0  0  0  0  0  0  0  0  0  0  0  0
  145.3836  132.9138  151.6832 C   0  0  0  0  0  0  0  0  0  0  0  0
  144.3823  133.3244  150.7579 O   0  0  0  0  0  0  0  0  0  0  0  0
  144.5271  134.6833  150.3582 C   0  0  0  0  0  0  0  0  0  0  0  0
  144.4828  135.5936  151.5978 C   0  0  0  0  0  0  0  0  0  0  0  0
  147.6427  137.1969  154.0552 N   0  0  0  0  0  0  0  0  0  0  0  0
  148.0241  136.9317  155.3150 C   0  0  0  0  0  0  0  0  0  0  0  0
  147.2716  137.0234  156.2856 O   0  0  0  0  0  0  0  0  0  0  0  0
  149.4698  136.4420  155.4847 C   0  0  1  0  0  0  0  0  0  0  0  0
  149.7501  135.1215  154.7379 C   0  0  0  0  0  0  0  0  0  0  0  0
  150.3905  137.5054  155.0971 N   0  0  0  0  0  0  0  0  0  0  0  0
  150.1366  138.7472  154.6774 C   0  0  0  0  0  0  0  0  0  0  0  0
  151.2180  139.4336  154.3364 N   0  0  0  0  0  0  0  0  0  0  0  0
  152.1726  138.4862  154.5741 C   0  0  0  0  0  0  0  0  0  0  0  0
  151.7308  137.3105  155.0197 N   0  0  0  0  0  0  0  0  0  0  0  0
  145.2683  138.1170  151.8026 H   0  0  0  0  0  0  0  0  0  0  0  0
  146.7458  137.2115  151.4853 H   0  0  0  0  0  0  0  0  0  0  0  0
  146.8350  138.8688  152.0782 H   0  0  0  0  0  0  0  0  0  0  0  0
  145.7925  138.1927  154.2122 H   0  0  0  0  0  0  0  0  0  0  0  0
  145.8025  135.5678  154.6258 H   0  0  0  0  0  0  0  0  0  0  0  0
  144.4266  136.3823  153.9404 H   0  0  0  0  0  0  0  0  0  0  0  0
  146.1289  133.5057  153.6100 H   0  0  0  0  0  0  0  0  0  0  0  0
  144.3953  133.6724  153.4496 H   0  0  0  0  0  0  0  0  0  0  0  0
  146.3656  132.9548  151.2101 H   0  0  0  0  0  0  0  0  0  0  0  0
  145.2066  131.8753  151.9638 H   0  0  0  0  0  0  0  0  0  0  0  0
  145.4653  134.8119  149.8170 H   0  0  0  0  0  0  0  0  0  0  0  0
  143.7225  134.9409  149.6694 H   0  0  0  0  0  0  0  0  0  0  0  0
  143.4934  135.5352  152.0540 H   0  0  0  0  0  0  0  0  0  0  0  0
  144.6228  136.6295  151.2870 H   0  0  0  0  0  0  0  0  0  0  0  0
  148.3392  137.1078  153.3300 H   0  0  0  0  0  0  0  0  0  0  0  0
  149.6272  136.2531  156.5480 H   0  0  0  0  0  0  0  0  0  0  0  0
  149.0910  134.3260  155.0872 H   0  0  0  0  0  0  0  0  0  0  0  0
  150.7758  134.7916  154.9045 H   0  0  0  0  0  0  0  0  0  0  0  0
  149.6064  135.2197  153.6609 H   0  0  0  0  0  0  0  0  0  0  0  0
  149.1383  139.1540  154.6099 H   0  0  0  0  0  0  0  0  0  0  0  0
  153.2242  138.6652  154.4042 H   0  0  0  0  0  0  0  0  0  0  0  0
  1  2  1  0  0  0  0
  1 20  1  0  0  0  0
  1 21  1  0  0  0  0
  1 22  1  0  0  0  0
  2  3  1  0  0  0  0
  2 10  1  0  0  0  0
  2 23  1  0  0  0  0
  3  4  1  0  0  0  0
  3 24  1  0  0  0  0
  3 25  1  0  0  0  0
  4  9  1  0  0  0  0
  4  5  1  0  0  0  0
  5  6  1  0  0  0  0
  5 26  1  0  0  0  0
  5 27  1  0  0  0  0
  6  7  1  0  0  0  0
  6 28  1  0  0  0  0
  6 29  1  0  0  0  0
  7  8  1  0  0  0  0
  8  9  1  0  0  0  0
  8 30  1  0  0  0  0
  8 31  1  0  0  0  0
  9 32  1  0  0  0  0
  9 33  1  0  0  0  0
 10 11  1  0  0  0  0
 10 34  1  0  0  0  0
 11 12  2  0  0  0  0
 11 13  1  0  0  0  0
 13 14  1  0  0  0  0
 13 15  1  0  0  0  0
 13 35  1  0  0  0  0
 14 36  1  0  0  0  0
 14 37  1  0  0  0  0
 14 38  1  0  0  0  0
 15 19  1  0  0  0  0
 15 16  1  0  0  0  0
 16 17  2  0  0  0  0
 16 39  1  0  0  0  0
 17 18  1  0  0  0  0
 18 19  2  0  0  0  0
 18 40  1  0  0  0  0
M  END
> <s_m_source_file>
AV-unprocessed.smi

> <i_m_source_file_index>
3345

> <i_lp_mmshare_version>
43012

> <i_f3d_flags>
0

> <s_epik_input>
W0NIMl0xW0NIMl1PW0NIMl1bQ0gyXU4xW0NIMl1bQ0BASF0oW0NIM10pW05IXUMoPU8pW0NASF0oW0NIM10pbjJbY0hdbltjSF1uMg==

> <s_epik_cmdline>
J2VwaWtfcHl0aG9uJywgJy1waCcsICc3LjAnLCAnLXRuJywgJzgnLCAnLW1hJywgJzIwMCcsICctbWV0YWxfYmluZGluZycsICctaW1hZScsICc8aW5maWxlLm1hZT4nLCAnLW9tYWUnLCAnPG91dGZpbGUubWFlPic=

> <r_lp_tautomer_probability>
1

> <r_epik_Ionization_Penalty>
0.211373

> <r_epik_Ionization_Penalty_Charging>
0

> <r_epik_Ionization_Penalty_Neutral>
0.211373

> <r_epik_State_Penalty>
0.201459

> <r_epik_Charging_Adjusted_Penalty>
0.201459

> <i_epik_Tot_Q>
0

> <i_epik_Tot_abs_Q>
0

> <r_epik_Metal_State_Penalty>
0.201458

> <b_epik_Metal_Only>
0

> <s_lp_Force_Field>
OPLS_2005

> <r_lp_Energy>
29.1888

> <b_lp_Chiralities_Consistent>
1

> <s_lp_Variant>
AV-unprocessed.smi:3345-4

> <Gold.Version>
5.8.1

> <Gold.Id.Protein>
6NUR|6NUR_protein|mol2

> <Gold.PLP.Fitness>
32.1924

> <Gold.PLP.PLP>
-24.7570

> <Gold.PLP.part.hbond>
-3.0000

> <Gold.PLP.part.metal>
0.0000

> <Gold.PLP.part.buried>
-2.5481

> <Gold.PLP.part.nonpolar>
-19.8274

> <Gold.PLP.part.repulsive>
0.4952

> <Gold.PLP.ligand.clash>
0.0000

> <Gold.PLP.ligand.torsion>
0.8851

> <Gold.PLP.Chemscore.Hbond>
3.0000

> <Gold.PLP.Chemscore.CHOScore>
0.0000

> <Gold.PLP.Chemscore.Metal>
0.0000

> <Gold.Chemscore.Hbonds>
donor molecule, donor type, donor heavy atom, donor atom, acceptor molecule, acceptor atom, score
      L1  H    10    34       P1  7948  0.99
      P1  H  7989  7998       L1    17  1.00
      P1  H 10752 10763       L1    19  0.73

> <Gold.PLP.Chemscore.Internal.Correction>
0.2056

> <Gold.Rescore>
     Score         DG    S(hbond)    S(metal)    S(lipo)     H(rot)  DE(clash)    DE(int)     intcor
     10.82     -13.02       2.73        0.00      42.08       2.54       0.51       1.69       ----

> <Gold.Chemscore.Fitness>
10.8201

> <Gold.Chemscore.DG>
-13.0162

> <Gold.Chemscore.ZeroCoef>
-5.4800

> <Gold.Chemscore.Hbond>
2.7254

> <Gold.Chemscore.Metal>
0.0000

> <Gold.Chemscore.Lipo>
42.0846

> <Gold.Chemscore.Internal_Hbond>
0.0000

> <Gold.Chemscore.DEClash>
0.5103

> <Gold.Chemscore.DEInternal>
1.6858

> <Gold.Chemscore.Rot>
2.5353

> <Gold.Chemscore.Internal.Correction>
   9.000000E+99

> <Gold.Chemscore.Hbonds>
donor molecule, donor type, donor heavy atom, donor atom, acceptor molecule, acceptor atom, score
      L1  H    10    34       P1  7948  0.94
      P1  H  7989  7998       L1    17  0.97
      P1  H 10752 10763       L1    19  0.62

> <Gold.Chemscore.Hbond.Weighted>
-9.1028

> <Gold.Chemscore.Metal.Weighted>
-0.0000

> <Gold.Chemscore.Lipo.Weighted>
-4.9239

> <Gold.Chemscore.Internal_Hbond.Weighted>
0.0000

> <Gold.Chemscore.DEClash.Weighted>
0.5103

> <Gold.Chemscore.DEInternal.Weighted>
1.6858

> <Gold.Chemscore.Rot.Weighted>
6.4905

> <Gold.Chemscore.Internal.Correction.Weighted>
   9.000000E+99

> <Gold.Protein.RotatedTorsions>
[ 6907 6896 6895 6894 ] final  -84.27 input  -60.11 | X-H torsion
[ 7974 7965 7964 7962 ] final   78.58 input  175.53 | X-H torsion
[ 8008 7997 7996 7995 ] final  115.80 input   59.86 | X-H torsion
[ 10167 10162 10161 10158 ] final  -23.85 input  -65.29 | X-H torsion
[ 10718 10713 10712 10709 ] final  174.55 input   66.30 | X-H torsion
[ 10763 10752 10751 10750 ] final   53.21 input  -60.55 | X-H torsion
[ 11005 11000 10999 10996 ] final   55.05 input  -57.11 | X-H torsion

> <Gold.Protein.ActiveResidues>
 VAL166  LYS551  ARG553  GLY616  TRP617  ASP618  TYR619  PRO620  LYS621  CYS622 
 ASP623  PHE694  ASN695  SER759  ASP760  ASP761  ALA762  ILE779  LEU786  VAL792 
 PHE793  MET794  SER795  GLU796  ALA797  LYS798  CYS799  TRP800  GLU811  SER814 

> <Gold.Protein.RotatedAtoms>
  150.6878  134.3384  159.4857 H   0  0  0  0  0  0  0  0  0  0  0  0  # atno 6907 bound_to 6896
  152.1240  134.9182  160.0571 H   0  0  0  0  0  0  0  0  0  0  0  0  # atno 6908 bound_to 6896
  152.0377  133.3929  159.4360 H   0  0  0  0  0  0  0  0  0  0  0  0  # atno 6909 bound_to 6896
  145.6754  139.2508  143.1845 H   0  0  0  0  0  0  0  0  0  0  0  0  # atno 7974 bound_to 7965
  156.2402  140.2931  156.0425 H   0  0  0  0  0  0  0  0  0  0  0  0  # atno 8008 bound_to 7997
  155.1972  140.0408  157.2928 H   0  0  0  0  0  0  0  0  0  0  0  0  # atno 8009 bound_to 7997
  154.6155  140.2462  155.7622 H   0  0  0  0  0  0  0  0  0  0  0  0  # atno 8010 bound_to 7997
  140.7288  143.4406  151.0663 H   0  0  0  0  0  0  0  0  0  0  0  0  # atno 10167 bound_to 10162
  156.9479  131.0022  151.2955 H   0  0  0  0  0  0  0  0  0  0  0  0  # atno 10718 bound_to 10713
  152.9794  135.5786  154.4705 H   0  0  0  0  0  0  0  0  0  0  0  0  # atno 10763 bound_to 10752
  154.4268  135.2772  155.1941 H   0  0  0  0  0  0  0  0  0  0  0  0  # atno 10764 bound_to 10752
  154.3666  135.6177  153.5772 H   0  0  0  0  0  0  0  0  0  0  0  0  # atno 10765 bound_to 10752
  140.0637  134.5566  155.9123 H   0  0  0  0  0  0  0  0  0  0  0  0  # atno 11005 bound_to 11000
  146.1010  140.7544  142.9549 LP  0  0  0  0  0  0  0  0  0  0  0  0  # atno 17320 bound_to 7965
  144.7043  140.3787  143.7130 LP  0  0  0  0  0  0  0  0  0  0  0  0  # atno 17321 bound_to 7965
  139.8072  143.8001  152.3168 LP  0  0  0  0  0  0  0  0  0  0  0  0  # atno 17342 bound_to 10162
  139.8038  144.7363  150.9789 LP  0  0  0  0  0  0  0  0  0  0  0  0  # atno 17343 bound_to 10162
  157.5741  130.8331  149.8432 LP  0  0  0  0  0  0  0  0  0  0  0  0  # atno 17370 bound_to 10713
  156.0375  130.3747  150.1520 LP  0  0  0  0  0  0  0  0  0  0  0  0  # atno 17371 bound_to 10713
  141.1984  133.6601  156.5790 LP  0  0  0  0  0  0  0  0  0  0  0  0  # atno 17394 bound_to 11000
  140.3731  134.7589  157.4611 LP  0  0  0  0  0  0  0  0  0  0  0  0  # atno 17395 bound_to 11000

$$$$
