AV-unprocessed.smi:290|AV-procd|sdf|2246|dock3
  -GOLD-   2262022133D 1   1.00000     0.00000
 Structure written by MMmdl.
 59 62  0  0  0  0  0  0  0  0  2 V2000
  151.6989  139.8128  158.0746 C   0  0  0  0  0  0  0  0  0  0  0  0
  150.9872  141.1148  158.4749 C   0  0  1  0  0  0  0  0  0  0  0  0
  151.8325  141.7906  159.4038 O   0  0  0  0  0  0  0  0  0  0  0  0
  151.6821  143.1891  159.2363 C   0  0  0  0  0  0  0  0  0  0  0  0
  151.5746  143.3287  157.7257 C   0  0  0  0  0  0  0  0  0  0  0  0
  150.7079  142.1355  157.3353 C   0  0  2  0  0  0  0  0  0  0  0  0
  149.3510  142.5351  157.4384 O   0  0  0  0  0  0  0  0  0  0  0  0
  150.9473  141.6350  155.8862 C   0  0  0  0  0  0  0  0  0  0  0  0
  149.7898  140.9731  155.3035 N   0  0  0  0  0  0  0  0  0  0  0  0
  148.7337  141.5778  154.6601 C   0  0  0  0  0  0  0  0  0  0  0  0
  147.8121  140.7661  154.2195 N   0  0  0  0  0  0  0  0  0  0  0  0
  148.2610  139.5047  154.5936 C   0  0  0  0  0  0  0  0  0  0  0  0
  147.7505  138.1838  154.4365 C   0  0  0  0  0  0  0  0  0  0  0  0
  146.5862  137.9206  153.7847 N   0  0  0  0  0  0  0  0  0  0  0  0
  146.4356  138.5173  152.4579 C   0  0  0  0  0  0  0  0  0  0  0  0
  145.9221  137.4040  151.5348 C   0  0  0  0  0  0  0  0  0  0  0  0
  146.2256  136.1192  152.3185 C   0  0  2  0  0  0  0  0  0  0  0  0
  145.4418  134.9182  151.9103 N   0  3  2  0  0  0  0  0  0  0  0  0
  146.0488  133.6425  152.3658 C   0  0  0  0  0  0  0  0  0  0  0  0
  145.0379  134.8835  150.4745 C   0  0  0  0  0  0  0  0  0  0  0  0
  144.3617  133.5749  150.0062 C   0  0  0  0  0  0  0  0  0  0  0  0
  143.8134  133.7031  148.7121 O   0  0  0  0  0  0  0  0  0  0  0  0
  145.9966  136.5826  153.7699 C   0  0  2  0  0  0  0  0  0  0  0  0
  144.5137  136.6662  154.1908 C   0  0  0  0  0  0  0  0  0  0  0  0
  148.4839  137.1688  154.9661 N   0  0  0  0  0  0  0  0  0  0  0  0
  149.6343  137.4197  155.5976 C   0  0  0  0  0  0  0  0  0  0  0  0
  150.2292  138.5943  155.8104 N   0  0  0  0  0  0  0  0  0  0  0  0
  149.5000  139.6197  155.2861 C   0  0  0  0  0  0  0  0  0  0  0  0
  147.2869  135.8911  152.2051 H   0  0  0  0  0  0  0  0  0  0  0  0
  146.4919  135.8960  154.4552 H   0  0  0  0  0  0  0  0  0  0  0  0
  151.1022  139.2312  157.3719 H   0  0  0  0  0  0  0  0  0  0  0  0
  151.8732  139.1859  158.9494 H   0  0  0  0  0  0  0  0  0  0  0  0
  152.6690  140.0119  157.6184 H   0  0  0  0  0  0  0  0  0  0  0  0
  150.0612  140.8566  158.9924 H   0  0  0  0  0  0  0  0  0  0  0  0
  150.7692  143.5257  159.7301 H   0  0  0  0  0  0  0  0  0  0  0  0
  152.5261  143.7386  159.6531 H   0  0  0  0  0  0  0  0  0  0  0  0
  151.1729  144.2920  157.4085 H   0  0  0  0  0  0  0  0  0  0  0  0
  152.5711  143.2253  157.2949 H   0  0  0  0  0  0  0  0  0  0  0  0
  149.2021  143.2449  156.8326 H   0  0  0  0  0  0  0  0  0  0  0  0
  151.2179  142.4650  155.2332 H   0  0  0  0  0  0  0  0  0  0  0  0
  151.7844  140.9361  155.8597 H   0  0  0  0  0  0  0  0  0  0  0  0
  148.6709  142.6476  154.5227 H   0  0  0  0  0  0  0  0  0  0  0  0
  145.7444  139.3602  152.4897 H   0  0  0  0  0  0  0  0  0  0  0  0
  147.3937  138.8849  152.0871 H   0  0  0  0  0  0  0  0  0  0  0  0
  144.8482  137.5170  151.3817 H   0  0  0  0  0  0  0  0  0  0  0  0
  146.4011  137.4349  150.5564 H   0  0  0  0  0  0  0  0  0  0  0  0
  147.0689  133.5310  151.9980 H   0  0  0  0  0  0  0  0  0  0  0  0
  145.4644  132.7887  152.0213 H   0  0  0  0  0  0  0  0  0  0  0  0
  146.0849  133.5864  153.4531 H   0  0  0  0  0  0  0  0  0  0  0  0
  144.3298  135.6999  150.3278 H   0  0  0  0  0  0  0  0  0  0  0  0
  145.8821  135.1283  149.8295 H   0  0  0  0  0  0  0  0  0  0  0  0
  145.0337  132.7185  150.0432 H   0  0  0  0  0  0  0  0  0  0  0  0
  143.5359  133.3424  150.6791 H   0  0  0  0  0  0  0  0  0  0  0  0
  144.5114  133.9062  148.1072 H   0  0  0  0  0  0  0  0  0  0  0  0
  144.0301  135.6901  154.1756 H   0  0  0  0  0  0  0  0  0  0  0  0
  143.9365  137.3302  153.5473 H   0  0  0  0  0  0  0  0  0  0  0  0
  144.4282  137.0483  155.2084 H   0  0  0  0  0  0  0  0  0  0  0  0
  150.1531  136.5559  155.9868 H   0  0  0  0  0  0  0  0  0  0  0  0
  144.5705  134.9940  152.4155 H   0  0  0  0  0  0  0  0  0  0  0  0
  1  2  1  0  0  0  0
  1 31  1  0  0  0  0
  1 32  1  0  0  0  0
  1 33  1  0  0  0  0
  2  6  1  0  0  0  0
  2  3  1  0  0  0  0
  2 34  1  0  0  0  0
  3  4  1  0  0  0  0
  4  5  1  0  0  0  0
  4 35  1  0  0  0  0
  4 36  1  0  0  0  0
  5  6  1  0  0  0  0
  5 37  1  0  0  0  0
  5 38  1  0  0  0  0
  6  7  1  0  0  0  0
  6  8  1  0  0  0  0
  7 39  1  0  0  0  0
  8  9  1  0  0  0  0
  8 40  1  0  0  0  0
  8 41  1  0  0  0  0
  9 28  1  0  0  0  0
  9 10  1  0  0  0  0
 10 11  2  0  0  0  0
 10 42  1  0  0  0  0
 11 12  1  0  0  0  0
 12 28  2  0  0  0  0
 12 13  1  0  0  0  0
 13 14  1  0  0  0  0
 13 25  2  0  0  0  0
 14 23  1  0  0  0  0
 14 15  1  0  0  0  0
 15 16  1  0  0  0  0
 15 43  1  0  0  0  0
 15 44  1  0  0  0  0
 16 17  1  0  0  0  0
 16 45  1  0  0  0  0
 16 46  1  0  0  0  0
 17 29  1  0  0  0  0
 17 18  1  0  0  0  0
 17 23  1  0  0  0  0
 18 19  1  0  0  0  0
 18 20  1  0  0  0  0
 18 59  1  0  0  0  0
 19 47  1  0  0  0  0
 19 48  1  0  0  0  0
 19 49  1  0  0  0  0
 20 21  1  0  0  0  0
 20 50  1  0  0  0  0
 20 51  1  0  0  0  0
 21 22  1  0  0  0  0
 21 52  1  0  0  0  0
 21 53  1  0  0  0  0
 22 54  1  0  0  0  0
 23 30  1  0  0  0  0
 23 24  1  0  0  0  0
 24 55  1  0  0  0  0
 24 56  1  0  0  0  0
 24 57  1  0  0  0  0
 25 26  1  0  0  0  0
 26 27  2  0  0  0  0
 26 58  1  0  0  0  0
 27 28  1  0  0  0  0
M  CHG  1  18   1
M  END
> <s_m_source_file>
AV-unprocessed.smi

> <i_m_source_file_index>
290

> <i_lp_mmshare_version>
43012

> <i_f3d_flags>
0

> <s_epik_input>
W0NIMl0xW0NIMl1PW0NAQEhdKFtDSDNdKVtDQEBdMShbT0hdKVtDSDJdbihbY0hdbjIpYyhjMjMpbltjSF1uYzNONFtDSDJdW0NIMl1bQ0BIXShbQ0BIXTRbQ0gzXSlOKFtDSDNdKVtDSDJdW0NIMl1bT0hd

> <s_epik_cmdline>
J2VwaWtfcHl0aG9uJywgJy1waCcsICc3LjAnLCAnLXRuJywgJzgnLCAnLW1hJywgJzIwMCcsICctbWV0YWxfYmluZGluZycsICctaW1hZScsICc8aW5maWxlLm1hZT4nLCAnLW9tYWUnLCAnPG91dGZpbGUubWFlPic=

> <r_lp_tautomer_probability>
1

> <r_epik_Ionization_Penalty>
0.0036983

> <r_epik_Ionization_Penalty_Charging>
0.0032725

> <r_epik_Ionization_Penalty_Neutral>
0.000425798

> <r_epik_State_Penalty>
-0

> <r_epik_Charging_Adjusted_Penalty>
0.0032725

> <i_epik_Tot_Q>
1

> <i_epik_Tot_abs_Q>
1

> <r_epik_Metal_State_Penalty>
-0

> <b_epik_Metal_Only>
0

> <s_lp_Force_Field>
OPLS_2005

> <r_lp_Energy>
63.8525

> <b_lp_Chiralities_Consistent>
1

> <s_lp_Variant>
AV-unprocessed.smi:290-32

> <Gold.Version>
5.8.1

> <Gold.Id.Protein>
6NUR|6NUR_protein|mol2

> <Gold.PLP.Fitness>
43.3820

> <Gold.PLP.PLP>
-37.1372

> <Gold.PLP.part.hbond>
-3.0000

> <Gold.PLP.part.metal>
0.0000

> <Gold.PLP.part.buried>
-2.0053

> <Gold.PLP.part.nonpolar>
-32.8516

> <Gold.PLP.part.repulsive>
0.3925

> <Gold.PLP.ligand.clash>
0.0000

> <Gold.PLP.ligand.torsion>
1.6590

> <Gold.PLP.Chemscore.Hbond>
2.0000

> <Gold.PLP.Chemscore.CHOScore>
1.0000

> <Gold.PLP.Chemscore.Metal>
0.0000

> <Gold.Chemscore.Hbonds>
donor molecule, donor type, donor heavy atom, donor atom, acceptor molecule, acceptor atom, score
      L1  H     7    39       P1  8028  1.00
      L1  H    22    54       P1  7921  1.00
      L1  C    10    42       P1  8028  1.00

> <Gold.PLP.Chemscore.Internal.Correction>
0.5628

> <Gold.Rescore>
     Score         DG    S(hbond)    S(metal)    S(lipo)     H(rot)  DE(clash)    DE(int)     intcor
      9.33     -13.65       1.98        0.00      93.41       3.67       1.43       2.89       ----

> <Gold.Chemscore.Fitness>
9.3294

> <Gold.Chemscore.DG>
-13.6528

> <Gold.Chemscore.ZeroCoef>
-5.4800

> <Gold.Chemscore.Hbond>
1.9845

> <Gold.Chemscore.Metal>
0.0000

> <Gold.Chemscore.Lipo>
93.4111

> <Gold.Chemscore.Internal_Hbond>
0.0000

> <Gold.Chemscore.DEClash>
1.4321

> <Gold.Chemscore.DEInternal>
2.8913

> <Gold.Chemscore.Rot>
3.6658

> <Gold.Chemscore.Internal.Correction>
   9.000000E+99

> <Gold.Chemscore.Hbonds>
donor molecule, donor type, donor heavy atom, donor atom, acceptor molecule, acceptor atom, score
      L1  H     7    39       P1  8028  0.96
      L1  H    22    54       P1  7921  0.97

> <Gold.Chemscore.Hbond.Weighted>
-6.6282

> <Gold.Chemscore.Metal.Weighted>
-0.0000

> <Gold.Chemscore.Lipo.Weighted>
-10.9291

> <Gold.Chemscore.Internal_Hbond.Weighted>
0.0000

> <Gold.Chemscore.DEClash.Weighted>
1.4321

> <Gold.Chemscore.DEInternal.Weighted>
2.8913

> <Gold.Chemscore.Rot.Weighted>
9.3844

> <Gold.Chemscore.Internal.Correction.Weighted>
   9.000000E+99

> <Gold.Protein.RotatedTorsions>
[ 6907 6896 6895 6894 ] final  -87.48 input  -60.11 | X-H torsion
[ 7974 7965 7964 7962 ] final  -90.95 input  175.53 | X-H torsion
[ 8008 7997 7996 7995 ] final   95.06 input   59.86 | X-H torsion
[ 10167 10162 10161 10158 ] final  -82.92 input  -65.29 | X-H torsion
[ 10718 10713 10712 10709 ] final  107.76 input   66.30 | X-H torsion
[ 10763 10752 10751 10750 ] final  171.81 input  -60.55 | X-H torsion
[ 11005 11000 10999 10996 ] final -137.98 input  -57.11 | X-H torsion

> <Gold.Protein.ActiveResidues>
 VAL166  LYS551  ARG553  GLY616  TRP617  ASP618  TYR619  PRO620  LYS621  CYS622 
 ASP623  PHE694  ASN695  SER759  ASP760  ASP761  ALA762  ILE779  LEU786  VAL792 
 PHE793  MET794  SER795  GLU796  ALA797  LYS798  CYS799  TRP800  GLU811  SER814 

> <Gold.Protein.RotatedAtoms>
  150.6866  134.2890  159.4658 H   0  0  0  0  0  0  0  0  0  0  0  0  # atno 6907 bound_to 6896
  152.0797  134.9476  160.0583 H   0  0  0  0  0  0  0  0  0  0  0  0  # atno 6908 bound_to 6896
  152.0834  133.4129  159.4548 H   0  0  0  0  0  0  0  0  0  0  0  0  # atno 6909 bound_to 6896
  145.4196  140.9550  143.2188 H   0  0  0  0  0  0  0  0  0  0  0  0  # atno 7974 bound_to 7965
  156.0647  140.3291  155.7504 H   0  0  0  0  0  0  0  0  0  0  0  0  # atno 8008 bound_to 7997
  155.5399  140.0601  157.2889 H   0  0  0  0  0  0  0  0  0  0  0  0  # atno 8009 bound_to 7997
  154.4499  140.1912  156.0569 H   0  0  0  0  0  0  0  0  0  0  0  0  # atno 8010 bound_to 7997
  140.4274  143.2561  151.8806 H   0  0  0  0  0  0  0  0  0  0  0  0  # atno 10167 bound_to 10162
  157.6615  131.0879  150.6204 H   0  0  0  0  0  0  0  0  0  0  0  0  # atno 10718 bound_to 10713
  154.4172  135.2757  155.1999 H   0  0  0  0  0  0  0  0  0  0  0  0  # atno 10763 bound_to 10752
  154.3960  135.6055  153.5873 H   0  0  0  0  0  0  0  0  0  0  0  0  # atno 10764 bound_to 10752
  152.9832  135.5915  154.4462 H   0  0  0  0  0  0  0  0  0  0  0  0  # atno 10765 bound_to 10752
  140.8660  134.2110  157.4680 H   0  0  0  0  0  0  0  0  0  0  0  0  # atno 11005 bound_to 11000
  144.8254  139.5719  143.6968 LP  0  0  0  0  0  0  0  0  0  0  0  0  # atno 17320 bound_to 7965
  146.2663  139.6528  142.9327 LP  0  0  0  0  0  0  0  0  0  0  0  0  # atno 17321 bound_to 7965
  139.4784  144.5371  151.8582 LP  0  0  0  0  0  0  0  0  0  0  0  0  # atno 17342 bound_to 10162
  140.4465  144.1914  150.5894 LP  0  0  0  0  0  0  0  0  0  0  0  0  # atno 17343 bound_to 10162
  156.6506  130.4484  149.5720 LP  0  0  0  0  0  0  0  0  0  0  0  0  # atno 17370 bound_to 10713
  156.2140  130.6696  151.1299 LP  0  0  0  0  0  0  0  0  0  0  0  0  # atno 17371 bound_to 10713
  139.8709  134.9752  156.4873 LP  0  0  0  0  0  0  0  0  0  0  0  0  # atno 17394 bound_to 11000
  140.8629  133.8046  155.9283 LP  0  0  0  0  0  0  0  0  0  0  0  0  # atno 17395 bound_to 11000

$$$$
