AV-unprocessed.smi:712|AV-procd|sdf|3473|dock4
  -GOLD-   22720 0463D 1   1.00000     0.00000
 Structure written by MMmdl.
 50 51  0  0  0  0  0  0  0  0  1 V2000
  150.5778  142.6400  157.8376 C   0  0  0  0  0  0  0  0  0  0  0  0
  150.7168  141.4491  156.9118 C   0  0  0  0  0  0  0  0  0  0  0  0
  149.7141  141.1730  155.9040 C   0  0  0  0  0  0  0  0  0  0  0  0
  149.8735  140.1128  155.0964 C   0  0  0  0  0  0  0  0  0  0  0  0
  150.9875  139.2599  155.2009 N   0  0  0  0  0  0  0  0  0  0  0  0
  151.0645  138.1305  154.2597 C   0  0  0  0  0  0  0  0  0  0  0  0
  151.0016  136.7633  154.9544 C   0  0  0  0  0  0  0  0  0  0  0  0
  151.6326  136.5577  155.9916 O   0  0  0  0  0  0  0  0  0  0  0  0
  150.2072  135.8475  154.3796 N   0  0  0  0  0  0  0  0  0  0  0  0
  149.9806  134.4884  154.8641 C   0  0  0  0  0  0  0  0  0  0  0  0
  148.5013  134.0731  154.7704 C   0  0  1  0  0  0  0  0  0  0  0  0
  148.0756  133.5753  153.3730 C   0  0  0  0  0  0  0  0  0  0  0  0
  146.6758  133.1639  153.3371 N   0  0  0  0  0  0  0  0  0  0  0  0
  146.3083  132.7141  151.9906 C   0  0  0  0  0  0  0  0  0  0  0  0
  144.8023  132.6721  151.6315 C   0  0  0  0  0  0  0  0  0  0  0  0
  144.5107  132.0846  150.2404 C   0  0  0  0  0  0  0  0  0  0  0  0
  144.0702  134.0023  151.8794 C   0  0  0  0  0  0  0  0  0  0  0  0
  146.4587  132.1489  154.3645 C   0  0  0  0  0  0  0  0  0  0  0  0
  146.8911  132.6357  155.7585 C   0  0  0  0  0  0  0  0  0  0  0  0
  148.2528  133.0476  155.7286 O   0  0  0  0  0  0  0  0  0  0  0  0
  151.9654  139.4608  156.1348 C   0  0  0  0  0  0  0  0  0  0  0  0
  152.9396  138.7143  156.2347 O   0  0  0  0  0  0  0  0  0  0  0  0
  151.7827  140.6246  157.0097 C   0  0  0  0  0  0  0  0  0  0  0  0
  149.6095  143.1255  157.7134 H   0  0  0  0  0  0  0  0  0  0  0  0
  151.3570  143.3734  157.6295 H   0  0  0  0  0  0  0  0  0  0  0  0
  150.6692  142.3259  158.8777 H   0  0  0  0  0  0  0  0  0  0  0  0
  148.8465  141.8084  155.8020 H   0  0  0  0  0  0  0  0  0  0  0  0
  149.1606  139.8485  154.3291 H   0  0  0  0  0  0  0  0  0  0  0  0
  150.2505  138.1773  153.5351 H   0  0  0  0  0  0  0  0  0  0  0  0
  151.9785  138.2026  153.6667 H   0  0  0  0  0  0  0  0  0  0  0  0
  149.7181  136.1115  153.5366 H   0  0  0  0  0  0  0  0  0  0  0  0
  150.5852  133.8138  154.2573 H   0  0  0  0  0  0  0  0  0  0  0  0
  150.3370  134.3714  155.8887 H   0  0  0  0  0  0  0  0  0  0  0  0
  147.8944  134.9414  155.0337 H   0  0  0  0  0  0  0  0  0  0  0  0
  148.2463  134.3688  152.6445 H   0  0  0  0  0  0  0  0  0  0  0  0
  148.7052  132.7372  153.0714 H   0  0  0  0  0  0  0  0  0  0  0  0
  146.7691  133.4011  151.2793 H   0  0  0  0  0  0  0  0  0  0  0  0
  146.7651  131.7451  151.7840 H   0  0  0  0  0  0  0  0  0  0  0  0
  144.3600  131.9773  152.3468 H   0  0  0  0  0  0  0  0  0  0  0  0
  144.8645  132.7376  149.4427 H   0  0  0  0  0  0  0  0  0  0  0  0
  143.4400  131.9406  150.0950 H   0  0  0  0  0  0  0  0  0  0  0  0
  144.9923  131.1144  150.1160 H   0  0  0  0  0  0  0  0  0  0  0  0
  144.3655  134.7834  151.1823 H   0  0  0  0  0  0  0  0  0  0  0  0
  144.2569  134.3707  152.8886 H   0  0  0  0  0  0  0  0  0  0  0  0
  142.9924  133.8729  151.7769 H   0  0  0  0  0  0  0  0  0  0  0  0
  145.4051  131.8850  154.4169 H   0  0  0  0  0  0  0  0  0  0  0  0
  147.0044  131.2389  154.1103 H   0  0  0  0  0  0  0  0  0  0  0  0
  146.2623  133.4638  156.0889 H   0  0  0  0  0  0  0  0  0  0  0  0
  146.7775  131.8366  156.4909 H   0  0  0  0  0  0  0  0  0  0  0  0
  152.5346  140.8255  157.7592 H   0  0  0  0  0  0  0  0  0  0  0  0
  1  2  1  0  0  0  0
  1 24  1  0  0  0  0
  1 25  1  0  0  0  0
  1 26  1  0  0  0  0
  2 23  2  0  0  0  0
  2  3  1  0  0  0  0
  3  4  2  0  0  0  0
  3 27  1  0  0  0  0
  4  5  1  0  0  0  0
  4 28  1  0  0  0  0
  5  6  1  0  0  0  0
  5 21  1  0  0  0  0
  6  7  1  0  0  0  0
  6 29  1  0  0  0  0
  6 30  1  0  0  0  0
  7  8  2  0  0  0  0
  7  9  1  0  0  0  0
  9 10  1  0  0  0  0
  9 31  1  0  0  0  0
 10 11  1  0  0  0  0
 10 32  1  0  0  0  0
 10 33  1  0  0  0  0
 11 20  1  0  0  0  0
 11 12  1  0  0  0  0
 11 34  1  0  0  0  0
 12 13  1  0  0  0  0
 12 35  1  0  0  0  0
 12 36  1  0  0  0  0
 13 14  1  0  0  0  0
 13 18  1  0  0  0  0
 14 15  1  0  0  0  0
 14 37  1  0  0  0  0
 14 38  1  0  0  0  0
 15 16  1  0  0  0  0
 15 17  1  0  0  0  0
 15 39  1  0  0  0  0
 16 40  1  0  0  0  0
 16 41  1  0  0  0  0
 16 42  1  0  0  0  0
 17 43  1  0  0  0  0
 17 44  1  0  0  0  0
 17 45  1  0  0  0  0
 18 19  1  0  0  0  0
 18 46  1  0  0  0  0
 18 47  1  0  0  0  0
 19 20  1  0  0  0  0
 19 48  1  0  0  0  0
 19 49  1  0  0  0  0
 21 22  2  0  0  0  0
 21 23  1  0  0  0  0
 23 50  1  0  0  0  0
M  END
> <s_m_source_file>
AV-unprocessed.smi

> <i_m_source_file_index>
712

> <i_lp_mmshare_version>
43012

> <i_f3d_flags>
0

> <s_epik_input>
W0NIM11jMVtjSF1bY0hdbihjKD1PKVtjSF0xKVtDSDJdQyg9TylbTkhdW0NIMl1bQ0BASF0yW0NIMl1OKFtDSDJdW0NIMl1PMilbQ0gyXVtDSF0oW0NIM10pW0NIM10=

> <s_epik_cmdline>
J2VwaWtfcHl0aG9uJywgJy1waCcsICc3LjAnLCAnLXRuJywgJzgnLCAnLW1hJywgJzIwMCcsICctbWV0YWxfYmluZGluZycsICctaW1hZScsICc8aW5maWxlLm1hZT4nLCAnLW9tYWUnLCAnPG91dGZpbGUubWFlPic=

> <r_lp_tautomer_probability>
1

> <r_epik_Ionization_Penalty>
1.11669

> <r_epik_Ionization_Penalty_Charging>
4.93496e-07

> <r_epik_Ionization_Penalty_Neutral>
1.11669

> <r_epik_State_Penalty>
1.17516

> <r_epik_Charging_Adjusted_Penalty>
1.17516

> <i_epik_Tot_Q>
0

> <i_epik_Tot_abs_Q>
0

> <r_epik_Metal_State_Penalty>
1.17513

> <b_epik_Metal_Only>
0

> <s_lp_Force_Field>
OPLS_2005

> <r_lp_Energy>
40.1187

> <b_lp_Chiralities_Consistent>
1

> <s_lp_Variant>
AV-unprocessed.smi:712-6

> <Gold.Version>
5.8.1

> <Gold.Id.Protein>
6NUR|6NUR_protein|mol2

> <Gold.PLP.Fitness>
47.4581

> <Gold.PLP.PLP>
-40.4211

> <Gold.PLP.part.hbond>
-4.0000

> <Gold.PLP.part.metal>
0.0000

> <Gold.PLP.part.buried>
-3.0197

> <Gold.PLP.part.nonpolar>
-33.5438

> <Gold.PLP.part.repulsive>
0.2055

> <Gold.PLP.ligand.clash>
0.0000

> <Gold.PLP.ligand.torsion>
0.7777

> <Gold.PLP.Chemscore.Hbond>
2.8280

> <Gold.PLP.Chemscore.CHOScore>
0.0000

> <Gold.PLP.Chemscore.Metal>
0.0000

> <Gold.Chemscore.Hbonds>
donor molecule, donor type, donor heavy atom, donor atom, acceptor molecule, acceptor atom, score
      L1  H     9    31       P1  7948  0.95
      P1  H  7997  8009       L1    22  1.00
      P1  H 10752 10765       L1     8  0.68

> <Gold.PLP.Chemscore.Internal.Correction>
0.1084

> <Gold.Rescore>
     Score         DG    S(hbond)    S(metal)    S(lipo)     H(rot)  DE(clash)    DE(int)     intcor
     13.69     -17.09       2.16        0.00      77.51       1.82       0.03       3.37       ----

> <Gold.Chemscore.Fitness>
13.6949

> <Gold.Chemscore.DG>
-17.0939

> <Gold.Chemscore.ZeroCoef>
-5.4800

> <Gold.Chemscore.Hbond>
2.1605

> <Gold.Chemscore.Metal>
0.0000

> <Gold.Chemscore.Lipo>
77.5060

> <Gold.Chemscore.Internal_Hbond>
0.0000

> <Gold.Chemscore.DEClash>
0.0261

> <Gold.Chemscore.DEInternal>
3.3728

> <Gold.Chemscore.Rot>
1.8243

> <Gold.Chemscore.Internal.Correction>
   9.000000E+99

> <Gold.Chemscore.Hbonds>
donor molecule, donor type, donor heavy atom, donor atom, acceptor molecule, acceptor atom, score
      L1  H     9    31       P1  7948  0.22
      P1  H  7997  8009       L1    22  0.23
      P1  H 10752 10765       L1     8  0.11

> <Gold.Chemscore.Hbond.Weighted>
-7.2159

> <Gold.Chemscore.Metal.Weighted>
-0.0000

> <Gold.Chemscore.Lipo.Weighted>
-9.0682

> <Gold.Chemscore.Internal_Hbond.Weighted>
0.0000

> <Gold.Chemscore.DEClash.Weighted>
0.0261

> <Gold.Chemscore.DEInternal.Weighted>
3.3728

> <Gold.Chemscore.Rot.Weighted>
4.6703

> <Gold.Chemscore.Internal.Correction.Weighted>
   9.000000E+99

> <Gold.Protein.RotatedTorsions>
[ 6907 6896 6895 6894 ] final   39.23 input  -60.11 | X-H torsion
[ 7974 7965 7964 7962 ] final   76.78 input  175.53 | X-H torsion
[ 8008 7997 7996 7995 ] final -179.42 input   59.86 | X-H torsion
[ 10167 10162 10161 10158 ] final  -75.70 input  -65.29 | X-H torsion
[ 10718 10713 10712 10709 ] final   -0.45 input   66.30 | X-H torsion
[ 10763 10752 10751 10750 ] final -143.08 input  -60.55 | X-H torsion
[ 11005 11000 10999 10996 ] final  -85.03 input  -57.11 | X-H torsion

> <Gold.Protein.ActiveResidues>
 VAL166  LYS551  ARG553  GLY616  TRP617  ASP618  TYR619  PRO620  LYS621  CYS622 
 ASP623  PHE694  ASN695  SER759  ASP760  ASP761  ALA762  ILE779  LEU786  VAL792 
 PHE793  MET794  SER795  GLU796  ALA797  LYS798  CYS799  TRP800  GLU811  SER814 

> <Gold.Protein.RotatedAtoms>
  152.1668  134.8867  160.0537 H   0  0  0  0  0  0  0  0  0  0  0  0  # atno 6907 bound_to 6896
  151.9842  133.3763  159.4127 H   0  0  0  0  0  0  0  0  0  0  0  0  # atno 6908 bound_to 6896
  150.6896  134.3929  159.5128 H   0  0  0  0  0  0  0  0  0  0  0  0  # atno 6909 bound_to 6896
  145.6985  139.2575  143.1719 H   0  0  0  0  0  0  0  0  0  0  0  0  # atno 7974 bound_to 7965
  156.0303  140.1280  157.0265 H   0  0  0  0  0  0  0  0  0  0  0  0  # atno 8008 bound_to 7997
  154.4347  140.1051  156.6160 H   0  0  0  0  0  0  0  0  0  0  0  0  # atno 8009 bound_to 7997
  155.5817  140.3468  155.4544 H   0  0  0  0  0  0  0  0  0  0  0  0  # atno 8010 bound_to 7997
  140.4920  143.2378  151.7891 H   0  0  0  0  0  0  0  0  0  0  0  0  # atno 10167 bound_to 10162
  156.8202  130.5454  149.5698 H   0  0  0  0  0  0  0  0  0  0  0  0  # atno 10718 bound_to 10713
  154.8484  135.3478  154.6131 H   0  0  0  0  0  0  0  0  0  0  0  0  # atno 10763 bound_to 10752
  153.6740  135.6983  153.5143 H   0  0  0  0  0  0  0  0  0  0  0  0  # atno 10764 bound_to 10752
  153.2720  135.4290  155.0953 H   0  0  0  0  0  0  0  0  0  0  0  0  # atno 10765 bound_to 10752
  141.1645  133.7377  156.8955 H   0  0  0  0  0  0  0  0  0  0  0  0  # atno 11005 bound_to 11000
  146.0819  140.7754  142.9637 LP  0  0  0  0  0  0  0  0  0  0  0  0  # atno 17320 bound_to 7965
  144.6975  140.3502  143.7183 LP  0  0  0  0  0  0  0  0  0  0  0  0  # atno 17321 bound_to 7965
  139.4853  144.4636  151.9511 LP  0  0  0  0  0  0  0  0  0  0  0  0  # atno 17342 bound_to 10162
  140.3723  144.2840  150.5918 LP  0  0  0  0  0  0  0  0  0  0  0  0  # atno 17343 bound_to 10162
  156.0993  130.5957  150.9867 LP  0  0  0  0  0  0  0  0  0  0  0  0  # atno 17370 bound_to 10713
  157.6461  131.0904  150.8151 LP  0  0  0  0  0  0  0  0  0  0  0  0  # atno 17371 bound_to 10713
  140.1618  134.9160  157.2725 LP  0  0  0  0  0  0  0  0  0  0  0  0  # atno 17394 bound_to 11000
  140.2602  134.3580  155.7409 LP  0  0  0  0  0  0  0  0  0  0  0  0  # atno 17395 bound_to 11000

$$$$
