AV-unprocessed.smi:2489|AV-procd|sdf|9799|dock7
  -GOLD-   2272013433D 1   1.00000     0.00000
 Structure written by MMmdl.
 33 34  0  0  0  0  0  0  0  0  1 V2000
  152.6333  143.1385  162.1724 C   0  0  0  0  0  0  0  0  0  0  0  0
  153.1460  142.9165  160.8663 O   0  0  0  0  0  0  0  0  0  0  0  0
  152.2844  143.0914  159.8077 C   0  0  0  0  0  0  0  0  0  0  0  0
  151.5933  144.3487  159.5322 C   0  0  0  0  0  0  0  0  0  0  0  0
  150.7716  144.4032  158.4733 C   0  0  0  0  0  0  0  0  0  0  0  0
  150.5626  143.3128  157.6414 N   0  0  0  0  0  0  0  0  0  0  0  0
  151.1976  142.0746  157.8452 C   0  0  0  0  0  0  0  0  0  0  0  0
  151.0468  141.0170  157.1020 N   0  0  0  0  0  0  0  0  0  0  0  0
  150.2065  140.9907  155.9923 C   0  0  0  0  0  0  0  0  0  0  0  0
  149.3315  141.7934  155.6543 O   0  0  0  0  0  0  0  0  0  0  0  0
  150.4661  139.7611  155.1101 C   0  0  2  0  0  0  0  0  0  0  0  0
  150.3172  138.4345  155.8751 C   0  0  0  0  0  0  0  0  0  0  0  0
  151.5635  137.6627  155.4911 C   0  0  0  0  0  0  0  0  0  0  0  0
  152.5770  138.7813  155.2829 C   0  0  1  0  0  0  0  0  0  0  0  0
  153.7812  138.3866  154.4219 C   0  0  0  0  0  0  0  0  0  0  0  0
  151.8147  139.7929  154.6387 O   0  0  0  0  0  0  0  0  0  0  0  0
  152.0864  142.0248  158.9980 C   0  0  0  0  0  0  0  0  0  0  0  0
  153.4236  142.9626  162.9020 H   0  0  0  0  0  0  0  0  0  0  0  0
  151.8158  142.4546  162.4042 H   0  0  0  0  0  0  0  0  0  0  0  0
  152.2940  144.1675  162.2993 H   0  0  0  0  0  0  0  0  0  0  0  0
  151.7200  145.2280  160.1452 H   0  0  0  0  0  0  0  0  0  0  0  0
  150.2216  145.2905  158.1966 H   0  0  0  0  0  0  0  0  0  0  0  0
  149.8138  139.7724  154.2351 H   0  0  0  0  0  0  0  0  0  0  0  0
  150.3002  138.5912  156.9550 H   0  0  0  0  0  0  0  0  0  0  0  0
  149.4060  137.9001  155.6052 H   0  0  0  0  0  0  0  0  0  0  0  0
  151.8716  136.9423  156.2493 H   0  0  0  0  0  0  0  0  0  0  0  0
  151.3934  137.1253  154.5572 H   0  0  0  0  0  0  0  0  0  0  0  0
  152.9129  139.1596  156.2498 H   0  0  0  0  0  0  0  0  0  0  0  0
  154.3576  137.5913  154.8951 H   0  0  0  0  0  0  0  0  0  0  0  0
  154.4467  139.2369  154.2721 H   0  0  0  0  0  0  0  0  0  0  0  0
  153.4656  138.0338  153.4397 H   0  0  0  0  0  0  0  0  0  0  0  0
  152.6181  141.1158  159.2405 H   0  0  0  0  0  0  0  0  0  0  0  0
  149.9250  143.4507  156.8700 H   0  0  0  0  0  0  0  0  0  0  0  0
  1  2  1  0  0  0  0
  1 18  1  0  0  0  0
  1 19  1  0  0  0  0
  1 20  1  0  0  0  0
  2  3  1  0  0  0  0
  3 17  2  0  0  0  0
  3  4  1  0  0  0  0
  4  5  2  0  0  0  0
  4 21  1  0  0  0  0
  5  6  1  0  0  0  0
  5 22  1  0  0  0  0
  6  7  1  0  0  0  0
  6 33  1  0  0  0  0
  7  8  2  0  0  0  0
  7 17  1  0  0  0  0
  8  9  1  0  0  0  0
  9 10  2  0  0  0  0
  9 11  1  0  0  0  0
 11 16  1  0  0  0  0
 11 12  1  0  0  0  0
 11 23  1  0  0  0  0
 12 13  1  0  0  0  0
 12 24  1  0  0  0  0
 12 25  1  0  0  0  0
 13 14  1  0  0  0  0
 13 26  1  0  0  0  0
 13 27  1  0  0  0  0
 14 15  1  0  0  0  0
 14 16  1  0  0  0  0
 14 28  1  0  0  0  0
 15 29  1  0  0  0  0
 15 30  1  0  0  0  0
 15 31  1  0  0  0  0
 17 32  1  0  0  0  0
M  END
> <s_m_source_file>
AV-unprocessed.smi

> <i_m_source_file_index>
2489

> <i_lp_mmshare_version>
43012

> <i_f3d_flags>
0

> <s_epik_input>
W0NIM11PYzFbY0hdW2NIXW5jKFtjSF0xKVtOSF1DKD1PKVtDQEBIXTJbQ0gyXVtDSDJdW0NASF0oTzIpW0NIM10=

> <s_epik_cmdline>
J2VwaWtfcHl0aG9uJywgJy1waCcsICc3LjAnLCAnLXRuJywgJzgnLCAnLW1hJywgJzIwMCcsICctbWV0YWxfYmluZGluZycsICctaW1hZScsICc8aW5maWxlLm1hZT4nLCAnLW9tYWUnLCAnPG91dGZpbGUubWFlPic=

> <r_epik_Ionization_Penalty>
0.410206

> <r_epik_Ionization_Penalty_Charging>
0.410206

> <r_epik_Ionization_Penalty_Neutral>
6.57528e-13

> <r_epik_State_Penalty>
1.30987

> <r_epik_Charging_Adjusted_Penalty>
1.72007

> <i_epik_Tot_Q>
0

> <i_epik_Tot_abs_Q>
0

> <r_epik_Metal_State_Penalty>
1.32171

> <b_epik_Metal_Only>
0

> <s_lp_Force_Field>
OPLS_2005

> <r_lp_Energy>
36.165

> <b_lp_Chiralities_Consistent>
1

> <s_lp_Variant>
AV-unprocessed.smi:2489-5

> <Gold.Version>
5.8.1

> <Gold.Id.Protein>
6NUR|6NUR_protein|mol2

> <Gold.PLP.Fitness>
41.8402

> <Gold.PLP.PLP>
-33.1817

> <Gold.PLP.part.hbond>
-1.8906

> <Gold.PLP.part.metal>
0.0000

> <Gold.PLP.part.buried>
-4.0266

> <Gold.PLP.part.nonpolar>
-29.5749

> <Gold.PLP.part.repulsive>
1.2286

> <Gold.PLP.ligand.clash>
0.0000

> <Gold.PLP.ligand.torsion>
0.0546

> <Gold.PLP.Chemscore.Hbond>
1.9600

> <Gold.PLP.Chemscore.CHOScore>
0.9596

> <Gold.PLP.Chemscore.Metal>
0.0000

> <Gold.Chemscore.Hbonds>
donor molecule, donor type, donor heavy atom, donor atom, acceptor molecule, acceptor atom, score
      L1  H     6    33       P1  8028  0.97
      P1  H  7989  7998       L1    16  1.00
      L1  C     5    22       P1  8028  0.02
      L1  C     5    22       P1  8029  0.85

> <Gold.PLP.Chemscore.Internal.Correction>
0.0089

> <Gold.Rescore>
     Score         DG    S(hbond)    S(metal)    S(lipo)     H(rot)  DE(clash)    DE(int)     intcor
     16.03     -18.64       1.82        0.00      87.26       1.23       1.14       1.47       ----

> <Gold.Chemscore.Fitness>
16.0304

> <Gold.Chemscore.DG>
-18.6372

> <Gold.Chemscore.ZeroCoef>
-5.4800

> <Gold.Chemscore.Hbond>
1.8226

> <Gold.Chemscore.Metal>
0.0000

> <Gold.Chemscore.Lipo>
87.2597

> <Gold.Chemscore.Internal_Hbond>
0.0000

> <Gold.Chemscore.DEClash>
1.1402

> <Gold.Chemscore.DEInternal>
1.4665

> <Gold.Chemscore.Rot>
1.2264

> <Gold.Chemscore.Internal.Correction>
   9.000000E+99

> <Gold.Chemscore.Hbonds>
donor molecule, donor type, donor heavy atom, donor atom, acceptor molecule, acceptor atom, score
      L1  H     6    33       P1  8028  0.86
      P1  H  7989  7998       L1    16  0.23

> <Gold.Chemscore.Hbond.Weighted>
-6.0873

> <Gold.Chemscore.Metal.Weighted>
-0.0000

> <Gold.Chemscore.Lipo.Weighted>
-10.2094

> <Gold.Chemscore.Internal_Hbond.Weighted>
0.0000

> <Gold.Chemscore.DEClash.Weighted>
1.1402

> <Gold.Chemscore.DEInternal.Weighted>
1.4665

> <Gold.Chemscore.Rot.Weighted>
3.1396

> <Gold.Chemscore.Internal.Correction.Weighted>
   9.000000E+99

> <Gold.Protein.RotatedTorsions>
[ 6907 6896 6895 6894 ] final  102.55 input  -60.11 | X-H torsion
[ 7974 7965 7964 7962 ] final  -23.71 input  175.53 | X-H torsion
[ 8008 7997 7996 7995 ] final   56.30 input   59.86 | X-H torsion
[ 10167 10162 10161 10158 ] final -173.70 input  -65.29 | X-H torsion
[ 10718 10713 10712 10709 ] final  -91.06 input   66.30 | X-H torsion
[ 10763 10752 10751 10750 ] final  -19.52 input  -60.55 | X-H torsion
[ 11005 11000 10999 10996 ] final  146.73 input  -57.11 | X-H torsion

> <Gold.Protein.ActiveResidues>
 VAL166  LYS551  ARG553  GLY616  TRP617  ASP618  TYR619  PRO620  LYS621  CYS622 
 ASP623  PHE694  ASN695  SER759  ASP760  ASP761  ALA762  ILE779  LEU786  VAL792 
 PHE793  MET794  SER795  GLU796  ALA797  LYS798  CYS799  TRP800  GLU811  SER814 

> <Gold.Protein.RotatedAtoms>
  152.5320  133.9959  159.7871 H   0  0  0  0  0  0  0  0  0  0  0  0  # atno 6907 bound_to 6896
  151.0186  133.5889  159.2681 H   0  0  0  0  0  0  0  0  0  0  0  0  # atno 6908 bound_to 6896
  151.2937  135.0756  159.9267 H   0  0  0  0  0  0  0  0  0  0  0  0  # atno 6909 bound_to 6896
  146.1600  140.4652  142.8575 H   0  0  0  0  0  0  0  0  0  0  0  0  # atno 7974 bound_to 7965
  155.5152  140.3478  155.4396 H   0  0  0  0  0  0  0  0  0  0  0  0  # atno 8008 bound_to 7997
  156.0822  140.1389  156.9725 H   0  0  0  0  0  0  0  0  0  0  0  0  # atno 8009 bound_to 7997
  154.4586  140.0943  156.6806 H   0  0  0  0  0  0  0  0  0  0  0  0  # atno 8010 bound_to 7997
  139.5674  144.1723  152.1333 H   0  0  0  0  0  0  0  0  0  0  0  0  # atno 10167 bound_to 10162
  155.9991  130.4933  150.5418 H   0  0  0  0  0  0  0  0  0  0  0  0  # atno 10718 bound_to 10713
  153.6060  135.6998  153.5365 H   0  0  0  0  0  0  0  0  0  0  0  0  # atno 10763 bound_to 10752
  153.3056  135.4116  155.1291 H   0  0  0  0  0  0  0  0  0  0  0  0  # atno 10764 bound_to 10752
  154.8573  135.3659  154.5597 H   0  0  0  0  0  0  0  0  0  0  0  0  # atno 10765 bound_to 10752
  140.0817  134.9093  157.1511 H   0  0  0  0  0  0  0  0  0  0  0  0  # atno 11005 bound_to 11000
  144.8014  140.6219  143.6476 LP  0  0  0  0  0  0  0  0  0  0  0  0  # atno 17320 bound_to 7965
  145.4613  139.1512  143.3865 LP  0  0  0  0  0  0  0  0  0  0  0  0  # atno 17321 bound_to 7965
  140.1248  144.5341  150.6839 LP  0  0  0  0  0  0  0  0  0  0  0  0  # atno 17342 bound_to 10162
  140.6958  143.2403  151.5005 LP  0  0  0  0  0  0  0  0  0  0  0  0  # atno 17343 bound_to 10162
  157.3353  131.0707  151.1830 LP  0  0  0  0  0  0  0  0  0  0  0  0  # atno 17370 bound_to 10713
  157.2697  130.6698  149.6013 LP  0  0  0  0  0  0  0  0  0  0  0  0  # atno 17371 bound_to 10713
  140.3478  134.2632  155.7202 LP  0  0  0  0  0  0  0  0  0  0  0  0  # atno 17394 bound_to 11000
  141.2049  133.7874  157.0262 LP  0  0  0  0  0  0  0  0  0  0  0  0  # atno 17395 bound_to 11000

$$$$
