AV-unprocessed.smi:1|AV-procd|sdf|17|dock5
  -GOLD-   2262015113D 1   1.00000     0.00000
 Structure written by MMmdl.
 56 61  0  0  0  0  0  0  0  0  2 V2000
  152.8342  139.7233  157.9605 O   0  0  0  0  0  0  0  0  0  0  0  0
  152.2331  140.7718  157.7167 C   0  0  0  0  0  0  0  0  0  0  0  0
  151.5490  141.0976  156.5904 N   0  5  0  0  0  0  0  0  0  0  0  0
  150.6969  140.2135  156.0499 C   0  0  0  0  0  0  0  0  0  0  0  0
  150.8531  139.8049  154.7643 N   0  0  0  0  0  0  0  0  0  0  0  0
  150.0055  138.9187  154.2281 C   0  0  0  0  0  0  0  0  0  0  0  0
  148.9456  138.3245  154.7859 N   0  0  0  0  0  0  0  0  0  0  0  0
  148.7728  138.7387  156.0745 C   0  0  0  0  0  0  0  0  0  0  0  0
  149.5947  139.6733  156.7672 C   0  0  0  0  0  0  0  0  0  0  0  0
  149.1321  139.8683  158.0603 N   0  0  0  0  0  0  0  0  0  0  0  0
  148.0777  139.0556  158.0950 C   0  0  0  0  0  0  0  0  0  0  0  0
  147.8013  138.3490  156.9782 N   0  0  0  0  0  0  0  0  0  0  0  0
  146.7121  137.3533  156.7206 C   0  0  2  0  0  0  0  0  0  0  0  0
  145.4782  137.9774  156.9116 O   0  0  0  0  0  0  0  0  0  0  0  0
  144.9619  137.6498  158.1958 C   0  0  1  0  0  0  0  0  0  0  0  0
  143.4420  137.8353  158.2198 C   0  0  0  0  0  0  0  0  0  0  0  0
  142.9018  137.4230  156.9754 O   0  0  0  0  0  0  0  0  0  0  0  0
  141.5886  137.1414  156.8733 C   0  0  0  0  0  0  0  0  0  0  0  0
  140.9118  136.7003  157.8045 O   0  0  0  0  0  0  0  0  0  0  0  0
  141.0382  137.4165  155.5147 C   0  0  0  0  0  0  0  0  0  0  0  0
  139.6897  137.0924  155.2362 C   0  0  0  0  0  0  0  0  0  0  0  0
  139.1412  137.3377  153.9625 C   0  0  0  0  0  0  0  0  0  0  0  0
  139.9346  137.9097  152.9512 C   0  0  0  0  0  0  0  0  0  0  0  0
  141.2775  138.2368  153.2156 C   0  0  0  0  0  0  0  0  0  0  0  0
  141.8280  137.9930  154.4892 C   0  0  0  0  0  0  0  0  0  0  0  0
  145.3982  136.1956  158.3732 C   0  0  2  0  0  0  0  0  0  0  0  0
  145.5316  135.8474  159.7399 O   0  0  0  0  0  0  0  0  0  0  0  0
  147.1168  136.0914  160.2072 S   0  0  0  0  0  0  0  0  0  0  0  0
  147.1834  137.3459  160.9725 O   0  0  0  0  0  0  0  0  0  0  0  0
  147.6448  134.8194  160.7230 O   0  0  0  0  0  0  0  0  0  0  0  0
  147.7818  136.3652  158.7012 O   0  0  0  0  0  0  0  0  0  0  0  0
  146.7830  136.1714  157.7093 C   0  0  2  0  0  0  0  0  0  0  0  0
  152.2819  141.8864  158.7271 C   0  0  0  0  0  0  0  0  0  0  0  0
  151.9069  143.1948  158.3451 C   0  0  0  0  0  0  0  0  0  0  0  0
  151.9733  144.2571  159.2677 C   0  0  0  0  0  0  0  0  0  0  0  0
  152.4244  144.0238  160.5804 C   0  0  0  0  0  0  0  0  0  0  0  0
  152.8123  142.7280  160.9688 C   0  0  0  0  0  0  0  0  0  0  0  0
  152.7460  141.6651  160.0469 C   0  0  0  0  0  0  0  0  0  0  0  0
  150.2062  138.6454  153.2029 H   0  0  0  0  0  0  0  0  0  0  0  0
  147.4780  138.9708  158.9887 H   0  0  0  0  0  0  0  0  0  0  0  0
  146.8408  137.0667  155.6760 H   0  0  0  0  0  0  0  0  0  0  0  0
  145.4375  138.2764  158.9518 H   0  0  0  0  0  0  0  0  0  0  0  0
  143.0014  137.2676  159.0407 H   0  0  0  0  0  0  0  0  0  0  0  0
  143.1999  138.8871  158.3778 H   0  0  0  0  0  0  0  0  0  0  0  0
  139.0612  136.6511  155.9965 H   0  0  0  0  0  0  0  0  0  0  0  0
  138.1105  137.0856  153.7616 H   0  0  0  0  0  0  0  0  0  0  0  0
  139.5138  138.0969  151.9743 H   0  0  0  0  0  0  0  0  0  0  0  0
  141.8872  138.6757  152.4395 H   0  0  0  0  0  0  0  0  0  0  0  0
  142.8618  138.2566  154.6585 H   0  0  0  0  0  0  0  0  0  0  0  0
  144.7176  135.5164  157.8583 H   0  0  0  0  0  0  0  0  0  0  0  0
  146.9666  135.2388  157.1752 H   0  0  0  0  0  0  0  0  0  0  0  0
  151.5606  143.3907  157.3404 H   0  0  0  0  0  0  0  0  0  0  0  0
  151.6794  145.2514  158.9661 H   0  0  0  0  0  0  0  0  0  0  0  0
  152.4763  144.8383  161.2875 H   0  0  0  0  0  0  0  0  0  0  0  0
  153.1644  142.5482  161.9738 H   0  0  0  0  0  0  0  0  0  0  0  0
  153.0591  140.6800  160.3618 H   0  0  0  0  0  0  0  0  0  0  0  0
  1  2  2  0  0  0  0
  2  3  1  0  0  0  0
  2 33  1  0  0  0  0
  3  4  1  0  0  0  0
  4  9  1  0  0  0  0
  4  5  2  0  0  0  0
  5  6  1  0  0  0  0
  6  7  2  0  0  0  0
  6 39  1  0  0  0  0
  7  8  1  0  0  0  0
  8 12  1  0  0  0  0
  8  9  2  0  0  0  0
  9 10  1  0  0  0  0
 10 11  2  0  0  0  0
 11 12  1  0  0  0  0
 11 40  1  0  0  0  0
 12 13  1  0  0  0  0
 13 32  1  0  0  0  0
 13 14  1  0  0  0  0
 13 41  1  0  0  0  0
 14 15  1  0  0  0  0
 15 16  1  0  0  0  0
 15 26  1  0  0  0  0
 15 42  1  0  0  0  0
 16 17  1  0  0  0  0
 16 43  1  0  0  0  0
 16 44  1  0  0  0  0
 17 18  1  0  0  0  0
 18 19  2  0  0  0  0
 18 20  1  0  0  0  0
 20 25  1  0  0  0  0
 20 21  2  0  0  0  0
 21 22  1  0  0  0  0
 21 45  1  0  0  0  0
 22 23  2  0  0  0  0
 22 46  1  0  0  0  0
 23 24  1  0  0  0  0
 23 47  1  0  0  0  0
 24 25  2  0  0  0  0
 24 48  1  0  0  0  0
 25 49  1  0  0  0  0
 26 32  1  0  0  0  0
 26 27  1  0  0  0  0
 26 50  1  0  0  0  0
 27 28  1  0  0  0  0
 28 29  2  0  0  0  0
 28 30  2  0  0  0  0
 28 31  1  0  0  0  0
 31 32  1  0  0  0  0
 32 51  1  0  0  0  0
 33 38  1  0  0  0  0
 33 34  2  0  0  0  0
 34 35  1  0  0  0  0
 34 52  1  0  0  0  0
 35 36  2  0  0  0  0
 35 53  1  0  0  0  0
 36 37  1  0  0  0  0
 36 54  1  0  0  0  0
 37 38  2  0  0  0  0
 37 55  1  0  0  0  0
 38 56  1  0  0  0  0
M  CHG  1   3  -1
M  END
> <s_m_source_file>
AV-unprocessed.smi

> <i_m_source_file_index>
1

> <i_lp_mmshare_version>
43012

> <i_f3d_flags>
0

> <s_epik_input>
W2NIXTFbY0hdW2NIXVtjSF1bY0hdYzFDKD1PKVtOSF1jKG5bY0hdbjIpYyhjMjMpbltjSF1uM1tDQEBIXShbQ0BIXShbQ0BIXTQ1KU9TKE81KSg9Tyk9TylPW0NASF00W0NIMl1PQyg9TyljNltjSF1bY0hdW2NIXVtjSF1bY0hdNg==

> <s_epik_cmdline>
J2VwaWtfcHl0aG9uJywgJy1waCcsICc3LjAnLCAnLXRuJywgJzgnLCAnLW1hJywgJzIwMCcsICctbWV0YWxfYmluZGluZycsICctaW1hZScsICc8aW5maWxlLm1hZT4nLCAnLW9tYWUnLCAnPG91dGZpbGUubWFlPic=

> <r_lp_tautomer_probability>
1

> <r_epik_Ionization_Penalty>
4.39121

> <r_epik_Ionization_Penalty_Charging>
3.39398

> <r_epik_Ionization_Penalty_Neutral>
0.997232

> <r_epik_State_Penalty>
3.39839

> <r_epik_Charging_Adjusted_Penalty>
6.79237

> <i_epik_Tot_Q>
-1

> <i_epik_Tot_abs_Q>
1

> <r_epik_Metal_State_Penalty>
0.497663

> <b_epik_Metal_Only>
1

> <s_epik_Chemistry_Notes>
This compound has an ester and may undergo hydrolysis at high or low pH. This compound contains an acetal/aminal-like group ( X-CH(R)-Y where X, Y are N, S, or O) that may be acid/base labile, releasing an aldehyde.

> <s_lp_Force_Field>
OPLS_2005

> <r_lp_Energy>
42.9132

> <b_lp_Chiralities_Consistent>
1

> <s_lp_Variant>
AV-unprocessed.smi:1-17

> <Gold.Version>
5.8.1

> <Gold.Id.Protein>
6NUR|6NUR_protein|mol2

> <Gold.PLP.Fitness>
56.4799

> <Gold.PLP.PLP>
-43.8893

> <Gold.PLP.part.hbond>
-4.7764

> <Gold.PLP.part.metal>
0.0000

> <Gold.PLP.part.buried>
-3.5667

> <Gold.PLP.part.nonpolar>
-34.6529

> <Gold.PLP.part.repulsive>
0.2550

> <Gold.PLP.ligand.clash>
0.0000

> <Gold.PLP.ligand.torsion>
1.6374

> <Gold.PLP.Chemscore.Hbond>
4.1362

> <Gold.PLP.Chemscore.CHOScore>
0.9963

> <Gold.PLP.Chemscore.Metal>
0.0000

> <Gold.Chemscore.Hbonds>
donor molecule, donor type, donor heavy atom, donor atom, acceptor molecule, acceptor atom, score
      P1  H  6931  6943       L1    29  0.32
      P1  H  6934  6947       L1    29  1.00
      P1  H  7989  7998       L1     5  1.00
      P1  H  7997  8009       L1     1  0.78
      P1  H 11000 11005       L1    19  0.88
      L1  C     6    39       P1  7957  0.93

> <Gold.PLP.Chemscore.Internal.Correction>
0.4679

> <Gold.Rescore>
     Score         DG    S(hbond)    S(metal)    S(lipo)     H(rot)  DE(clash)    DE(int)     intcor
     20.25     -23.46       3.37        0.00     103.78       2.11       0.13       3.08       ----

> <Gold.Chemscore.Fitness>
20.2509

> <Gold.Chemscore.DG>
-23.4600

> <Gold.Chemscore.ZeroCoef>
-5.4800

> <Gold.Chemscore.Hbond>
3.3680

> <Gold.Chemscore.Metal>
0.0000

> <Gold.Chemscore.Lipo>
103.7756

> <Gold.Chemscore.Internal_Hbond>
0.0000

> <Gold.Chemscore.DEClash>
0.1282

> <Gold.Chemscore.DEInternal>
3.0809

> <Gold.Chemscore.Rot>
2.1136

> <Gold.Chemscore.Internal.Correction>
   9.000000E+99

> <Gold.Chemscore.Hbonds>
donor molecule, donor type, donor heavy atom, donor atom, acceptor molecule, acceptor atom, score
      P1  H  6931  6943       L1    29  0.31
      P1  H  6934  6947       L1    29  0.99
      P1  H  7989  7998       L1     5  0.81
      P1  H  7997  8009       L1     1  0.10
      P1  H 11000 11005       L1    19  0.59

> <Gold.Chemscore.Hbond.Weighted>
-11.2490

> <Gold.Chemscore.Metal.Weighted>
-0.0000

> <Gold.Chemscore.Lipo.Weighted>
-12.1417

> <Gold.Chemscore.Internal_Hbond.Weighted>
0.0000

> <Gold.Chemscore.DEClash.Weighted>
0.1282

> <Gold.Chemscore.DEInternal.Weighted>
3.0809

> <Gold.Chemscore.Rot.Weighted>
5.4107

> <Gold.Chemscore.Internal.Correction.Weighted>
   9.000000E+99

> <Gold.Protein.RotatedTorsions>
[ 6907 6896 6895 6894 ] final   72.24 input  -60.11 | X-H torsion
[ 7974 7965 7964 7962 ] final   84.70 input  175.53 | X-H torsion
[ 8008 7997 7996 7995 ] final  178.57 input   59.86 | X-H torsion
[ 10167 10162 10161 10158 ] final  -57.08 input  -65.29 | X-H torsion
[ 10718 10713 10712 10709 ] final  -52.02 input   66.30 | X-H torsion
[ 10763 10752 10751 10750 ] final   57.57 input  -60.55 | X-H torsion
[ 11005 11000 10999 10996 ] final  156.49 input  -57.11 | X-H torsion

> <Gold.Protein.ActiveResidues>
 VAL166  LYS551  ARG553  GLY616  TRP617  ASP618  TYR619  PRO620  LYS621  CYS622 
 ASP623  PHE694  ASN695  SER759  ASP760  ASP761  ALA762  ILE779  LEU786  VAL792 
 PHE793  MET794  SER795  GLU796  ALA797  LYS798  CYS799  TRP800  GLU811  SER814 

> <Gold.Protein.RotatedAtoms>
  152.4856  134.4601  159.9602 H   0  0  0  0  0  0  0  0  0  0  0  0  # atno 6907 bound_to 6896
  151.4598  133.3590  159.2815 H   0  0  0  0  0  0  0  0  0  0  0  0  # atno 6908 bound_to 6896
  150.8964  134.8398  159.7390 H   0  0  0  0  0  0  0  0  0  0  0  0  # atno 6909 bound_to 6896
  145.5953  139.2344  143.2276 H   0  0  0  0  0  0  0  0  0  0  0  0  # atno 7974 bound_to 7965
  156.0532  140.1330  157.0026 H   0  0  0  0  0  0  0  0  0  0  0  0  # atno 8008 bound_to 7997
  154.4445  140.1006  156.6477 H   0  0  0  0  0  0  0  0  0  0  0  0  # atno 8009 bound_to 7997
  155.5492  140.3462  155.4466 H   0  0  0  0  0  0  0  0  0  0  0  0  # atno 8010 bound_to 7997
  140.6279  143.2446  151.5316 H   0  0  0  0  0  0  0  0  0  0  0  0  # atno 10167 bound_to 10162
  156.1658  130.4149  149.9722 H   0  0  0  0  0  0  0  0  0  0  0  0  # atno 10718 bound_to 10713
  152.9852  135.5637  154.5411 H   0  0  0  0  0  0  0  0  0  0  0  0  # atno 10763 bound_to 10752
  154.4866  135.2791  155.1532 H   0  0  0  0  0  0  0  0  0  0  0  0  # atno 10764 bound_to 10752
  154.3018  135.6306  153.5481 H   0  0  0  0  0  0  0  0  0  0  0  0  # atno 10765 bound_to 10752
  140.1680  134.8563  157.2655 H   0  0  0  0  0  0  0  0  0  0  0  0  # atno 11005 bound_to 11000
  146.1616  140.6779  142.9274 LP  0  0  0  0  0  0  0  0  0  0  0  0  # atno 17320 bound_to 7965
  144.7333  140.4736  143.6922 LP  0  0  0  0  0  0  0  0  0  0  0  0  # atno 17321 bound_to 7965
  139.5497  144.2428  152.1507 LP  0  0  0  0  0  0  0  0  0  0  0  0  # atno 17342 bound_to 10162
  140.1664  144.4977  150.6603 LP  0  0  0  0  0  0  0  0  0  0  0  0  # atno 17343 bound_to 10162
  156.7538  130.9125  151.3638 LP  0  0  0  0  0  0  0  0  0  0  0  0  # atno 17370 bound_to 10713
  157.6767  130.9101  150.0167 LP  0  0  0  0  0  0  0  0  0  0  0  0  # atno 17371 bound_to 10713
  140.2411  134.3794  155.7480 LP  0  0  0  0  0  0  0  0  0  0  0  0  # atno 17394 bound_to 11000
  141.2215  133.7266  156.8790 LP  0  0  0  0  0  0  0  0  0  0  0  0  # atno 17395 bound_to 11000

$$$$
