AV-unprocessed.smi:767|AV-procd|sdf|3657|dock6
  -GOLD-   22720 1 63D 1   1.00000     0.00000
 Structure written by MMmdl.
 47 49  0  0  0  0  0  0  0  0  1 V2000
  152.4174  141.9278  158.7248 C   0  0  0  0  0  0  0  0  0  0  0  0
  151.7037  141.0994  157.6768 C   0  0  0  0  0  0  0  0  0  0  0  0
  150.3374  141.3114  157.3956 C   0  0  0  0  0  0  0  0  0  0  0  0
  149.7240  140.5140  156.4103 C   0  0  0  0  0  0  0  0  0  0  0  0
  150.4973  139.5410  155.7445 C   0  0  0  0  0  0  0  0  0  0  0  0
  149.8865  138.6615  154.6717 C   0  0  0  0  0  0  0  0  0  0  0  0
  148.8044  137.7280  155.2375 C   0  0  0  0  0  0  0  0  0  0  0  0
  148.2750  136.8379  154.2116 N   0  0  0  0  0  0  0  0  0  0  0  0
  147.1974  136.0546  154.3559 C   0  0  0  0  0  0  0  0  0  0  0  0
  146.5221  135.9902  155.3835 O   0  0  0  0  0  0  0  0  0  0  0  0
  146.9391  135.3553  153.2437 N   0  0  0  0  0  0  0  0  0  0  0  0
  145.8164  134.4379  153.0917 C   0  0  2  0  0  0  0  0  0  0  0  0
  146.1352  133.2734  152.1538 C   0  0  1  0  0  0  0  0  0  0  0  0
  146.2839  131.8037  152.3255 C   0  0  0  0  0  0  0  0  0  0  0  0
  145.4238  131.3610  151.1113 C   0  0  0  0  0  0  0  0  0  0  0  0
  144.7462  132.5547  150.6476 O   0  0  0  0  0  0  0  0  0  0  0  0
  144.6629  133.3639  151.8028 C   0  0  2  0  0  0  0  0  0  0  0  0
  144.7771  134.8892  151.9973 C   0  0  0  0  0  0  0  0  0  0  0  0
  143.5200  135.5742  152.5339 C   0  0  0  0  0  0  0  0  0  0  0  0
  145.2496  135.7327  150.7957 C   0  0  0  0  0  0  0  0  0  0  0  0
  151.8571  139.4118  156.0979 C   0  0  0  0  0  0  0  0  0  0  0  0
  152.4532  140.1710  157.0424 N   0  0  0  0  0  0  0  0  0  0  0  0
  151.7054  142.4180  159.3893 H   0  0  0  0  0  0  0  0  0  0  0  0
  153.0254  142.6963  158.2471 H   0  0  0  0  0  0  0  0  0  0  0  0
  153.0703  141.3009  159.3331 H   0  0  0  0  0  0  0  0  0  0  0  0
  149.7707  142.0662  157.9209 H   0  0  0  0  0  0  0  0  0  0  0  0
  148.6795  140.6502  156.1705 H   0  0  0  0  0  0  0  0  0  0  0  0
  149.4672  139.2995  153.8928 H   0  0  0  0  0  0  0  0  0  0  0  0
  150.6760  138.0764  154.1981 H   0  0  0  0  0  0  0  0  0  0  0  0
  149.2247  137.1117  156.0328 H   0  0  0  0  0  0  0  0  0  0  0  0
  147.9943  138.3058  155.6860 H   0  0  0  0  0  0  0  0  0  0  0  0
  148.7618  136.8212  153.3274 H   0  0  0  0  0  0  0  0  0  0  0  0
  147.5484  135.4734  152.4474 H   0  0  0  0  0  0  0  0  0  0  0  0
  145.3660  134.1174  154.0359 H   0  0  0  0  0  0  0  0  0  0  0  0
  146.7893  133.6063  151.3442 H   0  0  0  0  0  0  0  0  0  0  0  0
  147.3189  131.4693  152.2501 H   0  0  0  0  0  0  0  0  0  0  0  0
  145.8650  131.4591  153.2721 H   0  0  0  0  0  0  0  0  0  0  0  0
  146.0358  130.9539  150.3060 H   0  0  0  0  0  0  0  0  0  0  0  0
  144.6992  130.6004  151.4047 H   0  0  0  0  0  0  0  0  0  0  0  0
  144.0013  132.9058  152.5473 H   0  0  0  0  0  0  0  0  0  0  0  0
  142.7271  135.5992  151.7857 H   0  0  0  0  0  0  0  0  0  0  0  0
  143.7219  136.6021  152.8369 H   0  0  0  0  0  0  0  0  0  0  0  0
  143.1231  135.0558  153.4071 H   0  0  0  0  0  0  0  0  0  0  0  0
  144.4952  135.7494  150.0087 H   0  0  0  0  0  0  0  0  0  0  0  0
  146.1677  135.3692  150.3376 H   0  0  0  0  0  0  0  0  0  0  0  0
  145.4349  136.7672  151.0863 H   0  0  0  0  0  0  0  0  0  0  0  0
  152.4850  138.6820  155.6083 H   0  0  0  0  0  0  0  0  0  0  0  0
  1  2  1  0  0  0  0
  1 23  1  0  0  0  0
  1 24  1  0  0  0  0
  1 25  1  0  0  0  0
  2 22  1  0  0  0  0
  2  3  2  0  0  0  0
  3  4  1  0  0  0  0
  3 26  1  0  0  0  0
  4  5  2  0  0  0  0
  4 27  1  0  0  0  0
  5  6  1  0  0  0  0
  5 21  1  0  0  0  0
  6  7  1  0  0  0  0
  6 28  1  0  0  0  0
  6 29  1  0  0  0  0
  7  8  1  0  0  0  0
  7 30  1  0  0  0  0
  7 31  1  0  0  0  0
  8  9  1  0  0  0  0
  8 32  1  0  0  0  0
  9 10  2  0  0  0  0
  9 11  1  0  0  0  0
 11 12  1  0  0  0  0
 11 33  1  0  0  0  0
 12 18  1  0  0  0  0
 12 13  1  0  0  0  0
 12 34  1  0  0  0  0
 13 17  1  0  0  0  0
 13 14  1  0  0  0  0
 13 35  1  0  0  0  0
 14 15  1  0  0  0  0
 14 36  1  0  0  0  0
 14 37  1  0  0  0  0
 15 16  1  0  0  0  0
 15 38  1  0  0  0  0
 15 39  1  0  0  0  0
 16 17  1  0  0  0  0
 17 18  1  0  0  0  0
 17 40  1  0  0  0  0
 18 19  1  0  0  0  0
 18 20  1  0  0  0  0
 19 41  1  0  0  0  0
 19 42  1  0  0  0  0
 19 43  1  0  0  0  0
 20 44  1  0  0  0  0
 20 45  1  0  0  0  0
 20 46  1  0  0  0  0
 21 22  2  0  0  0  0
 21 47  1  0  0  0  0
M  END
> <s_m_source_file>
AV-unprocessed.smi

> <i_m_source_file_index>
767

> <i_lp_mmshare_version>
43012

> <i_f3d_flags>
0

> <s_epik_input>
W0NIM11jMVtjSF1bY0hdYyhbY0hdbjEpW0NIMl1bQ0gyXVtOSF1DKD1PKVtOSF1bQ0BIXTJDKFtDSDNdKShbQ0gzXSlbQ0BIXShbQ0BASF0yMylPW0NIMl1bQ0gyXTM=

> <s_epik_cmdline>
J2VwaWtfcHl0aG9uJywgJy1waCcsICc3LjAnLCAnLXRuJywgJzgnLCAnLW1hJywgJzIwMCcsICctbWV0YWxfYmluZGluZycsICctaW1hZScsICc8aW5maWxlLm1hZT4nLCAnLW9tYWUnLCAnPG91dGZpbGUubWFlPic=

> <r_epik_Ionization_Penalty>
0.0567523

> <r_epik_Ionization_Penalty_Charging>
0

> <r_epik_Ionization_Penalty_Neutral>
0.0567523

> <r_epik_State_Penalty>
0.0489186

> <r_epik_Charging_Adjusted_Penalty>
0.0489186

> <i_epik_Tot_Q>
0

> <i_epik_Tot_abs_Q>
0

> <r_epik_Metal_State_Penalty>
0.044622

> <b_epik_Metal_Only>
0

> <s_lp_Force_Field>
OPLS_2005

> <r_lp_Energy>
54.5337

> <b_lp_Chiralities_Consistent>
1

> <s_lp_Variant>
AV-unprocessed.smi:767-1

> <Gold.Version>
5.8.1

> <Gold.Id.Protein>
6NUR|6NUR_protein|mol2

> <Gold.PLP.Fitness>
40.1484

> <Gold.PLP.PLP>
-31.6359

> <Gold.PLP.part.hbond>
-2.8689

> <Gold.PLP.part.metal>
0.0000

> <Gold.PLP.part.buried>
-4.1719

> <Gold.PLP.part.nonpolar>
-24.6313

> <Gold.PLP.part.repulsive>
0.1731

> <Gold.PLP.ligand.clash>
0.0000

> <Gold.PLP.ligand.torsion>
0.2718

> <Gold.PLP.Chemscore.Hbond>
2.9280

> <Gold.PLP.Chemscore.CHOScore>
0.0000

> <Gold.PLP.Chemscore.Metal>
0.0000

> <Gold.Chemscore.Hbonds>
donor molecule, donor type, donor heavy atom, donor atom, acceptor molecule, acceptor atom, score
      L1  H     8    32       P1  7948  1.00
      L1  H    11    33       P1  7948  0.94
      P1  H  7997  8009       L1    22  1.00

> <Gold.PLP.Chemscore.Internal.Correction>
0.2721

> <Gold.Rescore>
     Score         DG    S(hbond)    S(metal)    S(lipo)     H(rot)  DE(clash)    DE(int)     intcor
     20.88     -21.20       2.80        0.00      86.26       1.45       0.01       0.31       ----

> <Gold.Chemscore.Fitness>
20.8827

> <Gold.Chemscore.DG>
-21.2022

> <Gold.Chemscore.ZeroCoef>
-5.4800

> <Gold.Chemscore.Hbond>
2.7966

> <Gold.Chemscore.Metal>
0.0000

> <Gold.Chemscore.Lipo>
86.2623

> <Gold.Chemscore.Internal_Hbond>
0.0000

> <Gold.Chemscore.DEClash>
0.0127

> <Gold.Chemscore.DEInternal>
0.3068

> <Gold.Chemscore.Rot>
1.4497

> <Gold.Chemscore.Internal.Correction>
   9.000000E+99

> <Gold.Chemscore.Hbonds>
donor molecule, donor type, donor heavy atom, donor atom, acceptor molecule, acceptor atom, score
      L1  H     8    32       P1  7948  0.94
      L1  H    11    33       P1  7948  0.91
      P1  H  7997  8009       L1    22  0.38

> <Gold.Chemscore.Hbond.Weighted>
-9.3407

> <Gold.Chemscore.Metal.Weighted>
-0.0000

> <Gold.Chemscore.Lipo.Weighted>
-10.0927

> <Gold.Chemscore.Internal_Hbond.Weighted>
0.0000

> <Gold.Chemscore.DEClash.Weighted>
0.0127

> <Gold.Chemscore.DEInternal.Weighted>
0.3068

> <Gold.Chemscore.Rot.Weighted>
3.7112

> <Gold.Chemscore.Internal.Correction.Weighted>
   9.000000E+99

> <Gold.Protein.RotatedTorsions>
[ 6907 6896 6895 6894 ] final  -72.98 input  -60.11 | X-H torsion
[ 7974 7965 7964 7962 ] final  -42.90 input  175.53 | X-H torsion
[ 8008 7997 7996 7995 ] final -171.59 input   59.86 | X-H torsion
[ 10167 10162 10161 10158 ] final   73.94 input  -65.29 | X-H torsion
[ 10718 10713 10712 10709 ] final  -33.40 input   66.30 | X-H torsion
[ 10763 10752 10751 10750 ] final  176.51 input  -60.55 | X-H torsion
[ 11005 11000 10999 10996 ] final   95.28 input  -57.11 | X-H torsion

> <Gold.Protein.ActiveResidues>
 VAL166  LYS551  ARG553  GLY616  TRP617  ASP618  TYR619  PRO620  LYS621  CYS622 
 ASP623  PHE694  ASN695  SER759  ASP760  ASP761  ALA762  ILE779  LEU786  VAL792 
 PHE793  MET794  SER795  GLU796  ALA797  LYS798  CYS799  TRP800  GLU811  SER814 

> <Gold.Protein.RotatedAtoms>
  150.7148  134.5083  159.5594 H   0  0  0  0  0  0  0  0  0  0  0  0  # atno 6907 bound_to 6896
  152.2665  134.7976  160.0431 H   0  0  0  0  0  0  0  0  0  0  0  0  # atno 6908 bound_to 6896
  151.8671  133.3433  159.3759 H   0  0  0  0  0  0  0  0  0  0  0  0  # atno 6909 bound_to 6896
  146.0071  140.7007  142.9242 H   0  0  0  0  0  0  0  0  0  0  0  0  # atno 7974 bound_to 7965
  155.9335  140.1095  157.1113 H   0  0  0  0  0  0  0  0  0  0  0  0  # atno 8008 bound_to 7997
  154.4075  140.1233  156.4899 H   0  0  0  0  0  0  0  0  0  0  0  0  # atno 8009 bound_to 7997
  155.7050  140.3471  155.4952 H   0  0  0  0  0  0  0  0  0  0  0  0  # atno 8010 bound_to 7997
  140.0191  144.5555  150.7596 H   0  0  0  0  0  0  0  0  0  0  0  0  # atno 10167 bound_to 10162
  156.3631  130.4327  149.7607 H   0  0  0  0  0  0  0  0  0  0  0  0  # atno 10718 bound_to 10713
  154.4821  135.2775  155.1562 H   0  0  0  0  0  0  0  0  0  0  0  0  # atno 10763 bound_to 10752
  154.3268  135.6198  153.5536 H   0  0  0  0  0  0  0  0  0  0  0  0  # atno 10764 bound_to 10752
  152.9876  135.5756  154.5224 H   0  0  0  0  0  0  0  0  0  0  0  0  # atno 10765 bound_to 10752
  139.8790  134.8890  156.3988 H   0  0  0  0  0  0  0  0  0  0  0  0  # atno 11005 bound_to 11000
  144.6939  140.3334  143.7212 LP  0  0  0  0  0  0  0  0  0  0  0  0  # atno 17320 bound_to 7965
  145.7399  139.1761  143.2382 LP  0  0  0  0  0  0  0  0  0  0  0  0  # atno 17321 bound_to 7965
  140.7350  143.2735  151.3813 LP  0  0  0  0  0  0  0  0  0  0  0  0  # atno 17342 bound_to 10162
  139.6152  144.1017  152.2338 LP  0  0  0  0  0  0  0  0  0  0  0  0  # atno 17343 bound_to 10162
  156.4763  130.8020  151.3036 LP  0  0  0  0  0  0  0  0  0  0  0  0  # atno 17370 bound_to 10713
  157.7476  131.0020  150.2984 LP  0  0  0  0  0  0  0  0  0  0  0  0  # atno 17371 bound_to 10713
  140.9281  133.7598  155.9990 LP  0  0  0  0  0  0  0  0  0  0  0  0  # atno 17394 bound_to 11000
  140.8362  134.3120  157.5330 LP  0  0  0  0  0  0  0  0  0  0  0  0  # atno 17395 bound_to 11000

$$$$
