AV-unprocessed.smi:1786|AV-procd|sdf|7204|dock1
  -GOLD-   22720 8443D 1   1.00000     0.00000
 Structure written by MMmdl.
 44 45  0  0  0  0  0  0  0  0  2 V2000
  145.7994  133.8302  154.6131 C   0  0  0  0  0  0  0  0  0  0  0  0
  146.5041  134.7164  153.5628 C   0  0  2  0  0  0  0  0  0  0  0  0
  145.5130  135.3278  152.5499 C   0  0  0  0  0  0  0  0  0  0  0  0
  144.9879  134.2839  151.5531 C   0  0  0  0  0  0  0  0  0  0  0  0
  146.1617  133.5749  150.8667 C   0  0  0  0  0  0  0  0  0  0  0  0
  147.1314  132.9773  151.8993 C   0  0  0  0  0  0  0  0  0  0  0  0
  147.6144  134.0196  152.8464 N   0  3  2  0  0  0  0  0  0  0  0  0
  148.7004  133.5474  153.7426 C   0  0  0  0  0  0  0  0  0  0  0  0
  148.9610  134.5242  154.9043 C   0  0  0  0  0  0  0  0  0  0  0  0
  149.7651  135.6604  154.4728 N   0  0  0  0  0  0  0  0  0  0  0  0
  150.7068  136.2660  155.2169 C   0  0  0  0  0  0  0  0  0  0  0  0
  150.9769  135.9062  156.3622 O   0  0  0  0  0  0  0  0  0  0  0  0
  151.4668  137.4594  154.6118 C   0  0  0  0  0  0  0  0  0  0  0  0
  150.8184  138.7707  154.7933 N   0  0  0  0  0  0  0  0  0  0  0  0
  149.5705  138.9571  154.1659 C   0  0  0  0  0  0  0  0  0  0  0  0
  148.8911  140.1106  154.2646 C   0  0  0  0  0  0  0  0  0  0  0  0
  149.4707  141.1792  155.0432 C   0  0  0  0  0  0  0  0  0  0  0  0
  150.6657  141.0130  155.6444 C   0  0  0  0  0  0  0  0  0  0  0  0
  151.4155  139.7565  155.5324 C   0  0  0  0  0  0  0  0  0  0  0  0
  152.5158  139.6018  156.0625 O   0  0  0  0  0  0  0  0  0  0  0  0
  145.0154  134.3903  155.1235 H   0  0  0  0  0  0  0  0  0  0  0  0
  146.4910  133.4840  155.3810 H   0  0  0  0  0  0  0  0  0  0  0  0
  145.3313  132.9516  154.1702 H   0  0  0  0  0  0  0  0  0  0  0  0
  146.9508  135.5524  154.1029 H   0  0  0  0  0  0  0  0  0  0  0  0
  144.6799  135.8001  153.0718 H   0  0  0  0  0  0  0  0  0  0  0  0
  146.0128  136.1245  151.9970 H   0  0  0  0  0  0  0  0  0  0  0  0
  144.3621  133.5536  152.0670 H   0  0  0  0  0  0  0  0  0  0  0  0
  144.3526  134.7635  150.8080 H   0  0  0  0  0  0  0  0  0  0  0  0
  145.7890  132.7905  150.2073 H   0  0  0  0  0  0  0  0  0  0  0  0
  146.6958  134.2834  150.2322 H   0  0  0  0  0  0  0  0  0  0  0  0
  146.6511  132.1654  152.4461 H   0  0  0  0  0  0  0  0  0  0  0  0
  147.9727  132.5319  151.3693 H   0  0  0  0  0  0  0  0  0  0  0  0
  148.4246  132.5829  154.1714 H   0  0  0  0  0  0  0  0  0  0  0  0
  149.6077  133.3785  153.1605 H   0  0  0  0  0  0  0  0  0  0  0  0
  148.0301  134.8879  155.3405 H   0  0  0  0  0  0  0  0  0  0  0  0
  149.4988  134.0146  155.7041 H   0  0  0  0  0  0  0  0  0  0  0  0
  149.6009  136.0104  153.5396 H   0  0  0  0  0  0  0  0  0  0  0  0
  152.4661  137.4767  155.0492 H   0  0  0  0  0  0  0  0  0  0  0  0
  151.6321  137.2606  153.5514 H   0  0  0  0  0  0  0  0  0  0  0  0
  149.2092  138.1105  153.6001 H   0  0  0  0  0  0  0  0  0  0  0  0
  147.9368  140.2361  153.7743 H   0  0  0  0  0  0  0  0  0  0  0  0
  148.9430  142.1161  155.1452 H   0  0  0  0  0  0  0  0  0  0  0  0
  151.0831  141.8236  156.2237 H   0  0  0  0  0  0  0  0  0  0  0  0
  148.0372  134.7347  152.2720 H   0  0  0  0  0  0  0  0  0  0  0  0
  1  2  1  0  0  0  0
  1 21  1  0  0  0  0
  1 22  1  0  0  0  0
  1 23  1  0  0  0  0
  2  7  1  0  0  0  0
  2  3  1  0  0  0  0
  2 24  1  0  0  0  0
  3  4  1  0  0  0  0
  3 25  1  0  0  0  0
  3 26  1  0  0  0  0
  4  5  1  0  0  0  0
  4 27  1  0  0  0  0
  4 28  1  0  0  0  0
  5  6  1  0  0  0  0
  5 29  1  0  0  0  0
  5 30  1  0  0  0  0
  6  7  1  0  0  0  0
  6 31  1  0  0  0  0
  6 32  1  0  0  0  0
  7  8  1  0  0  0  0
  7 44  1  0  0  0  0
  8  9  1  0  0  0  0
  8 33  1  0  0  0  0
  8 34  1  0  0  0  0
  9 10  1  0  0  0  0
  9 35  1  0  0  0  0
  9 36  1  0  0  0  0
 10 11  1  0  0  0  0
 10 37  1  0  0  0  0
 11 12  2  0  0  0  0
 11 13  1  0  0  0  0
 13 14  1  0  0  0  0
 13 38  1  0  0  0  0
 13 39  1  0  0  0  0
 14 19  1  0  0  0  0
 14 15  1  0  0  0  0
 15 16  2  0  0  0  0
 15 40  1  0  0  0  0
 16 17  1  0  0  0  0
 16 41  1  0  0  0  0
 17 18  2  0  0  0  0
 17 42  1  0  0  0  0
 18 19  1  0  0  0  0
 18 43  1  0  0  0  0
 19 20  2  0  0  0  0
M  CHG  1   7   1
M  END
> <s_m_source_file>
AV-unprocessed.smi

> <i_m_source_file_index>
1786

> <i_lp_mmshare_version>
43012

> <i_f3d_flags>
0

> <s_epik_input>
W0NIM11bQ0BASF0xW0NIMl1bQ0gyXVtDSDJdW0NIMl1OMVtDSDJdW0NIMl1bTkhdQyg9TylbQ0gyXW4yW2NIXVtjSF1bY0hdW2NIXWMyPU8=

> <s_epik_cmdline>
J2VwaWtfcHl0aG9uJywgJy1waCcsICc3LjAnLCAnLXRuJywgJzgnLCAnLW1hJywgJzIwMCcsICctbWV0YWxfYmluZGluZycsICctaW1hZScsICc8aW5maWxlLm1hZT4nLCAnLW9tYWUnLCAnPG91dGZpbGUubWFlPic=

> <r_lp_tautomer_probability>
1

> <r_epik_Ionization_Penalty>
0.00237247

> <r_epik_Ionization_Penalty_Charging>
0.00237238

> <r_epik_Ionization_Penalty_Neutral>
8.2065e-08

> <r_epik_State_Penalty>
0.00163922

> <r_epik_Charging_Adjusted_Penalty>
0.0040116

> <i_epik_Tot_Q>
1

> <i_epik_Tot_abs_Q>
1

> <r_epik_Metal_State_Penalty>
-0

> <b_epik_Metal_Only>
0

> <s_lp_Force_Field>
OPLS_2005

> <r_lp_Energy>
28.5406

> <b_lp_Chiralities_Consistent>
1

> <s_lp_Variant>
AV-unprocessed.smi:1786-3

> <Gold.Version>
5.8.1

> <Gold.Id.Protein>
6NUR|6NUR_protein|mol2

> <Gold.PLP.Fitness>
50.5170

> <Gold.PLP.PLP>
-37.0059

> <Gold.PLP.part.hbond>
-3.1588

> <Gold.PLP.part.metal>
0.0000

> <Gold.PLP.part.buried>
0.6246

> <Gold.PLP.part.nonpolar>
-33.0585

> <Gold.PLP.part.repulsive>
0.0512

> <Gold.PLP.ligand.clash>
0.0000

> <Gold.PLP.ligand.torsion>
0.8051

> <Gold.PLP.Chemscore.Hbond>
4.0000

> <Gold.PLP.Chemscore.CHOScore>
0.9803

> <Gold.PLP.Chemscore.Metal>
0.0000

> <Gold.Chemscore.Hbonds>
donor molecule, donor type, donor heavy atom, donor atom, acceptor molecule, acceptor atom, score
      L1  H     7    44       P1  7948  2.00
      L1  H    10    37       P1  7948  1.00
      P1  H  7997  8010       L1    20  1.00
      L1  C    15    40       P1  7948  0.96

> <Gold.PLP.Chemscore.Internal.Correction>
0.1802

> <Gold.Rescore>
     Score         DG    S(hbond)    S(metal)    S(lipo)     H(rot)  DE(clash)    DE(int)     intcor
     17.38     -18.32       2.85        0.00      69.07       1.86       0.14       0.80       ----

> <Gold.Chemscore.Fitness>
17.3755

> <Gold.Chemscore.DG>
-18.3198

> <Gold.Chemscore.ZeroCoef>
-5.4800

> <Gold.Chemscore.Hbond>
2.8492

> <Gold.Chemscore.Metal>
0.0000

> <Gold.Chemscore.Lipo>
69.0744

> <Gold.Chemscore.Internal_Hbond>
0.0000

> <Gold.Chemscore.DEClash>
0.1433

> <Gold.Chemscore.DEInternal>
0.8010

> <Gold.Chemscore.Rot>
1.8586

> <Gold.Chemscore.Internal.Correction>
   9.000000E+99

> <Gold.Chemscore.Hbonds>
donor molecule, donor type, donor heavy atom, donor atom, acceptor molecule, acceptor atom, score
      L1  H     7    44       P1  7948  0.45
      L1  H    10    37       P1  7948  0.30
      P1  H  7997  8010       L1    20  0.97

> <Gold.Chemscore.Hbond.Weighted>
-9.5162

> <Gold.Chemscore.Metal.Weighted>
-0.0000

> <Gold.Chemscore.Lipo.Weighted>
-8.0817

> <Gold.Chemscore.Internal_Hbond.Weighted>
0.0000

> <Gold.Chemscore.DEClash.Weighted>
0.1433

> <Gold.Chemscore.DEInternal.Weighted>
0.8010

> <Gold.Chemscore.Rot.Weighted>
4.7581

> <Gold.Chemscore.Internal.Correction.Weighted>
   9.000000E+99

> <Gold.Protein.RotatedTorsions>
[ 6907 6896 6895 6894 ] final -141.29 input  -60.11 | X-H torsion
[ 7974 7965 7964 7962 ] final  175.38 input  175.53 | X-H torsion
[ 8008 7997 7996 7995 ] final   96.81 input   59.86 | X-H torsion
[ 10167 10162 10161 10158 ] final   97.92 input  -65.29 | X-H torsion
[ 10718 10713 10712 10709 ] final  -42.73 input   66.30 | X-H torsion
[ 10763 10752 10751 10750 ] final  -52.77 input  -60.55 | X-H torsion
[ 11005 11000 10999 10996 ] final  136.09 input  -57.11 | X-H torsion

> <Gold.Protein.ActiveResidues>
 VAL166  LYS551  ARG553  GLY616  TRP617  ASP618  TYR619  PRO620  LYS621  CYS622 
 ASP623  PHE694  ASN695  SER759  ASP760  ASP761  ALA762  ILE779  LEU786  VAL792 
 PHE793  MET794  SER795  GLU796  ALA797  LYS798  CYS799  TRP800  GLU811  SER814 

> <Gold.Protein.RotatedAtoms>
  151.0718  133.5460  159.2626 H   0  0  0  0  0  0  0  0  0  0  0  0  # atno 6907 bound_to 6896
  151.2396  135.0583  159.9030 H   0  0  0  0  0  0  0  0  0  0  0  0  # atno 6908 bound_to 6896
  152.5412  134.0495  159.8157 H   0  0  0  0  0  0  0  0  0  0  0  0  # atno 6909 bound_to 6896
  144.7203  139.9938  143.6440 H   0  0  0  0  0  0  0  0  0  0  0  0  # atno 7974 bound_to 7965
  156.0835  140.3267  155.7724 H   0  0  0  0  0  0  0  0  0  0  0  0  # atno 8008 bound_to 7997
  155.5113  140.0577  157.2940 H   0  0  0  0  0  0  0  0  0  0  0  0  # atno 8009 bound_to 7997
  154.4596  140.1960  156.0299 H   0  0  0  0  0  0  0  0  0  0  0  0  # atno 8010 bound_to 7997
  139.7757  144.6907  151.0093 H   0  0  0  0  0  0  0  0  0  0  0  0  # atno 10167 bound_to 10162
  156.2565  130.4193  149.8590 H   0  0  0  0  0  0  0  0  0  0  0  0  # atno 10718 bound_to 10713
  154.1481  135.6494  153.4957 H   0  0  0  0  0  0  0  0  0  0  0  0  # atno 10763 bound_to 10752
  153.0146  135.5331  154.6837 H   0  0  0  0  0  0  0  0  0  0  0  0  # atno 10764 bound_to 10752
  154.6117  135.2954  155.0396 H   0  0  0  0  0  0  0  0  0  0  0  0  # atno 10765 bound_to 10752
  140.0023  134.9473  157.0099 H   0  0  0  0  0  0  0  0  0  0  0  0  # atno 11005 bound_to 11000
  146.0391  139.3404  143.0709 LP  0  0  0  0  0  0  0  0  0  0  0  0  # atno 17320 bound_to 7965
  145.8358  140.9607  143.0825 LP  0  0  0  0  0  0  0  0  0  0  0  0  # atno 17321 bound_to 7965
  140.7816  143.4539  151.0373 LP  0  0  0  0  0  0  0  0  0  0  0  0  # atno 17342 bound_to 10162
  139.8221  143.7805  152.3177 LP  0  0  0  0  0  0  0  0  0  0  0  0  # atno 17343 bound_to 10162
  156.6120  130.8591  151.3456 LP  0  0  0  0  0  0  0  0  0  0  0  0  # atno 17370 bound_to 10713
  157.7234  130.9590  150.1534 LP  0  0  0  0  0  0  0  0  0  0  0  0  # atno 17371 bound_to 10713
  140.4705  134.1391  155.7202 LP  0  0  0  0  0  0  0  0  0  0  0  0  # atno 17394 bound_to 11000
  141.1651  133.8718  157.1738 LP  0  0  0  0  0  0  0  0  0  0  0  0  # atno 17395 bound_to 11000

$$$$
