AV-unprocessed.smi:3348|AV-procd|sdf|12919|dock1
  -GOLD-   2272019333D 1   1.00000     0.00000
 Structure written by MMmdl.
 47 48  0  0  0  0  0  0  0  0  2 V2000
  146.9214  135.9047  154.8203 C   0  0  0  0  0  0  0  0  0  0  0  0
  146.2901  135.5866  153.4538 C   0  0  2  0  0  0  0  0  0  0  0  0
  146.7835  134.2452  152.8633 C   0  0  0  0  0  0  0  0  0  0  0  0
  146.0100  133.8161  151.7113 N   0  0  0  0  0  0  0  0  0  0  0  0
  146.1693  132.6777  150.9494 C   0  0  0  0  0  0  0  0  0  0  0  0
  145.2131  132.7036  149.9750 C   0  0  0  0  0  0  0  0  0  0  0  0
  144.5045  133.9111  150.2287 C   0  0  0  0  0  0  0  0  0  0  0  0
  144.9834  134.5742  151.2692 N   0  0  0  0  0  0  0  0  0  0  0  0
  146.5541  136.7094  152.5264 N   0  3  0  0  0  0  0  0  0  0  0  0
  146.0213  138.0239  152.9443 C   0  0  0  0  0  0  0  0  0  0  0  0
  147.0721  139.1215  152.7516 C   0  0  0  0  0  0  0  0  0  0  0  0
  146.8017  140.1668  153.6725 O   0  0  0  0  0  0  0  0  0  0  0  0
  147.7733  141.2074  153.6933 C   0  0  2  0  0  0  0  0  0  0  0  0
  149.0592  140.7314  154.4020 C   0  0  0  0  0  0  0  0  0  0  0  0
  148.8128  140.4336  155.8901 C   0  0  0  0  0  0  0  0  0  0  0  0
  148.2054  141.6487  156.6074 C   0  0  0  0  0  0  0  0  0  0  0  0
  146.9199  142.1232  155.9113 C   0  0  0  0  0  0  0  0  0  0  0  0
  147.1635  142.4272  154.4194 C   0  0  2  0  0  0  0  0  0  0  0  0
  145.8900  142.9340  153.7240 C   0  0  0  0  0  0  0  0  0  0  0  0
  146.6565  135.1590  155.5703 H   0  0  0  0  0  0  0  0  0  0  0  0
  146.5801  136.8700  155.1957 H   0  0  0  0  0  0  0  0  0  0  0  0
  148.0097  135.9389  154.7555 H   0  0  0  0  0  0  0  0  0  0  0  0
  145.2111  135.5266  153.6041 H   0  0  0  0  0  0  0  0  0  0  0  0
  147.8242  134.3200  152.5480 H   0  0  0  0  0  0  0  0  0  0  0  0
  146.7459  133.4623  153.6231 H   0  0  0  0  0  0  0  0  0  0  0  0
  146.9423  131.9532  151.1600 H   0  0  0  0  0  0  0  0  0  0  0  0
  145.0436  131.9712  149.1998 H   0  0  0  0  0  0  0  0  0  0  0  0
  143.6624  134.3220  149.6914 H   0  0  0  0  0  0  0  0  0  0  0  0
  147.5561  136.8047  152.4428 H   0  0  0  0  0  0  0  0  0  0  0  0
  145.1232  138.2706  152.3781 H   0  0  0  0  0  0  0  0  0  0  0  0
  145.7382  137.9754  153.9964 H   0  0  0  0  0  0  0  0  0  0  0  0
  148.0666  138.7114  152.9266 H   0  0  0  0  0  0  0  0  0  0  0  0
  147.0457  139.4931  151.7259 H   0  0  0  0  0  0  0  0  0  0  0  0
  148.0149  141.5075  152.6717 H   0  0  0  0  0  0  0  0  0  0  0  0
  149.4724  139.8512  153.9104 H   0  0  0  0  0  0  0  0  0  0  0  0
  149.8217  141.5063  154.3163 H   0  0  0  0  0  0  0  0  0  0  0  0
  148.1436  139.5779  155.9881 H   0  0  0  0  0  0  0  0  0  0  0  0
  149.7491  140.1490  156.3710 H   0  0  0  0  0  0  0  0  0  0  0  0
  147.9942  141.3995  157.6478 H   0  0  0  0  0  0  0  0  0  0  0  0
  148.9320  142.4619  156.6267 H   0  0  0  0  0  0  0  0  0  0  0  0
  146.1469  141.3604  156.0140 H   0  0  0  0  0  0  0  0  0  0  0  0
  146.5409  143.0130  156.4152 H   0  0  0  0  0  0  0  0  0  0  0  0
  147.8949  143.2354  154.3676 H   0  0  0  0  0  0  0  0  0  0  0  0
  145.0930  142.1905  153.7564 H   0  0  0  0  0  0  0  0  0  0  0  0
  146.0817  143.1715  152.6772 H   0  0  0  0  0  0  0  0  0  0  0  0
  145.5165  143.8391  154.2035 H   0  0  0  0  0  0  0  0  0  0  0  0
  146.1807  136.4780  151.6165 H   0  0  0  0  0  0  0  0  0  0  0  0
  1  2  1  0  0  0  0
  1 20  1  0  0  0  0
  1 21  1  0  0  0  0
  1 22  1  0  0  0  0
  2  3  1  0  0  0  0
  2  9  1  0  0  0  0
  2 23  1  0  0  0  0
  3  4  1  0  0  0  0
  3 24  1  0  0  0  0
  3 25  1  0  0  0  0
  4  8  1  0  0  0  0
  4  5  1  0  0  0  0
  5  6  2  0  0  0  0
  5 26  1  0  0  0  0
  6  7  1  0  0  0  0
  6 27  1  0  0  0  0
  7  8  2  0  0  0  0
  7 28  1  0  0  0  0
  9 10  1  0  0  0  0
  9 29  1  0  0  0  0
  9 47  1  0  0  0  0
 10 11  1  0  0  0  0
 10 30  1  0  0  0  0
 10 31  1  0  0  0  0
 11 12  1  0  0  0  0
 11 32  1  0  0  0  0
 11 33  1  0  0  0  0
 12 13  1  0  0  0  0
 13 18  1  0  0  0  0
 13 14  1  0  0  0  0
 13 34  1  0  0  0  0
 14 15  1  0  0  0  0
 14 35  1  0  0  0  0
 14 36  1  0  0  0  0
 15 16  1  0  0  0  0
 15 37  1  0  0  0  0
 15 38  1  0  0  0  0
 16 17  1  0  0  0  0
 16 39  1  0  0  0  0
 16 40  1  0  0  0  0
 17 18  1  0  0  0  0
 17 41  1  0  0  0  0
 17 42  1  0  0  0  0
 18 19  1  0  0  0  0
 18 43  1  0  0  0  0
 19 44  1  0  0  0  0
 19 45  1  0  0  0  0
 19 46  1  0  0  0  0
M  CHG  1   9   1
M  END
> <s_m_source_file>
AV-unprocessed.smi

> <i_m_source_file_index>
3348

> <i_lp_mmshare_version>
43012

> <i_f3d_flags>
0

> <s_epik_input>
bjFbY0hdW2NIXVtjSF1uMVtDSDJdW0NAQEhdKFtDSDNdKVtOSF1bQ0gyXVtDSDJdT1tDQEBIXTJbQ0gyXVtDSDJdW0NIMl1bQ0gyXVtDQEhdMltDSDNd

> <s_epik_cmdline>
J2VwaWtfcHl0aG9uJywgJy1waCcsICc3LjAnLCAnLXRuJywgJzgnLCAnLW1hJywgJzIwMCcsICctbWV0YWxfYmluZGluZycsICctaW1hZScsICc8aW5maWxlLm1hZT4nLCAnLW9tYWUnLCAnPG91dGZpbGUubWFlPic=

> <r_lp_tautomer_probability>
1

> <r_epik_Ionization_Penalty>
0.00925088

> <r_epik_Ionization_Penalty_Charging>
0.00924645

> <r_epik_Ionization_Penalty_Neutral>
4.42413e-06

> <r_epik_State_Penalty>
0.0070118

> <r_epik_Charging_Adjusted_Penalty>
0.0162583

> <i_epik_Tot_Q>
1

> <i_epik_Tot_abs_Q>
1

> <r_epik_Metal_State_Penalty>
0.00701222

> <b_epik_Metal_Only>
0

> <s_lp_Force_Field>
OPLS_2005

> <r_lp_Energy>
17.0128

> <b_lp_Chiralities_Consistent>
1

> <s_lp_Variant>
AV-unprocessed.smi:3348-5

> <Gold.Version>
5.8.1

> <Gold.Id.Protein>
6NUR|6NUR_protein|mol2

> <Gold.PLP.Fitness>
43.2022

> <Gold.PLP.PLP>
-32.3017

> <Gold.PLP.part.hbond>
-1.0000

> <Gold.PLP.part.metal>
0.0000

> <Gold.PLP.part.buried>
-2.4570

> <Gold.PLP.part.nonpolar>
-28.4793

> <Gold.PLP.part.repulsive>
0.3543

> <Gold.PLP.ligand.clash>
0.0000

> <Gold.PLP.ligand.torsion>
0.6465

> <Gold.PLP.Chemscore.Hbond>
2.0000

> <Gold.PLP.Chemscore.CHOScore>
2.0000

> <Gold.PLP.Chemscore.Metal>
0.0000

> <Gold.Chemscore.Hbonds>
donor molecule, donor type, donor heavy atom, donor atom, acceptor molecule, acceptor atom, score
      L1  H     9    29       P1  7948  1.92
      L1  C     5    26       P1 10747  1.00
      L1  C     7    28       P1 10186  0.69

> <Gold.PLP.Chemscore.Internal.Correction>
0.1934

> <Gold.Rescore>
     Score         DG    S(hbond)    S(metal)    S(lipo)     H(rot)  DE(clash)    DE(int)     intcor
     13.18     -13.97       0.98        0.00      84.42       1.82       0.11       0.68       ----

> <Gold.Chemscore.Fitness>
13.1800

> <Gold.Chemscore.DG>
-13.9707

> <Gold.Chemscore.ZeroCoef>
-5.4800

> <Gold.Chemscore.Hbond>
0.9770

> <Gold.Chemscore.Metal>
0.0000

> <Gold.Chemscore.Lipo>
84.4205

> <Gold.Chemscore.Internal_Hbond>
0.0000

> <Gold.Chemscore.DEClash>
0.1118

> <Gold.Chemscore.DEInternal>
0.6789

> <Gold.Chemscore.Rot>
1.8163

> <Gold.Chemscore.Internal.Correction>
   9.000000E+99

> <Gold.Chemscore.Hbonds>
donor molecule, donor type, donor heavy atom, donor atom, acceptor molecule, acceptor atom, score
      L1  H     9    29       P1  7948  0.91

> <Gold.Chemscore.Hbond.Weighted>
-3.2633

> <Gold.Chemscore.Metal.Weighted>
-0.0000

> <Gold.Chemscore.Lipo.Weighted>
-9.8772

> <Gold.Chemscore.Internal_Hbond.Weighted>
0.0000

> <Gold.Chemscore.DEClash.Weighted>
0.1118

> <Gold.Chemscore.DEInternal.Weighted>
0.6789

> <Gold.Chemscore.Rot.Weighted>
4.6497

> <Gold.Chemscore.Internal.Correction.Weighted>
   9.000000E+99

> <Gold.Protein.RotatedTorsions>
[ 6907 6896 6895 6894 ] final -111.81 input  -60.11 | X-H torsion
[ 7974 7965 7964 7962 ] final  165.16 input  175.53 | X-H torsion
[ 8008 7997 7996 7995 ] final   56.42 input   59.86 | X-H torsion
[ 10167 10162 10161 10158 ] final  -11.06 input  -65.29 | X-H torsion
[ 10718 10713 10712 10709 ] final   97.72 input   66.30 | X-H torsion
[ 10763 10752 10751 10750 ] final   -8.97 input  -60.55 | X-H torsion
[ 11005 11000 10999 10996 ] final -125.66 input  -57.11 | X-H torsion

> <Gold.Protein.ActiveResidues>
 VAL166  LYS551  ARG553  GLY616  TRP617  ASP618  TYR619  PRO620  LYS621  CYS622 
 ASP623  PHE694  ASN695  SER759  ASP760  ASP761  ALA762  ILE779  LEU786  VAL792 
 PHE793  MET794  SER795  GLU796  ALA797  LYS798  CYS799  TRP800  GLU811  SER814 

> <Gold.Protein.RotatedAtoms>
  150.7715  133.9181  159.3389 H   0  0  0  0  0  0  0  0  0  0  0  0  # atno 6907 bound_to 6896
  151.7067  135.0918  160.0270 H   0  0  0  0  0  0  0  0  0  0  0  0  # atno 6908 bound_to 6896
  152.3734  133.6412  159.6141 H   0  0  0  0  0  0  0  0  0  0  0  0  # atno 6909 bound_to 6896
  144.7514  139.8430  143.6365 H   0  0  0  0  0  0  0  0  0  0  0  0  # atno 7974 bound_to 7965
  155.5172  140.3478  155.4399 H   0  0  0  0  0  0  0  0  0  0  0  0  # atno 8008 bound_to 7997
  156.0809  140.1386  156.9740 H   0  0  0  0  0  0  0  0  0  0  0  0  # atno 8009 bound_to 7997
  154.4579  140.0946  156.6787 H   0  0  0  0  0  0  0  0  0  0  0  0  # atno 8010 bound_to 7997
  140.7129  143.5681  150.9123 H   0  0  0  0  0  0  0  0  0  0  0  0  # atno 10167 bound_to 10162
  157.6908  131.0618  150.4687 H   0  0  0  0  0  0  0  0  0  0  0  0  # atno 10718 bound_to 10713
  153.4481  135.7014  153.6126 H   0  0  0  0  0  0  0  0  0  0  0  0  # atno 10763 bound_to 10752
  153.4473  135.3766  155.2263 H   0  0  0  0  0  0  0  0  0  0  0  0  # atno 10764 bound_to 10752
  154.8728  135.3988  154.3889 H   0  0  0  0  0  0  0  0  0  0  0  0  # atno 10765 bound_to 10752
  140.9744  134.0760  157.3834 H   0  0  0  0  0  0  0  0  0  0  0  0  # atno 11005 bound_to 11000
  146.1469  139.4541  143.0073 LP  0  0  0  0  0  0  0  0  0  0  0  0  # atno 17320 bound_to 7965
  145.6931  141.0158  143.1545 LP  0  0  0  0  0  0  0  0  0  0  0  0  # atno 17321 bound_to 7965
  139.9406  143.6386  152.3054 LP  0  0  0  0  0  0  0  0  0  0  0  0  # atno 17342 bound_to 10162
  139.6869  144.7650  151.1507 LP  0  0  0  0  0  0  0  0  0  0  0  0  # atno 17343 bound_to 10162
  156.5027  130.4121  149.6344 LP  0  0  0  0  0  0  0  0  0  0  0  0  # atno 17370 bound_to 10713
  156.3313  130.7333  151.2263 LP  0  0  0  0  0  0  0  0  0  0  0  0  # atno 17371 bound_to 10713
  139.8925  135.0125  156.6848 LP  0  0  0  0  0  0  0  0  0  0  0  0  # atno 17394 bound_to 11000
  140.7281  133.9083  155.8192 LP  0  0  0  0  0  0  0  0  0  0  0  0  # atno 17395 bound_to 11000

$$$$
