AV-unprocessed.smi:1267|AV-procd|sdf|5322|dock7
  -GOLD-   22720 4443D 1   1.00000     0.00000
 Structure written by MMmdl.
 37 38  0  0  0  0  0  0  0  0  1 V2000
  147.1269  132.9558  157.2817 C   0  0  0  0  0  0  0  0  0  0  0  0
  148.7498  133.8139  157.1636 S   0  0  0  0  0  0  0  0  0  0  0  0
  148.5132  135.1741  156.6565 O   0  0  0  0  0  0  0  0  0  0  0  0
  149.4620  133.6246  158.4367 O   0  0  0  0  0  0  0  0  0  0  0  0
  149.6105  132.9301  155.9359 N   0  0  0  0  0  0  0  0  0  0  0  0
  149.5959  131.4535  155.9428 C   0  0  0  0  0  0  0  0  0  0  0  0
  148.6079  130.8892  154.9066 C   0  0  0  0  0  0  0  0  0  0  0  0
  148.8787  131.4547  153.5049 C   0  0  0  0  0  0  0  0  0  0  0  0
  147.8842  130.9428  152.5675 N   0  0  0  0  0  0  0  0  0  0  0  0
  146.5623  131.1635  152.6394 C   0  0  0  0  0  0  0  0  0  0  0  0
  146.0303  131.8246  153.5310 O   0  0  0  0  0  0  0  0  0  0  0  0
  145.7086  130.5433  151.5333 C   0  0  0  0  0  0  0  0  0  0  0  0
  144.9836  131.5650  150.8002 N   0  0  0  0  0  0  0  0  0  0  0  0
  145.1262  131.9343  149.4790 C   0  0  0  0  0  0  0  0  0  0  0  0
  144.2253  132.9312  149.2361 C   0  0  0  0  0  0  0  0  0  0  0  0
  143.5673  133.1039  150.4859 C   0  0  0  0  0  0  0  0  0  0  0  0
  144.0229  132.2853  151.4204 N   0  0  0  0  0  0  0  0  0  0  0  0
  148.8428  132.9916  153.5620 C   0  0  0  0  0  0  0  0  0  0  0  0
  149.8307  133.5369  154.6079 C   0  0  0  0  0  0  0  0  0  0  0  0
  146.5180  133.4507  158.0377 H   0  0  0  0  0  0  0  0  0  0  0  0
  147.2757  131.9177  157.5730 H   0  0  0  0  0  0  0  0  0  0  0  0
  146.6100  133.0054  156.3251 H   0  0  0  0  0  0  0  0  0  0  0  0
  150.6021  131.0989  155.7167 H   0  0  0  0  0  0  0  0  0  0  0  0
  149.3557  131.0807  156.9381 H   0  0  0  0  0  0  0  0  0  0  0  0
  148.6832  129.8013  154.8893 H   0  0  0  0  0  0  0  0  0  0  0  0
  147.5857  131.1169  155.2071 H   0  0  0  0  0  0  0  0  0  0  0  0
  149.8706  131.1289  153.1856 H   0  0  0  0  0  0  0  0  0  0  0  0
  148.2281  130.3923  151.7937 H   0  0  0  0  0  0  0  0  0  0  0  0
  146.3349  129.9742  150.8442 H   0  0  0  0  0  0  0  0  0  0  0  0
  144.9907  129.8447  151.9654 H   0  0  0  0  0  0  0  0  0  0  0  0
  145.8481  131.4610  148.8297 H   0  0  0  0  0  0  0  0  0  0  0  0
  144.0609  133.4563  148.3072 H   0  0  0  0  0  0  0  0  0  0  0  0
  142.7773  133.7954  150.7395 H   0  0  0  0  0  0  0  0  0  0  0  0
  149.0884  133.4101  152.5854 H   0  0  0  0  0  0  0  0  0  0  0  0
  147.8331  133.3307  153.7911 H   0  0  0  0  0  0  0  0  0  0  0  0
  149.7579  134.6224  154.6682 H   0  0  0  0  0  0  0  0  0  0  0  0
  150.8512  133.3148  154.2938 H   0  0  0  0  0  0  0  0  0  0  0  0
  1  2  1  0  0  0  0
  1 20  1  0  0  0  0
  1 21  1  0  0  0  0
  1 22  1  0  0  0  0
  2  3  2  0  0  0  0
  2  4  2  0  0  0  0
  2  5  1  0  0  0  0
  5 19  1  0  0  0  0
  5  6  1  0  0  0  0
  6  7  1  0  0  0  0
  6 23  1  0  0  0  0
  6 24  1  0  0  0  0
  7  8  1  0  0  0  0
  7 25  1  0  0  0  0
  7 26  1  0  0  0  0
  8  9  1  0  0  0  0
  8 18  1  0  0  0  0
  8 27  1  0  0  0  0
  9 10  1  0  0  0  0
  9 28  1  0  0  0  0
 10 11  2  0  0  0  0
 10 12  1  0  0  0  0
 12 13  1  0  0  0  0
 12 29  1  0  0  0  0
 12 30  1  0  0  0  0
 13 17  1  0  0  0  0
 13 14  1  0  0  0  0
 14 15  2  0  0  0  0
 14 31  1  0  0  0  0
 15 16  1  0  0  0  0
 15 32  1  0  0  0  0
 16 17  2  0  0  0  0
 16 33  1  0  0  0  0
 18 19  1  0  0  0  0
 18 34  1  0  0  0  0
 18 35  1  0  0  0  0
 19 36  1  0  0  0  0
 19 37  1  0  0  0  0
M  END
> <s_m_source_file>
AV-unprocessed.smi

> <i_m_source_file_index>
1267

> <i_lp_mmshare_version>
43012

> <i_f3d_flags>
0

> <s_epik_input>
W0NIM11TKD1PKSg9TylOMVtDSDJdW0NIMl1bQ0hdKFtDSDJdW0NIMl0xKVtOSF1DKD1PKVtDSDJdbjJbY0hdW2NIXVtjSF1uMg==

> <s_epik_cmdline>
J2VwaWtfcHl0aG9uJywgJy1waCcsICc3LjAnLCAnLXRuJywgJzgnLCAnLW1hJywgJzIwMCcsICctbWV0YWxfYmluZGluZycsICctaW1hZScsICc8aW5maWxlLm1hZT4nLCAnLW9tYWUnLCAnPG91dGZpbGUubWFlPic=

> <r_lp_tautomer_probability>
1

> <r_epik_Ionization_Penalty>
1.58465e-05

> <r_epik_Ionization_Penalty_Charging>
0

> <r_epik_Ionization_Penalty_Neutral>
1.58465e-05

> <r_epik_State_Penalty>
-0

> <r_epik_Charging_Adjusted_Penalty>
0

> <i_epik_Tot_Q>
0

> <i_epik_Tot_abs_Q>
0

> <r_epik_Metal_State_Penalty>
-0

> <b_epik_Metal_Only>
0

> <s_lp_Force_Field>
OPLS_2005

> <r_lp_Energy>
-1.31745

> <b_lp_Chiralities_Consistent>
1

> <s_lp_Variant>
AV-unprocessed.smi:1267-1

> <Gold.Version>
5.8.1

> <Gold.Id.Protein>
6NUR|6NUR_protein|mol2

> <Gold.PLP.Fitness>
39.1314

> <Gold.PLP.PLP>
-30.3119

> <Gold.PLP.part.hbond>
-1.9168

> <Gold.PLP.part.metal>
0.0000

> <Gold.PLP.part.buried>
-0.8014

> <Gold.PLP.part.nonpolar>
-26.7011

> <Gold.PLP.part.repulsive>
0.3579

> <Gold.PLP.ligand.clash>
0.0000

> <Gold.PLP.ligand.torsion>
1.1169

> <Gold.PLP.Chemscore.Hbond>
2.0000

> <Gold.PLP.Chemscore.CHOScore>
1.0000

> <Gold.PLP.Chemscore.Metal>
0.0000

> <Gold.Chemscore.Hbonds>
donor molecule, donor type, donor heavy atom, donor atom, acceptor molecule, acceptor atom, score
      L1  H     9    28       P1 10747  0.66
      P1  H  6896  6908       L1     4  1.00
      L1  C    16    33       P1 10186  1.00

> <Gold.PLP.Chemscore.Internal.Correction>
2.0533

> <Gold.Rescore>
     Score         DG    S(hbond)    S(metal)    S(lipo)     H(rot)  DE(clash)    DE(int)     intcor
     12.93     -16.27       1.95        0.00      70.02       1.53       0.05       3.28       ----

> <Gold.Chemscore.Fitness>
12.9340

> <Gold.Chemscore.DG>
-16.2688

> <Gold.Chemscore.ZeroCoef>
-5.4800

> <Gold.Chemscore.Hbond>
1.9519

> <Gold.Chemscore.Metal>
0.0000

> <Gold.Chemscore.Lipo>
70.0221

> <Gold.Chemscore.Internal_Hbond>
0.0000

> <Gold.Chemscore.DEClash>
0.0544

> <Gold.Chemscore.DEInternal>
3.2804

> <Gold.Chemscore.Rot>
1.5324

> <Gold.Chemscore.Internal.Correction>
   9.000000E+99

> <Gold.Chemscore.Hbonds>
donor molecule, donor type, donor heavy atom, donor atom, acceptor molecule, acceptor atom, score
      L1  H     9    28       P1 10747  0.64
      P1  H  6896  6908       L1     4  0.95

> <Gold.Chemscore.Hbond.Weighted>
-6.5192

> <Gold.Chemscore.Metal.Weighted>
-0.0000

> <Gold.Chemscore.Lipo.Weighted>
-8.1926

> <Gold.Chemscore.Internal_Hbond.Weighted>
0.0000

> <Gold.Chemscore.DEClash.Weighted>
0.0544

> <Gold.Chemscore.DEInternal.Weighted>
3.2804

> <Gold.Chemscore.Rot.Weighted>
3.9229

> <Gold.Chemscore.Internal.Correction.Weighted>
   9.000000E+99

> <Gold.Protein.RotatedTorsions>
[ 6907 6896 6895 6894 ] final  130.47 input  -60.11 | X-H torsion
[ 7974 7965 7964 7962 ] final  -41.57 input  175.53 | X-H torsion
[ 8008 7997 7996 7995 ] final  115.12 input   59.86 | X-H torsion
[ 10167 10162 10161 10158 ] final   28.82 input  -65.29 | X-H torsion
[ 10718 10713 10712 10709 ] final   73.40 input   66.30 | X-H torsion
[ 10763 10752 10751 10750 ] final  -42.96 input  -60.55 | X-H torsion
[ 11005 11000 10999 10996 ] final  162.47 input  -57.11 | X-H torsion

> <Gold.Protein.ActiveResidues>
 VAL166  LYS551  ARG553  GLY616  TRP617  ASP618  TYR619  PRO620  LYS621  CYS622 
 ASP623  PHE694  ASN695  SER759  ASP760  ASP761  ALA762  ILE779  LEU786  VAL792 
 PHE793  MET794  SER795  GLU796  ALA797  LYS798  CYS799  TRP800  GLU811  SER814 

> <Gold.Protein.RotatedAtoms>
  152.3522  133.6194  159.5953 H   0  0  0  0  0  0  0  0  0  0  0  0  # atno 6907 bound_to 6896
  150.7545  133.9556  159.3508 H   0  0  0  0  0  0  0  0  0  0  0  0  # atno 6908 bound_to 6896
  151.7406  135.0856  160.0366 H   0  0  0  0  0  0  0  0  0  0  0  0  # atno 6909 bound_to 6896
  146.0198  140.6863  142.9184 H   0  0  0  0  0  0  0  0  0  0  0  0  # atno 7974 bound_to 7965
  156.2362  140.2945  156.0320 H   0  0  0  0  0  0  0  0  0  0  0  0  # atno 8008 bound_to 7997
  155.2084  140.0412  157.2946 H   0  0  0  0  0  0  0  0  0  0  0  0  # atno 8009 bound_to 7997
  154.6084  140.2445  155.7708 H   0  0  0  0  0  0  0  0  0  0  0  0  # atno 8010 bound_to 7997
  140.4819  144.0602  150.6268 H   0  0  0  0  0  0  0  0  0  0  0  0  # atno 10167 bound_to 10162
  157.6546  130.9626  150.1064 H   0  0  0  0  0  0  0  0  0  0  0  0  # atno 10718 bound_to 10713
  153.9877  135.6709  153.4752 H   0  0  0  0  0  0  0  0  0  0  0  0  # atno 10763 bound_to 10752
  153.0719  135.4969  154.8320 H   0  0  0  0  0  0  0  0  0  0  0  0  # atno 10764 bound_to 10752
  154.7127  135.3101  154.9133 H   0  0  0  0  0  0  0  0  0  0  0  0  # atno 10765 bound_to 10752
  140.2261  134.8159  157.3270 H   0  0  0  0  0  0  0  0  0  0  0  0  # atno 11005 bound_to 11000
  144.6985  140.3546  143.7175 LP  0  0  0  0  0  0  0  0  0  0  0  0  # atno 17320 bound_to 7965
  145.7211  139.1710  143.2484 LP  0  0  0  0  0  0  0  0  0  0  0  0  # atno 17321 bound_to 7965
  140.3847  143.2784  152.0130 LP  0  0  0  0  0  0  0  0  0  0  0  0  # atno 17342 bound_to 10162
  139.4835  144.6126  151.7405 LP  0  0  0  0  0  0  0  0  0  0  0  0  # atno 17343 bound_to 10162
  156.1972  130.3658  149.8833 LP  0  0  0  0  0  0  0  0  0  0  0  0  # atno 17370 bound_to 10713
  156.6746  130.8834  151.3567 LP  0  0  0  0  0  0  0  0  0  0  0  0  # atno 17371 bound_to 10713
  140.1799  134.4503  155.7779 LP  0  0  0  0  0  0  0  0  0  0  0  0  # atno 17394 bound_to 11000
  141.2220  133.6979  156.7850 LP  0  0  0  0  0  0  0  0  0  0  0  0  # atno 17395 bound_to 11000

$$$$
