AV-unprocessed.smi:54|AV-procd|sdf|556|dock4
  -GOLD-   2262016453D 1   1.00000     0.00000
 Structure written by MMmdl.
 43 45  0  0  0  0  0  0  0  0  2 V2000
  147.4852  135.0205  162.3899 C   0  0  0  0  0  0  0  0  0  0  0  0
  146.9518  136.1499  161.4933 C   0  0  0  0  0  0  0  0  0  0  0  0
  145.5211  135.8535  161.0138 C   0  0  0  0  0  0  0  0  0  0  0  0
  147.8885  136.3837  160.2996 C   0  0  0  0  0  0  0  0  0  0  0  0
  148.3981  137.4957  160.1456 O   0  0  0  0  0  0  0  0  0  0  0  0
  148.0648  135.3177  159.4881 N   0  0  0  0  0  0  0  0  0  0  0  0
  148.8194  135.2193  158.3140 C   0  0  0  0  0  0  0  0  0  0  0  0
  148.9299  136.3599  157.6790 N   0  0  0  0  0  0  0  0  0  0  0  0
  149.6775  136.2583  156.5218 C   0  0  0  0  0  0  0  0  0  0  0  0
  150.2605  135.1348  156.0018 C   0  0  0  0  0  0  0  0  0  0  0  0
  150.9379  135.4124  154.8206 N   0  0  0  0  0  0  0  0  0  0  0  0
  150.7281  136.7200  154.6808 C   0  0  0  0  0  0  0  0  0  0  0  0
  149.9897  137.2976  155.6488 N   0  0  0  0  0  0  0  0  0  0  0  0
  149.6150  138.7431  155.7292 C   0  0  1  0  0  0  0  0  0  0  0  0
  150.0851  139.2463  156.9404 O   0  0  0  0  0  0  0  0  0  0  0  0
  150.5969  140.5552  156.7437 C   0  0  1  0  0  0  0  0  0  0  0  0
  151.5551  140.9376  157.8856 C   0  0  0  0  0  0  0  0  0  0  0  0
  152.7157  140.1344  157.8448 O   0  0  0  0  0  0  0  0  0  0  0  0
  151.1756  140.5303  155.3203 C   0  0  1  0  0  0  0  0  0  0  0  0
  152.5180  140.0847  155.3003 O   0  0  0  0  0  0  0  0  0  0  0  0
  150.2697  139.5436  154.5881 C   0  0  2  0  0  0  0  0  0  0  0  0
  149.2963  140.2548  153.8491 O   0  0  0  0  0  0  0  0  0  0  0  0
  150.0758  133.8727  156.7567 C   0  0  0  0  0  0  0  0  0  0  0  0
  150.5754  132.8371  156.3214 O   0  0  0  0  0  0  0  0  0  0  0  0
  149.3417  133.9764  157.9046 N   0  5  0  0  0  0  0  0  0  0  0  0
  148.5241  138.7530  155.7057 H   0  0  0  0  0  0  0  0  0  0  0  0
  149.7386  141.2296  156.7559 H   0  0  0  0  0  0  0  0  0  0  0  0
  151.1605  141.5244  154.8710 H   0  0  0  0  0  0  0  0  0  0  0  0
  150.8221  138.8906  153.9097 H   0  0  0  0  0  0  0  0  0  0  0  0
  148.5023  135.2277  162.7250 H   0  0  0  0  0  0  0  0  0  0  0  0
  147.4950  134.0632  161.8673 H   0  0  0  0  0  0  0  0  0  0  0  0
  146.8660  134.9043  163.2796 H   0  0  0  0  0  0  0  0  0  0  0  0
  146.9202  137.0625  162.0910 H   0  0  0  0  0  0  0  0  0  0  0  0
  145.1452  136.6517  160.3728 H   0  0  0  0  0  0  0  0  0  0  0  0
  144.8384  135.7639  161.8592 H   0  0  0  0  0  0  0  0  0  0  0  0
  145.4713  134.9214  160.4497 H   0  0  0  0  0  0  0  0  0  0  0  0
  147.5133  134.5078  159.7285 H   0  0  0  0  0  0  0  0  0  0  0  0
  151.1271  137.2779  153.8464 H   0  0  0  0  0  0  0  0  0  0  0  0
  151.8568  141.9799  157.7799 H   0  0  0  0  0  0  0  0  0  0  0  0
  151.0752  140.8471  158.8606 H   0  0  0  0  0  0  0  0  0  0  0  0
  153.3377  140.5366  157.2577 H   0  0  0  0  0  0  0  0  0  0  0  0
  152.5277  139.1790  155.0312 H   0  0  0  0  0  0  0  0  0  0  0  0
  149.4313  140.0802  152.9305 H   0  0  0  0  0  0  0  0  0  0  0  0
  1  2  1  0  0  0  0
  1 30  1  0  0  0  0
  1 31  1  0  0  0  0
  1 32  1  0  0  0  0
  2  3  1  0  0  0  0
  2  4  1  0  0  0  0
  2 33  1  0  0  0  0
  3 34  1  0  0  0  0
  3 35  1  0  0  0  0
  3 36  1  0  0  0  0
  4  5  2  0  0  0  0
  4  6  1  0  0  0  0
  6 37  1  0  0  0  0
  6  7  1  0  0  0  0
  7 25  1  0  0  0  0
  7  8  2  0  0  0  0
  8  9  1  0  0  0  0
  9 13  1  0  0  0  0
  9 10  2  0  0  0  0
 10 11  1  0  0  0  0
 10 23  1  0  0  0  0
 11 12  2  0  0  0  0
 12 13  1  0  0  0  0
 12 38  1  0  0  0  0
 13 14  1  0  0  0  0
 14 26  1  0  0  0  0
 14 21  1  0  0  0  0
 14 15  1  0  0  0  0
 15 16  1  0  0  0  0
 16 27  1  0  0  0  0
 16 17  1  0  0  0  0
 16 19  1  0  0  0  0
 17 18  1  0  0  0  0
 17 39  1  0  0  0  0
 17 40  1  0  0  0  0
 18 41  1  0  0  0  0
 19 28  1  0  0  0  0
 19 20  1  0  0  0  0
 19 21  1  0  0  0  0
 20 42  1  0  0  0  0
 21 29  1  0  0  0  0
 21 22  1  0  0  0  0
 22 43  1  0  0  0  0
 23 24  2  0  0  0  0
 23 25  1  0  0  0  0
M  CHG  1  25  -1
M  END
> <s_m_source_file>
AV-unprocessed.smi

> <i_m_source_file_index>
54

> <i_lp_mmshare_version>
43012

> <i_f3d_flags>
0

> <s_epik_input>
W0NIM11bQ0hdKFtDSDNdKUMoPU8pW05IXWMobjEpW25IXWMoPU8pYyhjMTIpbltjSF1uMltDQEBIXTNPW0NASF0oW0NIMl1bT0hdKVtDQEBIXShbT0hdKVtDQEhdM1tPSF0=

> <s_epik_cmdline>
J2VwaWtfcHl0aG9uJywgJy1waCcsICc3LjAnLCAnLXRuJywgJzgnLCAnLW1hJywgJzIwMCcsICctbWV0YWxfYmluZGluZycsICctaW1hZScsICc8aW5maWxlLm1hZT4nLCAnLW9tYWUnLCAnPG91dGZpbGUubWFlPic=

> <r_lp_tautomer_probability>
0.85571

> <r_epik_Ionization_Penalty>
1.75936

> <r_epik_Ionization_Penalty_Charging>
4.55893e-11

> <r_epik_Ionization_Penalty_Neutral>
1.75936

> <r_epik_State_Penalty>
1.72072

> <r_epik_Charging_Adjusted_Penalty>
1.72072

> <i_epik_Tot_Q>
-1

> <i_epik_Tot_abs_Q>
1

> <r_epik_Metal_State_Penalty>
0.400338

> <b_epik_Metal_Only>
1

> <s_epik_Chemistry_Notes>
This compound contains an acetal/aminal-like group ( X-CH(R)-Y where X, Y are N, S, or O) that may be acid/base labile, releasing an aldehyde.

> <s_lp_Force_Field>
OPLS_2005

> <r_lp_Energy>
57.3422

> <b_lp_Chiralities_Consistent>
1

> <s_lp_Variant>
AV-unprocessed.smi:54-28

> <Gold.Version>
5.8.1

> <Gold.Id.Protein>
6NUR|6NUR_protein|mol2

> <Gold.PLP.Fitness>
47.3848

> <Gold.PLP.PLP>
-29.7721

> <Gold.PLP.part.hbond>
-8.5416

> <Gold.PLP.part.metal>
0.0000

> <Gold.PLP.part.buried>
1.9254

> <Gold.PLP.part.nonpolar>
-22.0865

> <Gold.PLP.part.repulsive>
0.2381

> <Gold.PLP.ligand.clash>
0.0000

> <Gold.PLP.ligand.torsion>
0.2245

> <Gold.PLP.Chemscore.Hbond>
5.5824

> <Gold.PLP.Chemscore.CHOScore>
0.4271

> <Gold.PLP.Chemscore.Metal>
0.0000

> <Gold.Chemscore.Hbonds>
donor molecule, donor type, donor heavy atom, donor atom, acceptor molecule, acceptor atom, score
      L1  H    22    43       P1  7957  1.00
      P1  H  6896  6909       L1    25  1.90
      P1  H  6931  6943       L1     5  0.48
      P1  H  6934  6947       L1     5  0.41
      P1  H  7997  8008       L1    20  0.90
      P1  H 10752 10765       L1    11  0.72
      L1  C    12    38       P1  7949  0.44

> <Gold.PLP.Chemscore.Internal.Correction>
0.0331

> <Gold.Rescore>
     Score         DG    S(hbond)    S(metal)    S(lipo)     H(rot)  DE(clash)    DE(int)     intcor
      8.69     -10.49       2.93        0.00      47.04       4.02       0.13       1.68       ----

> <Gold.Chemscore.Fitness>
8.6856

> <Gold.Chemscore.DG>
-10.4933

> <Gold.Chemscore.ZeroCoef>
-5.4800

> <Gold.Chemscore.Hbond>
2.9339

> <Gold.Chemscore.Metal>
0.0000

> <Gold.Chemscore.Lipo>
47.0365

> <Gold.Chemscore.Internal_Hbond>
0.0000

> <Gold.Chemscore.DEClash>
0.1251

> <Gold.Chemscore.DEInternal>
1.6826

> <Gold.Chemscore.Rot>
4.0192

> <Gold.Chemscore.Internal.Correction>
   9.000000E+99

> <Gold.Chemscore.Hbonds>
donor molecule, donor type, donor heavy atom, donor atom, acceptor molecule, acceptor atom, score
      L1  H    22    43       P1  7957  1.00
      P1  H  6896  6909       L1    25  0.05
      P1  H  6931  6943       L1     5  0.38
      P1  H  6934  6947       L1     5  0.34
      P1  H  7997  8008       L1    20  0.17
      P1  H 10752 10765       L1    11  0.08

> <Gold.Chemscore.Hbond.Weighted>
-9.7993

> <Gold.Chemscore.Metal.Weighted>
-0.0000

> <Gold.Chemscore.Lipo.Weighted>
-5.5033

> <Gold.Chemscore.Internal_Hbond.Weighted>
0.0000

> <Gold.Chemscore.DEClash.Weighted>
0.1251

> <Gold.Chemscore.DEInternal.Weighted>
1.6826

> <Gold.Chemscore.Rot.Weighted>
10.2893

> <Gold.Chemscore.Internal.Correction.Weighted>
   9.000000E+99

> <Gold.Protein.RotatedTorsions>
[ 6907 6896 6895 6894 ] final   -3.46 input  -60.11 | X-H torsion
[ 7974 7965 7964 7962 ] final  118.85 input  175.53 | X-H torsion
[ 8008 7997 7996 7995 ] final  -16.38 input   59.86 | X-H torsion
[ 10167 10162 10161 10158 ] final   81.86 input  -65.29 | X-H torsion
[ 10718 10713 10712 10709 ] final -122.39 input   66.30 | X-H torsion
[ 10763 10752 10751 10750 ] final -171.46 input  -60.55 | X-H torsion
[ 11005 11000 10999 10996 ] final  102.69 input  -57.11 | X-H torsion

> <Gold.Protein.ActiveResidues>
 VAL166  LYS551  ARG553  GLY616  TRP617  ASP618  TYR619  PRO620  LYS621  CYS622 
 ASP623  PHE694  ASN695  SER759  ASP760  ASP761  ALA762  ILE779  LEU786  VAL792 
 PHE793  MET794  SER795  GLU796  ALA797  LYS798  CYS799  TRP800  GLU811  SER814 

> <Gold.Protein.RotatedAtoms>
  151.5134  135.1065  159.9859 H   0  0  0  0  0  0  0  0  0  0  0  0  # atno 6907 bound_to 6896
  152.4652  133.7903  159.6909 H   0  0  0  0  0  0  0  0  0  0  0  0  # atno 6908 bound_to 6896
  150.8632  133.7549  159.3011 H   0  0  0  0  0  0  0  0  0  0  0  0  # atno 6909 bound_to 6896
  145.1503  139.3215  143.4570 H   0  0  0  0  0  0  0  0  0  0  0  0  # atno 7974 bound_to 7965
  154.5057  140.2171  155.9255 H   0  0  0  0  0  0  0  0  0  0  0  0  # atno 8008 bound_to 7997
  156.1491  140.3165  155.8585 H   0  0  0  0  0  0  0  0  0  0  0  0  # atno 8009 bound_to 7997
  155.3974  140.0482  157.3029 H   0  0  0  0  0  0  0  0  0  0  0  0  # atno 8010 bound_to 7997
  139.9348  144.6128  150.8309 H   0  0  0  0  0  0  0  0  0  0  0  0  # atno 10167 bound_to 10162
  156.1415  130.6469  150.9778 H   0  0  0  0  0  0  0  0  0  0  0  0  # atno 10718 bound_to 10713
  154.6303  135.2886  155.0224 H   0  0  0  0  0  0  0  0  0  0  0  0  # atno 10763 bound_to 10752
  154.1387  135.6522  153.4941 H   0  0  0  0  0  0  0  0  0  0  0  0  # atno 10764 bound_to 10752
  153.0276  135.5328  154.7127 H   0  0  0  0  0  0  0  0  0  0  0  0  # atno 10765 bound_to 10752
  139.8779  134.9234  156.5096 H   0  0  0  0  0  0  0  0  0  0  0  0  # atno 11005 bound_to 11000
  146.3495  140.1574  142.8591 LP  0  0  0  0  0  0  0  0  0  0  0  0  # atno 17320 bound_to 7965
  145.0438  140.8966  143.5036 LP  0  0  0  0  0  0  0  0  0  0  0  0  # atno 17321 bound_to 7965
  140.7627  143.3206  151.2632 LP  0  0  0  0  0  0  0  0  0  0  0  0  # atno 17342 bound_to 10162
  139.6752  143.9949  152.2777 LP  0  0  0  0  0  0  0  0  0  0  0  0  # atno 17343 bound_to 10162
  157.6580  131.0886  150.7904 LP  0  0  0  0  0  0  0  0  0  0  0  0  # atno 17370 bound_to 10713
  156.7979  130.4911  149.5374 LP  0  0  0  0  0  0  0  0  0  0  0  0  # atno 17371 bound_to 10713
  140.8530  133.8117  155.9188 LP  0  0  0  0  0  0  0  0  0  0  0  0  # atno 17394 bound_to 11000
  140.9125  134.2242  157.4977 LP  0  0  0  0  0  0  0  0  0  0  0  0  # atno 17395 bound_to 11000

$$$$
