AV-unprocessed.smi:3308|AV-procd|sdf|12710|dock4
  -GOLD-   2272019 43D 1   1.00000     0.00000
 Structure written by MMmdl.
 41 42  0  0  0  0  0  0  0  0  2 V2000
  148.6364  139.8191  155.5219 C   0  0  0  0  0  0  0  0  0  0  0  0
  148.9081  141.2550  155.0474 C   0  0  2  0  0  0  0  0  0  0  0  0
  149.4558  142.0607  156.1628 N   0  3  0  0  0  0  0  0  0  0  0  0
  150.9289  142.0317  156.2902 C   0  0  0  0  0  0  0  0  0  0  0  0
  151.3920  141.2478  157.5259 C   0  0  0  0  0  0  0  0  0  0  0  0
  151.1114  140.0526  157.6306 O   0  0  0  0  0  0  0  0  0  0  0  0
  152.0957  141.9061  158.4695 N   0  0  0  0  0  0  0  0  0  0  0  0
  152.6067  141.2755  159.6850 C   0  0  0  0  0  0  0  0  0  0  0  0
  153.5613  142.2936  160.3089 C   0  0  0  0  0  0  0  0  0  0  0  0
  153.0594  143.6373  159.7990 C   0  0  0  0  0  0  0  0  0  0  0  0
  152.4624  143.3216  158.4269 C   0  0  0  0  0  0  0  0  0  0  0  0
  147.6617  141.9278  154.4144 C   0  0  1  0  0  0  0  0  0  0  0  0
  147.0660  141.1549  153.2180 C   0  0  0  0  0  0  0  0  0  0  0  0
  146.6519  142.2284  155.4245 N   0  0  0  0  0  0  0  0  0  0  0  0
  145.2878  142.0373  155.3410 C   0  0  0  0  0  0  0  0  0  0  0  0
  144.7355  142.5063  156.4982 C   0  0  0  0  0  0  0  0  0  0  0  0
  145.8528  142.9849  157.2367 C   0  0  0  0  0  0  0  0  0  0  0  0
  146.9953  142.8274  156.5887 N   0  0  0  0  0  0  0  0  0  0  0  0
  148.2222  139.2106  154.7175 H   0  0  0  0  0  0  0  0  0  0  0  0
  147.9359  139.7918  156.3567 H   0  0  0  0  0  0  0  0  0  0  0  0
  149.5574  139.3384  155.8532 H   0  0  0  0  0  0  0  0  0  0  0  0
  149.6689  141.1776  154.2682 H   0  0  0  0  0  0  0  0  0  0  0  0
  149.1689  143.0203  156.0281 H   0  0  0  0  0  0  0  0  0  0  0  0
  151.3507  141.5840  155.3896 H   0  0  0  0  0  0  0  0  0  0  0  0
  151.3065  143.0522  156.3617 H   0  0  0  0  0  0  0  0  0  0  0  0
  151.7715  141.0712  160.3568 H   0  0  0  0  0  0  0  0  0  0  0  0
  153.1145  140.3320  159.4785 H   0  0  0  0  0  0  0  0  0  0  0  0
  153.5882  142.2371  161.3975 H   0  0  0  0  0  0  0  0  0  0  0  0
  154.5732  142.1193  159.9405 H   0  0  0  0  0  0  0  0  0  0  0  0
  152.2768  144.0089  160.4620 H   0  0  0  0  0  0  0  0  0  0  0  0
  153.8447  144.3924  159.7542 H   0  0  0  0  0  0  0  0  0  0  0  0
  153.2067  143.4750  157.6443 H   0  0  0  0  0  0  0  0  0  0  0  0
  151.6072  143.9655  158.2170 H   0  0  0  0  0  0  0  0  0  0  0  0
  147.9850  142.8937  154.0231 H   0  0  0  0  0  0  0  0  0  0  0  0
  147.7775  141.0796  152.3961 H   0  0  0  0  0  0  0  0  0  0  0  0
  146.1833  141.6640  152.8292 H   0  0  0  0  0  0  0  0  0  0  0  0
  146.7677  140.1422  153.4906 H   0  0  0  0  0  0  0  0  0  0  0  0
  144.8271  141.5878  154.4736 H   0  0  0  0  0  0  0  0  0  0  0  0
  143.6914  142.5098  156.7742 H   0  0  0  0  0  0  0  0  0  0  0  0
  145.8671  143.4439  158.2141 H   0  0  0  0  0  0  0  0  0  0  0  0
  149.0585  141.7297  157.0303 H   0  0  0  0  0  0  0  0  0  0  0  0
  1  2  1  0  0  0  0
  1 19  1  0  0  0  0
  1 20  1  0  0  0  0
  1 21  1  0  0  0  0
  2  3  1  0  0  0  0
  2 12  1  0  0  0  0
  2 22  1  0  0  0  0
  3  4  1  0  0  0  0
  3 23  1  0  0  0  0
  3 41  1  0  0  0  0
  4  5  1  0  0  0  0
  4 24  1  0  0  0  0
  4 25  1  0  0  0  0
  5  6  2  0  0  0  0
  5  7  1  0  0  0  0
  7 11  1  0  0  0  0
  7  8  1  0  0  0  0
  8  9  1  0  0  0  0
  8 26  1  0  0  0  0
  8 27  1  0  0  0  0
  9 10  1  0  0  0  0
  9 28  1  0  0  0  0
  9 29  1  0  0  0  0
 10 11  1  0  0  0  0
 10 30  1  0  0  0  0
 10 31  1  0  0  0  0
 11 32  1  0  0  0  0
 11 33  1  0  0  0  0
 12 13  1  0  0  0  0
 12 14  1  0  0  0  0
 12 34  1  0  0  0  0
 13 35  1  0  0  0  0
 13 36  1  0  0  0  0
 13 37  1  0  0  0  0
 14 18  1  0  0  0  0
 14 15  1  0  0  0  0
 15 16  2  0  0  0  0
 15 38  1  0  0  0  0
 16 17  1  0  0  0  0
 16 39  1  0  0  0  0
 17 18  2  0  0  0  0
 17 40  1  0  0  0  0
M  CHG  1   3   1
M  END
> <s_m_source_file>
AV-unprocessed.smi

> <i_m_source_file_index>
3308

> <i_lp_mmshare_version>
43012

> <i_f3d_flags>
0

> <s_epik_input>
bjFbY0hdW2NIXVtjSF1uMVtDQEBIXShbQ0gzXSlbQ0BIXShbQ0gzXSlbTkhdW0NIMl1DKD1PKU4yW0NIMl1bQ0gyXVtDSDJdW0NIMl0y

> <s_epik_cmdline>
J2VwaWtfcHl0aG9uJywgJy1waCcsICc3LjAnLCAnLXRuJywgJzgnLCAnLW1hJywgJzIwMCcsICctbWV0YWxfYmluZGluZycsICctaW1hZScsICc8aW5maWxlLm1hZT4nLCAnLW9tYWUnLCAnPG91dGZpbGUubWFlPic=

> <r_lp_tautomer_probability>
1

> <r_epik_Ionization_Penalty>
0.141739

> <r_epik_Ionization_Penalty_Charging>
0.141731

> <r_epik_Ionization_Penalty_Neutral>
8.82171e-06

> <r_epik_State_Penalty>
0.131043

> <r_epik_Charging_Adjusted_Penalty>
0.272773

> <i_epik_Tot_Q>
1

> <i_epik_Tot_abs_Q>
1

> <r_epik_Metal_State_Penalty>
0.131385

> <b_epik_Metal_Only>
0

> <s_lp_Force_Field>
OPLS_2005

> <r_lp_Energy>
34.1001

> <b_lp_Chiralities_Consistent>
1

> <s_lp_Variant>
AV-unprocessed.smi:3308-3

> <Gold.Version>
5.8.1

> <Gold.Id.Protein>
6NUR|6NUR_protein|mol2

> <Gold.PLP.Fitness>
41.6125

> <Gold.PLP.PLP>
-34.5108

> <Gold.PLP.part.hbond>
-1.0000

> <Gold.PLP.part.metal>
0.0000

> <Gold.PLP.part.buried>
-5.7626

> <Gold.PLP.part.nonpolar>
-29.0354

> <Gold.PLP.part.repulsive>
0.7429

> <Gold.PLP.ligand.clash>
0.0000

> <Gold.PLP.ligand.torsion>
1.0348

> <Gold.PLP.Chemscore.Hbond>
2.0000

> <Gold.PLP.Chemscore.CHOScore>
1.0000

> <Gold.PLP.Chemscore.Metal>
0.0000

> <Gold.Chemscore.Hbonds>
donor molecule, donor type, donor heavy atom, donor atom, acceptor molecule, acceptor atom, score
      L1  H     3    23       P1  8028  2.00
      L1  C    15    38       P1 10175  1.00

> <Gold.PLP.Chemscore.Internal.Correction>
0.1712

> <Gold.Rescore>
     Score         DG    S(hbond)    S(metal)    S(lipo)     H(rot)  DE(clash)    DE(int)     intcor
     11.81     -14.20       1.00        0.00      85.17       1.78       0.09       2.31       ----

> <Gold.Chemscore.Fitness>
11.8123

> <Gold.Chemscore.DG>
-14.2036

> <Gold.Chemscore.ZeroCoef>
-5.4800

> <Gold.Chemscore.Hbond>
0.9955

> <Gold.Chemscore.Metal>
0.0000

> <Gold.Chemscore.Lipo>
85.1684

> <Gold.Chemscore.Internal_Hbond>
0.0000

> <Gold.Chemscore.DEClash>
0.0856

> <Gold.Chemscore.DEInternal>
2.3057

> <Gold.Chemscore.Rot>
1.7836

> <Gold.Chemscore.Internal.Correction>
   9.000000E+99

> <Gold.Chemscore.Hbonds>
donor molecule, donor type, donor heavy atom, donor atom, acceptor molecule, acceptor atom, score
      L1  H     3    23       P1  8028  1.00

> <Gold.Chemscore.Hbond.Weighted>
-3.3249

> <Gold.Chemscore.Metal.Weighted>
-0.0000

> <Gold.Chemscore.Lipo.Weighted>
-9.9647

> <Gold.Chemscore.Internal_Hbond.Weighted>
0.0000

> <Gold.Chemscore.DEClash.Weighted>
0.0856

> <Gold.Chemscore.DEInternal.Weighted>
2.3057

> <Gold.Chemscore.Rot.Weighted>
4.5660

> <Gold.Chemscore.Internal.Correction.Weighted>
   9.000000E+99

> <Gold.Protein.RotatedTorsions>
[ 6907 6896 6895 6894 ] final   54.55 input  -60.11 | X-H torsion
[ 7974 7965 7964 7962 ] final -168.47 input  175.53 | X-H torsion
[ 8008 7997 7996 7995 ] final   14.48 input   59.86 | X-H torsion
[ 10167 10162 10161 10158 ] final  -59.26 input  -65.29 | X-H torsion
[ 10718 10713 10712 10709 ] final  101.25 input   66.30 | X-H torsion
[ 10763 10752 10751 10750 ] final -125.50 input  -60.55 | X-H torsion
[ 11005 11000 10999 10996 ] final  135.31 input  -57.11 | X-H torsion

> <Gold.Protein.ActiveResidues>
 VAL166  LYS551  ARG553  GLY616  TRP617  ASP618  TYR619  PRO620  LYS621  CYS622 
 ASP623  PHE694  ASN695  SER759  ASP760  ASP761  ALA762  ILE779  LEU786  VAL792 
 PHE793  MET794  SER795  GLU796  ALA797  LYS798  CYS799  TRP800  GLU811  SER814 

> <Gold.Protein.RotatedAtoms>
  152.3450  134.7083  160.0252 H   0  0  0  0  0  0  0  0  0  0  0  0  # atno 6907 bound_to 6896
  151.7456  133.3319  159.3385 H   0  0  0  0  0  0  0  0  0  0  0  0  # atno 6908 bound_to 6896
  150.7503  134.6172  159.6161 H   0  0  0  0  0  0  0  0  0  0  0  0  # atno 6909 bound_to 6896
  144.7202  140.2365  143.6297 H   0  0  0  0  0  0  0  0  0  0  0  0  # atno 7974 bound_to 7965
  154.8491  140.2927  155.5610 H   0  0  0  0  0  0  0  0  0  0  0  0  # atno 8008 bound_to 7997
  156.3015  140.2499  156.3379 H   0  0  0  0  0  0  0  0  0  0  0  0  # atno 8009 bound_to 7997
  154.9041  140.0390  157.1899 H   0  0  0  0  0  0  0  0  0  0  0  0  # atno 8010 bound_to 7997
  140.6146  143.2398  151.5628 H   0  0  0  0  0  0  0  0  0  0  0  0  # atno 10167 bound_to 10162
  157.6834  131.0721  150.5224 H   0  0  0  0  0  0  0  0  0  0  0  0  # atno 10718 bound_to 10713
  154.8736  135.4027  154.3279 H   0  0  0  0  0  0  0  0  0  0  0  0  # atno 10763 bound_to 10752
  153.4097  135.7020  153.6373 H   0  0  0  0  0  0  0  0  0  0  0  0  # atno 10764 bound_to 10752
  153.5081  135.3713  155.2544 H   0  0  0  0  0  0  0  0  0  0  0  0  # atno 10765 bound_to 10752
  139.9971  134.9493  156.9989 H   0  0  0  0  0  0  0  0  0  0  0  0  # atno 11005 bound_to 11000
  145.8361  139.2108  143.1854 LP  0  0  0  0  0  0  0  0  0  0  0  0  # atno 17320 bound_to 7965
  146.0388  140.8186  142.9839 LP  0  0  0  0  0  0  0  0  0  0  0  0  # atno 17321 bound_to 7965
  139.5388  144.2705  152.1308 LP  0  0  0  0  0  0  0  0  0  0  0  0  # atno 17342 bound_to 10162
  140.1911  144.4750  150.6478 LP  0  0  0  0  0  0  0  0  0  0  0  0  # atno 17343 bound_to 10162
  156.5537  130.4238  149.6095 LP  0  0  0  0  0  0  0  0  0  0  0  0  # atno 17370 bound_to 10713
  156.2881  130.7108  151.1950 LP  0  0  0  0  0  0  0  0  0  0  0  0  # atno 17371 bound_to 10713
  140.4797  134.1302  155.7215 LP  0  0  0  0  0  0  0  0  0  0  0  0  # atno 17394 bound_to 11000
  141.1613  133.8787  157.1840 LP  0  0  0  0  0  0  0  0  0  0  0  0  # atno 17395 bound_to 11000

$$$$
