AV-unprocessed.smi:3261|AV-procd|sdf|12483|dock10
  -GOLD-   2272018383D 1   1.00000     0.00000
 Structure written by MMmdl.
 30 31  0  0  0  0  0  0  0  0  3 V2000
  147.0698  132.5751  153.8010 O   0  0  0  0  0  0  0  0  0  0  0  0
  147.6909  131.9818  152.9207 C   0  0  0  0  0  0  0  0  0  0  0  0
  147.1421  131.8827  151.6847 N   0  0  0  0  0  0  0  0  0  0  0  0
  145.8717  132.3304  151.2325 C   0  0  0  0  0  0  0  0  0  0  0  0
  145.5878  132.2210  149.8533 C   0  0  0  0  0  0  0  0  0  0  0  0
  144.3309  132.6358  149.3684 C   0  0  0  0  0  0  0  0  0  0  0  0
  143.4057  133.1198  150.2251 N   0  3  0  0  0  0  0  0  0  0  0  0
  143.6243  133.2239  151.5537 C   0  0  0  0  0  0  0  0  0  0  0  0
  144.8625  132.8250  152.0964 C   0  0  0  0  0  0  0  0  0  0  0  0
  148.9259  131.4455  153.1623 N   0  5  0  0  0  0  0  0  0  0  0  0
  150.0832  132.0410  153.8539 C   0  0  1  0  0  0  0  0  0  0  0  0
  149.6771  133.4153  154.4306 C   0  0  0  0  0  0  0  0  0  0  0  0
  148.9106  133.2143  155.7450 C   0  0  0  0  0  0  0  0  0  0  0  0
  149.6875  131.7598  156.5383 S   0  0  0  0  0  0  0  0  0  0  0  0
  150.7121  132.2184  157.4896 O   0  0  0  0  0  0  0  0  0  0  0  0
  148.6399  130.8163  156.9590 O   0  0  0  0  0  0  0  0  0  0  0  0
  150.5234  131.1373  155.0240 C   0  0  0  0  0  0  0  0  0  0  0  0
  147.7456  131.4940  150.9750 H   0  0  0  0  0  0  0  0  0  0  0  0
  146.3287  131.8309  149.1704 H   0  0  0  0  0  0  0  0  0  0  0  0
  144.0394  132.5929  148.3293 H   0  0  0  0  0  0  0  0  0  0  0  0
  142.8060  133.6141  152.1408 H   0  0  0  0  0  0  0  0  0  0  0  0
  145.0153  132.8933  153.1631 H   0  0  0  0  0  0  0  0  0  0  0  0
  150.9215  132.1787  153.1690 H   0  0  0  0  0  0  0  0  0  0  0  0
  150.5861  133.9774  154.6478 H   0  0  0  0  0  0  0  0  0  0  0  0
  149.1071  134.0137  153.7185 H   0  0  0  0  0  0  0  0  0  0  0  0
  148.9610  134.0784  156.4069 H   0  0  0  0  0  0  0  0  0  0  0  0
  147.8611  132.9809  155.5568 H   0  0  0  0  0  0  0  0  0  0  0  0
  150.2897  130.0825  154.8767 H   0  0  0  0  0  0  0  0  0  0  0  0
  151.5979  131.2233  155.1851 H   0  0  0  0  0  0  0  0  0  0  0  0
  142.5018  133.4134  149.8541 H   0  0  0  0  0  0  0  0  0  0  0  0
  1  2  2  0  0  0  0
  2  3  1  0  0  0  0
  2 10  1  0  0  0  0
  3  4  1  0  0  0  0
  3 18  1  0  0  0  0
  4  9  1  0  0  0  0
  4  5  2  0  0  0  0
  5  6  1  0  0  0  0
  5 19  1  0  0  0  0
  6  7  2  0  0  0  0
  6 20  1  0  0  0  0
  7  8  1  0  0  0  0
  7 30  1  0  0  0  0
  8  9  2  0  0  0  0
  8 21  1  0  0  0  0
  9 22  1  0  0  0  0
 10 11  1  0  0  0  0
 11 17  1  0  0  0  0
 11 12  1  0  0  0  0
 11 23  1  0  0  0  0
 12 13  1  0  0  0  0
 12 24  1  0  0  0  0
 12 25  1  0  0  0  0
 13 14  1  0  0  0  0
 13 26  1  0  0  0  0
 13 27  1  0  0  0  0
 14 15  2  0  0  0  0
 14 16  2  0  0  0  0
 14 17  1  0  0  0  0
 17 28  1  0  0  0  0
 17 29  1  0  0  0  0
M  CHG  1   7   1
M  CHG  1  10  -1
M  END
> <s_m_source_file>
AV-unprocessed.smi

> <i_m_source_file_index>
3261

> <i_lp_mmshare_version>
43012

> <i_f3d_flags>
0

> <s_epik_input>
Tz1TMSg9TylbQ0gyXVtDSDJdW0NASF0oW0NIMl0xKVtOSF1DKD1PKVtOSF1jMltjSF1bY0hdbltjSF1bY0hdMg==

> <s_epik_cmdline>
J2VwaWtfcHl0aG9uJywgJy1waCcsICc3LjAnLCAnLXRuJywgJzgnLCAnLW1hJywgJzIwMCcsICctbWV0YWxfYmluZGluZycsICctaW1hZScsICc8aW5maWxlLm1hZT4nLCAnLW9tYWUnLCAnPG91dGZpbGUubWFlPic=

> <r_epik_Ionization_Penalty>
8.1176

> <r_epik_Ionization_Penalty_Charging>
8.1176

> <r_epik_Ionization_Penalty_Neutral>
3.03687e-06

> <r_epik_State_Penalty>
7.79629

> <r_epik_Charging_Adjusted_Penalty>
15.9139

> <i_epik_Tot_Q>
0

> <i_epik_Tot_abs_Q>
2

> <r_epik_Metal_State_Penalty>
3.7997

> <b_epik_Metal_Only>
1

> <s_lp_Force_Field>
OPLS_2005

> <r_lp_Energy>
21.8236

> <b_lp_Chiralities_Consistent>
1

> <s_lp_Variant>
AV-unprocessed.smi:3261-6

> <Gold.Version>
5.8.1

> <Gold.Id.Protein>
6NUR|6NUR_protein|mol2

> <Gold.PLP.Fitness>
38.7680

> <Gold.PLP.PLP>
-27.6604

> <Gold.PLP.part.hbond>
-3.0000

> <Gold.PLP.part.metal>
0.0000

> <Gold.PLP.part.buried>
-5.5438

> <Gold.PLP.part.nonpolar>
-18.8695

> <Gold.PLP.part.repulsive>
0.2466

> <Gold.PLP.ligand.clash>
0.0000

> <Gold.PLP.ligand.torsion>
0.4240

> <Gold.PLP.Chemscore.Hbond>
3.9840

> <Gold.PLP.Chemscore.CHOScore>
0.0000

> <Gold.PLP.Chemscore.Metal>
0.0000

> <Gold.Chemscore.Hbonds>
donor molecule, donor type, donor heavy atom, donor atom, acceptor molecule, acceptor atom, score
      L1  H     3    18       P1 10747  1.00
      L1  H     7    30       P1 10186  2.00
      P1  H  6896  6909       L1    15  0.71

> <Gold.PLP.Chemscore.Internal.Correction>
0.0036

> <Gold.Rescore>
     Score         DG    S(hbond)    S(metal)    S(lipo)     H(rot)  DE(clash)    DE(int)     intcor
     16.27     -19.85       2.87        0.00      62.80       1.00       0.00       3.58       ----

> <Gold.Chemscore.Fitness>
16.2692

> <Gold.Chemscore.DG>
-19.8516

> <Gold.Chemscore.ZeroCoef>
-5.4800

> <Gold.Chemscore.Hbond>
2.8696

> <Gold.Chemscore.Metal>
0.0000

> <Gold.Chemscore.Lipo>
62.7958

> <Gold.Chemscore.Internal_Hbond>
0.0000

> <Gold.Chemscore.DEClash>
0.0038

> <Gold.Chemscore.DEInternal>
3.5786

> <Gold.Chemscore.Rot>
1.0000

> <Gold.Chemscore.Internal.Correction>
   9.000000E+99

> <Gold.Chemscore.Hbonds>
donor molecule, donor type, donor heavy atom, donor atom, acceptor molecule, acceptor atom, score
      L1  H     3    18       P1 10747  0.95
      L1  H     7    30       P1 10186  1.00
      P1  H  6896  6909       L1    15  0.71

> <Gold.Chemscore.Hbond.Weighted>
-9.5845

> <Gold.Chemscore.Metal.Weighted>
-0.0000

> <Gold.Chemscore.Lipo.Weighted>
-7.3471

> <Gold.Chemscore.Internal_Hbond.Weighted>
0.0000

> <Gold.Chemscore.DEClash.Weighted>
0.0038

> <Gold.Chemscore.DEInternal.Weighted>
3.5786

> <Gold.Chemscore.Rot.Weighted>
2.5600

> <Gold.Chemscore.Internal.Correction.Weighted>
   9.000000E+99

> <Gold.Protein.RotatedTorsions>
[ 6907 6896 6895 6894 ] final  -31.93 input  -60.11 | X-H torsion
[ 7974 7965 7964 7962 ] final  -34.42 input  175.53 | X-H torsion
[ 8008 7997 7996 7995 ] final  -48.89 input   59.86 | X-H torsion
[ 10167 10162 10161 10158 ] final  156.07 input  -65.29 | X-H torsion
[ 10718 10713 10712 10709 ] final  -98.98 input   66.30 | X-H torsion
[ 10763 10752 10751 10750 ] final   95.78 input  -60.55 | X-H torsion
[ 11005 11000 10999 10996 ] final  -29.80 input  -57.11 | X-H torsion

> <Gold.Protein.ActiveResidues>
 VAL166  LYS551  ARG553  GLY616  TRP617  ASP618  TYR619  PRO620  LYS621  CYS622 
 ASP623  PHE694  ASN695  SER759  ASP760  ASP761  ALA762  ILE779  LEU786  VAL792 
 PHE793  MET794  SER795  GLU796  ALA797  LYS798  CYS799  TRP800  GLU811  SER814 

> <Gold.Protein.RotatedAtoms>
  151.0855  134.9884  159.8376 H   0  0  0  0  0  0  0  0  0  0  0  0  # atno 6907 bound_to 6896
  152.5424  134.2129  159.8767 H   0  0  0  0  0  0  0  0  0  0  0  0  # atno 6908 bound_to 6896
  151.2162  133.4484  159.2633 H   0  0  0  0  0  0  0  0  0  0  0  0  # atno 6909 bound_to 6896
  146.0831  140.6036  142.8899 H   0  0  0  0  0  0  0  0  0  0  0  0  # atno 7974 bound_to 7965
  154.4035  140.1310  156.4413 H   0  0  0  0  0  0  0  0  0  0  0  0  # atno 8008 bound_to 7997
  155.7456  140.3489  155.5105 H   0  0  0  0  0  0  0  0  0  0  0  0  # atno 8009 bound_to 7997
  155.8998  140.1017  157.1348 H   0  0  0  0  0  0  0  0  0  0  0  0  # atno 8010 bound_to 7997
  139.4821  144.5042  151.8123 H   0  0  0  0  0  0  0  0  0  0  0  0  # atno 10167 bound_to 10162
  156.0122  130.5262  150.6603 H   0  0  0  0  0  0  0  0  0  0  0  0  # atno 10718 bound_to 10713
  153.2573  135.4241  155.0858 H   0  0  0  0  0  0  0  0  0  0  0  0  # atno 10763 bound_to 10752
  154.8406  135.3440  154.6428 H   0  0  0  0  0  0  0  0  0  0  0  0  # atno 10764 bound_to 10752
  153.6849  135.7037  153.5164 H   0  0  0  0  0  0  0  0  0  0  0  0  # atno 10765 bound_to 10752
  140.9327  133.7328  156.0960 H   0  0  0  0  0  0  0  0  0  0  0  0  # atno 11005 bound_to 11000
  144.7307  140.4662  143.6940 LP  0  0  0  0  0  0  0  0  0  0  0  0  # atno 17320 bound_to 7965
  145.6181  139.1521  143.3038 LP  0  0  0  0  0  0  0  0  0  0  0  0  # atno 17321 bound_to 7965
  140.4538  144.1817  150.5900 LP  0  0  0  0  0  0  0  0  0  0  0  0  # atno 17342 bound_to 10162
  140.4556  143.2469  151.9288 LP  0  0  0  0  0  0  0  0  0  0  0  0  # atno 17343 bound_to 10162
  157.4346  131.0853  151.1004 LP  0  0  0  0  0  0  0  0  0  0  0  0  # atno 17370 bound_to 10713
  157.1566  130.6207  149.5598 LP  0  0  0  0  0  0  0  0  0  0  0  0  # atno 17371 bound_to 10713
  140.7840  134.3693  157.5480 LP  0  0  0  0  0  0  0  0  0  0  0  0  # atno 17394 bound_to 11000
  139.8800  134.9099  156.3002 LP  0  0  0  0  0  0  0  0  0  0  0  0  # atno 17395 bound_to 11000

$$$$
