AV-unprocessed.smi:1701|AV-procd|sdf|6825|dock3
  -GOLD-   22720 8 03D 1   1.00000     0.00000
 Structure written by MMmdl.
 55 57  0  0  0  0  0  0  0  0  3 V2000
  152.1314  145.1909  158.7783 C   0  0  0  0  0  0  0  0  0  0  0  0
  151.5583  144.2093  157.7477 C   0  0  0  0  0  0  0  0  0  0  0  0
  151.5371  142.8367  158.2468 N   0  0  0  0  0  0  0  0  0  0  0  0
  152.1437  142.5456  159.5450 C   0  0  0  0  0  0  0  0  0  0  0  0
  153.6691  142.7084  159.5215 C   0  0  0  0  0  0  0  0  0  0  0  0
  150.9024  141.8122  157.5064 C   0  0  0  0  0  0  0  0  0  0  0  0
  151.0899  140.4318  157.7663 C   0  0  0  0  0  0  0  0  0  0  0  0
  150.4210  139.4710  156.9812 C   0  0  0  0  0  0  0  0  0  0  0  0
  149.5597  139.8864  155.9450 C   0  0  0  0  0  0  0  0  0  0  0  0
  148.9158  138.8798  155.1767 N   0  0  0  0  0  0  0  0  0  0  0  0
  148.6335  137.6079  155.5212 C   0  0  0  0  0  0  0  0  0  0  0  0
  148.8859  137.1062  156.6138 O   0  0  0  0  0  0  0  0  0  0  0  0
  148.0708  136.8809  154.5383 N   0  0  0  0  0  0  0  0  0  0  0  0
  147.6407  135.4795  154.5680 C   0  0  2  0  0  0  0  0  0  0  0  0
  148.8071  134.4951  154.3554 C   0  0  0  0  0  0  0  0  0  0  0  0
  148.2285  133.3948  153.4604 C   0  0  0  0  0  0  0  0  0  0  0  0
  147.2778  134.1272  152.6165 N   0  3  1  0  0  0  0  0  0  0  0  0
  146.3369  133.3569  151.7781 C   0  0  0  0  0  0  0  0  0  0  0  0
  145.5899  134.3423  150.8536 C   0  0  0  0  0  0  0  0  0  0  0  0
  144.9455  135.5086  151.6375 C   0  0  0  0  0  0  0  0  0  0  0  0
  145.9516  136.1855  152.5935 C   0  0  0  0  0  0  0  0  0  0  0  0
  146.6000  135.1080  153.4821 C   0  0  2  0  0  0  0  0  0  0  0  0
  149.4119  141.2744  155.7156 C   0  0  0  0  0  0  0  0  0  0  0  0
  150.0730  142.1596  156.4917 N   0  3  0  0  0  0  0  0  0  0  0  0
  152.1231  146.2086  158.3879 H   0  0  0  0  0  0  0  0  0  0  0  0
  153.1612  144.9436  159.0363 H   0  0  0  0  0  0  0  0  0  0  0  0
  151.5458  145.1851  159.6982 H   0  0  0  0  0  0  0  0  0  0  0  0
  150.5368  144.5058  157.5076 H   0  0  0  0  0  0  0  0  0  0  0  0
  152.1051  144.2722  156.8072 H   0  0  0  0  0  0  0  0  0  0  0  0
  151.7060  143.1680  160.3259 H   0  0  0  0  0  0  0  0  0  0  0  0
  151.8994  141.5188  159.8189 H   0  0  0  0  0  0  0  0  0  0  0  0
  154.0970  142.4738  160.4962 H   0  0  0  0  0  0  0  0  0  0  0  0
  153.9564  143.7300  159.2712 H   0  0  0  0  0  0  0  0  0  0  0  0
  154.1276  142.0426  158.7899 H   0  0  0  0  0  0  0  0  0  0  0  0
  151.7317  140.0879  158.5628 H   0  0  0  0  0  0  0  0  0  0  0  0
  150.5664  138.4196  157.1832 H   0  0  0  0  0  0  0  0  0  0  0  0
  148.7064  139.1332  154.2225 H   0  0  0  0  0  0  0  0  0  0  0  0
  147.9728  137.3463  153.6469 H   0  0  0  0  0  0  0  0  0  0  0  0
  147.2113  135.2576  155.5468 H   0  0  0  0  0  0  0  0  0  0  0  0
  149.6276  134.9879  153.8311 H   0  0  0  0  0  0  0  0  0  0  0  0
  149.2047  134.1037  155.2924 H   0  0  0  0  0  0  0  0  0  0  0  0
  148.9915  132.8861  152.8706 H   0  0  0  0  0  0  0  0  0  0  0  0
  147.6973  132.6521  154.0577 H   0  0  0  0  0  0  0  0  0  0  0  0
  146.8855  132.6253  151.1841 H   0  0  0  0  0  0  0  0  0  0  0  0
  145.6368  132.8053  152.4076 H   0  0  0  0  0  0  0  0  0  0  0  0
  146.2926  134.7508  150.1259 H   0  0  0  0  0  0  0  0  0  0  0  0
  144.8293  133.8125  150.2793 H   0  0  0  0  0  0  0  0  0  0  0  0
  144.5354  136.2438  150.9445 H   0  0  0  0  0  0  0  0  0  0  0  0
  144.1016  135.1283  152.2145 H   0  0  0  0  0  0  0  0  0  0  0  0
  146.7138  136.7162  152.0210 H   0  0  0  0  0  0  0  0  0  0  0  0
  145.4324  136.9282  153.1987 H   0  0  0  0  0  0  0  0  0  0  0  0
  145.7965  134.5826  154.0034 H   0  0  0  0  0  0  0  0  0  0  0  0
  148.8050  141.7185  154.9413 H   0  0  0  0  0  0  0  0  0  0  0  0
  147.8481  134.6673  151.9811 H   0  0  0  0  0  0  0  0  0  0  0  0
  149.9421  143.1526  156.2985 H   0  0  0  0  0  0  0  0  0  0  0  0
  1  2  1  0  0  0  0
  1 25  1  0  0  0  0
  1 26  1  0  0  0  0
  1 27  1  0  0  0  0
  2  3  1  0  0  0  0
  2 28  1  0  0  0  0
  2 29  1  0  0  0  0
  3  4  1  0  0  0  0
  3  6  1  0  0  0  0
  4  5  1  0  0  0  0
  4 30  1  0  0  0  0
  4 31  1  0  0  0  0
  5 32  1  0  0  0  0
  5 33  1  0  0  0  0
  5 34  1  0  0  0  0
  6 24  1  0  0  0  0
  6  7  2  0  0  0  0
  7  8  1  0  0  0  0
  7 35  1  0  0  0  0
  8  9  2  0  0  0  0
  8 36  1  0  0  0  0
  9 10  1  0  0  0  0
  9 23  1  0  0  0  0
 10 11  1  0  0  0  0
 10 37  1  0  0  0  0
 11 12  2  0  0  0  0
 11 13  1  0  0  0  0
 13 14  1  0  0  0  0
 13 38  1  0  0  0  0
 14 22  1  0  0  0  0
 14 15  1  0  0  0  0
 14 39  1  0  0  0  0
 15 16  1  0  0  0  0
 15 40  1  0  0  0  0
 15 41  1  0  0  0  0
 16 17  1  0  0  0  0
 16 42  1  0  0  0  0
 16 43  1  0  0  0  0
 17 22  1  0  0  0  0
 17 18  1  0  0  0  0
 17 54  1  0  0  0  0
 18 19  1  0  0  0  0
 18 44  1  0  0  0  0
 18 45  1  0  0  0  0
 19 20  1  0  0  0  0
 19 46  1  0  0  0  0
 19 47  1  0  0  0  0
 20 21  1  0  0  0  0
 20 48  1  0  0  0  0
 20 49  1  0  0  0  0
 21 22  1  0  0  0  0
 21 50  1  0  0  0  0
 21 51  1  0  0  0  0
 22 52  1  0  0  0  0
 23 24  2  0  0  0  0
 23 53  1  0  0  0  0
 24 55  1  0  0  0  0
M  CHG  1  17   1
M  CHG  1  24   1
M  END
> <s_m_source_file>
AV-unprocessed.smi

> <i_m_source_file_index>
1701

> <i_lp_mmshare_version>
43012

> <i_f3d_flags>
0

> <s_epik_input>
W0NIM11bQ0gyXU4oW0NIMl1bQ0gzXSljMVtjSF1bY0hdYyhbY0hdbjEpW05IXUMoPU8pW05IXVtDQEhdKFtDSDJdW0NIMl0yKVtDQEBIXShOMjMpW0NIMl1bQ0gyXVtDSDJdW0NIMl0z

> <s_epik_cmdline>
J2VwaWtfcHl0aG9uJywgJy1waCcsICc3LjAnLCAnLXRuJywgJzgnLCAnLW1hJywgJzIwMCcsICctbWV0YWxfYmluZGluZycsICctaW1hZScsICc8aW5maWxlLm1hZT4nLCAnLW9tYWUnLCAnPG91dGZpbGUubWFlPic=

> <r_lp_tautomer_probability>
0.999994

> <r_epik_Ionization_Penalty>
0.302862

> <r_epik_Ionization_Penalty_Charging>
0.302842

> <r_epik_Ionization_Penalty_Neutral>
1.95166e-05

> <r_epik_State_Penalty>
0.019791

> <r_epik_Charging_Adjusted_Penalty>
0.322633

> <i_epik_Tot_Q>
2

> <i_epik_Tot_abs_Q>
2

> <r_epik_Metal_State_Penalty>
0.0536763

> <b_epik_Metal_Only>
0

> <s_lp_Force_Field>
OPLS_2005

> <r_lp_Energy>
67.2191

> <b_lp_Chiralities_Consistent>
1

> <s_lp_Variant>
AV-unprocessed.smi:1701-5

> <Gold.Version>
5.8.1

> <Gold.Id.Protein>
6NUR|6NUR_protein|mol2

> <Gold.PLP.Fitness>
50.4878

> <Gold.PLP.PLP>
-39.7455

> <Gold.PLP.part.hbond>
-3.0000

> <Gold.PLP.part.metal>
0.0000

> <Gold.PLP.part.buried>
-2.1282

> <Gold.PLP.part.nonpolar>
-34.7798

> <Gold.PLP.part.repulsive>
0.0826

> <Gold.PLP.ligand.clash>
0.0000

> <Gold.PLP.ligand.torsion>
0.6166

> <Gold.PLP.Chemscore.Hbond>
3.9566

> <Gold.PLP.Chemscore.CHOScore>
0.0000

> <Gold.PLP.Chemscore.Metal>
0.0000

> <Gold.Chemscore.Hbonds>
donor molecule, donor type, donor heavy atom, donor atom, acceptor molecule, acceptor atom, score
      L1  H    13    38       P1  7948  0.08
      L1  H    17    54       P1  7948  1.79
      L1  H    24    55       P1  8028  2.00

> <Gold.PLP.Chemscore.Internal.Correction>
0.1056

> <Gold.Rescore>
     Score         DG    S(hbond)    S(metal)    S(lipo)     H(rot)  DE(clash)    DE(int)     intcor
     17.43     -19.70       1.77        0.00      99.35       1.30       0.03       2.24       ----

> <Gold.Chemscore.Fitness>
17.4347

> <Gold.Chemscore.DG>
-19.6966

> <Gold.Chemscore.ZeroCoef>
-5.4800

> <Gold.Chemscore.Hbond>
1.7743

> <Gold.Chemscore.Metal>
0.0000

> <Gold.Chemscore.Lipo>
99.3466

> <Gold.Chemscore.Internal_Hbond>
0.0000

> <Gold.Chemscore.DEClash>
0.0255

> <Gold.Chemscore.DEInternal>
2.2364

> <Gold.Chemscore.Rot>
1.3020

> <Gold.Chemscore.Internal.Correction>
   9.000000E+99

> <Gold.Chemscore.Hbonds>
donor molecule, donor type, donor heavy atom, donor atom, acceptor molecule, acceptor atom, score
      L1  H    13    38       P1  7948  0.09
      L1  H    17    54       P1  7948  0.31
      L1  H    24    55       P1  8028  0.94

> <Gold.Chemscore.Hbond.Weighted>
-5.9261

> <Gold.Chemscore.Metal.Weighted>
-0.0000

> <Gold.Chemscore.Lipo.Weighted>
-11.6236

> <Gold.Chemscore.Internal_Hbond.Weighted>
0.0000

> <Gold.Chemscore.DEClash.Weighted>
0.0255

> <Gold.Chemscore.DEInternal.Weighted>
2.2364

> <Gold.Chemscore.Rot.Weighted>
3.3330

> <Gold.Chemscore.Internal.Correction.Weighted>
   9.000000E+99

> <Gold.Protein.RotatedTorsions>
[ 6907 6896 6895 6894 ] final  125.89 input  -60.11 | X-H torsion
[ 7974 7965 7964 7962 ] final   71.88 input  175.53 | X-H torsion
[ 8008 7997 7996 7995 ] final  135.72 input   59.86 | X-H torsion
[ 10167 10162 10161 10158 ] final   37.88 input  -65.29 | X-H torsion
[ 10718 10713 10712 10709 ] final    9.21 input   66.30 | X-H torsion
[ 10763 10752 10751 10750 ] final  -35.13 input  -60.55 | X-H torsion
[ 11005 11000 10999 10996 ] final  160.95 input  -57.11 | X-H torsion

> <Gold.Protein.ActiveResidues>
 VAL166  LYS551  ARG553  GLY616  TRP617  ASP618  TYR619  PRO620  LYS621  CYS622 
 ASP623  PHE694  ASN695  SER759  ASP760  ASP761  ALA762  ILE779  LEU786  VAL792 
 PHE793  MET794  SER795  GLU796  ALA797  LYS798  CYS799  TRP800  GLU811  SER814 

> <Gold.Protein.RotatedAtoms>
  152.3952  133.6736  159.6269 H   0  0  0  0  0  0  0  0  0  0  0  0  # atno 6907 bound_to 6896
  150.7852  133.8886  159.3315 H   0  0  0  0  0  0  0  0  0  0  0  0  # atno 6908 bound_to 6896
  151.6664  135.0983  160.0241 H   0  0  0  0  0  0  0  0  0  0  0  0  # atno 6909 bound_to 6896
  145.7603  139.2798  143.1380 H   0  0  0  0  0  0  0  0  0  0  0  0  # atno 7974 bound_to 7965
  156.3003  140.2463  156.3627 H   0  0  0  0  0  0  0  0  0  0  0  0  # atno 8008 bound_to 7997
  154.8862  140.0411  157.1831 H   0  0  0  0  0  0  0  0  0  0  0  0  # atno 8009 bound_to 7997
  154.8644  140.2925  155.5523 H   0  0  0  0  0  0  0  0  0  0  0  0  # atno 8010 bound_to 7997
  140.3990  144.1749  150.6133 H   0  0  0  0  0  0  0  0  0  0  0  0  # atno 10167 bound_to 10162
  156.9629  130.5940  149.5663 H   0  0  0  0  0  0  0  0  0  0  0  0  # atno 10718 bound_to 10713
  153.8581  135.6842  153.4785 H   0  0  0  0  0  0  0  0  0  0  0  0  # atno 10763 bound_to 10752
  153.1358  135.4678  154.9418 H   0  0  0  0  0  0  0  0  0  0  0  0  # atno 10764 bound_to 10752
  154.7771  135.3257  154.8017 H   0  0  0  0  0  0  0  0  0  0  0  0  # atno 10765 bound_to 10752
  140.2110  134.8267  157.3120 H   0  0  0  0  0  0  0  0  0  0  0  0  # atno 11005 bound_to 11000
  146.0270  140.8294  142.9895 LP  0  0  0  0  0  0  0  0  0  0  0  0  # atno 17320 bound_to 7965
  144.6832  140.2713  143.7305 LP  0  0  0  0  0  0  0  0  0  0  0  0  # atno 17321 bound_to 7965
  140.4760  143.2396  151.9023 LP  0  0  0  0  0  0  0  0  0  0  0  0  # atno 17342 bound_to 10162
  139.4785  144.5320  151.8653 LP  0  0  0  0  0  0  0  0  0  0  0  0  # atno 17343 bound_to 10162
  156.0314  130.5405  150.8545 LP  0  0  0  0  0  0  0  0  0  0  0  0  # atno 17370 bound_to 10713
  157.5645  131.0946  150.9510 LP  0  0  0  0  0  0  0  0  0  0  0  0  # atno 17371 bound_to 10713
  140.1951  134.4323  155.7693 LP  0  0  0  0  0  0  0  0  0  0  0  0  # atno 17394 bound_to 11000
  141.2226  133.7045  156.8092 LP  0  0  0  0  0  0  0  0  0  0  0  0  # atno 17395 bound_to 11000

$$$$
