#       Name:                AV-unprocessed.smi:594
#       Creating user name   scv26
#       Creation time:       Thu Mar 26 23:52:15 2020


#       File generated by GOLD software.
#

@<TRIPOS>MOLECULE
AV-unprocessed.smi:594
    46    47     1
SMALL
NO_CHARGES


@<TRIPOS>ATOM
      1 ****        -1.6825   0.8818  -2.9001 C.3            1 S1                 0.0000
      2 ****        -2.1246  -0.4429  -2.2526 C.3            1 S1                 0.0000
      3 ****        -3.6572  -0.5980  -2.3305 C.3            1 S1                 0.0000
      4 ****        -4.1327  -1.9149  -1.6988 C.3            1 S1                 0.0000
      5 ****        -3.6564  -2.0318  -0.2448 C.3            1 S1                 0.0000
      6 ****        -2.1299  -1.8961  -0.1531 C.3            1 S1                 0.0000
      7 ****        -1.6355  -0.5796  -0.7889 C.3            1 S1                 0.0000
      8 ****        -0.1764  -0.5217  -0.7327 N.am           1 S1                 0.0000
      9 ****         0.5458  -0.0734   0.3051 C.2            1 S1                 0.0000
     10 ****         0.0432   0.3237   1.3572 O.2            1 S1                 0.0000
     11 ****         2.0699  -0.1017   0.1230 C.3            1 S1                 0.0000
     12 ****         2.7773   0.8383   1.0088 N.am           1 S1                 0.0000
     13 ****         3.3144   0.3147   2.2015 C.2            1 S1                 0.0000
     14 ****         3.9749   1.0850   3.0879 C.2            1 S1                 0.0000
     15 ****         4.5156   0.5313   4.3101 N.pl3          1 S1                 1.0000
     16 ****         5.1084   1.2777   5.0825 O.2            1 S1                 0.0000
     17 ****         4.3674  -0.6655   4.5386 O.2            1 S1                -1.0000
     18 ****         4.1237   2.4938   2.7778 C.2            1 S1                 0.0000
     19 ****         3.6093   3.0014   1.6404 C.2            1 S1                 0.0000
     20 ****         2.8874   2.1618   0.6789 C.2            1 S1                 0.0000
     21 ****         2.4110   2.6201  -0.3597 O.2            1 S1                 0.0000
     22 ****        -2.0646   1.7392  -2.3452 H              1 S1                 0.0000
     23 ****        -2.0503   0.9590  -3.9235 H              1 S1                 0.0000
     24 ****        -0.5966   0.9696  -2.9410 H              1 S1                 0.0000
     25 ****        -1.6827  -1.2540  -2.8338 H              1 S1                 0.0000
     26 ****        -4.1384   0.2405  -1.8247 H              1 S1                 0.0000
     27 ****        -3.9836  -0.5574  -3.3703 H              1 S1                 0.0000
     28 ****        -5.2207  -1.9749  -1.7391 H              1 S1                 0.0000
     29 ****        -3.7539  -2.7579  -2.2779 H              1 S1                 0.0000
     30 ****        -4.1299  -1.2576   0.3604 H              1 S1                 0.0000
     31 ****        -3.9705  -2.9882   0.1740 H              1 S1                 0.0000
     32 ****        -1.8240  -1.9474   0.8927 H              1 S1                 0.0000
     33 ****        -1.6621  -2.7458  -0.6523 H              1 S1                 0.0000
     34 ****        -2.0468   0.2561  -0.2189 H              1 S1                 0.0000
     35 ****         0.3207  -0.8355  -1.5538 H              1 S1                 0.0000
     36 ****         2.4129  -1.1228   0.2949 H              1 S1                 0.0000
     37 ****         2.3153   0.1088  -0.9198 H              1 S1                 0.0000
     38 ****         3.1441  -0.7429   2.3430 H              1 S1                 0.0000
     39 ****         4.6473   3.1521   3.4555 H              1 S1                 0.0000
     40 ****         3.7308   4.0537   1.4294 H              1 S1                 0.0000
     41 ****        -0.9506   0.3220   1.4685 LP             1 S1                 0.0000
     42 ****         0.6289   0.6478   2.1001 LP             1 S1                 0.0000
     43 ****         5.2098   2.2477   4.8615 LP             1 S1                 0.0000
     44 ****         5.4901   0.9161   5.9331 LP             1 S1                 0.0000
     45 ****         1.9245   2.0196  -0.9943 LP             1 S1                 0.0000
     46 ****         2.5105   3.5930  -0.5688 LP             1 S1                 0.0000
@<TRIPOS>BOND
    1    1    2 1     
    2    1   22 1     
    3    1   23 1     
    4    1   24 1     
    5    2    7 1     
    6    2    3 1     
    7    2   25 1     
    8    3    4 1     
    9    3   26 1     
   10    3   27 1     
   11    4    5 1     
   12    4   28 1     
   13    4   29 1     
   14    5    6 1     
   15    5   30 1     
   16    5   31 1     
   17    6    7 1     
   18    6   32 1     
   19    6   33 1     
   20    7    8 1     
   21    7   34 1     
   22    8    9 am    
   23    8   35 1     
   24    9   10 2     
   25    9   11 1     
   26   11   12 1     
   27   11   36 1     
   28   11   37 1     
   29   12   20 am    
   30   12   13 1     
   31   13   14 2     
   32   13   38 1     
   33   14   15 1     
   34   14   18 1     
   35   15   16 2     
   36   15   17 1     
   37   18   19 2     
   38   18   39 1     
   39   19   20 1     
   40   19   40 1     
   41   20   21 2     
   42   10   41 1     
   43   10   42 1     
   44   16   43 1     
   45   16   44 1     
   46   21   45 1     
   47   21   46 1     
@<TRIPOS>SUBSTRUCTURE
      1 S1             1
@<TRIPOS>SET
LONE_PAIRS      STATIC     ATOMS    <user>   **** ""
7 41 42 43 44 17 45 46
DONOR_HYDROGENS      STATIC     ATOMS    <user>   **** ""
1 35
ATOM$BLUE        STATIC     ATOMS    COLORGROUP SYSTEM
7 41 42 43 44 17 45 46
ATOM$RED        STATIC     ATOMS    COLORGROUP SYSTEM
1 35
