#       Name:                AV-unprocessed.smi:153
#       Creating user name   scv26
#       Creation time:       Thu Mar 26 18:50:23 2020


#       File generated by GOLD software.
#

@<TRIPOS>MOLECULE
AV-unprocessed.smi:153
    71    74     1
SMALL
NO_CHARGES


@<TRIPOS>ATOM
      1 ****        -4.8912  -4.5053   0.3092 C.3            1 S1                 0.0000
      2 ****        -4.9661  -3.0434  -0.1596 C.3            1 S1                 0.0000
      3 ****        -5.9394  -2.3445   0.6069 O.3            1 S1                 0.0000
      4 ****        -5.6277  -0.9647   0.5461 C.3            1 S1                 0.0000
      5 ****        -4.1185  -0.9668   0.7334 C.3            1 S1                 0.0000
      6 ****        -3.6644  -2.2022  -0.0516 C.3            1 S1                 0.0000
      7 ****        -2.6626  -2.8611   0.7061 O.3            1 S1                 0.0000
      8 ****        -3.0891  -1.8804  -1.4560 C.3            1 S1                 0.0000
      9 ****        -1.9224  -1.0103  -1.4364 N.pl3          1 S1                 0.0000
     10 ****        -0.6246  -1.3800  -1.1767 C.2            1 S1                 0.0000
     11 ****         0.2421  -0.4076  -1.2085 N.2            1 S1                 0.0000
     12 ****        -0.5017   0.7244  -1.5297 C.ar           1 S1                 0.0000
     13 ****        -0.2022   2.1121  -1.7173 C.ar           1 S1                 0.0000
     14 ****         1.0314   2.6846  -1.5679 N.pl3          1 S1                 0.0000
     15 ****         1.1582   4.1308  -1.7411 C.3            1 S1                 0.0000
     16 ****         2.0658   2.0224  -0.7739 C.3            1 S1                 0.0000
     17 ****         1.7401   1.9903   0.7376 C.3            1 S1                 0.0000
     18 ****         2.1664   3.1856   1.3589 O.3            1 S1                 0.0000
     19 ****         2.3453   0.7786   1.4813 C.3            1 S1                 0.0000
     20 ****         3.6956   0.3679   1.0872 N.3            1 S1                 0.0000
     21 ****         4.0213  -0.9421   1.6416 C.3            1 S1                 0.0000
     22 ****         5.4329  -1.4036   1.2415 C.3            1 S1                 0.0000
     23 ****         6.3860  -0.4313   1.6564 O.3            1 S1                 0.0000
     24 ****         6.1340   0.8547   1.1004 C.3            1 S1                 0.0000
     25 ****         4.7229   1.3230   1.4961 C.3            1 S1                 0.0000
     26 ****        -1.2461   2.9147  -2.0639 N.ar           1 S1                 0.0000
     27 ****        -2.4807   2.4253  -2.1970 C.ar           1 S1                 0.0000
     28 ****        -2.9007   1.1723  -2.0313 N.ar           1 S1                 0.0000
     29 ****        -1.8682   0.3486  -1.6963 C.ar           1 S1                 0.0000
     30 ****        -4.1492  -5.0642  -0.2615 H              1 S1                 0.0000
     31 ****        -5.8525  -5.0021   0.1768 H              1 S1                 0.0000
     32 ****        -4.6297  -4.5738   1.3657 H              1 S1                 0.0000
     33 ****        -5.3213  -3.0327  -1.1914 H              1 S1                 0.0000
     34 ****        -5.9036  -0.5611  -0.4295 H              1 S1                 0.0000
     35 ****        -6.1486  -0.3990   1.3187 H              1 S1                 0.0000
     36 ****        -3.6584  -0.0320   0.4175 H              1 S1                 0.0000
     37 ****        -3.9053  -1.0858   1.7974 H              1 S1                 0.0000
     38 ****        -1.9424  -2.2626   0.8325 H              1 S1                 0.0000
     39 ****        -2.8128  -2.8039  -1.9669 H              1 S1                 0.0000
     40 ****        -3.8532  -1.4092  -2.0755 H              1 S1                 0.0000
     41 ****        -0.3390  -2.3978  -0.9533 H              1 S1                 0.0000
     42 ****         0.8318   4.4330  -2.7367 H              1 S1                 0.0000
     43 ****         2.1933   4.4522  -1.6248 H              1 S1                 0.0000
     44 ****         0.5591   4.6620  -1.0004 H              1 S1                 0.0000
     45 ****         2.2255   1.0198  -1.1638 H              1 S1                 0.0000
     46 ****         3.0233   2.5198  -0.9326 H              1 S1                 0.0000
     47 ****         0.6608   1.9386   0.8845 H              1 S1                 0.0000
     48 ****         3.1045   3.2511   1.2674 H              1 S1                 0.0000
     49 ****         2.2976   0.9371   2.5599 H              1 S1                 0.0000
     50 ****         1.6755  -0.0601   1.2869 H              1 S1                 0.0000
     51 ****         3.9471  -0.9122   2.7298 H              1 S1                 0.0000
     52 ****         3.2942  -1.6798   1.2999 H              1 S1                 0.0000
     53 ****         5.6684  -2.3579   1.7130 H              1 S1                 0.0000
     54 ****         5.4998  -1.5526   0.1627 H              1 S1                 0.0000
     55 ****         6.8832   1.5558   1.4680 H              1 S1                 0.0000
     56 ****         6.2366   0.8158   0.0148 H              1 S1                 0.0000
     57 ****         4.5415   2.2936   1.0370 H              1 S1                 0.0000
     58 ****         4.6810   1.4722   2.5761 H              1 S1                 0.0000
     59 ****        -3.2410   3.1423  -2.4697 H              1 S1                 0.0000
     60 ****        -5.9140  -2.6576   1.5563 LP             1 S1                 0.0000
     61 ****        -6.8507  -2.5046   0.2274 LP             1 S1                 0.0000
     62 ****        -2.3456  -3.6719   0.2141 LP             1 S1                 0.0000
     63 ****        -3.0348  -3.1338   1.5933 LP             1 S1                 0.0000
     64 ****         1.2261  -0.4625  -1.0392 LP             1 S1                 0.0000
     65 ****         1.9220   3.1681   2.3285 LP             1 S1                 0.0000
     66 ****         1.7285   3.9697   0.9190 LP             1 S1                 0.0000
     67 ****         3.6904   0.3289   0.0880 LP             1 S1                 0.0000
     68 ****         7.2956  -0.7316   1.3694 LP             1 S1                 0.0000
     69 ****         6.3577  -0.3602   2.6535 LP             1 S1                 0.0000
     70 ****        -1.0848   3.8889  -2.2216 LP             1 S1                 0.0000
     71 ****        -3.8495   0.8750  -2.1386 LP             1 S1                 0.0000
@<TRIPOS>BOND
    1    1    2 1     
    2    1   30 1     
    3    1   31 1     
    4    1   32 1     
    5    2    6 1     
    6    2    3 1     
    7    2   33 1     
    8    3    4 1     
    9    4    5 1     
   10    4   34 1     
   11    4   35 1     
   12    5    6 1     
   13    5   36 1     
   14    5   37 1     
   15    6    7 1     
   16    6    8 1     
   17    7   38 1     
   18    8    9 1     
   19    8   39 1     
   20    8   40 1     
   21    9   29 1     
   22    9   10 1     
   23   10   11 2     
   24   10   41 1     
   25   11   12 1     
   26   12   29 ar    
   27   12   13 ar    
   28   13   14 1     
   29   13   26 ar    
   30   14   15 1     
   31   14   16 1     
   32   15   42 1     
   33   15   43 1     
   34   15   44 1     
   35   16   17 1     
   36   16   45 1     
   37   16   46 1     
   38   17   18 1     
   39   17   19 1     
   40   17   47 1     
   41   18   48 1     
   42   19   20 1     
   43   19   49 1     
   44   19   50 1     
   45   20   25 1     
   46   20   21 1     
   47   21   22 1     
   48   21   51 1     
   49   21   52 1     
   50   22   23 1     
   51   22   53 1     
   52   22   54 1     
   53   23   24 1     
   54   24   25 1     
   55   24   55 1     
   56   24   56 1     
   57   25   57 1     
   58   25   58 1     
   59   26   27 ar    
   60   27   28 ar    
   61   27   59 1     
   62   28   29 ar    
   63    3   60 1     
   64    3   61 1     
   65    7   62 1     
   66    7   63 1     
   67   11   64 1     
   68   18   65 1     
   69   18   66 1     
   70   20   67 1     
   71   23   68 1     
   72   23   69 1     
   73   26   70 1     
   74   28   71 1     
@<TRIPOS>SUBSTRUCTURE
      1 S1             1
@<TRIPOS>SET
LONE_PAIRS      STATIC     ATOMS    <user>   **** ""
12 60 61 62 63 64 65 66 67 68 69 70 71
DONOR_HYDROGENS      STATIC     ATOMS    <user>   **** ""
2 38 48
ATOM$BLUE        STATIC     ATOMS    COLORGROUP SYSTEM
12 60 61 62 63 64 65 66 67 68 69 70 71
ATOM$RED        STATIC     ATOMS    COLORGROUP SYSTEM
2 38 48
