AV-unprocessed.smi:2431|AV-procd|sdf|9586|dock6
  -GOLD-   2272013223D 1   1.00000     0.00000
 Structure written by MMmdl.
 36 37  0  0  0  0  0  0  0  0  3 V2000
  148.9671  144.3453  161.5530 O   0  0  0  0  0  0  0  0  0  0  0  0
  148.7173  144.6591  160.3888 C   0  0  0  0  0  0  0  0  0  0  0  0
  149.6158  145.2162  159.5641 N   0  0  0  0  0  0  0  0  0  0  0  0
  150.9972  145.5212  159.9178 C   0  0  0  0  0  0  0  0  0  0  0  0
  151.9825  144.9132  158.9056 C   0  0  0  0  0  0  0  0  0  0  0  0
  152.3767  143.4921  159.2564 C   0  0  0  0  0  0  0  0  0  0  0  0
  152.2499  142.4176  158.4789 C   0  0  0  0  0  0  0  0  0  0  0  0
  152.7235  141.1574  159.1495 C   0  0  0  0  0  0  0  0  0  0  0  0
  153.1543  141.6225  160.5585 C   0  0  0  0  0  0  0  0  0  0  0  0
  152.9562  143.1544  160.6061 C   0  0  0  0  0  0  0  0  0  0  0  0
  147.5382  144.4750  159.7704 N   0  0  0  0  0  0  0  0  0  0  0  0
  146.3456  143.8952  160.2903 C   0  0  0  0  0  0  0  0  0  0  0  0
  145.9301  144.1098  161.6275 C   0  0  0  0  0  0  0  0  0  0  0  0
  144.7433  143.5038  162.0800 C   0  0  0  0  0  0  0  0  0  0  0  0
  143.9659  142.7266  161.3008 N   0  0  0  0  0  0  0  0  0  0  0  0
  144.3497  142.5365  160.0217 C   0  0  0  0  0  0  0  0  0  0  0  0
  145.5149  143.1002  159.4526 C   0  0  0  0  0  0  0  0  0  0  0  0
  145.8261  142.8317  158.0355 N   0  3  0  0  0  0  0  0  0  0  0  0
  147.0080  142.8079  157.7095 O   0  0  0  0  0  0  0  0  0  0  0  0
  144.9008  142.6195  157.2583 O   0  5  0  0  0  0  0  0  0  0  0  0
  149.3274  145.4388  158.6224 H   0  0  0  0  0  0  0  0  0  0  0  0
  151.1091  146.6056  159.9395 H   0  0  0  0  0  0  0  0  0  0  0  0
  151.2083  145.1668  160.9280 H   0  0  0  0  0  0  0  0  0  0  0  0
  151.5489  144.9101  157.9050 H   0  0  0  0  0  0  0  0  0  0  0  0
  152.8828  145.5272  158.8549 H   0  0  0  0  0  0  0  0  0  0  0  0
  151.8532  142.4182  157.4742 H   0  0  0  0  0  0  0  0  0  0  0  0
  151.9174  140.4242  159.1936 H   0  0  0  0  0  0  0  0  0  0  0  0
  153.5572  140.7275  158.5936 H   0  0  0  0  0  0  0  0  0  0  0  0
  152.5463  141.1364  161.3226 H   0  0  0  0  0  0  0  0  0  0  0  0
  154.1938  141.3576  160.7556 H   0  0  0  0  0  0  0  0  0  0  0  0
  153.9030  143.6736  160.7563 H   0  0  0  0  0  0  0  0  0  0  0  0
  152.2688  143.4473  161.4004 H   0  0  0  0  0  0  0  0  0  0  0  0
  147.5170  144.6943  158.7848 H   0  0  0  0  0  0  0  0  0  0  0  0
  146.4924  144.7307  162.3082 H   0  0  0  0  0  0  0  0  0  0  0  0
  144.4084  143.6509  163.0961 H   0  0  0  0  0  0  0  0  0  0  0  0
  143.6918  141.9189  159.4278 H   0  0  0  0  0  0  0  0  0  0  0  0
  1  2  2  0  0  0  0
  2  3  1  0  0  0  0
  2 11  1  0  0  0  0
  3  4  1  0  0  0  0
  3 21  1  0  0  0  0
  4  5  1  0  0  0  0
  4 22  1  0  0  0  0
  4 23  1  0  0  0  0
  5  6  1  0  0  0  0
  5 24  1  0  0  0  0
  5 25  1  0  0  0  0
  6 10  1  0  0  0  0
  6  7  2  0  0  0  0
  7  8  1  0  0  0  0
  7 26  1  0  0  0  0
  8  9  1  0  0  0  0
  8 27  1  0  0  0  0
  8 28  1  0  0  0  0
  9 10  1  0  0  0  0
  9 29  1  0  0  0  0
  9 30  1  0  0  0  0
 10 31  1  0  0  0  0
 10 32  1  0  0  0  0
 11 12  1  0  0  0  0
 11 33  1  0  0  0  0
 12 17  1  0  0  0  0
 12 13  2  0  0  0  0
 13 14  1  0  0  0  0
 13 34  1  0  0  0  0
 14 15  2  0  0  0  0
 14 35  1  0  0  0  0
 15 16  1  0  0  0  0
 16 17  2  0  0  0  0
 16 36  1  0  0  0  0
 17 18  1  0  0  0  0
 18 19  2  0  0  0  0
 18 20  1  0  0  0  0
M  CHG  1  18   1
M  CHG  1  20  -1
M  END
> <s_m_source_file>
AV-unprocessed.smi

> <i_m_source_file_index>
2431

> <i_lp_mmshare_version>
43012

> <i_f3d_flags>
0

> <s_epik_input>
W0NIMl0xW0NIMl1bQ0gyXVtDSF09QzFbQ0gyXVtDSDJdW05IXUMoPU8pW05IXWMyW2NIXVtjSF1uW2NIXWMyW04rXSg9TylbTy1d

> <s_epik_cmdline>
J2VwaWtfcHl0aG9uJywgJy1waCcsICc3LjAnLCAnLXRuJywgJzgnLCAnLW1hJywgJzIwMCcsICctbWV0YWxfYmluZGluZycsICctaW1hZScsICc8aW5maWxlLm1hZT4nLCAnLW9tYWUnLCAnPG91dGZpbGUubWFlPic=

> <r_lp_tautomer_probability>
1

> <r_epik_Ionization_Penalty>
0.000148912

> <r_epik_Ionization_Penalty_Charging>
0

> <r_epik_Ionization_Penalty_Neutral>
0.000148912

> <r_epik_State_Penalty>
-0

> <r_epik_Charging_Adjusted_Penalty>
0

> <i_epik_Tot_Q>
0

> <i_epik_Tot_abs_Q>
2

> <r_epik_Metal_State_Penalty>
-0

> <b_epik_Metal_Only>
0

> <s_lp_Force_Field>
OPLS_2005

> <r_lp_Energy>
28.1068

> <b_lp_Chiralities_Consistent>
1

> <s_lp_Variant>
AV-unprocessed.smi:2431-1

> <Gold.Version>
5.8.1

> <Gold.Id.Protein>
6NUR|6NUR_protein|mol2

> <Gold.PLP.Fitness>
46.9918

> <Gold.PLP.PLP>
-41.0886

> <Gold.PLP.part.hbond>
-3.0000

> <Gold.PLP.part.metal>
0.0000

> <Gold.PLP.part.buried>
-7.3688

> <Gold.PLP.part.nonpolar>
-32.5448

> <Gold.PLP.part.repulsive>
0.8427

> <Gold.PLP.ligand.clash>
0.0000

> <Gold.PLP.ligand.torsion>
0.8360

> <Gold.PLP.Chemscore.Hbond>
2.5118

> <Gold.PLP.Chemscore.CHOScore>
0.0000

> <Gold.PLP.Chemscore.Metal>
0.0000

> <Gold.Chemscore.Hbonds>
donor molecule, donor type, donor heavy atom, donor atom, acceptor molecule, acceptor atom, score
      L1  H     3    21       P1  8029  1.00
      L1  H    11    33       P1  8029  1.00
      P1  H  6933  6944       L1     1  0.56

> <Gold.PLP.Chemscore.Internal.Correction>
0.0399

> <Gold.Rescore>
     Score         DG    S(hbond)    S(metal)    S(lipo)     H(rot)  DE(clash)    DE(int)     intcor
     17.42     -20.46       2.19        0.00      97.96       1.48       0.04       3.01       ----

> <Gold.Chemscore.Fitness>
17.4168

> <Gold.Chemscore.DG>
-20.4638

> <Gold.Chemscore.ZeroCoef>
-5.4800

> <Gold.Chemscore.Hbond>
2.1911

> <Gold.Chemscore.Metal>
0.0000

> <Gold.Chemscore.Lipo>
97.9608

> <Gold.Chemscore.Internal_Hbond>
0.0000

> <Gold.Chemscore.DEClash>
0.0404

> <Gold.Chemscore.DEInternal>
3.0066

> <Gold.Chemscore.Rot>
1.4828

> <Gold.Chemscore.Internal.Correction>
   9.000000E+99

> <Gold.Chemscore.Hbonds>
donor molecule, donor type, donor heavy atom, donor atom, acceptor molecule, acceptor atom, score
      L1  H     3    21       P1  8029  0.87
      L1  H    11    33       P1  8029  0.92
      P1  H  6933  6944       L1     1  0.14

> <Gold.Chemscore.Hbond.Weighted>
-7.3184

> <Gold.Chemscore.Metal.Weighted>
-0.0000

> <Gold.Chemscore.Lipo.Weighted>
-11.4614

> <Gold.Chemscore.Internal_Hbond.Weighted>
0.0000

> <Gold.Chemscore.DEClash.Weighted>
0.0404

> <Gold.Chemscore.DEInternal.Weighted>
3.0066

> <Gold.Chemscore.Rot.Weighted>
3.7960

> <Gold.Chemscore.Internal.Correction.Weighted>
   9.000000E+99

> <Gold.Protein.RotatedTorsions>
[ 6907 6896 6895 6894 ] final  172.76 input  -60.11 | X-H torsion
[ 7974 7965 7964 7962 ] final   36.98 input  175.53 | X-H torsion
[ 8008 7997 7996 7995 ] final  163.23 input   59.86 | X-H torsion
[ 10167 10162 10161 10158 ] final  -28.44 input  -65.29 | X-H torsion
[ 10718 10713 10712 10709 ] final   20.13 input   66.30 | X-H torsion
[ 10763 10752 10751 10750 ] final  144.41 input  -60.55 | X-H torsion
[ 11005 11000 10999 10996 ] final -164.10 input  -57.11 | X-H torsion

> <Gold.Protein.ActiveResidues>
 VAL166  LYS551  ARG553  GLY616  TRP617  ASP618  TYR619  PRO620  LYS621  CYS622 
 ASP623  PHE694  ASN695  SER759  ASP760  ASP761  ALA762  ILE779  LEU786  VAL792 
 PHE793  MET794  SER795  GLU796  ALA797  LYS798  CYS799  TRP800  GLU811  SER814 

> <Gold.Protein.RotatedAtoms>
  151.7792  133.3348  159.3466 H   0  0  0  0  0  0  0  0  0  0  0  0  # atno 6907 bound_to 6896
  150.7432  134.5947  159.6015 H   0  0  0  0  0  0  0  0  0  0  0  0  # atno 6908 bound_to 6896
  152.3288  134.7288  160.0346 H   0  0  0  0  0  0  0  0  0  0  0  0  # atno 6909 bound_to 6896
  146.1171  139.5951  142.9314 H   0  0  0  0  0  0  0  0  0  0  0  0  # atno 7974 bound_to 7965
  156.1972  140.1729  156.7973 H   0  0  0  0  0  0  0  0  0  0  0  0  # atno 8008 bound_to 7997
  154.5545  140.0711  156.8752 H   0  0  0  0  0  0  0  0  0  0  0  0  # atno 8009 bound_to 7997
  155.2965  140.3359  155.4252 H   0  0  0  0  0  0  0  0  0  0  0  0  # atno 8010 bound_to 7997
  140.7270  143.4010  151.1265 H   0  0  0  0  0  0  0  0  0  0  0  0  # atno 10167 bound_to 10162
  157.1201  130.6546  149.5921 H   0  0  0  0  0  0  0  0  0  0  0  0  # atno 10718 bound_to 10713
  153.9884  135.2934  155.3414 H   0  0  0  0  0  0  0  0  0  0  0  0  # atno 10763 bound_to 10752
  154.7229  135.5101  153.8843 H   0  0  0  0  0  0  0  0  0  0  0  0  # atno 10764 bound_to 10752
  153.0821  135.6682  154.0139 H   0  0  0  0  0  0  0  0  0  0  0  0  # atno 10765 bound_to 10752
  140.5907  134.5047  157.5192 H   0  0  0  0  0  0  0  0  0  0  0  0  # atno 11005 bound_to 11000
  145.5543  141.0410  143.2261 LP  0  0  0  0  0  0  0  0  0  0  0  0  # atno 17320 bound_to 7965
  144.7563  139.7066  143.7252 LP  0  0  0  0  0  0  0  0  0  0  0  0  # atno 17321 bound_to 7965
  139.7630  143.8607  152.3104 LP  0  0  0  0  0  0  0  0  0  0  0  0  # atno 17342 bound_to 10162
  139.8500  144.7169  150.9226 LP  0  0  0  0  0  0  0  0  0  0  0  0  # atno 17343 bound_to 10162
  155.9830  130.4847  150.6912 LP  0  0  0  0  0  0  0  0  0  0  0  0  # atno 17370 bound_to 10713
  157.4483  131.0869  151.0872 LP  0  0  0  0  0  0  0  0  0  0  0  0  # atno 17371 bound_to 10713
  139.9275  134.8027  156.1025 LP  0  0  0  0  0  0  0  0  0  0  0  0  # atno 17394 bound_to 11000
  141.0936  133.6704  156.2596 LP  0  0  0  0  0  0  0  0  0  0  0  0  # atno 17395 bound_to 11000

$$$$
