AV-unprocessed.smi:72|AV-procd|sdf|745|dock7
  -GOLD-   2262017 83D 1   1.00000     0.00000
 Structure written by MMmdl.
 29 30  0  0  0  0  0  0  0  0  1 V2000
  153.3098  138.9248  160.8593 N   0  0  0  0  0  0  0  0  0  0  0  0
  152.9142  138.9219  159.5383 C   0  0  0  0  0  0  0  0  0  0  0  0
  152.1530  140.0188  159.1137 N   0  0  0  0  0  0  0  0  0  0  0  0
  151.7701  140.0160  157.8762 C   0  0  0  0  0  0  0  0  0  0  0  0
  152.1005  138.9155  156.9833 N   0  0  0  0  0  0  0  0  0  0  0  0
  151.6807  138.8827  155.5216 C   0  0  2  0  0  0  0  0  0  0  0  0
  151.0325  140.0757  155.1848 O   0  0  0  0  0  0  0  0  0  0  0  0
  149.6207  139.8916  155.2412 C   0  0  1  0  0  0  0  0  0  0  0  0
  148.8803  141.0107  154.4890 C   0  0  0  0  0  0  0  0  0  0  0  0
  149.2521  141.0041  153.1270 O   0  0  0  0  0  0  0  0  0  0  0  0
  149.4643  138.4819  154.6641 C   0  0  1  0  0  0  0  0  0  0  0  0
  149.4981  138.5188  153.2462 O   0  0  0  0  0  0  0  0  0  0  0  0
  150.6642  137.7476  155.2637 C   0  0  1  0  0  0  0  0  0  0  0  0
  151.1580  136.7316  154.4104 O   0  0  0  0  0  0  0  0  0  0  0  0
  152.9087  137.8530  157.4761 C   0  0  0  0  0  0  0  0  0  0  0  0
  153.2453  136.9348  156.7283 O   0  0  0  0  0  0  0  0  0  0  0  0
  153.2906  137.9025  158.8217 N   0  0  0  0  0  0  0  0  0  0  0  0
  152.6107  138.7998  154.9562 H   0  0  0  0  0  0  0  0  0  0  0  0
  149.2964  139.8671  156.2833 H   0  0  0  0  0  0  0  0  0  0  0  0
  148.5227  138.0237  154.9683 H   0  0  0  0  0  0  0  0  0  0  0  0
  150.3697  137.3027  156.2156 H   0  0  0  0  0  0  0  0  0  0  0  0
  153.8620  138.1891  161.2754 H   0  0  0  0  0  0  0  0  0  0  0  0
  153.0759  139.6619  161.5085 H   0  0  0  0  0  0  0  0  0  0  0  0
  151.1881  140.8289  157.4421 H   0  0  0  0  0  0  0  0  0  0  0  0
  147.7990  140.9090  154.5858 H   0  0  0  0  0  0  0  0  0  0  0  0
  149.1554  141.9835  154.8978 H   0  0  0  0  0  0  0  0  0  0  0  0
  149.4531  140.1155  152.8757 H   0  0  0  0  0  0  0  0  0  0  0  0
  149.5259  137.6288  152.9290 H   0  0  0  0  0  0  0  0  0  0  0  0
  150.6202  136.7069  153.6334 H   0  0  0  0  0  0  0  0  0  0  0  0
  1  2  1  0  0  0  0
  1 22  1  0  0  0  0
  1 23  1  0  0  0  0
  2 17  2  0  0  0  0
  2  3  1  0  0  0  0
  3  4  2  0  0  0  0
  4  5  1  0  0  0  0
  4 24  1  0  0  0  0
  5  6  1  0  0  0  0
  5 15  1  0  0  0  0
  6 18  1  0  0  0  0
  6 13  1  0  0  0  0
  6  7  1  0  0  0  0
  7  8  1  0  0  0  0
  8 19  1  0  0  0  0
  8  9  1  0  0  0  0
  8 11  1  0  0  0  0
  9 10  1  0  0  0  0
  9 25  1  0  0  0  0
  9 26  1  0  0  0  0
 10 27  1  0  0  0  0
 11 20  1  0  0  0  0
 11 12  1  0  0  0  0
 11 13  1  0  0  0  0
 12 28  1  0  0  0  0
 13 21  1  0  0  0  0
 13 14  1  0  0  0  0
 14 29  1  0  0  0  0
 15 16  2  0  0  0  0
 15 17  1  0  0  0  0
M  END
> <s_m_source_file>
AV-unprocessed.smi

> <i_m_source_file_index>
72

> <i_lp_mmshare_version>
43012

> <i_f3d_flags>
0

> <s_epik_input>
W05IMl1jMW5bY0hdbihjKD1PKW4xKVtDQEBIXTJPW0NASF0oW0NIMl1bT0hdKVtDQEBIXShbT0hdKVtDQEhdMltPSF0=

> <s_epik_cmdline>
J2VwaWtfcHl0aG9uJywgJy1waCcsICc3LjAnLCAnLXRuJywgJzgnLCAnLW1hJywgJzIwMCcsICctbWV0YWxfYmluZGluZycsICctaW1hZScsICc8aW5maWxlLm1hZT4nLCAnLW9tYWUnLCAnPG91dGZpbGUubWFlPic=

> <r_lp_tautomer_probability>
4.77166e-05

> <r_epik_Ionization_Penalty>
1.3546

> <r_epik_Ionization_Penalty_Charging>
1.46833e-10

> <r_epik_Ionization_Penalty_Neutral>
1.3546

> <r_epik_State_Penalty>
3.51908

> <r_epik_Charging_Adjusted_Penalty>
3.51908

> <i_epik_Tot_Q>
0

> <i_epik_Tot_abs_Q>
0

> <r_epik_Metal_State_Penalty>
3.44088

> <b_epik_Metal_Only>
1

> <s_epik_Chemistry_Notes>
This compound contains an acetal/aminal-like group ( X-CH(R)-Y where X, Y are N, S, or O) that may be acid/base labile, releasing an aldehyde.

> <s_lp_Force_Field>
OPLS_2005

> <r_lp_Energy>
31.2985

> <b_lp_Chiralities_Consistent>
1

> <s_lp_Variant>
AV-unprocessed.smi:72-83

> <Gold.Version>
5.8.1

> <Gold.Id.Protein>
6NUR|6NUR_protein|mol2

> <Gold.PLP.Fitness>
43.8687

> <Gold.PLP.PLP>
-27.6999

> <Gold.PLP.part.hbond>
-8.0497

> <Gold.PLP.part.metal>
0.0000

> <Gold.PLP.part.buried>
-3.5418

> <Gold.PLP.part.nonpolar>
-15.0693

> <Gold.PLP.part.repulsive>
0.0577

> <Gold.PLP.ligand.clash>
0.0000

> <Gold.PLP.ligand.torsion>
0.1037

> <Gold.PLP.Chemscore.Hbond>
5.4512

> <Gold.PLP.Chemscore.CHOScore>
0.0000

> <Gold.PLP.Chemscore.Metal>
0.0000

> <Gold.Chemscore.Hbonds>
donor molecule, donor type, donor heavy atom, donor atom, acceptor molecule, acceptor atom, score
      L1  H    10    27       P1  7957  0.18
      L1  H    12    28       P1  7948  1.00
      L1  H    14    29       P1  7949  0.09
      P1  H  7989  7998       L1     7  1.00
      P1  H  8011  8017       L1    10  1.00
      P1  H 10752 10763       L1    16  0.25
      P1  H 10752 10765       L1    14  0.76

> <Gold.PLP.Chemscore.Internal.Correction>
0.0227

> <Gold.Rescore>
     Score         DG    S(hbond)    S(metal)    S(lipo)     H(rot)  DE(clash)    DE(int)     intcor
     12.13     -12.37       4.39        0.00      22.50       4.06       0.00       0.25       ----

> <Gold.Chemscore.Fitness>
12.1271

> <Gold.Chemscore.DG>
-12.3725

> <Gold.Chemscore.ZeroCoef>
-5.4800

> <Gold.Chemscore.Hbond>
4.3873

> <Gold.Chemscore.Metal>
0.0000

> <Gold.Chemscore.Lipo>
22.5003

> <Gold.Chemscore.Internal_Hbond>
0.0000

> <Gold.Chemscore.DEClash>
0.0004

> <Gold.Chemscore.DEInternal>
0.2451

> <Gold.Chemscore.Rot>
4.0600

> <Gold.Chemscore.Internal.Correction>
   9.000000E+99

> <Gold.Chemscore.Hbonds>
donor molecule, donor type, donor heavy atom, donor atom, acceptor molecule, acceptor atom, score
      L1  H    10    27       P1  7957  0.19
      L1  H    12    28       P1  7948  0.77
      P1  H  7989  7998       L1     7  0.74
      P1  H  8011  8017       L1    10  0.99
      P1  H 10752 10763       L1    16  0.25
      P1  H 10752 10765       L1    14  0.60

> <Gold.Chemscore.Hbond.Weighted>
-14.6536

> <Gold.Chemscore.Metal.Weighted>
-0.0000

> <Gold.Chemscore.Lipo.Weighted>
-2.6325

> <Gold.Chemscore.Internal_Hbond.Weighted>
0.0000

> <Gold.Chemscore.DEClash.Weighted>
0.0004

> <Gold.Chemscore.DEInternal.Weighted>
0.2451

> <Gold.Chemscore.Rot.Weighted>
10.3936

> <Gold.Chemscore.Internal.Correction.Weighted>
   9.000000E+99

> <Gold.Protein.RotatedTorsions>
[ 6907 6896 6895 6894 ] final  -15.73 input  -60.11 | X-H torsion
[ 7974 7965 7964 7962 ] final  -32.86 input  175.53 | X-H torsion
[ 8008 7997 7996 7995 ] final  131.23 input   59.86 | X-H torsion
[ 10167 10162 10161 10158 ] final  160.78 input  -65.29 | X-H torsion
[ 10718 10713 10712 10709 ] final  110.23 input   66.30 | X-H torsion
[ 10763 10752 10751 10750 ] final  150.32 input  -60.55 | X-H torsion
[ 11005 11000 10999 10996 ] final  -50.33 input  -57.11 | X-H torsion

> <Gold.Protein.ActiveResidues>
 VAL166  LYS551  ARG553  GLY616  TRP617  ASP618  TYR619  PRO620  LYS621  CYS622 
 ASP623  PHE694  ASN695  SER759  ASP760  ASP761  ALA762  ILE779  LEU786  VAL792 
 PHE793  MET794  SER795  GLU796  ALA797  LYS798  CYS799  TRP800  GLU811  SER814 

> <Gold.Protein.RotatedAtoms>
  151.3194  135.0814  159.9300 H   0  0  0  0  0  0  0  0  0  0  0  0  # atno 6907 bound_to 6896
  152.5260  133.9654  159.7747 H   0  0  0  0  0  0  0  0  0  0  0  0  # atno 6908 bound_to 6896
  150.9972  133.6039  159.2730 H   0  0  0  0  0  0  0  0  0  0  0  0  # atno 6909 bound_to 6896
  146.0956  140.5845  142.8844 H   0  0  0  0  0  0  0  0  0  0  0  0  # atno 7974 bound_to 7965
  156.2967  140.2576  156.2891 H   0  0  0  0  0  0  0  0  0  0  0  0  # atno 8008 bound_to 7997
  154.9527  140.0394  157.2170 H   0  0  0  0  0  0  0  0  0  0  0  0  # atno 8009 bound_to 7997
  154.8021  140.2830  155.5918 H   0  0  0  0  0  0  0  0  0  0  0  0  # atno 8010 bound_to 7997
  139.4843  144.4600  151.8717 H   0  0  0  0  0  0  0  0  0  0  0  0  # atno 10167 bound_to 10162
  157.6504  131.0929  150.6571 H   0  0  0  0  0  0  0  0  0  0  0  0  # atno 10718 bound_to 10713
  154.0856  135.2856  155.3282 H   0  0  0  0  0  0  0  0  0  0  0  0  # atno 10763 bound_to 10752
  154.6655  135.5319  153.8074 H   0  0  0  0  0  0  0  0  0  0  0  0  # atno 10764 bound_to 10752
  153.0432  135.6544  154.1028 H   0  0  0  0  0  0  0  0  0  0  0  0  # atno 10765 bound_to 10752
  141.0810  133.6653  156.3716 H   0  0  0  0  0  0  0  0  0  0  0  0  # atno 11005 bound_to 11000
  144.7393  140.4897  143.6881 LP  0  0  0  0  0  0  0  0  0  0  0  0  # atno 17320 bound_to 7965
  145.5954  139.1499  143.3159 LP  0  0  0  0  0  0  0  0  0  0  0  0  # atno 17321 bound_to 7965
  140.4062  144.2429  150.5890 LP  0  0  0  0  0  0  0  0  0  0  0  0  # atno 17342 bound_to 10162
  140.5010  143.2318  151.8679 LP  0  0  0  0  0  0  0  0  0  0  0  0  # atno 17343 bound_to 10162
  156.6883  130.4587  149.5607 LP  0  0  0  0  0  0  0  0  0  0  0  0  # atno 17370 bound_to 10713
  156.1880  130.6541  151.1028 LP  0  0  0  0  0  0  0  0  0  0  0  0  # atno 17371 bound_to 10713
  140.5468  134.6066  157.5396 LP  0  0  0  0  0  0  0  0  0  0  0  0  # atno 17394 bound_to 11000
  139.9624  134.7430  156.0209 LP  0  0  0  0  0  0  0  0  0  0  0  0  # atno 17395 bound_to 11000

$$$$
