AV-unprocessed.smi:3335|AV-procd|sdf|12837|dock10
  -GOLD-   2272019223D 1   1.00000     0.00000
 Structure written by MMmdl.
 47 48  0  0  0  0  0  0  0  0  2 V2000
  146.2866  143.3640  154.1185 C   0  0  0  0  0  0  0  0  0  0  0  0
  146.9941  142.0413  154.0552 C   0  0  0  0  0  0  0  0  0  0  0  0
  148.3073  141.7293  154.5071 C   0  0  0  0  0  0  0  0  0  0  0  0
  148.6371  140.4668  154.2908 N   0  0  0  0  0  0  0  0  0  0  0  0
  147.5438  139.9210  153.7111 N   0  0  0  0  0  0  0  0  0  0  0  0
  147.5479  138.5293  153.2719 C   0  0  2  0  0  0  0  0  0  0  0  0
  146.3513  138.2089  152.3507 C   0  0  0  0  0  0  0  0  0  0  0  0
  147.6960  137.5719  154.4811 C   0  0  2  0  0  0  0  0  0  0  0  0
  148.9763  137.8366  155.2934 C   0  0  0  0  0  0  0  0  0  0  0  0
  147.6223  136.1529  154.0513 N   0  3  0  0  0  0  0  0  0  0  0  0
  146.2603  135.5962  153.8752 C   0  0  2  0  0  0  0  0  0  0  0  0
  145.5274  135.5989  155.2256 C   0  0  0  0  0  0  0  0  0  0  0  0
  146.3093  134.1615  153.3108 C   0  0  0  0  0  0  0  0  0  0  0  0
  146.8886  133.2884  153.9585 O   0  0  0  0  0  0  0  0  0  0  0  0
  145.7088  133.8921  152.1320 N   0  0  0  0  0  0  0  0  0  0  0  0
  145.6596  132.5935  151.4605 C   0  0  0  0  0  0  0  0  0  0  0  0
  145.0761  132.8638  150.0737 C   0  0  0  0  0  0  0  0  0  0  0  0
  144.2549  134.1319  150.2561 C   0  0  0  0  0  0  0  0  0  0  0  0
  144.9962  134.9008  151.3494 C   0  0  0  0  0  0  0  0  0  0  0  0
  146.5434  140.8564  153.5469 C   0  0  0  0  0  0  0  0  0  0  0  0
  146.7870  144.0596  154.7925 H   0  0  0  0  0  0  0  0  0  0  0  0
  145.2613  143.2560  154.4727 H   0  0  0  0  0  0  0  0  0  0  0  0
  146.2411  143.8415  153.1396 H   0  0  0  0  0  0  0  0  0  0  0  0
  149.0296  142.3818  154.9751 H   0  0  0  0  0  0  0  0  0  0  0  0
  148.4444  138.4143  152.6606 H   0  0  0  0  0  0  0  0  0  0  0  0
  146.4425  137.2170  151.9088 H   0  0  0  0  0  0  0  0  0  0  0  0
  146.2965  138.9208  151.5265 H   0  0  0  0  0  0  0  0  0  0  0  0
  145.4006  138.2479  152.8832 H   0  0  0  0  0  0  0  0  0  0  0  0
  146.8505  137.7752  155.1402 H   0  0  0  0  0  0  0  0  0  0  0  0
  149.0538  138.8885  155.5696 H   0  0  0  0  0  0  0  0  0  0  0  0
  149.8729  137.5729  154.7324 H   0  0  0  0  0  0  0  0  0  0  0  0
  148.9893  137.2608  156.2185 H   0  0  0  0  0  0  0  0  0  0  0  0
  148.0926  136.0727  153.1598 H   0  0  0  0  0  0  0  0  0  0  0  0
  145.7211  136.2583  153.1997 H   0  0  0  0  0  0  0  0  0  0  0  0
  144.5114  135.2140  155.1296 H   0  0  0  0  0  0  0  0  0  0  0  0
  145.4548  136.6095  155.6284 H   0  0  0  0  0  0  0  0  0  0  0  0
  146.0451  134.9855  155.9644 H   0  0  0  0  0  0  0  0  0  0  0  0
  146.6419  132.1257  151.3854 H   0  0  0  0  0  0  0  0  0  0  0  0
  145.0035  131.9270  152.0224 H   0  0  0  0  0  0  0  0  0  0  0  0
  145.8846  133.0524  149.3661 H   0  0  0  0  0  0  0  0  0  0  0  0
  144.4871  132.0291  149.6926 H   0  0  0  0  0  0  0  0  0  0  0  0
  144.1487  134.7047  149.3344 H   0  0  0  0  0  0  0  0  0  0  0  0
  143.2547  133.8721  150.6058 H   0  0  0  0  0  0  0  0  0  0  0  0
  144.3056  135.4849  151.9598 H   0  0  0  0  0  0  0  0  0  0  0  0
  145.7225  135.5859  150.9094 H   0  0  0  0  0  0  0  0  0  0  0  0
  145.6014  140.6053  153.0817 H   0  0  0  0  0  0  0  0  0  0  0  0
  148.1245  135.5951  154.7267 H   0  0  0  0  0  0  0  0  0  0  0  0
  1  2  1  0  0  0  0
  1 21  1  0  0  0  0
  1 22  1  0  0  0  0
  1 23  1  0  0  0  0
  2 20  2  0  0  0  0
  2  3  1  0  0  0  0
  3  4  2  0  0  0  0
  3 24  1  0  0  0  0
  4  5  1  0  0  0  0
  5  6  1  0  0  0  0
  5 20  1  0  0  0  0
  6  7  1  0  0  0  0
  6  8  1  0  0  0  0
  6 25  1  0  0  0  0
  7 26  1  0  0  0  0
  7 27  1  0  0  0  0
  7 28  1  0  0  0  0
  8  9  1  0  0  0  0
  8 10  1  0  0  0  0
  8 29  1  0  0  0  0
  9 30  1  0  0  0  0
  9 31  1  0  0  0  0
  9 32  1  0  0  0  0
 10 11  1  0  0  0  0
 10 33  1  0  0  0  0
 10 47  1  0  0  0  0
 11 12  1  0  0  0  0
 11 13  1  0  0  0  0
 11 34  1  0  0  0  0
 12 35  1  0  0  0  0
 12 36  1  0  0  0  0
 12 37  1  0  0  0  0
 13 14  2  0  0  0  0
 13 15  1  0  0  0  0
 15 19  1  0  0  0  0
 15 16  1  0  0  0  0
 16 17  1  0  0  0  0
 16 38  1  0  0  0  0
 16 39  1  0  0  0  0
 17 18  1  0  0  0  0
 17 40  1  0  0  0  0
 17 41  1  0  0  0  0
 18 19  1  0  0  0  0
 18 42  1  0  0  0  0
 18 43  1  0  0  0  0
 19 44  1  0  0  0  0
 19 45  1  0  0  0  0
 20 46  1  0  0  0  0
M  CHG  1  10   1
M  END
> <s_m_source_file>
AV-unprocessed.smi

> <i_m_source_file_index>
3335

> <i_lp_mmshare_version>
43012

> <i_f3d_flags>
0

> <s_epik_input>
W0NIM11jMVtjSF1ubihbY0hdMSlbQ0BIXShbQ0gzXSlbQ0BIXShbQ0gzXSlbTkhdW0NASF0oW0NIM10pQyg9TylOMltDSDJdW0NIMl1bQ0gyXVtDSDJdMg==

> <s_epik_cmdline>
J2VwaWtfcHl0aG9uJywgJy1waCcsICc3LjAnLCAnLXRuJywgJzgnLCAnLW1hJywgJzIwMCcsICctbWV0YWxfYmluZGluZycsICctaW1hZScsICc8aW5maWxlLm1hZT4nLCAnLW9tYWUnLCAnPG91dGZpbGUubWFlPic=

> <r_lp_tautomer_probability>
1

> <r_epik_Ionization_Penalty>
0.14175

> <r_epik_Ionization_Penalty_Charging>
0.141731

> <r_epik_Ionization_Penalty_Neutral>
1.91261e-05

> <r_epik_State_Penalty>
0.131043

> <r_epik_Charging_Adjusted_Penalty>
0.272773

> <i_epik_Tot_Q>
1

> <i_epik_Tot_abs_Q>
1

> <r_epik_Metal_State_Penalty>
0.131408

> <b_epik_Metal_Only>
0

> <s_lp_Force_Field>
OPLS_2005

> <r_lp_Energy>
36.483

> <b_lp_Chiralities_Consistent>
1

> <s_lp_Variant>
AV-unprocessed.smi:3335-1

> <Gold.Version>
5.8.1

> <Gold.Id.Protein>
6NUR|6NUR_protein|mol2

> <Gold.PLP.Fitness>
39.6203

> <Gold.PLP.PLP>
-28.4108

> <Gold.PLP.part.hbond>
-1.0000

> <Gold.PLP.part.metal>
0.0000

> <Gold.PLP.part.buried>
0.4980

> <Gold.PLP.part.nonpolar>
-28.8002

> <Gold.PLP.part.repulsive>
0.1876

> <Gold.PLP.ligand.clash>
0.0000

> <Gold.PLP.ligand.torsion>
0.4815

> <Gold.PLP.Chemscore.Hbond>
2.0000

> <Gold.PLP.Chemscore.CHOScore>
1.9879

> <Gold.PLP.Chemscore.Metal>
0.0000

> <Gold.Chemscore.Hbonds>
donor molecule, donor type, donor heavy atom, donor atom, acceptor molecule, acceptor atom, score
      L1  H    10    33       P1  7948  2.00
      L1  C     3    24       P1  8028  1.00
      L1  C    20    46       P1 10175  0.95

> <Gold.PLP.Chemscore.Internal.Correction>
0.2089

> <Gold.Rescore>
     Score         DG    S(hbond)    S(metal)    S(lipo)     H(rot)  DE(clash)    DE(int)     intcor
     10.64     -12.92       0.98        0.00      72.33       1.68       0.32       1.95       ----

> <Gold.Chemscore.Fitness>
10.6445

> <Gold.Chemscore.DG>
-12.9156

> <Gold.Chemscore.ZeroCoef>
-5.4800

> <Gold.Chemscore.Hbond>
0.9784

> <Gold.Chemscore.Metal>
0.0000

> <Gold.Chemscore.Lipo>
72.3313

> <Gold.Chemscore.Internal_Hbond>
0.0000

> <Gold.Chemscore.DEClash>
0.3174

> <Gold.Chemscore.DEInternal>
1.9536

> <Gold.Chemscore.Rot>
1.6778

> <Gold.Chemscore.Internal.Correction>
   9.000000E+99

> <Gold.Chemscore.Hbonds>
donor molecule, donor type, donor heavy atom, donor atom, acceptor molecule, acceptor atom, score
      L1  H    10    33       P1  7948  0.96

> <Gold.Chemscore.Hbond.Weighted>
-3.2680

> <Gold.Chemscore.Metal.Weighted>
-0.0000

> <Gold.Chemscore.Lipo.Weighted>
-8.4628

> <Gold.Chemscore.Internal_Hbond.Weighted>
0.0000

> <Gold.Chemscore.DEClash.Weighted>
0.3174

> <Gold.Chemscore.DEInternal.Weighted>
1.9536

> <Gold.Chemscore.Rot.Weighted>
4.2952

> <Gold.Chemscore.Internal.Correction.Weighted>
   9.000000E+99

> <Gold.Protein.RotatedTorsions>
[ 6907 6896 6895 6894 ] final -117.06 input  -60.11 | X-H torsion
[ 7974 7965 7964 7962 ] final   -3.30 input  175.53 | X-H torsion
[ 8008 7997 7996 7995 ] final  106.75 input   59.86 | X-H torsion
[ 10167 10162 10161 10158 ] final   33.87 input  -65.29 | X-H torsion
[ 10718 10713 10712 10709 ] final    6.10 input   66.30 | X-H torsion
[ 10763 10752 10751 10750 ] final -169.10 input  -60.55 | X-H torsion
[ 11005 11000 10999 10996 ] final -166.06 input  -57.11 | X-H torsion

> <Gold.Protein.ActiveResidues>
 VAL166  LYS551  ARG553  GLY616  TRP617  ASP618  TYR619  PRO620  LYS621  CYS622 
 ASP623  PHE694  ASN695  SER759  ASP760  ASP761  ALA762  ILE779  LEU786  VAL792 
 PHE793  MET794  SER795  GLU796  ALA797  LYS798  CYS799  TRP800  GLU811  SER814 

> <Gold.Protein.RotatedAtoms>
  150.8106  133.8429  159.3183 H   0  0  0  0  0  0  0  0  0  0  0  0  # atno 6907 bound_to 6896
  151.6215  135.1030  160.0112 H   0  0  0  0  0  0  0  0  0  0  0  0  # atno 6908 bound_to 6896
  152.4198  133.7057  159.6506 H   0  0  0  0  0  0  0  0  0  0  0  0  # atno 6909 bound_to 6896
  146.2392  140.1700  142.8332 H   0  0  0  0  0  0  0  0  0  0  0  0  # atno 7974 bound_to 7965
  156.1768  140.3107  155.9075 H   0  0  0  0  0  0  0  0  0  0  0  0  # atno 8008 bound_to 7997
  155.3469  140.0469  157.3062 H   0  0  0  0  0  0  0  0  0  0  0  0  # atno 8009 bound_to 7997
  154.5299  140.2227  155.8832 H   0  0  0  0  0  0  0  0  0  0  0  0  # atno 8010 bound_to 7997
  140.4367  144.1246  150.6167 H   0  0  0  0  0  0  0  0  0  0  0  0  # atno 10167 bound_to 10162
  156.9172  130.5778  149.5647 H   0  0  0  0  0  0  0  0  0  0  0  0  # atno 10718 bound_to 10713
  154.6559  135.2918  154.9929 H   0  0  0  0  0  0  0  0  0  0  0  0  # atno 10763 bound_to 10752
  154.1005  135.6577  153.4871 H   0  0  0  0  0  0  0  0  0  0  0  0  # atno 10764 bound_to 10752
  153.0402  135.5241  154.7487 H   0  0  0  0  0  0  0  0  0  0  0  0  # atno 10765 bound_to 10752
  140.5687  134.5259  157.5158 H   0  0  0  0  0  0  0  0  0  0  0  0  # atno 11005 bound_to 11000
  145.0019  140.8639  143.5276 LP  0  0  0  0  0  0  0  0  0  0  0  0  # atno 17320 bound_to 7965
  145.1720  139.2399  143.5337 LP  0  0  0  0  0  0  0  0  0  0  0  0  # atno 17321 bound_to 7965
  140.4365  143.2545  151.9528 LP  0  0  0  0  0  0  0  0  0  0  0  0  # atno 17342 bound_to 10162
  139.4787  144.5695  151.8112 LP  0  0  0  0  0  0  0  0  0  0  0  0  # atno 17343 bound_to 10162
  156.0508  130.5577  150.8984 LP  0  0  0  0  0  0  0  0  0  0  0  0  # atno 17370 bound_to 10713
  157.5930  131.0944  150.9087 LP  0  0  0  0  0  0  0  0  0  0  0  0  # atno 17371 bound_to 10713
  139.9372  134.7853  156.0772 LP  0  0  0  0  0  0  0  0  0  0  0  0  # atno 17394 bound_to 11000
  141.1069  133.6657  156.2886 LP  0  0  0  0  0  0  0  0  0  0  0  0  # atno 17395 bound_to 11000

$$$$
