AV-unprocessed.smi:1260|AV-procd|sdf|5300|dock2
  -GOLD-   22720 4423D 1   1.00000     0.00000
 Structure written by MMmdl.
 37 39  0  0  0  0  0  0  0  0  2 V2000
  147.7211  132.1923  153.8792 O   0  0  0  0  0  0  0  0  0  0  0  0
  148.2958  133.2393  153.5835 C   0  0  0  0  0  0  0  0  0  0  0  0
  149.7195  133.4955  154.0791 C   0  0  0  0  0  0  0  0  0  0  0  0
  149.9503  132.8513  155.3583 N   0  0  0  0  0  0  0  0  0  0  0  0
  149.8761  131.5692  155.7213 C   0  0  0  0  0  0  0  0  0  0  0  0
  150.1509  131.4091  157.0069 N   0  0  0  0  0  0  0  0  0  0  0  0
  150.4095  132.6998  157.4372 N   0  0  0  0  0  0  0  0  0  0  0  0
  150.2915  133.5601  156.4634 N   0  0  0  0  0  0  0  0  0  0  0  0
  147.7412  134.2007  152.8284 N   0  0  0  0  0  0  0  0  0  0  0  0
  146.3874  134.1709  152.2826 C   0  0  1  0  0  0  0  0  0  0  0  0
  145.7371  135.5603  152.2234 C   0  0  0  0  0  0  0  0  0  0  0  0
  144.9208  135.5747  150.9156 C   0  0  0  0  0  0  0  0  0  0  0  0
  145.0521  134.2266  150.3159 N   0  3  2  0  0  0  0  0  0  0  0  0
  143.8803  133.3611  150.6261 C   0  0  0  0  0  0  0  0  0  0  0  0
  144.1132  131.9006  150.2178 C   0  0  0  0  0  0  0  0  0  0  0  0
  145.3616  131.3493  150.9111 C   0  0  0  0  0  0  0  0  0  0  0  0
  146.5713  132.2120  150.5385 C   0  0  0  0  0  0  0  0  0  0  0  0
  146.3511  133.7161  150.8179 C   0  0  2  0  0  0  0  0  0  0  0  0
  150.4428  133.1108  153.3588 H   0  0  0  0  0  0  0  0  0  0  0  0
  149.8954  134.5683  154.1731 H   0  0  0  0  0  0  0  0  0  0  0  0
  149.6172  130.7622  155.0517 H   0  0  0  0  0  0  0  0  0  0  0  0
  148.2918  135.0262  152.6387 H   0  0  0  0  0  0  0  0  0  0  0  0
  145.7492  133.5240  152.8873 H   0  0  0  0  0  0  0  0  0  0  0  0
  145.1071  135.7352  153.0961 H   0  0  0  0  0  0  0  0  0  0  0  0
  146.4871  136.3524  152.1979 H   0  0  0  0  0  0  0  0  0  0  0  0
  143.8804  135.8608  151.0780 H   0  0  0  0  0  0  0  0  0  0  0  0
  145.3494  136.3011  150.2241 H   0  0  0  0  0  0  0  0  0  0  0  0
  143.6568  133.4050  151.6933 H   0  0  0  0  0  0  0  0  0  0  0  0
  143.0038  133.7534  150.1093 H   0  0  0  0  0  0  0  0  0  0  0  0
  143.2443  131.2974  150.4825 H   0  0  0  0  0  0  0  0  0  0  0  0
  144.2239  131.8287  149.1350 H   0  0  0  0  0  0  0  0  0  0  0  0
  145.2210  131.3423  151.9926 H   0  0  0  0  0  0  0  0  0  0  0  0
  145.5331  130.3148  150.6123 H   0  0  0  0  0  0  0  0  0  0  0  0
  147.4627  131.8533  151.0526 H   0  0  0  0  0  0  0  0  0  0  0  0
  146.7717  132.0821  149.4740 H   0  0  0  0  0  0  0  0  0  0  0  0
  147.1288  134.2638  150.2814 H   0  0  0  0  0  0  0  0  0  0  0  0
  145.1043  134.3105  149.3107 H   0  0  0  0  0  0  0  0  0  0  0  0
  1  2  2  0  0  0  0
  2  3  1  0  0  0  0
  2  9  1  0  0  0  0
  3  4  1  0  0  0  0
  3 19  1  0  0  0  0
  3 20  1  0  0  0  0
  4  8  1  0  0  0  0
  4  5  1  0  0  0  0
  5  6  2  0  0  0  0
  5 21  1  0  0  0  0
  6  7  1  0  0  0  0
  7  8  2  0  0  0  0
  9 10  1  0  0  0  0
  9 22  1  0  0  0  0
 10 18  1  0  0  0  0
 10 11  1  0  0  0  0
 10 23  1  0  0  0  0
 11 12  1  0  0  0  0
 11 24  1  0  0  0  0
 11 25  1  0  0  0  0
 12 13  1  0  0  0  0
 12 26  1  0  0  0  0
 12 27  1  0  0  0  0
 13 18  1  0  0  0  0
 13 14  1  0  0  0  0
 13 37  1  0  0  0  0
 14 15  1  0  0  0  0
 14 28  1  0  0  0  0
 14 29  1  0  0  0  0
 15 16  1  0  0  0  0
 15 30  1  0  0  0  0
 15 31  1  0  0  0  0
 16 17  1  0  0  0  0
 16 32  1  0  0  0  0
 16 33  1  0  0  0  0
 17 18  1  0  0  0  0
 17 34  1  0  0  0  0
 17 35  1  0  0  0  0
 18 36  1  0  0  0  0
M  CHG  1  13   1
M  END
> <s_m_source_file>
AV-unprocessed.smi

> <i_m_source_file_index>
1260

> <i_lp_mmshare_version>
43012

> <i_f3d_flags>
0

> <s_epik_input>
bjFubltjSF1uMVtDSDJdQyg9TylbTkhdW0NASF0oW0NIMl1bQ0gyXTIpW0NAQEhdKE4yMylbQ0gyXVtDSDJdW0NIMl1bQ0gyXTM=

> <s_epik_cmdline>
J2VwaWtfcHl0aG9uJywgJy1waCcsICc3LjAnLCAnLXRuJywgJzgnLCAnLW1hJywgJzIwMCcsICctbWV0YWxfYmluZGluZycsICctaW1hZScsICc8aW5maWxlLm1hZT4nLCAnLW9tYWUnLCAnPG91dGZpbGUubWFlPic=

> <r_lp_tautomer_probability>
1

> <r_epik_Ionization_Penalty>
0.00234324

> <r_epik_Ionization_Penalty_Charging>
0.00233897

> <r_epik_Ionization_Penalty_Neutral>
4.26861e-06

> <r_epik_State_Penalty>
0.00161477

> <r_epik_Charging_Adjusted_Penalty>
0.00395374

> <i_epik_Tot_Q>
1

> <i_epik_Tot_abs_Q>
1

> <r_epik_Metal_State_Penalty>
-0

> <b_epik_Metal_Only>
0

> <s_lp_Force_Field>
OPLS_2005

> <r_lp_Energy>
39.0739

> <b_lp_Chiralities_Consistent>
1

> <s_lp_Variant>
AV-unprocessed.smi:1260-8

> <Gold.Version>
5.8.1

> <Gold.Id.Protein>
6NUR|6NUR_protein|mol2

> <Gold.PLP.Fitness>
37.4048

> <Gold.PLP.PLP>
-29.8055

> <Gold.PLP.part.hbond>
-2.9409

> <Gold.PLP.part.metal>
0.0000

> <Gold.PLP.part.buried>
-0.2833

> <Gold.PLP.part.nonpolar>
-26.8484

> <Gold.PLP.part.repulsive>
0.1204

> <Gold.PLP.ligand.clash>
0.0000

> <Gold.PLP.ligand.torsion>
0.7053

> <Gold.PLP.Chemscore.Hbond>
3.0000

> <Gold.PLP.Chemscore.CHOScore>
0.0000

> <Gold.PLP.Chemscore.Metal>
0.0000

> <Gold.Chemscore.Hbonds>
donor molecule, donor type, donor heavy atom, donor atom, acceptor molecule, acceptor atom, score
      L1  H     9    22       P1  7948  1.00
      L1  H    13    37       P1  7921  1.00
      P1  H  6896  6908       L1     7  0.93

> <Gold.PLP.Chemscore.Internal.Correction>
0.0099

> <Gold.Rescore>
     Score         DG    S(hbond)    S(metal)    S(lipo)     H(rot)  DE(clash)    DE(int)     intcor
     14.39     -17.81       2.84        0.00      67.66       1.98       1.54       1.88       ----

> <Gold.Chemscore.Fitness>
14.3853

> <Gold.Chemscore.DG>
-17.8132

> <Gold.Chemscore.ZeroCoef>
-5.4800

> <Gold.Chemscore.Hbond>
2.8367

> <Gold.Chemscore.Metal>
0.0000

> <Gold.Chemscore.Lipo>
67.6613

> <Gold.Chemscore.Internal_Hbond>
0.0000

> <Gold.Chemscore.DEClash>
1.5434

> <Gold.Chemscore.DEInternal>
1.8845

> <Gold.Chemscore.Rot>
1.9757

> <Gold.Chemscore.Internal.Correction>
   9.000000E+99

> <Gold.Chemscore.Hbonds>
donor molecule, donor type, donor heavy atom, donor atom, acceptor molecule, acceptor atom, score
      L1  H     9    22       P1  7948  0.70
      L1  H    13    37       P1  7921  0.88
      P1  H  6896  6908       L1     7  0.82

> <Gold.Chemscore.Hbond.Weighted>
-9.4746

> <Gold.Chemscore.Metal.Weighted>
-0.0000

> <Gold.Chemscore.Lipo.Weighted>
-7.9164

> <Gold.Chemscore.Internal_Hbond.Weighted>
0.0000

> <Gold.Chemscore.DEClash.Weighted>
1.5434

> <Gold.Chemscore.DEInternal.Weighted>
1.8845

> <Gold.Chemscore.Rot.Weighted>
5.0578

> <Gold.Chemscore.Internal.Correction.Weighted>
   9.000000E+99

> <Gold.Protein.RotatedTorsions>
[ 6907 6896 6895 6894 ] final   89.10 input  -60.11 | X-H torsion
[ 7974 7965 7964 7962 ] final   29.89 input  175.53 | X-H torsion
[ 8008 7997 7996 7995 ] final  -47.29 input   59.86 | X-H torsion
[ 10167 10162 10161 10158 ] final  -69.69 input  -65.29 | X-H torsion
[ 10718 10713 10712 10709 ] final  -93.51 input   66.30 | X-H torsion
[ 10763 10752 10751 10750 ] final   34.44 input  -60.55 | X-H torsion
[ 11005 11000 10999 10996 ] final -173.59 input  -57.11 | X-H torsion

> <Gold.Protein.ActiveResidues>
 VAL166  LYS551  ARG553  GLY616  TRP617  ASP618  TYR619  PRO620  LYS621  CYS622 
 ASP623  PHE694  ASN695  SER759  ASP760  ASP761  ALA762  ILE779  LEU786  VAL792 
 PHE793  MET794  SER795  GLU796  ALA797  LYS798  CYS799  TRP800  GLU811  SER814 

> <Gold.Protein.RotatedAtoms>
  152.5433  134.2018  159.8714 H   0  0  0  0  0  0  0  0  0  0  0  0  # atno 6907 bound_to 6896
  151.2006  133.4606  159.2604 H   0  0  0  0  0  0  0  0  0  0  0  0  # atno 6908 bound_to 6896
  151.0993  134.9975  159.8496 H   0  0  0  0  0  0  0  0  0  0  0  0  # atno 6909 bound_to 6896
  146.1644  139.6861  142.9011 H   0  0  0  0  0  0  0  0  0  0  0  0  # atno 7974 bound_to 7965
  154.4015  140.1350  156.4152 H   0  0  0  0  0  0  0  0  0  0  0  0  # atno 8008 bound_to 7997
  155.7696  140.3484  155.5219 H   0  0  0  0  0  0  0  0  0  0  0  0  # atno 8009 bound_to 7997
  155.8780  140.0982  157.1495 H   0  0  0  0  0  0  0  0  0  0  0  0  # atno 8010 bound_to 7997
  140.5411  143.2315  151.7088 H   0  0  0  0  0  0  0  0  0  0  0  0  # atno 10167 bound_to 10162
  156.0014  130.5030  150.5787 H   0  0  0  0  0  0  0  0  0  0  0  0  # atno 10718 bound_to 10713
  153.0164  135.6360  154.1670 H   0  0  0  0  0  0  0  0  0  0  0  0  # atno 10763 bound_to 10752
  154.1408  135.2835  155.3163 H   0  0  0  0  0  0  0  0  0  0  0  0  # atno 10764 bound_to 10752
  154.6125  135.5551  153.7550 H   0  0  0  0  0  0  0  0  0  0  0  0  # atno 10765 bound_to 10752
  140.4841  134.6047  157.4930 H   0  0  0  0  0  0  0  0  0  0  0  0  # atno 11005 bound_to 11000
  145.4505  141.0428  143.2807 LP  0  0  0  0  0  0  0  0  0  0  0  0  # atno 17320 bound_to 7965
  144.8072  139.6029  143.7045 LP  0  0  0  0  0  0  0  0  0  0  0  0  # atno 17321 bound_to 7965
  139.4989  144.3967  152.0223 LP  0  0  0  0  0  0  0  0  0  0  0  0  # atno 17342 bound_to 10162
  140.3076  144.3575  150.6042 LP  0  0  0  0  0  0  0  0  0  0  0  0  # atno 17343 bound_to 10162
  157.3671  131.0759  151.1589 LP  0  0  0  0  0  0  0  0  0  0  0  0  # atno 17370 bound_to 10713
  157.2354  130.6545  149.5867 LP  0  0  0  0  0  0  0  0  0  0  0  0  # atno 17371 bound_to 10713
  139.9809  134.7139  155.9862 LP  0  0  0  0  0  0  0  0  0  0  0  0  # atno 17394 bound_to 11000
  141.1517  133.6547  156.4033 LP  0  0  0  0  0  0  0  0  0  0  0  0  # atno 17395 bound_to 11000

$$$$
