AV-unprocessed.smi:1751|AV-procd|sdf|7057|dock7
  -GOLD-   22720 8273D 1   1.00000     0.00000
 Structure written by MMmdl.
 35 36  0  0  0  0  0  0  0  0  1 V2000
  146.4432  138.0686  151.9786 C   0  0  0  0  0  0  0  0  0  0  0  0
  146.5058  139.4905  151.9835 O   0  0  0  0  0  0  0  0  0  0  0  0
  147.3121  140.1076  152.9177 C   0  0  0  0  0  0  0  0  0  0  0  0
  148.3136  139.3462  153.5511 C   0  0  0  0  0  0  0  0  0  0  0  0
  149.1337  139.9694  154.5102 C   0  0  0  0  0  0  0  0  0  0  0  0
  148.9299  141.3307  154.8135 C   0  0  0  0  0  0  0  0  0  0  0  0
  149.7849  141.9241  155.7827 N   0  0  0  0  0  0  0  0  0  0  0  0
  150.5563  141.3333  156.7118 C   0  0  0  0  0  0  0  0  0  0  0  0
  150.6580  140.1207  156.8922 O   0  0  0  0  0  0  0  0  0  0  0  0
  151.2238  142.2462  157.4315 N   0  0  0  0  0  0  0  0  0  0  0  0
  152.1419  141.9554  158.5282 C   0  0  0  0  0  0  0  0  0  0  0  0
  152.5684  143.2351  159.2667 C   0  0  1  0  0  0  0  0  0  0  0  0
  151.6365  144.4319  159.0817 C   0  0  0  0  0  0  0  0  0  0  0  0
  151.9746  145.2652  160.2962 C   0  0  0  0  0  0  0  0  0  0  0  0
  152.1977  144.1976  161.3652 C   0  0  0  0  0  0  0  0  0  0  0  0
  152.5852  143.0120  160.6730 O   0  0  0  0  0  0  0  0  0  0  0  0
  147.9049  142.0132  154.1123 C   0  0  0  0  0  0  0  0  0  0  0  0
  147.1144  141.4207  153.1916 N   0  0  0  0  0  0  0  0  0  0  0  0
  145.7782  137.7397  151.1802 H   0  0  0  0  0  0  0  0  0  0  0  0
  146.0468  137.6836  152.9193 H   0  0  0  0  0  0  0  0  0  0  0  0
  147.4234  137.6264  151.7950 H   0  0  0  0  0  0  0  0  0  0  0  0
  148.4489  138.3028  153.3067 H   0  0  0  0  0  0  0  0  0  0  0  0
  149.9080  139.4042  155.0084 H   0  0  0  0  0  0  0  0  0  0  0  0
  149.8510  142.9302  155.7356 H   0  0  0  0  0  0  0  0  0  0  0  0
  151.0814  143.2206  157.2097 H   0  0  0  0  0  0  0  0  0  0  0  0
  151.7100  141.2357  159.2260 H   0  0  0  0  0  0  0  0  0  0  0  0
  153.0220  141.4736  158.1020 H   0  0  0  0  0  0  0  0  0  0  0  0
  153.5797  143.5177  158.9690 H   0  0  0  0  0  0  0  0  0  0  0  0
  151.7999  144.9597  158.1417 H   0  0  0  0  0  0  0  0  0  0  0  0
  150.5927  144.1169  159.1234 H   0  0  0  0  0  0  0  0  0  0  0  0
  152.8976  145.8198  160.1215 H   0  0  0  0  0  0  0  0  0  0  0  0
  151.1927  145.9776  160.5605 H   0  0  0  0  0  0  0  0  0  0  0  0
  152.9539  144.4972  162.0914 H   0  0  0  0  0  0  0  0  0  0  0  0
  151.2720  143.9953  161.9051 H   0  0  0  0  0  0  0  0  0  0  0  0
  147.7018  143.0614  154.2613 H   0  0  0  0  0  0  0  0  0  0  0  0
  1  2  1  0  0  0  0
  1 19  1  0  0  0  0
  1 20  1  0  0  0  0
  1 21  1  0  0  0  0
  2  3  1  0  0  0  0
  3 18  1  0  0  0  0
  3  4  2  0  0  0  0
  4  5  1  0  0  0  0
  4 22  1  0  0  0  0
  5  6  2  0  0  0  0
  5 23  1  0  0  0  0
  6  7  1  0  0  0  0
  6 17  1  0  0  0  0
  7  8  1  0  0  0  0
  7 24  1  0  0  0  0
  8  9  2  0  0  0  0
  8 10  1  0  0  0  0
 10 11  1  0  0  0  0
 10 25  1  0  0  0  0
 11 12  1  0  0  0  0
 11 26  1  0  0  0  0
 11 27  1  0  0  0  0
 12 16  1  0  0  0  0
 12 13  1  0  0  0  0
 12 28  1  0  0  0  0
 13 14  1  0  0  0  0
 13 29  1  0  0  0  0
 13 30  1  0  0  0  0
 14 15  1  0  0  0  0
 14 31  1  0  0  0  0
 14 32  1  0  0  0  0
 15 16  1  0  0  0  0
 15 33  1  0  0  0  0
 15 34  1  0  0  0  0
 17 18  2  0  0  0  0
 17 35  1  0  0  0  0
M  END
> <s_m_source_file>
AV-unprocessed.smi

> <i_m_source_file_index>
1751

> <i_lp_mmshare_version>
43012

> <i_f3d_flags>
0

> <s_epik_input>
W0NIM11PYzFbY0hdW2NIXWMoW2NIXW4xKVtOSF1DKD1PKVtOSF1bQ0gyXVtDQEBIXTJbQ0gyXVtDSDJdW0NIMl1PMg==

> <s_epik_cmdline>
J2VwaWtfcHl0aG9uJywgJy1waCcsICc3LjAnLCAnLXRuJywgJzgnLCAnLW1hJywgJzIwMCcsICctbWV0YWxfYmluZGluZycsICctaW1hZScsICc8aW5maWxlLm1hZT4nLCAnLW9tYWUnLCAnPG91dGZpbGUubWFlPic=

> <r_lp_tautomer_probability>
1

> <r_epik_Ionization_Penalty>
9.01694e-05

> <r_epik_Ionization_Penalty_Charging>
0

> <r_epik_Ionization_Penalty_Neutral>
9.01694e-05

> <r_epik_State_Penalty>
-0

> <r_epik_Charging_Adjusted_Penalty>
0

> <i_epik_Tot_Q>
0

> <i_epik_Tot_abs_Q>
0

> <r_epik_Metal_State_Penalty>
-0

> <b_epik_Metal_Only>
0

> <s_lp_Force_Field>
OPLS_2005

> <r_lp_Energy>
20.1941

> <b_lp_Chiralities_Consistent>
1

> <s_lp_Variant>
AV-unprocessed.smi:1751-2

> <Gold.Version>
5.8.1

> <Gold.Id.Protein>
6NUR|6NUR_protein|mol2

> <Gold.PLP.Fitness>
39.0504

> <Gold.PLP.PLP>
-34.9038

> <Gold.PLP.part.hbond>
-1.0000

> <Gold.PLP.part.metal>
0.0000

> <Gold.PLP.part.buried>
-0.3857

> <Gold.PLP.part.nonpolar>
-35.2181

> <Gold.PLP.part.repulsive>
1.8990

> <Gold.PLP.ligand.clash>
0.0000

> <Gold.PLP.ligand.torsion>
0.9242

> <Gold.PLP.Chemscore.Hbond>
1.0000

> <Gold.PLP.Chemscore.CHOScore>
0.9972

> <Gold.PLP.Chemscore.Metal>
0.0000

> <Gold.Chemscore.Hbonds>
donor molecule, donor type, donor heavy atom, donor atom, acceptor molecule, acceptor atom, score
      L1  H     7    24       P1  8028  0.95
      L1  C    17    35       P1  8028  1.00

> <Gold.PLP.Chemscore.Internal.Correction>
0.0033

> <Gold.Rescore>
     Score         DG    S(hbond)    S(metal)    S(lipo)     H(rot)  DE(clash)    DE(int)     intcor
     11.98     -15.78       0.99        0.00      92.49       1.50       1.51       2.29       ----

> <Gold.Chemscore.Fitness>
11.9778

> <Gold.Chemscore.DG>
-15.7765

> <Gold.Chemscore.ZeroCoef>
-5.4800

> <Gold.Chemscore.Hbond>
0.9903

> <Gold.Chemscore.Metal>
0.0000

> <Gold.Chemscore.Lipo>
92.4915

> <Gold.Chemscore.Internal_Hbond>
0.0000

> <Gold.Chemscore.DEClash>
1.5102

> <Gold.Chemscore.DEInternal>
2.2885

> <Gold.Chemscore.Rot>
1.4971

> <Gold.Chemscore.Internal.Correction>
   9.000000E+99

> <Gold.Chemscore.Hbonds>
donor molecule, donor type, donor heavy atom, donor atom, acceptor molecule, acceptor atom, score
      L1  H     7    24       P1  8028  0.85

> <Gold.Chemscore.Hbond.Weighted>
-3.3076

> <Gold.Chemscore.Metal.Weighted>
-0.0000

> <Gold.Chemscore.Lipo.Weighted>
-10.8215

> <Gold.Chemscore.Internal_Hbond.Weighted>
0.0000

> <Gold.Chemscore.DEClash.Weighted>
1.5102

> <Gold.Chemscore.DEInternal.Weighted>
2.2885

> <Gold.Chemscore.Rot.Weighted>
3.8326

> <Gold.Chemscore.Internal.Correction.Weighted>
   9.000000E+99

> <Gold.Protein.RotatedTorsions>
[ 6907 6896 6895 6894 ] final -178.99 input  -60.11 | X-H torsion
[ 7974 7965 7964 7962 ] final -151.68 input  175.53 | X-H torsion
[ 8008 7997 7996 7995 ] final  159.06 input   59.86 | X-H torsion
[ 10167 10162 10161 10158 ] final   58.64 input  -65.29 | X-H torsion
[ 10718 10713 10712 10709 ] final -129.96 input   66.30 | X-H torsion
[ 10763 10752 10751 10750 ] final  177.88 input  -60.55 | X-H torsion
[ 11005 11000 10999 10996 ] final  -41.80 input  -57.11 | X-H torsion

> <Gold.Protein.ActiveResidues>
 VAL166  LYS551  ARG553  GLY616  TRP617  ASP618  TYR619  PRO620  LYS621  CYS622 
 ASP623  PHE694  ASN695  SER759  ASP760  ASP761  ALA762  ILE779  LEU786  VAL792 
 PHE793  MET794  SER795  GLU796  ALA797  LYS798  CYS799  TRP800  GLU811  SER814 

> <Gold.Protein.RotatedAtoms>
  151.6461  133.3323  159.3141 H   0  0  0  0  0  0  0  0  0  0  0  0  # atno 6907 bound_to 6896
  150.7983  134.7063  159.6588 H   0  0  0  0  0  0  0  0  0  0  0  0  # atno 6908 bound_to 6896
  152.4073  134.6189  160.0097 H   0  0  0  0  0  0  0  0  0  0  0  0  # atno 6909 bound_to 6896
  144.7836  140.4764  143.5822 H   0  0  0  0  0  0  0  0  0  0  0  0  # atno 7974 bound_to 7965
  156.2263  140.1841  156.7354 H   0  0  0  0  0  0  0  0  0  0  0  0  # atno 8008 bound_to 7997
  154.5947  140.0645  156.9315 H   0  0  0  0  0  0  0  0  0  0  0  0  # atno 8009 bound_to 7997
  155.2276  140.3312  155.4310 H   0  0  0  0  0  0  0  0  0  0  0  0  # atno 8010 bound_to 7997
  140.1850  144.4143  150.6597 H   0  0  0  0  0  0  0  0  0  0  0  0  # atno 10167 bound_to 10162
  156.2098  130.6911  151.0636 H   0  0  0  0  0  0  0  0  0  0  0  0  # atno 10718 bound_to 10713
  154.5004  135.2783  155.1425 H   0  0  0  0  0  0  0  0  0  0  0  0  # atno 10763 bound_to 10752
  154.3061  135.6238  153.5449 H   0  0  0  0  0  0  0  0  0  0  0  0  # atno 10764 bound_to 10752
  152.9901  135.5708  154.5445 H   0  0  0  0  0  0  0  0  0  0  0  0  # atno 10765 bound_to 10752
  141.0271  133.6836  156.2507 H   0  0  0  0  0  0  0  0  0  0  0  0  # atno 11005 bound_to 11000
  145.5983  139.1501  143.3143 LP  0  0  0  0  0  0  0  0  0  0  0  0  # atno 17320 bound_to 7965
  146.2057  140.6105  142.9082 LP  0  0  0  0  0  0  0  0  0  0  0  0  # atno 17321 bound_to 7965
  140.6494  143.2221  151.6111 LP  0  0  0  0  0  0  0  0  0  0  0  0  # atno 17342 bound_to 10162
  139.5280  144.3001  152.1080 LP  0  0  0  0  0  0  0  0  0  0  0  0  # atno 17343 bound_to 10162
  157.7032  131.0767  150.6752 LP  0  0  0  0  0  0  0  0  0  0  0  0  # atno 17370 bound_to 10713
  156.6812  130.4567  149.5627 LP  0  0  0  0  0  0  0  0  0  0  0  0  # atno 17371 bound_to 10713
  140.6472  134.5105  157.5574 LP  0  0  0  0  0  0  0  0  0  0  0  0  # atno 17394 bound_to 11000
  139.9183  134.8200  156.1293 LP  0  0  0  0  0  0  0  0  0  0  0  0  # atno 17395 bound_to 11000

$$$$
