AV-unprocessed.smi:904|AV-procd|sdf|4098|dock7
  -GOLD-   22720 1593D 1   1.00000     0.00000
 Structure written by MMmdl.
 42 43  0  0  0  0  0  0  0  0  1 V2000
  154.3369  140.1529  159.4754 C   0  0  0  0  0  0  0  0  0  0  0  0
  153.8159  141.3095  160.2803 C   0  0  0  0  0  0  0  0  0  0  0  0
  154.1243  141.3929  161.5637 N   0  0  0  0  0  0  0  0  0  0  0  0
  153.5262  142.5237  161.9892 N   0  0  0  0  0  0  0  0  0  0  0  0
  153.6644  142.9217  163.3766 C   0  0  0  0  0  0  0  0  0  0  0  0
  152.8435  143.1595  160.9705 C   0  0  0  0  0  0  0  0  0  0  0  0
  152.1044  144.4412  161.1841 C   0  0  0  0  0  0  0  0  0  0  0  0
  153.0039  142.3983  159.8436 C   0  0  0  0  0  0  0  0  0  0  0  0
  152.4606  142.6459  158.4587 C   0  0  0  0  0  0  0  0  0  0  0  0
  151.5013  141.5204  158.0735 C   0  0  0  0  0  0  0  0  0  0  0  0
  150.4155  141.4137  158.6436 O   0  0  0  0  0  0  0  0  0  0  0  0
  151.9150  140.6918  157.1022 N   0  0  0  0  0  0  0  0  0  0  0  0
  151.1517  139.5732  156.5599 C   0  0  2  0  0  0  0  0  0  0  0  0
  151.9186  138.2491  156.7492 C   0  0  0  0  0  0  0  0  0  0  0  0
  151.1633  137.0647  156.1210 C   0  0  0  0  0  0  0  0  0  0  0  0
  150.8242  137.3070  154.6381 C   0  0  2  0  0  0  0  0  0  0  0  0
  152.0036  137.2698  153.8588 O   0  0  0  0  0  0  0  0  0  0  0  0
  150.0990  138.6507  154.4345 C   0  0  0  0  0  0  0  0  0  0  0  0
  150.8613  139.8268  155.0698 C   0  0  0  0  0  0  0  0  0  0  0  0
  155.2391  140.4338  158.9319 H   0  0  0  0  0  0  0  0  0  0  0  0
  153.6003  139.8165  158.7460 H   0  0  0  0  0  0  0  0  0  0  0  0
  154.5825  139.3001  160.1092 H   0  0  0  0  0  0  0  0  0  0  0  0
  152.6874  143.1817  163.7848 H   0  0  0  0  0  0  0  0  0  0  0  0
  154.3217  143.7889  163.4439 H   0  0  0  0  0  0  0  0  0  0  0  0
  154.0862  142.1093  163.9701 H   0  0  0  0  0  0  0  0  0  0  0  0
  151.8212  144.8966  160.2353 H   0  0  0  0  0  0  0  0  0  0  0  0
  152.7194  145.1606  161.7249 H   0  0  0  0  0  0  0  0  0  0  0  0
  151.1950  144.2706  161.7603 H   0  0  0  0  0  0  0  0  0  0  0  0
  151.9371  143.6005  158.3979 H   0  0  0  0  0  0  0  0  0  0  0  0
  153.2613  142.6991  157.7202 H   0  0  0  0  0  0  0  0  0  0  0  0
  152.8231  140.8607  156.6946 H   0  0  0  0  0  0  0  0  0  0  0  0
  150.1964  139.5072  157.0845 H   0  0  0  0  0  0  0  0  0  0  0  0
  152.9096  138.3288  156.3002 H   0  0  0  0  0  0  0  0  0  0  0  0
  152.0778  138.0550  157.8104 H   0  0  0  0  0  0  0  0  0  0  0  0
  151.7436  136.1482  156.2325 H   0  0  0  0  0  0  0  0  0  0  0  0
  150.2370  136.9057  156.6745 H   0  0  0  0  0  0  0  0  0  0  0  0
  150.1835  136.4995  154.2821 H   0  0  0  0  0  0  0  0  0  0  0  0
  151.7612  137.1577  152.9521 H   0  0  0  0  0  0  0  0  0  0  0  0
  149.9389  138.8374  153.3721 H   0  0  0  0  0  0  0  0  0  0  0  0
  149.1072  138.5901  154.8840 H   0  0  0  0  0  0  0  0  0  0  0  0
  150.2813  140.7431  154.9533 H   0  0  0  0  0  0  0  0  0  0  0  0
  151.7972  139.9865  154.5322 H   0  0  0  0  0  0  0  0  0  0  0  0
  1  2  1  0  0  0  0
  1 20  1  0  0  0  0
  1 21  1  0  0  0  0
  1 22  1  0  0  0  0
  2  8  1  0  0  0  0
  2  3  2  0  0  0  0
  3  4  1  0  0  0  0
  4  5  1  0  0  0  0
  4  6  1  0  0  0  0
  5 23  1  0  0  0  0
  5 24  1  0  0  0  0
  5 25  1  0  0  0  0
  6  7  1  0  0  0  0
  6  8  2  0  0  0  0
  7 26  1  0  0  0  0
  7 27  1  0  0  0  0
  7 28  1  0  0  0  0
  8  9  1  0  0  0  0
  9 10  1  0  0  0  0
  9 29  1  0  0  0  0
  9 30  1  0  0  0  0
 10 11  2  0  0  0  0
 10 12  1  0  0  0  0
 12 13  1  0  0  0  0
 12 31  1  0  0  0  0
 13 19  1  0  0  0  0
 13 14  1  0  0  0  0
 13 32  1  0  0  0  0
 14 15  1  0  0  0  0
 14 33  1  0  0  0  0
 14 34  1  0  0  0  0
 15 16  1  0  0  0  0
 15 35  1  0  0  0  0
 15 36  1  0  0  0  0
 16 17  1  0  0  0  0
 16 18  1  0  0  0  0
 16 37  1  0  0  0  0
 17 38  1  0  0  0  0
 18 19  1  0  0  0  0
 18 39  1  0  0  0  0
 18 40  1  0  0  0  0
 19 41  1  0  0  0  0
 19 42  1  0  0  0  0
M  END
> <s_m_source_file>
AV-unprocessed.smi

> <i_m_source_file_index>
904

> <i_lp_mmshare_version>
43012

> <i_f3d_flags>
0

> <s_epik_input>
W0NIM11jMW5uKFtDSDNdKWMoW0NIM10pYzFbQ0gyXUMoPU8pW05IXVtDQEBIXTJbQ0gyXVtDSDJdW0NAQEhdKFtPSF0pW0NIMl1bQ0gyXTI=

> <s_epik_cmdline>
J2VwaWtfcHl0aG9uJywgJy1waCcsICc3LjAnLCAnLXRuJywgJzgnLCAnLW1hJywgJzIwMCcsICctbWV0YWxfYmluZGluZycsICctaW1hZScsICc8aW5maWxlLm1hZT4nLCAnLW9tYWUnLCAnPG91dGZpbGUubWFlPic=

> <r_lp_tautomer_probability>
1

> <r_epik_Ionization_Penalty>
0.00340889

> <r_epik_Ionization_Penalty_Charging>
0

> <r_epik_Ionization_Penalty_Neutral>
0.00340889

> <r_epik_State_Penalty>
0.00241397

> <r_epik_Charging_Adjusted_Penalty>
0.00241397

> <i_epik_Tot_Q>
0

> <i_epik_Tot_abs_Q>
0

> <r_epik_Metal_State_Penalty>
-0

> <b_epik_Metal_Only>
0

> <s_lp_Force_Field>
OPLS_2005

> <r_lp_Energy>
4.71478

> <b_lp_Chiralities_Consistent>
1

> <s_lp_Variant>
AV-unprocessed.smi:904-2

> <Gold.Version>
5.8.1

> <Gold.Id.Protein>
6NUR|6NUR_protein|mol2

> <Gold.PLP.Fitness>
49.1372

> <Gold.PLP.PLP>
-43.3467

> <Gold.PLP.part.hbond>
-2.0235

> <Gold.PLP.part.metal>
0.0000

> <Gold.PLP.part.buried>
-3.9422

> <Gold.PLP.part.nonpolar>
-35.7290

> <Gold.PLP.part.repulsive>
0.1321

> <Gold.PLP.ligand.clash>
0.0000

> <Gold.PLP.ligand.torsion>
0.0945

> <Gold.PLP.Chemscore.Hbond>
1.9920

> <Gold.PLP.Chemscore.CHOScore>
0.0000

> <Gold.PLP.Chemscore.Metal>
0.0000

> <Gold.Chemscore.Hbonds>
donor molecule, donor type, donor heavy atom, donor atom, acceptor molecule, acceptor atom, score
      L1  H    17    38       P1  7949  0.99
      P1  H 10752 10765       L1    17  0.99

> <Gold.PLP.Chemscore.Internal.Correction>
0.0035

> <Gold.Rescore>
     Score         DG    S(hbond)    S(metal)    S(lipo)     H(rot)  DE(clash)    DE(int)     intcor
     18.19     -18.43       1.56        0.00     106.49       1.84       0.17       0.08       ----

> <Gold.Chemscore.Fitness>
18.1855

> <Gold.Chemscore.DG>
-18.4345

> <Gold.Chemscore.ZeroCoef>
-5.4800

> <Gold.Chemscore.Hbond>
1.5591

> <Gold.Chemscore.Metal>
0.0000

> <Gold.Chemscore.Lipo>
106.4855

> <Gold.Chemscore.Internal_Hbond>
0.0000

> <Gold.Chemscore.DEClash>
0.1669

> <Gold.Chemscore.DEInternal>
0.0821

> <Gold.Chemscore.Rot>
1.8406

> <Gold.Chemscore.Internal.Correction>
   9.000000E+99

> <Gold.Chemscore.Hbonds>
donor molecule, donor type, donor heavy atom, donor atom, acceptor molecule, acceptor atom, score
      L1  H    17    38       P1  7949  0.92
      P1  H 10752 10765       L1    17  0.26

> <Gold.Chemscore.Hbond.Weighted>
-5.2075

> <Gold.Chemscore.Metal.Weighted>
-0.0000

> <Gold.Chemscore.Lipo.Weighted>
-12.4588

> <Gold.Chemscore.Internal_Hbond.Weighted>
0.0000

> <Gold.Chemscore.DEClash.Weighted>
0.1669

> <Gold.Chemscore.DEInternal.Weighted>
0.0821

> <Gold.Chemscore.Rot.Weighted>
4.7118

> <Gold.Chemscore.Internal.Correction.Weighted>
   9.000000E+99

> <Gold.Protein.RotatedTorsions>
[ 6907 6896 6895 6894 ] final -127.68 input  -60.11 | X-H torsion
[ 7974 7965 7964 7962 ] final  -18.80 input  175.53 | X-H torsion
[ 8008 7997 7996 7995 ] final   97.15 input   59.86 | X-H torsion
[ 10167 10162 10161 10158 ] final  -82.23 input  -65.29 | X-H torsion
[ 10718 10713 10712 10709 ] final -132.85 input   66.30 | X-H torsion
[ 10763 10752 10751 10750 ] final  157.34 input  -60.55 | X-H torsion
[ 11005 11000 10999 10996 ] final  -59.30 input  -57.11 | X-H torsion

> <Gold.Protein.ActiveResidues>
 VAL166  LYS551  ARG553  GLY616  TRP617  ASP618  TYR619  PRO620  LYS621  CYS622 
 ASP623  PHE694  ASN695  SER759  ASP760  ASP761  ALA762  ILE779  LEU786  VAL792 
 PHE793  MET794  SER795  GLU796  ALA797  LYS798  CYS799  TRP800  GLU811  SER814 

> <Gold.Protein.RotatedAtoms>
  150.9099  133.7011  159.2857 H   0  0  0  0  0  0  0  0  0  0  0  0  # atno 6907 bound_to 6896
  151.4501  135.1027  159.9705 H   0  0  0  0  0  0  0  0  0  0  0  0  # atno 6908 bound_to 6896
  152.4924  133.8486  159.7245 H   0  0  0  0  0  0  0  0  0  0  0  0  # atno 6909 bound_to 6896
  146.1874  140.3972  142.8471 H   0  0  0  0  0  0  0  0  0  0  0  0  # atno 7974 bound_to 7965
  156.0871  140.3262  155.7768 H   0  0  0  0  0  0  0  0  0  0  0  0  # atno 8008 bound_to 7997
  155.5058  140.0573  157.2949 H   0  0  0  0  0  0  0  0  0  0  0  0  # atno 8009 bound_to 7997
  154.4616  140.1969  156.0247 H   0  0  0  0  0  0  0  0  0  0  0  0  # atno 8010 bound_to 7997
  140.4339  143.2539  151.8721 H   0  0  0  0  0  0  0  0  0  0  0  0  # atno 10167 bound_to 10162
  156.2388  130.7083  151.0936 H   0  0  0  0  0  0  0  0  0  0  0  0  # atno 10718 bound_to 10713
  154.1987  135.2791  155.2998 H   0  0  0  0  0  0  0  0  0  0  0  0  # atno 10763 bound_to 10752
  154.5871  135.5571  153.7245 H   0  0  0  0  0  0  0  0  0  0  0  0  # atno 10764 bound_to 10752
  153.0093  135.6359  154.2126 H   0  0  0  0  0  0  0  0  0  0  0  0  # atno 10765 bound_to 10752
  141.1242  133.6615  156.5051 H   0  0  0  0  0  0  0  0  0  0  0  0  # atno 11005 bound_to 11000
  144.8422  140.6874  143.6222 LP  0  0  0  0  0  0  0  0  0  0  0  0  # atno 17320 bound_to 7965
  145.3898  139.1619  143.4235 LP  0  0  0  0  0  0  0  0  0  0  0  0  # atno 17321 bound_to 7965
  139.4786  144.5305  151.8674 LP  0  0  0  0  0  0  0  0  0  0  0  0  # atno 17342 bound_to 10162
  140.4396  144.2004  150.5891 LP  0  0  0  0  0  0  0  0  0  0  0  0  # atno 17343 bound_to 10162
  157.7166  131.0706  150.6302 LP  0  0  0  0  0  0  0  0  0  0  0  0  # atno 17370 bound_to 10713
  156.6374  130.4449  149.5765 LP  0  0  0  0  0  0  0  0  0  0  0  0  # atno 17371 bound_to 10713
  140.4414  134.7012  157.4994 LP  0  0  0  0  0  0  0  0  0  0  0  0  # atno 17394 bound_to 11000
  140.0226  134.6524  155.9218 LP  0  0  0  0  0  0  0  0  0  0  0  0  # atno 17395 bound_to 11000

$$$$
