AV-unprocessed.smi:2848|AV-procd|sdf|10955|dock10
  -GOLD-   2272015413D 1   1.00000     0.00000
 Structure written by MMmdl.
 27 28  0  0  0  0  0  0  0  0  2 V2000
  147.2615  142.2993  154.2390 Cl  0  0  0  0  0  0  0  0  0  0  0  0
  148.3075  140.9224  154.2417 C   0  0  0  0  0  0  0  0  0  0  0  0
  147.9355  139.7743  153.5122 C   0  0  0  0  0  0  0  0  0  0  0  0
  148.7391  138.6897  153.5037 N   0  3  0  0  0  0  0  0  0  0  0  0
  149.9104  138.6453  154.1727 C   0  0  0  0  0  0  0  0  0  0  0  0
  150.3370  139.7623  154.9193 C   0  0  0  0  0  0  0  0  0  0  0  0
  149.5279  140.9254  154.9618 C   0  0  0  0  0  0  0  0  0  0  0  0
  149.8922  142.0679  155.6907 N   0  0  0  0  0  0  0  0  0  0  0  0
  151.0517  142.0678  156.5706 C   0  0  0  0  0  0  0  0  0  0  0  0
  150.9042  143.0248  157.7364 C   0  0  0  0  0  0  0  0  0  0  0  0
  149.8790  143.0023  158.6130 C   0  0  0  0  0  0  0  0  0  0  0  0
  149.8008  143.8259  159.7073 O   0  0  0  0  0  0  0  0  0  0  0  0
  151.0143  144.5003  160.0221 C   0  0  0  0  0  0  0  0  0  0  0  0
  151.6944  145.0122  158.7416 C   0  0  0  0  0  0  0  0  0  0  0  0
  151.9226  143.9449  157.8258 O   0  0  0  0  0  0  0  0  0  0  0  0
  147.0236  139.6920  152.9390 H   0  0  0  0  0  0  0  0  0  0  0  0
  150.4682  137.7235  154.0922 H   0  0  0  0  0  0  0  0  0  0  0  0
  151.2767  139.7068  155.4480 H   0  0  0  0  0  0  0  0  0  0  0  0
  149.4766  142.9574  155.4508 H   0  0  0  0  0  0  0  0  0  0  0  0
  151.2031  141.0675  156.9771 H   0  0  0  0  0  0  0  0  0  0  0  0
  151.9421  142.3302  155.9976 H   0  0  0  0  0  0  0  0  0  0  0  0
  149.0565  142.3033  158.5715 H   0  0  0  0  0  0  0  0  0  0  0  0
  150.7989  145.3286  160.6973 H   0  0  0  0  0  0  0  0  0  0  0  0
  151.6760  143.8161  160.5550 H   0  0  0  0  0  0  0  0  0  0  0  0
  151.0722  145.7668  158.2586 H   0  0  0  0  0  0  0  0  0  0  0  0
  152.6463  145.4873  158.9792 H   0  0  0  0  0  0  0  0  0  0  0  0
  148.4488  137.8700  152.9697 H   0  0  0  0  0  0  0  0  0  0  0  0
  1  2  1  0  0  0  0
  2  7  1  0  0  0  0
  2  3  2  0  0  0  0
  3  4  1  0  0  0  0
  3 16  1  0  0  0  0
  4  5  2  0  0  0  0
  4 27  1  0  0  0  0
  5  6  1  0  0  0  0
  5 17  1  0  0  0  0
  6  7  2  0  0  0  0
  6 18  1  0  0  0  0
  7  8  1  0  0  0  0
  8  9  1  0  0  0  0
  8 19  1  0  0  0  0
  9 10  1  0  0  0  0
  9 20  1  0  0  0  0
  9 21  1  0  0  0  0
 10 15  1  0  0  0  0
 10 11  2  0  0  0  0
 11 12  1  0  0  0  0
 11 22  1  0  0  0  0
 12 13  1  0  0  0  0
 13 14  1  0  0  0  0
 13 23  1  0  0  0  0
 13 24  1  0  0  0  0
 14 15  1  0  0  0  0
 14 25  1  0  0  0  0
 14 26  1  0  0  0  0
M  CHG  1   4   1
M  END
> <s_m_source_file>
AV-unprocessed.smi

> <i_m_source_file_index>
2848

> <i_lp_mmshare_version>
43012

> <i_f3d_flags>
0

> <s_epik_input>
Q2xjMVtjSF1uW2NIXVtjSF1jMVtOSF1bQ0gyXUMyPVtDSF1PW0NIMl1bQ0gyXU8y

> <s_epik_cmdline>
J2VwaWtfcHl0aG9uJywgJy1waCcsICc3LjAnLCAnLXRuJywgJzgnLCAnLW1hJywgJzIwMCcsICctbWV0YWxfYmluZGluZycsICctaW1hZScsICc8aW5maWxlLm1hZT4nLCAnLW9tYWUnLCAnPG91dGZpbGUubWFlPic=

> <r_lp_tautomer_probability>
1

> <r_epik_Ionization_Penalty>
0.0834524

> <r_epik_Ionization_Penalty_Charging>
0.0831652

> <r_epik_Ionization_Penalty_Neutral>
0.000287151

> <r_epik_State_Penalty>
0.0738416

> <r_epik_Charging_Adjusted_Penalty>
0.157007

> <i_epik_Tot_Q>
1

> <i_epik_Tot_abs_Q>
1

> <r_epik_Metal_State_Penalty>
2.9007

> <b_epik_Metal_Only>
0

> <s_lp_Force_Field>
OPLS_2005

> <r_lp_Energy>
8.04075

> <b_lp_Chiralities_Consistent>
1

> <s_lp_Variant>
AV-unprocessed.smi:2848-1

> <Gold.Version>
5.8.1

> <Gold.Id.Protein>
6NUR|6NUR_protein|mol2

> <Gold.PLP.Fitness>
42.5940

> <Gold.PLP.PLP>
-34.0293

> <Gold.PLP.part.hbond>
-3.8313

> <Gold.PLP.part.metal>
0.0000

> <Gold.PLP.part.buried>
-1.7362

> <Gold.PLP.part.nonpolar>
-28.1902

> <Gold.PLP.part.repulsive>
0.4501

> <Gold.PLP.ligand.clash>
0.0000

> <Gold.PLP.ligand.torsion>
0.2178

> <Gold.PLP.Chemscore.Hbond>
3.0000

> <Gold.PLP.Chemscore.CHOScore>
0.0000

> <Gold.PLP.Chemscore.Metal>
0.0000

> <Gold.Chemscore.Hbonds>
donor molecule, donor type, donor heavy atom, donor atom, acceptor molecule, acceptor atom, score
      L1  H     4    27       P1  7948  1.92
      L1  H     8    19       P1  8028  1.00

> <Gold.PLP.Chemscore.Internal.Correction>
0.0003

> <Gold.Rescore>
     Score         DG    S(hbond)    S(metal)    S(lipo)     H(rot)  DE(clash)    DE(int)     intcor
     18.57     -18.91       1.90        0.00      87.25       1.22       0.12       0.21       ----

> <Gold.Chemscore.Fitness>
18.5706

> <Gold.Chemscore.DG>
-18.9062

> <Gold.Chemscore.ZeroCoef>
-5.4800

> <Gold.Chemscore.Hbond>
1.8988

> <Gold.Chemscore.Metal>
0.0000

> <Gold.Chemscore.Lipo>
87.2546

> <Gold.Chemscore.Internal_Hbond>
0.0000

> <Gold.Chemscore.DEClash>
0.1238

> <Gold.Chemscore.DEInternal>
0.2117

> <Gold.Chemscore.Rot>
1.2206

> <Gold.Chemscore.Internal.Correction>
   9.000000E+99

> <Gold.Chemscore.Hbonds>
donor molecule, donor type, donor heavy atom, donor atom, acceptor molecule, acceptor atom, score
      L1  H     4    27       P1  7948  0.86
      L1  H     8    19       P1  8028  1.00

> <Gold.Chemscore.Hbond.Weighted>
-6.3421

> <Gold.Chemscore.Metal.Weighted>
-0.0000

> <Gold.Chemscore.Lipo.Weighted>
-10.2088

> <Gold.Chemscore.Internal_Hbond.Weighted>
0.0000

> <Gold.Chemscore.DEClash.Weighted>
0.1238

> <Gold.Chemscore.DEInternal.Weighted>
0.2117

> <Gold.Chemscore.Rot.Weighted>
3.1247

> <Gold.Chemscore.Internal.Correction.Weighted>
   9.000000E+99

> <Gold.Protein.RotatedTorsions>
[ 6907 6896 6895 6894 ] final  175.51 input  -60.11 | X-H torsion
[ 7974 7965 7964 7962 ] final  -10.21 input  175.53 | X-H torsion
[ 8008 7997 7996 7995 ] final -137.15 input   59.86 | X-H torsion
[ 10167 10162 10161 10158 ] final -115.95 input  -65.29 | X-H torsion
[ 10718 10713 10712 10709 ] final -115.82 input   66.30 | X-H torsion
[ 10763 10752 10751 10750 ] final  -41.05 input  -60.55 | X-H torsion
[ 11005 11000 10999 10996 ] final   69.21 input  -57.11 | X-H torsion

> <Gold.Protein.ActiveResidues>
 VAL166  LYS551  ARG553  GLY616  TRP617  ASP618  TYR619  PRO620  LYS621  CYS622 
 ASP623  PHE694  ASN695  SER759  ASP760  ASP761  ALA762  ILE779  LEU786  VAL792 
 PHE793  MET794  SER795  GLU796  ALA797  LYS798  CYS799  TRP800  GLU811  SER814 

> <Gold.Protein.RotatedAtoms>
  151.7350  133.3319  159.3350 H   0  0  0  0  0  0  0  0  0  0  0  0  # atno 6907 bound_to 6896
  150.7597  134.6329  159.6205 H   0  0  0  0  0  0  0  0  0  0  0  0  # atno 6908 bound_to 6896
  152.3567  134.6932  160.0271 H   0  0  0  0  0  0  0  0  0  0  0  0  # atno 6909 bound_to 6896
  146.2228  140.2730  142.8358 H   0  0  0  0  0  0  0  0  0  0  0  0  # atno 7974 bound_to 7965
  155.4070  140.0509  157.3034 H   0  0  0  0  0  0  0  0  0  0  0  0  # atno 8008 bound_to 7997
  154.4964  140.2140  155.9398 H   0  0  0  0  0  0  0  0  0  0  0  0  # atno 8009 bound_to 7997
  156.1411  140.3154  155.8502 H   0  0  0  0  0  0  0  0  0  0  0  0  # atno 8010 bound_to 7997
  140.0845  143.4757  152.1906 H   0  0  0  0  0  0  0  0  0  0  0  0  # atno 10167 bound_to 10162
  156.0921  130.6101  150.8955 H   0  0  0  0  0  0  0  0  0  0  0  0  # atno 10718 bound_to 10713
  153.9560  135.6745  153.4744 H   0  0  0  0  0  0  0  0  0  0  0  0  # atno 10763 bound_to 10752
  153.0861  135.4898  154.8596 H   0  0  0  0  0  0  0  0  0  0  0  0  # atno 10764 bound_to 10752
  154.7299  135.3136  154.8869 H   0  0  0  0  0  0  0  0  0  0  0  0  # atno 10765 bound_to 10752
  139.9666  134.6970  156.0532 H   0  0  0  0  0  0  0  0  0  0  0  0  # atno 11005 bound_to 11000
  144.9254  140.7915  143.5722 LP  0  0  0  0  0  0  0  0  0  0  0  0  # atno 17320 bound_to 7965
  145.2669  139.1970  143.4862 LP  0  0  0  0  0  0  0  0  0  0  0  0  # atno 17321 bound_to 7965
  139.5760  144.7487  151.3764 LP  0  0  0  0  0  0  0  0  0  0  0  0  # atno 17342 bound_to 10162
  140.7061  143.7511  150.7484 LP  0  0  0  0  0  0  0  0  0  0  0  0  # atno 17343 bound_to 10162
  157.6073  131.0938  150.8857 LP  0  0  0  0  0  0  0  0  0  0  0  0  # atno 17370 bound_to 10713
  156.9003  130.5244  149.5283 LP  0  0  0  0  0  0  0  0  0  0  0  0  # atno 17371 bound_to 10713
  141.1346  133.6578  156.3558 LP  0  0  0  0  0  0  0  0  0  0  0  0  # atno 17394 bound_to 11000
  140.5382  134.6146  157.5371 LP  0  0  0  0  0  0  0  0  0  0  0  0  # atno 17395 bound_to 11000

$$$$
