AV-unprocessed.smi:703|AV-procd|sdf|3441|dock3
  -GOLD-   22720 0423D 1   1.00000     0.00000
 Structure written by MMmdl.
 37 38  0  0  0  0  0  0  0  0  3 V2000
  146.7079  133.1631  152.1220 C   0  0  0  0  0  0  0  0  0  0  0  0
  146.5980  133.9590  153.4296 C   0  0  0  0  0  0  0  0  0  0  0  0
  147.8614  134.6580  153.7705 N   0  3  2  0  0  0  0  0  0  0  0  0
  148.9557  133.7711  154.2335 C   0  0  0  0  0  0  0  0  0  0  0  0
  149.7319  134.5865  155.2726 C   0  0  2  0  0  0  0  0  0  0  0  0
  150.6607  133.7520  156.1787 C   0  0  0  0  0  0  0  0  0  0  0  0
  148.6380  135.4397  155.9450 C   0  0  2  0  0  0  0  0  0  0  0  0
  147.8995  134.6723  156.9413 N   0  5  0  0  0  0  0  0  0  0  0  0
  148.3574  134.7101  158.4973 S   0  0  0  0  0  0  0  0  0  0  0  0
  148.2699  133.3945  159.1516 O   0  0  0  0  0  0  0  0  0  0  0  0
  149.6030  135.4713  158.6830 O   0  0  0  0  0  0  0  0  0  0  0  0
  147.0143  135.7464  159.2266 C   0  0  0  0  0  0  0  0  0  0  0  0
  147.2679  135.9846  160.6904 C   0  0  0  0  0  0  0  0  0  0  0  0
  147.2750  135.0345  161.7498 C   0  0  0  0  0  0  0  0  0  0  0  0
  147.5626  135.7866  162.8515 C   0  0  0  0  0  0  0  0  0  0  0  0
  147.7087  137.0917  162.5109 O   0  0  0  0  0  0  0  0  0  0  0  0
  147.5139  137.2091  161.1300 N   0  0  0  0  0  0  0  0  0  0  0  0
  147.7034  135.7514  154.7649 C   0  0  0  0  0  0  0  0  0  0  0  0
  145.7509  132.7069  151.8683 H   0  0  0  0  0  0  0  0  0  0  0  0
  147.4418  132.3606  152.1984 H   0  0  0  0  0  0  0  0  0  0  0  0
  146.9985  133.8072  151.2915 H   0  0  0  0  0  0  0  0  0  0  0  0
  145.8069  134.7017  153.3191 H   0  0  0  0  0  0  0  0  0  0  0  0
  146.3021  133.3047  154.2514 H   0  0  0  0  0  0  0  0  0  0  0  0
  148.5487  132.8616  154.6841 H   0  0  0  0  0  0  0  0  0  0  0  0
  149.5871  133.4640  153.3991 H   0  0  0  0  0  0  0  0  0  0  0  0
  150.3708  135.2787  154.7218 H   0  0  0  0  0  0  0  0  0  0  0  0
  150.1198  132.9943  156.7480 H   0  0  0  0  0  0  0  0  0  0  0  0
  151.2040  134.3792  156.8871 H   0  0  0  0  0  0  0  0  0  0  0  0
  151.4055  133.2283  155.5794 H   0  0  0  0  0  0  0  0  0  0  0  0
  149.0541  136.3613  156.3536 H   0  0  0  0  0  0  0  0  0  0  0  0
  146.9892  136.6886  158.6789 H   0  0  0  0  0  0  0  0  0  0  0  0
  146.0602  135.2473  159.0617 H   0  0  0  0  0  0  0  0  0  0  0  0
  147.1073  133.9689  161.7032 H   0  0  0  0  0  0  0  0  0  0  0  0
  147.6893  135.5514  163.8980 H   0  0  0  0  0  0  0  0  0  0  0  0
  148.0225  136.6759  154.2828 H   0  0  0  0  0  0  0  0  0  0  0  0
  146.6673  135.9025  155.0747 H   0  0  0  0  0  0  0  0  0  0  0  0
  148.1864  135.1049  152.9255 H   0  0  0  0  0  0  0  0  0  0  0  0
  1  2  1  0  0  0  0
  1 19  1  0  0  0  0
  1 20  1  0  0  0  0
  1 21  1  0  0  0  0
  2  3  1  0  0  0  0
  2 22  1  0  0  0  0
  2 23  1  0  0  0  0
  3 18  1  0  0  0  0
  3  4  1  0  0  0  0
  3 37  1  0  0  0  0
  4  5  1  0  0  0  0
  4 24  1  0  0  0  0
  4 25  1  0  0  0  0
  5  6  1  0  0  0  0
  5  7  1  0  0  0  0
  5 26  1  0  0  0  0
  6 27  1  0  0  0  0
  6 28  1  0  0  0  0
  6 29  1  0  0  0  0
  7  8  1  0  0  0  0
  7 18  1  0  0  0  0
  7 30  1  0  0  0  0
  8  9  1  0  0  0  0
  9 10  2  0  0  0  0
  9 11  2  0  0  0  0
  9 12  1  0  0  0  0
 12 13  1  0  0  0  0
 12 31  1  0  0  0  0
 12 32  1  0  0  0  0
 13 17  2  0  0  0  0
 13 14  1  0  0  0  0
 14 15  2  0  0  0  0
 14 33  1  0  0  0  0
 15 16  1  0  0  0  0
 15 34  1  0  0  0  0
 16 17  1  0  0  0  0
 18 35  1  0  0  0  0
 18 36  1  0  0  0  0
M  CHG  1   3   1
M  CHG  1   8  -1
M  END
> <s_m_source_file>
AV-unprocessed.smi

> <i_m_source_file_index>
703

> <i_lp_mmshare_version>
43012

> <i_f3d_flags>
0

> <s_epik_input>
W0NIM11bQ0gyXU4xW0NIMl1bQ0BASF0oW0NIM10pW0NASF0oW0NIMl0xKVtOSF1TKD1PKSg9TylbQ0gyXWMyW2NIXVtjSF1vbjI=

> <s_epik_cmdline>
J2VwaWtfcHl0aG9uJywgJy1waCcsICc3LjAnLCAnLXRuJywgJzgnLCAnLW1hJywgJzIwMCcsICctbWV0YWxfYmluZGluZycsICctaW1hZScsICc8aW5maWxlLm1hZT4nLCAnLW9tYWUnLCAnPG91dGZpbGUubWFlPic=

> <r_epik_Ionization_Penalty>
3.62494

> <r_epik_Ionization_Penalty_Charging>
3.62494

> <r_epik_Ionization_Penalty_Neutral>
2.0321e-10

> <r_epik_State_Penalty>
3.62558

> <r_epik_Charging_Adjusted_Penalty>
7.25052

> <i_epik_Tot_Q>
0

> <i_epik_Tot_abs_Q>
2

> <r_epik_Metal_State_Penalty>
0.530836

> <b_epik_Metal_Only>
1

> <s_lp_Force_Field>
OPLS_2005

> <r_lp_Energy>
19.3254

> <b_lp_Chiralities_Consistent>
1

> <s_lp_Variant>
AV-unprocessed.smi:703-16

> <Gold.Version>
5.8.1

> <Gold.Id.Protein>
6NUR|6NUR_protein|mol2

> <Gold.PLP.Fitness>
39.8104

> <Gold.PLP.PLP>
-28.8052

> <Gold.PLP.part.hbond>
-6.5182

> <Gold.PLP.part.metal>
0.0000

> <Gold.PLP.part.buried>
-3.6631

> <Gold.PLP.part.nonpolar>
-19.1009

> <Gold.PLP.part.repulsive>
0.0000

> <Gold.PLP.ligand.clash>
0.0000

> <Gold.PLP.ligand.torsion>
1.0190

> <Gold.PLP.Chemscore.Hbond>
4.0000

> <Gold.PLP.Chemscore.CHOScore>
0.0000

> <Gold.PLP.Chemscore.Metal>
0.0000

> <Gold.Chemscore.Hbonds>
donor molecule, donor type, donor heavy atom, donor atom, acceptor molecule, acceptor atom, score
      L1  H     3    37       P1  7948  2.00
      P1  H  6896  6909       L1    11  1.00
      P1  H  6934  6947       L1    17  0.96

> <Gold.PLP.Chemscore.Internal.Correction>
1.0432

> <Gold.Rescore>
     Score         DG    S(hbond)    S(metal)    S(lipo)     H(rot)  DE(clash)    DE(int)     intcor
     16.11     -17.11       2.88        0.00      52.92       1.63       0.00       1.00       ----

> <Gold.Chemscore.Fitness>
16.1115

> <Gold.Chemscore.DG>
-17.1132

> <Gold.Chemscore.ZeroCoef>
-5.4800

> <Gold.Chemscore.Hbond>
2.8813

> <Gold.Chemscore.Metal>
0.0000

> <Gold.Chemscore.Lipo>
52.9230

> <Gold.Chemscore.Internal_Hbond>
0.0000

> <Gold.Chemscore.DEClash>
0.0000

> <Gold.Chemscore.DEInternal>
1.0017

> <Gold.Chemscore.Rot>
1.6338

> <Gold.Chemscore.Internal.Correction>
   9.000000E+99

> <Gold.Chemscore.Hbonds>
donor molecule, donor type, donor heavy atom, donor atom, acceptor molecule, acceptor atom, score
      L1  H     3    37       P1  7948  0.94
      P1  H  6896  6909       L1    11  0.88
      P1  H  6934  6947       L1    17  0.32

> <Gold.Chemscore.Hbond.Weighted>
-9.6237

> <Gold.Chemscore.Metal.Weighted>
-0.0000

> <Gold.Chemscore.Lipo.Weighted>
-6.1920

> <Gold.Chemscore.Internal_Hbond.Weighted>
0.0000

> <Gold.Chemscore.DEClash.Weighted>
0.0000

> <Gold.Chemscore.DEInternal.Weighted>
1.0017

> <Gold.Chemscore.Rot.Weighted>
4.1825

> <Gold.Chemscore.Internal.Correction.Weighted>
   9.000000E+99

> <Gold.Protein.RotatedTorsions>
[ 6907 6896 6895 6894 ] final   57.91 input  -60.11 | X-H torsion
[ 7974 7965 7964 7962 ] final   51.00 input  175.53 | X-H torsion
[ 8008 7997 7996 7995 ] final    1.15 input   59.86 | X-H torsion
[ 10167 10162 10161 10158 ] final  -23.41 input  -65.29 | X-H torsion
[ 10718 10713 10712 10709 ] final  -88.98 input   66.30 | X-H torsion
[ 10763 10752 10751 10750 ] final  -35.31 input  -60.55 | X-H torsion
[ 11005 11000 10999 10996 ] final  -26.44 input  -57.11 | X-H torsion

> <Gold.Protein.ActiveResidues>
 VAL166  LYS551  ARG553  GLY616  TRP617  ASP618  TYR619  PRO620  LYS621  CYS622 
 ASP623  PHE694  ASN695  SER759  ASP760  ASP761  ALA762  ILE779  LEU786  VAL792 
 PHE793  MET794  SER795  GLU796  ALA797  LYS798  CYS799  TRP800  GLU811  SER814 

> <Gold.Protein.RotatedAtoms>
  152.3776  134.6640  160.0154 H   0  0  0  0  0  0  0  0  0  0  0  0  # atno 6907 bound_to 6896
  151.6914  133.3305  159.3251 H   0  0  0  0  0  0  0  0  0  0  0  0  # atno 6908 bound_to 6896
  150.7721  134.6631  159.6395 H   0  0  0  0  0  0  0  0  0  0  0  0  # atno 6909 bound_to 6896
  145.9957  139.4385  143.0046 H   0  0  0  0  0  0  0  0  0  0  0  0  # atno 7974 bound_to 7965
  154.6763  140.2623  155.6954 H   0  0  0  0  0  0  0  0  0  0  0  0  # atno 8008 bound_to 7997
  156.2679  140.2819  156.1214 H   0  0  0  0  0  0  0  0  0  0  0  0  # atno 8009 bound_to 7997
  155.1095  140.0375  157.2710 H   0  0  0  0  0  0  0  0  0  0  0  0  # atno 8010 bound_to 7997
  140.7288  143.4446  151.0606 H   0  0  0  0  0  0  0  0  0  0  0  0  # atno 10167 bound_to 10162
  155.9984  130.4855  150.5102 H   0  0  0  0  0  0  0  0  0  0  0  0  # atno 10718 bound_to 10713
  153.8610  135.6840  153.4783 H   0  0  0  0  0  0  0  0  0  0  0  0  # atno 10763 bound_to 10752
  153.1342  135.4685  154.9394 H   0  0  0  0  0  0  0  0  0  0  0  0  # atno 10764 bound_to 10752
  154.7758  135.3253  154.8043 H   0  0  0  0  0  0  0  0  0  0  0  0  # atno 10765 bound_to 10752
  140.9029  133.7512  156.0568 H   0  0  0  0  0  0  0  0  0  0  0  0  # atno 11005 bound_to 11000
  145.7564  140.9953  143.1223 LP  0  0  0  0  0  0  0  0  0  0  0  0  # atno 17320 bound_to 7965
  144.6903  139.9276  143.7470 LP  0  0  0  0  0  0  0  0  0  0  0  0  # atno 17321 bound_to 7965
  139.8116  143.7943  152.3171 LP  0  0  0  0  0  0  0  0  0  0  0  0  # atno 17342 bound_to 10162
  139.7994  144.7380  150.9845 LP  0  0  0  0  0  0  0  0  0  0  0  0  # atno 17343 bound_to 10162
  157.3076  131.0657  151.2024 LP  0  0  0  0  0  0  0  0  0  0  0  0  # atno 17370 bound_to 10713
  157.2981  130.6829  149.6149 LP  0  0  0  0  0  0  0  0  0  0  0  0  # atno 17371 bound_to 10713
  140.8207  134.3292  157.5382 LP  0  0  0  0  0  0  0  0  0  0  0  0  # atno 17394 bound_to 11000
  139.8745  134.9307  156.3510 LP  0  0  0  0  0  0  0  0  0  0  0  0  # atno 17395 bound_to 11000

$$$$
