AV-unprocessed.smi:101|AV-procd|sdf|919|dock3
  -GOLD-   2262017423D 1   1.00000     0.00000
 Structure written by MMmdl.
 44 46  0  0  0  0  0  0  0  0  1 V2000
  145.1997  136.9833  155.8518 C   0  0  0  0  0  0  0  0  0  0  0  0
  145.6588  137.7416  154.6175 C   0  0  0  0  0  0  0  0  0  0  0  0
  146.6087  138.7100  154.6701 C   0  0  0  0  0  0  0  0  0  0  0  0
  147.0462  139.4208  153.5606 N   0  0  0  0  0  0  0  0  0  0  0  0
  148.0964  140.4999  153.6842 C   0  0  2  0  0  0  0  0  0  0  0  0
  149.2822  139.9162  154.1306 O   0  0  0  0  0  0  0  0  0  0  0  0
  149.8787  140.7447  155.1189 C   0  0  2  0  0  0  0  0  0  0  0  0
  150.8338  139.9371  156.0088 C   0  0  0  0  0  0  0  0  0  0  0  0
  151.2330  140.7404  157.1067 O   0  0  0  0  0  0  0  0  0  0  0  0
  152.2774  140.3672  157.8711 C   0  0  0  0  0  0  0  0  0  0  0  0
  152.9748  139.3780  157.6370 O   0  0  0  0  0  0  0  0  0  0  0  0
  152.5024  141.2780  159.0306 C   0  0  0  0  0  0  0  0  0  0  0  0
  151.8781  142.5471  159.0463 C   0  0  0  0  0  0  0  0  0  0  0  0
  152.0700  143.4280  160.1284 C   0  0  0  0  0  0  0  0  0  0  0  0
  152.8873  143.0497  161.2094 C   0  0  0  0  0  0  0  0  0  0  0  0
  153.5135  141.7896  161.2065 C   0  0  0  0  0  0  0  0  0  0  0  0
  153.3242  140.9082  160.1242 C   0  0  0  0  0  0  0  0  0  0  0  0
  148.6827  141.3856  155.8345 C   0  0  2  0  0  0  0  0  0  0  0  0
  148.1688  140.5348  156.8431 O   0  0  0  0  0  0  0  0  0  0  0  0
  147.6652  141.5624  154.7128 C   0  0  1  0  0  0  0  0  0  0  0  0
  147.7614  142.8665  154.1743 O   0  0  0  0  0  0  0  0  0  0  0  0
  146.4670  139.1627  152.3015 C   0  0  0  0  0  0  0  0  0  0  0  0
  146.7778  139.7773  151.2819 O   0  0  0  0  0  0  0  0  0  0  0  0
  145.4963  138.1641  152.2455 N   0  0  0  0  0  0  0  0  0  0  0  0
  145.0404  137.4112  153.3305 C   0  0  0  0  0  0  0  0  0  0  0  0
  144.1790  136.5514  153.1537 O   0  0  0  0  0  0  0  0  0  0  0  0
  145.0837  137.9718  151.3445 H   0  0  0  0  0  0  0  0  0  0  0  0
  145.7234  137.3152  156.7488 H   0  0  0  0  0  0  0  0  0  0  0  0
  145.3840  135.9149  155.7334 H   0  0  0  0  0  0  0  0  0  0  0  0
  144.1316  137.1312  156.0149 H   0  0  0  0  0  0  0  0  0  0  0  0
  147.0410  138.9396  155.6330 H   0  0  0  0  0  0  0  0  0  0  0  0
  148.2703  140.8956  152.6815 H   0  0  0  0  0  0  0  0  0  0  0  0
  150.4321  141.5335  154.6058 H   0  0  0  0  0  0  0  0  0  0  0  0
  150.3288  139.0470  156.3864 H   0  0  0  0  0  0  0  0  0  0  0  0
  151.7040  139.6088  155.4383 H   0  0  0  0  0  0  0  0  0  0  0  0
  151.2440  142.8586  158.2286 H   0  0  0  0  0  0  0  0  0  0  0  0
  151.5881  144.3946  160.1290 H   0  0  0  0  0  0  0  0  0  0  0  0
  153.0332  143.7248  162.0399 H   0  0  0  0  0  0  0  0  0  0  0  0
  154.1400  141.4975  162.0363 H   0  0  0  0  0  0  0  0  0  0  0  0
  153.8196  139.9487  160.1541 H   0  0  0  0  0  0  0  0  0  0  0  0
  148.9539  142.3310  156.3069 H   0  0  0  0  0  0  0  0  0  0  0  0
  148.3356  140.9296  157.6853 H   0  0  0  0  0  0  0  0  0  0  0  0
  146.6393  141.3993  155.0479 H   0  0  0  0  0  0  0  0  0  0  0  0
  148.1021  143.4431  154.8409 H   0  0  0  0  0  0  0  0  0  0  0  0
  1  2  1  0  0  0  0
  1 28  1  0  0  0  0
  1 29  1  0  0  0  0
  1 30  1  0  0  0  0
  2 25  1  0  0  0  0
  2  3  2  0  0  0  0
  3  4  1  0  0  0  0
  3 31  1  0  0  0  0
  4  5  1  0  0  0  0
  4 22  1  0  0  0  0
  5 20  1  0  0  0  0
  5  6  1  0  0  0  0
  5 32  1  0  0  0  0
  6  7  1  0  0  0  0
  7  8  1  0  0  0  0
  7 18  1  0  0  0  0
  7 33  1  0  0  0  0
  8  9  1  0  0  0  0
  8 34  1  0  0  0  0
  8 35  1  0  0  0  0
  9 10  1  0  0  0  0
 10 11  2  0  0  0  0
 10 12  1  0  0  0  0
 12 17  1  0  0  0  0
 12 13  2  0  0  0  0
 13 14  1  0  0  0  0
 13 36  1  0  0  0  0
 14 15  2  0  0  0  0
 14 37  1  0  0  0  0
 15 16  1  0  0  0  0
 15 38  1  0  0  0  0
 16 17  2  0  0  0  0
 16 39  1  0  0  0  0
 17 40  1  0  0  0  0
 18 19  1  0  0  0  0
 18 20  1  0  0  0  0
 18 41  1  0  0  0  0
 19 42  1  0  0  0  0
 20 21  1  0  0  0  0
 20 43  1  0  0  0  0
 21 44  1  0  0  0  0
 22 23  2  0  0  0  0
 22 24  1  0  0  0  0
 24 27  1  0  0  0  0
 24 25  1  0  0  0  0
 25 26  2  0  0  0  0
M  END
> <s_m_source_file>
AV-unprocessed.smi

> <i_m_source_file_index>
101

> <i_lp_mmshare_version>
43012

> <i_f3d_flags>
0

> <s_epik_input>
Tz1jMVtuSF1jKD1PKW4oW2NIXWMxW0NIM10pW0NAQEhdMk9bQ0BIXShbQ0BASF0oW09IXSlbQ0BIXTJbT0hdKVtDSDJdT0MoPU8pYzNbY0hdW2NIXVtjSF1bY0hdW2NIXTM=

> <s_epik_cmdline>
J2VwaWtfcHl0aG9uJywgJy1waCcsICc3LjAnLCAnLXRuJywgJzgnLCAnLW1hJywgJzIwMCcsICctbWV0YWxfYmluZGluZycsICctaW1hZScsICc8aW5maWxlLm1hZT4nLCAnLW9tYWUnLCAnPG91dGZpbGUubWFlPic=

> <r_lp_tautomer_probability>
0.999537

> <r_epik_Ionization_Penalty>
0.00263537

> <r_epik_Ionization_Penalty_Charging>
0.00263428

> <r_epik_Ionization_Penalty_Neutral>
1.09111e-06

> <r_epik_State_Penalty>
0.00183335

> <r_epik_Charging_Adjusted_Penalty>
0.00446763

> <i_epik_Tot_Q>
0

> <i_epik_Tot_abs_Q>
0

> <r_epik_Metal_State_Penalty>
1.00528

> <b_epik_Metal_Only>
0

> <s_epik_Chemistry_Notes>
This compound has an ester and may undergo hydrolysis at high or low pH. This compound contains an acetal/aminal-like group ( X-CH(R)-Y where X, Y are N, S, or O) that may be acid/base labile, releasing an aldehyde.

> <s_lp_Force_Field>
OPLS_2005

> <r_lp_Energy>
30.9331

> <b_lp_Chiralities_Consistent>
1

> <s_lp_Variant>
AV-unprocessed.smi:101-7

> <Gold.Version>
5.8.1

> <Gold.Id.Protein>
6NUR|6NUR_protein|mol2

> <Gold.PLP.Fitness>
48.3782

> <Gold.PLP.PLP>
-39.8567

> <Gold.PLP.part.hbond>
-5.8349

> <Gold.PLP.part.metal>
0.0000

> <Gold.PLP.part.buried>
-2.3000

> <Gold.PLP.part.nonpolar>
-35.4895

> <Gold.PLP.part.repulsive>
3.9529

> <Gold.PLP.ligand.clash>
0.0000

> <Gold.PLP.ligand.torsion>
0.2219

> <Gold.PLP.Chemscore.Hbond>
2.9760

> <Gold.PLP.Chemscore.CHOScore>
0.0000

> <Gold.PLP.Chemscore.Metal>
0.0000

> <Gold.Chemscore.Hbonds>
donor molecule, donor type, donor heavy atom, donor atom, acceptor molecule, acceptor atom, score
      L1  H    21    44       P1  8028  1.00
      L1  H    24    27       P1 10171  0.92
      P1  H  7997  8008       L1    11  1.00

> <Gold.PLP.Chemscore.Internal.Correction>
0.0373

> <Gold.Rescore>
     Score         DG    S(hbond)    S(metal)    S(lipo)     H(rot)  DE(clash)    DE(int)     intcor
     13.46     -15.63       2.56        0.00      86.21       3.32       1.99       0.19       ----

> <Gold.Chemscore.Fitness>
13.4601

> <Gold.Chemscore.DG>
-15.6339

> <Gold.Chemscore.ZeroCoef>
-5.4800

> <Gold.Chemscore.Hbond>
2.5625

> <Gold.Chemscore.Metal>
0.0000

> <Gold.Chemscore.Lipo>
86.2135

> <Gold.Chemscore.Internal_Hbond>
0.0000

> <Gold.Chemscore.DEClash>
1.9867

> <Gold.Chemscore.DEInternal>
0.1871

> <Gold.Chemscore.Rot>
3.3172

> <Gold.Chemscore.Internal.Correction>
   9.000000E+99

> <Gold.Chemscore.Hbonds>
donor molecule, donor type, donor heavy atom, donor atom, acceptor molecule, acceptor atom, score
      L1  H    21    44       P1  8028  0.88
      L1  H    24    27       P1 10171  0.84
      P1  H  7997  8008       L1    11  0.45

> <Gold.Chemscore.Hbond.Weighted>
-8.5589

> <Gold.Chemscore.Metal.Weighted>
-0.0000

> <Gold.Chemscore.Lipo.Weighted>
-10.0870

> <Gold.Chemscore.Internal_Hbond.Weighted>
0.0000

> <Gold.Chemscore.DEClash.Weighted>
1.9867

> <Gold.Chemscore.DEInternal.Weighted>
0.1871

> <Gold.Chemscore.Rot.Weighted>
8.4920

> <Gold.Chemscore.Internal.Correction.Weighted>
   9.000000E+99

> <Gold.Protein.RotatedTorsions>
[ 6907 6896 6895 6894 ] final  -58.58 input  -60.11 | X-H torsion
[ 7974 7965 7964 7962 ] final -125.60 input  175.53 | X-H torsion
[ 8008 7997 7996 7995 ] final  -68.65 input   59.86 | X-H torsion
[ 10167 10162 10161 10158 ] final  172.99 input  -65.29 | X-H torsion
[ 10718 10713 10712 10709 ] final -159.13 input   66.30 | X-H torsion
[ 10763 10752 10751 10750 ] final -155.77 input  -60.55 | X-H torsion
[ 11005 11000 10999 10996 ] final -145.77 input  -57.11 | X-H torsion

> <Gold.Protein.ActiveResidues>
 VAL166  LYS551  ARG553  GLY616  TRP617  ASP618  TYR619  PRO620  LYS621  CYS622 
 ASP623  PHE694  ASN695  SER759  ASP760  ASP761  ALA762  ILE779  LEU786  VAL792 
 PHE793  MET794  SER795  GLU796  ALA797  LYS798  CYS799  TRP800  GLU811  SER814 

> <Gold.Protein.RotatedAtoms>
  150.7996  134.7080  159.6587 H   0  0  0  0  0  0  0  0  0  0  0  0  # atno 6907 bound_to 6896
  152.4112  134.6118  160.0037 H   0  0  0  0  0  0  0  0  0  0  0  0  # atno 6908 bound_to 6896
  151.6360  133.3292  159.3155 H   0  0  0  0  0  0  0  0  0  0  0  0  # atno 6909 bound_to 6896
  144.9959  140.7775  143.4526 H   0  0  0  0  0  0  0  0  0  0  0  0  # atno 7974 bound_to 7965
  154.4883  140.0868  156.7537 H   0  0  0  0  0  0  0  0  0  0  0  0  # atno 8008 bound_to 7997
  155.4294  140.3449  155.4260 H   0  0  0  0  0  0  0  0  0  0  0  0  # atno 8009 bound_to 7997
  156.1293  140.1497  156.9077 H   0  0  0  0  0  0  0  0  0  0  0  0  # atno 8010 bound_to 7997
  139.5094  144.3311  152.0110 H   0  0  0  0  0  0  0  0  0  0  0  0  # atno 10167 bound_to 10162
  156.5638  130.8658  151.2817 H   0  0  0  0  0  0  0  0  0  0  0  0  # atno 10718 bound_to 10713
  154.7763  135.3160  154.8085 H   0  0  0  0  0  0  0  0  0  0  0  0  # atno 10763 bound_to 10752
  153.8808  135.6835  153.4771 H   0  0  0  0  0  0  0  0  0  0  0  0  # atno 10764 bound_to 10752
  153.1387  135.4748  154.9399 H   0  0  0  0  0  0  0  0  0  0  0  0  # atno 10765 bound_to 10752
  140.7889  134.2992  157.5020 H   0  0  0  0  0  0  0  0  0  0  0  0  # atno 11005 bound_to 11000
  145.2220  139.2154  143.5088 LP  0  0  0  0  0  0  0  0  0  0  0  0  # atno 17320 bound_to 7965
  146.3442  140.2080  142.8590 LP  0  0  0  0  0  0  0  0  0  0  0  0  # atno 17321 bound_to 7965
  140.2751  144.3922  150.6138 LP  0  0  0  0  0  0  0  0  0  0  0  0  # atno 17342 bound_to 10162
  140.6060  143.2168  151.6980 LP  0  0  0  0  0  0  0  0  0  0  0  0  # atno 17343 bound_to 10162
  157.7363  130.9776  150.2128 LP  0  0  0  0  0  0  0  0  0  0  0  0  # atno 17370 bound_to 10713
  156.2775  130.3729  149.7968 LP  0  0  0  0  0  0  0  0  0  0  0  0  # atno 17371 bound_to 10713
  139.8733  134.9362  156.3655 LP  0  0  0  0  0  0  0  0  0  0  0  0  # atno 17394 bound_to 11000
  140.9409  133.7515  156.0146 LP  0  0  0  0  0  0  0  0  0  0  0  0  # atno 17395 bound_to 11000

$$$$
