AV-unprocessed.smi:1567|AV-procd|sdf|6309|dock1
  -GOLD-   22720 6513D 1   1.00000     0.00000
 Structure written by MMmdl.
 43 45  0  0  0  0  0  0  0  0  2 V2000
  144.8460  133.6351  154.4672 O   0  0  0  0  0  0  0  0  0  0  0  0
  145.1132  134.1536  155.7522 C   0  0  0  0  0  0  0  0  0  0  0  0
  145.8856  135.4734  155.6267 C   0  0  0  0  0  0  0  0  0  0  0  0
  147.3541  135.2571  155.2239 C   0  0  0  0  0  0  0  0  0  0  0  0
  148.2222  136.4533  155.4736 C   0  0  0  0  0  0  0  0  0  0  0  0
  148.9525  137.1437  154.5497 N   0  3  0  0  0  0  0  0  0  0  0  0
  149.6298  138.1955  155.1679 C   0  0  0  0  0  0  0  0  0  0  0  0
  150.4873  139.1601  154.6476 C   0  0  0  0  0  0  0  0  0  0  0  0
  151.0143  140.0968  155.5611 C   0  0  0  0  0  0  0  0  0  0  0  0
  150.6835  140.0529  156.9312 C   0  0  0  0  0  0  0  0  0  0  0  0
  149.8119  139.0712  157.4466 C   0  0  0  0  0  0  0  0  0  0  0  0
  149.2967  138.1484  156.5364 C   0  0  0  0  0  0  0  0  0  0  0  0
  148.4257  137.0629  156.6775 N   0  0  0  0  0  0  0  0  0  0  0  0
  147.8872  136.7493  158.0098 C   0  0  0  0  0  0  0  0  0  0  0  0
  148.8023  135.8121  158.8231 C   0  0  1  0  0  0  0  0  0  0  0  0
  150.0973  136.3753  158.9199 O   0  0  0  0  0  0  0  0  0  0  0  0
  148.1921  135.4952  160.1819 C   0  0  0  0  0  0  0  0  0  0  0  0
  148.0020  136.5141  161.1429 C   0  0  0  0  0  0  0  0  0  0  0  0
  147.4273  136.2151  162.3935 C   0  0  0  0  0  0  0  0  0  0  0  0
  147.2503  137.1966  163.3091 F   0  0  0  0  0  0  0  0  0  0  0  0
  147.0343  134.8966  162.6909 C   0  0  0  0  0  0  0  0  0  0  0  0
  147.2124  133.8784  161.7354 C   0  0  0  0  0  0  0  0  0  0  0  0
  147.7870  134.1751  160.4840 C   0  0  0  0  0  0  0  0  0  0  0  0
  147.9415  133.1854  159.5715 F   0  0  0  0  0  0  0  0  0  0  0  0
  144.1421  133.0078  154.5351 H   0  0  0  0  0  0  0  0  0  0  0  0
  144.1703  134.3065  156.2778 H   0  0  0  0  0  0  0  0  0  0  0  0
  145.6896  133.4209  156.3181 H   0  0  0  0  0  0  0  0  0  0  0  0
  145.3932  136.1067  154.8872 H   0  0  0  0  0  0  0  0  0  0  0  0
  145.8417  136.0079  156.5770 H   0  0  0  0  0  0  0  0  0  0  0  0
  147.7673  134.4094  155.7715 H   0  0  0  0  0  0  0  0  0  0  0  0
  147.4111  135.0044  154.1648 H   0  0  0  0  0  0  0  0  0  0  0  0
  150.7417  139.1958  153.5985 H   0  0  0  0  0  0  0  0  0  0  0  0
  151.6856  140.8644  155.2039 H   0  0  0  0  0  0  0  0  0  0  0  0
  151.1065  140.7877  157.6010 H   0  0  0  0  0  0  0  0  0  0  0  0
  149.5634  139.0467  158.4974 H   0  0  0  0  0  0  0  0  0  0  0  0
  147.7382  137.6893  158.5423 H   0  0  0  0  0  0  0  0  0  0  0  0
  146.8965  136.3113  157.8816 H   0  0  0  0  0  0  0  0  0  0  0  0
  148.9249  134.8744  158.2807 H   0  0  0  0  0  0  0  0  0  0  0  0
  150.0172  137.3168  158.8987 H   0  0  0  0  0  0  0  0  0  0  0  0
  148.2920  137.5318  160.9256 H   0  0  0  0  0  0  0  0  0  0  0  0
  146.5928  134.6670  163.6495 H   0  0  0  0  0  0  0  0  0  0  0  0
  146.9052  132.8680  161.9615 H   0  0  0  0  0  0  0  0  0  0  0  0
  148.9828  136.9076  153.5662 H   0  0  0  0  0  0  0  0  0  0  0  0
  1  2  1  0  0  0  0
  1 25  1  0  0  0  0
  2  3  1  0  0  0  0
  2 26  1  0  0  0  0
  2 27  1  0  0  0  0
  3  4  1  0  0  0  0
  3 28  1  0  0  0  0
  3 29  1  0  0  0  0
  4  5  1  0  0  0  0
  4 30  1  0  0  0  0
  4 31  1  0  0  0  0
  5 13  1  0  0  0  0
  5  6  2  0  0  0  0
  6  7  1  0  0  0  0
  6 43  1  0  0  0  0
  7 12  2  0  0  0  0
  7  8  1  0  0  0  0
  8  9  2  0  0  0  0
  8 32  1  0  0  0  0
  9 10  1  0  0  0  0
  9 33  1  0  0  0  0
 10 11  2  0  0  0  0
 10 34  1  0  0  0  0
 11 12  1  0  0  0  0
 11 35  1  0  0  0  0
 12 13  1  0  0  0  0
 13 14  1  0  0  0  0
 14 15  1  0  0  0  0
 14 36  1  0  0  0  0
 14 37  1  0  0  0  0
 15 16  1  0  0  0  0
 15 17  1  0  0  0  0
 15 38  1  0  0  0  0
 16 39  1  0  0  0  0
 17 23  1  0  0  0  0
 17 18  2  0  0  0  0
 18 19  1  0  0  0  0
 18 40  1  0  0  0  0
 19 20  1  0  0  0  0
 19 21  2  0  0  0  0
 21 22  1  0  0  0  0
 21 41  1  0  0  0  0
 22 23  2  0  0  0  0
 22 42  1  0  0  0  0
 23 24  1  0  0  0  0
M  CHG  1   6   1
M  END
> <s_m_source_file>
AV-unprocessed.smi

> <i_m_source_file_index>
1567

> <i_lp_mmshare_version>
43012

> <i_f3d_flags>
0

> <s_epik_input>
W09IXVtDSDJdW0NIMl1bQ0gyXWMobjEpbihjKGMxMilbY0hdW2NIXVtjSF1bY0hdMilbQ0gyXVtDQEhdKFtPSF0pYzNbY0hdYyhGKVtjSF1bY0hdYzNG

> <s_epik_cmdline>
J2VwaWtfcHl0aG9uJywgJy1waCcsICc3LjAnLCAnLXRuJywgJzgnLCAnLW1hJywgJzIwMCcsICctbWV0YWxfYmluZGluZycsICctaW1hZScsICc8aW5maWxlLm1hZT4nLCAnLW9tYWUnLCAnPG91dGZpbGUubWFlPic=

> <r_epik_Ionization_Penalty>
0.786443

> <r_epik_Ionization_Penalty_Charging>
0.786439

> <r_epik_Ionization_Penalty_Neutral>
3.69699e-06

> <r_epik_State_Penalty>
0.816472

> <r_epik_Charging_Adjusted_Penalty>
1.60291

> <i_epik_Tot_Q>
1

> <i_epik_Tot_abs_Q>
1

> <r_epik_Metal_State_Penalty>
4.73733

> <b_epik_Metal_Only>
0

> <s_lp_Force_Field>
OPLS_2005

> <r_lp_Energy>
17.6008

> <b_lp_Chiralities_Consistent>
1

> <s_lp_Variant>
AV-unprocessed.smi:1567-4

> <Gold.Version>
5.8.1

> <Gold.Id.Protein>
6NUR|6NUR_protein|mol2

> <Gold.PLP.Fitness>
47.1735

> <Gold.PLP.PLP>
-36.1208

> <Gold.PLP.part.hbond>
-3.0000

> <Gold.PLP.part.metal>
0.0000

> <Gold.PLP.part.buried>
-1.9220

> <Gold.PLP.part.nonpolar>
-30.9390

> <Gold.PLP.part.repulsive>
0.0000

> <Gold.PLP.ligand.clash>
0.0000

> <Gold.PLP.ligand.torsion>
0.5240

> <Gold.PLP.Chemscore.Hbond>
4.0000

> <Gold.PLP.Chemscore.CHOScore>
0.0000

> <Gold.PLP.Chemscore.Metal>
0.0000

> <Gold.Chemscore.Hbonds>
donor molecule, donor type, donor heavy atom, donor atom, acceptor molecule, acceptor atom, score
      L1  H     1    25       P1 10957  1.00
      L1  H     6    43       P1  7948  2.00
      P1  H  6896  6909       L1    16  1.00

> <Gold.PLP.Chemscore.Internal.Correction>
0.1008

> <Gold.Rescore>
     Score         DG    S(hbond)    S(metal)    S(lipo)     H(rot)  DE(clash)    DE(int)     intcor
     15.37     -15.93       2.89        0.00      79.38       3.31       0.02       0.54       ----

> <Gold.Chemscore.Fitness>
15.3677

> <Gold.Chemscore.DG>
-15.9339

> <Gold.Chemscore.ZeroCoef>
-5.4800

> <Gold.Chemscore.Hbond>
2.8884

> <Gold.Chemscore.Metal>
0.0000

> <Gold.Chemscore.Lipo>
79.3772

> <Gold.Chemscore.Internal_Hbond>
0.0000

> <Gold.Chemscore.DEClash>
0.0231

> <Gold.Chemscore.DEInternal>
0.5432

> <Gold.Chemscore.Rot>
3.3127

> <Gold.Chemscore.Internal.Correction>
   9.000000E+99

> <Gold.Chemscore.Hbonds>
donor molecule, donor type, donor heavy atom, donor atom, acceptor molecule, acceptor atom, score
      L1  H     1    25       P1 10957  0.99
      L1  H     6    43       P1  7948  1.00
      P1  H  6896  6909       L1    16  0.30

> <Gold.Chemscore.Hbond.Weighted>
-9.6473

> <Gold.Chemscore.Metal.Weighted>
-0.0000

> <Gold.Chemscore.Lipo.Weighted>
-9.2871

> <Gold.Chemscore.Internal_Hbond.Weighted>
0.0000

> <Gold.Chemscore.DEClash.Weighted>
0.0231

> <Gold.Chemscore.DEInternal.Weighted>
0.5432

> <Gold.Chemscore.Rot.Weighted>
8.4805

> <Gold.Chemscore.Internal.Correction.Weighted>
   9.000000E+99

> <Gold.Protein.RotatedTorsions>
[ 6907 6896 6895 6894 ] final   85.12 input  -60.11 | X-H torsion
[ 7974 7965 7964 7962 ] final  138.66 input  175.53 | X-H torsion
[ 8008 7997 7996 7995 ] final   48.36 input   59.86 | X-H torsion
[ 10167 10162 10161 10158 ] final  -78.03 input  -65.29 | X-H torsion
[ 10718 10713 10712 10709 ] final   46.63 input   66.30 | X-H torsion
[ 10763 10752 10751 10750 ] final -109.32 input  -60.55 | X-H torsion
[ 11005 11000 10999 10996 ] final  109.15 input  -57.11 | X-H torsion

> <Gold.Protein.ActiveResidues>
 VAL166  LYS551  ARG553  GLY616  TRP617  ASP618  TYR619  PRO620  LYS621  CYS622 
 ASP623  PHE694  ASN695  SER759  ASP760  ASP761  ALA762  ILE779  LEU786  VAL792 
 PHE793  MET794  SER795  GLU796  ALA797  LYS798  CYS799  TRP800  GLU811  SER814 

> <Gold.Protein.RotatedAtoms>
  152.5368  134.2636  159.8944 H   0  0  0  0  0  0  0  0  0  0  0  0  # atno 6907 bound_to 6896
  151.2595  133.4302  159.2623 H   0  0  0  0  0  0  0  0  0  0  0  0  # atno 6908 bound_to 6896
  151.0466  134.9658  159.8246 H   0  0  0  0  0  0  0  0  0  0  0  0  # atno 6909 bound_to 6896
  144.9351  139.4999  143.5599 H   0  0  0  0  0  0  0  0  0  0  0  0  # atno 7974 bound_to 7965
  155.3843  140.3430  155.4248 H   0  0  0  0  0  0  0  0  0  0  0  0  # atno 8008 bound_to 7997
  156.1593  140.1595  156.8673 H   0  0  0  0  0  0  0  0  0  0  0  0  # atno 8009 bound_to 7997
  154.5124  140.0786  156.7998 H   0  0  0  0  0  0  0  0  0  0  0  0  # atno 8010 bound_to 7997
  140.4718  143.2425  151.8193 H   0  0  0  0  0  0  0  0  0  0  0  0  # atno 10167 bound_to 10162
  157.4501  130.8133  149.7780 H   0  0  0  0  0  0  0  0  0  0  0  0  # atno 10718 bound_to 10713
  154.8186  135.4605  154.0715 H   0  0  0  0  0  0  0  0  0  0  0  0  # atno 10763 bound_to 10752
  153.2087  135.6879  153.8147 H   0  0  0  0  0  0  0  0  0  0  0  0  # atno 10764 bound_to 10752
  153.7606  135.3284  155.3313 H   0  0  0  0  0  0  0  0  0  0  0  0  # atno 10765 bound_to 10752
  139.8857  134.9450  156.6082 H   0  0  0  0  0  0  0  0  0  0  0  0  # atno 11005 bound_to 11000
  146.3263  139.8330  142.8905 LP  0  0  0  0  0  0  0  0  0  0  0  0  # atno 17320 bound_to 7965
  145.3080  141.0212  143.3571 LP  0  0  0  0  0  0  0  0  0  0  0  0  # atno 17321 bound_to 7965
  139.4819  144.4882  151.9219 LP  0  0  0  0  0  0  0  0  0  0  0  0  # atno 17342 bound_to 10162
  140.3968  144.2545  150.5895 LP  0  0  0  0  0  0  0  0  0  0  0  0  # atno 17343 bound_to 10162
  155.9984  130.3895  150.2705 LP  0  0  0  0  0  0  0  0  0  0  0  0  # atno 17370 bound_to 10713
  157.0876  131.0160  151.3134 LP  0  0  0  0  0  0  0  0  0  0  0  0  # atno 17371 bound_to 10713
  140.7832  133.8643  155.8584 LP  0  0  0  0  0  0  0  0  0  0  0  0  # atno 17394 bound_to 11000
  140.9742  134.1491  157.4550 LP  0  0  0  0  0  0  0  0  0  0  0  0  # atno 17395 bound_to 11000

$$$$
