AV-unprocessed.smi:2640|AV-procd|sdf|10268|dock2
  -GOLD-   2272014283D 1   1.00000     0.00000
 Structure written by MMmdl.
 42 43  0  0  0  0  0  0  0  0  2 V2000
  145.3002  134.8151  154.7206 O   0  0  0  0  0  0  0  0  0  0  0  0
  146.2668  135.2166  154.0717 C   0  0  0  0  0  0  0  0  0  0  0  0
  147.2545  136.2092  154.6855 C   0  0  0  0  0  0  0  0  0  0  0  0
  148.6489  135.7366  154.5711 N   0  3  0  0  0  0  0  0  0  0  0  0
  148.8420  134.3241  154.9501 C   0  0  0  0  0  0  0  0  0  0  0  0
  149.4838  133.5309  153.8022 C   0  0  0  0  0  0  0  0  0  0  0  0
  149.6330  132.1266  154.1319 N   0  0  0  0  0  0  0  0  0  0  0  0
  149.0948  131.0313  153.4898 C   0  0  0  0  0  0  0  0  0  0  0  0
  149.5206  129.9193  154.1581 C   0  0  0  0  0  0  0  0  0  0  0  0
  150.3293  130.4427  155.2052 C   0  0  0  0  0  0  0  0  0  0  0  0
  150.3950  131.7645  155.1862 N   0  0  0  0  0  0  0  0  0  0  0  0
  146.5269  134.8196  152.8155 N   0  0  0  0  0  0  0  0  0  0  0  0
  145.7030  133.8976  152.0295 C   0  0  2  0  0  0  0  0  0  0  0  0
  146.4554  133.6044  150.7115 C   0  0  0  0  0  0  0  0  0  0  0  0
  146.0304  132.2900  150.0337 C   0  0  0  0  0  0  0  0  0  0  0  0
  144.5773  132.2554  149.5365 C   0  0  0  0  0  0  0  0  0  0  0  0
  143.5349  132.3966  150.6589 C   0  0  0  0  0  0  0  0  0  0  0  0
  143.3932  133.7762  151.1057 N   0  0  0  0  0  0  0  0  0  0  0  0
  144.3290  134.5296  151.7028 C   0  0  0  0  0  0  0  0  0  0  0  0
  144.0959  135.7058  151.9829 O   0  0  0  0  0  0  0  0  0  0  0  0
  147.1490  137.1679  154.1761 H   0  0  0  0  0  0  0  0  0  0  0  0
  147.0120  136.3669  155.7376 H   0  0  0  0  0  0  0  0  0  0  0  0
  148.9478  135.8605  153.6142 H   0  0  0  0  0  0  0  0  0  0  0  0
  149.4718  134.2783  155.8396 H   0  0  0  0  0  0  0  0  0  0  0  0
  147.8780  133.8866  155.2131 H   0  0  0  0  0  0  0  0  0  0  0  0
  148.8770  133.6122  152.8992 H   0  0  0  0  0  0  0  0  0  0  0  0
  150.4680  133.9349  153.5601 H   0  0  0  0  0  0  0  0  0  0  0  0
  148.4612  131.1314  152.6209 H   0  0  0  0  0  0  0  0  0  0  0  0
  149.2915  128.8884  153.9322 H   0  0  0  0  0  0  0  0  0  0  0  0
  150.8672  129.9052  155.9722 H   0  0  0  0  0  0  0  0  0  0  0  0
  147.3418  135.1989  152.3553 H   0  0  0  0  0  0  0  0  0  0  0  0
  145.5660  132.9748  152.5964 H   0  0  0  0  0  0  0  0  0  0  0  0
  146.3598  134.4375  150.0127 H   0  0  0  0  0  0  0  0  0  0  0  0
  147.5232  133.5224  150.9219 H   0  0  0  0  0  0  0  0  0  0  0  0
  146.6896  132.1096  149.1840 H   0  0  0  0  0  0  0  0  0  0  0  0
  146.1982  131.4587  150.7194 H   0  0  0  0  0  0  0  0  0  0  0  0
  144.4197  133.0227  148.7774 H   0  0  0  0  0  0  0  0  0  0  0  0
  144.4152  131.3012  149.0342 H   0  0  0  0  0  0  0  0  0  0  0  0
  142.5610  132.0800  150.2848 H   0  0  0  0  0  0  0  0  0  0  0  0
  143.7669  131.7422  151.5001 H   0  0  0  0  0  0  0  0  0  0  0  0
  142.5042  134.2159  150.9156 H   0  0  0  0  0  0  0  0  0  0  0  0
  149.2280  136.3139  155.1643 H   0  0  0  0  0  0  0  0  0  0  0  0
  1  2  2  0  0  0  0
  2  3  1  0  0  0  0
  2 12  1  0  0  0  0
  3  4  1  0  0  0  0
  3 21  1  0  0  0  0
  3 22  1  0  0  0  0
  4  5  1  0  0  0  0
  4 23  1  0  0  0  0
  4 42  1  0  0  0  0
  5  6  1  0  0  0  0
  5 24  1  0  0  0  0
  5 25  1  0  0  0  0
  6  7  1  0  0  0  0
  6 26  1  0  0  0  0
  6 27  1  0  0  0  0
  7 11  1  0  0  0  0
  7  8  1  0  0  0  0
  8  9  2  0  0  0  0
  8 28  1  0  0  0  0
  9 10  1  0  0  0  0
  9 29  1  0  0  0  0
 10 11  2  0  0  0  0
 10 30  1  0  0  0  0
 12 13  1  0  0  0  0
 12 31  1  0  0  0  0
 13 19  1  0  0  0  0
 13 14  1  0  0  0  0
 13 32  1  0  0  0  0
 14 15  1  0  0  0  0
 14 33  1  0  0  0  0
 14 34  1  0  0  0  0
 15 16  1  0  0  0  0
 15 35  1  0  0  0  0
 15 36  1  0  0  0  0
 16 17  1  0  0  0  0
 16 37  1  0  0  0  0
 16 38  1  0  0  0  0
 17 18  1  0  0  0  0
 17 39  1  0  0  0  0
 17 40  1  0  0  0  0
 18 19  1  0  0  0  0
 18 41  1  0  0  0  0
 19 20  2  0  0  0  0
M  CHG  1   4   1
M  END
> <s_m_source_file>
AV-unprocessed.smi

> <i_m_source_file_index>
2640

> <i_lp_mmshare_version>
43012

> <i_f3d_flags>
0

> <s_epik_input>
Tz1DMVtOSF1bQ0gyXVtDSDJdW0NIMl1bQ0gyXVtDQEhdMVtOSF1DKD1PKVtDSDJdW05IXVtDSDJdW0NIMl1uMltjSF1bY0hdW2NIXW4y

> <s_epik_cmdline>
J2VwaWtfcHl0aG9uJywgJy1waCcsICc3LjAnLCAnLXRuJywgJzgnLCAnLW1hJywgJzIwMCcsICctbWV0YWxfYmluZGluZycsICctaW1hZScsICc8aW5maWxlLm1hZT4nLCAnLW9tYWUnLCAnPG91dGZpbGUubWFlPic=

> <r_lp_tautomer_probability>
1

> <r_epik_Ionization_Penalty>
0.245908

> <r_epik_Ionization_Penalty_Charging>
0.245903

> <r_epik_Ionization_Penalty_Neutral>
5.38378e-06

> <r_epik_State_Penalty>
0.237496

> <r_epik_Charging_Adjusted_Penalty>
0.483398

> <i_epik_Tot_Q>
1

> <i_epik_Tot_abs_Q>
1

> <r_epik_Metal_State_Penalty>
0.237698

> <b_epik_Metal_Only>
0

> <s_lp_Force_Field>
OPLS_2005

> <r_lp_Energy>
8.65948

> <b_lp_Chiralities_Consistent>
1

> <s_lp_Variant>
AV-unprocessed.smi:2640-1

> <Gold.Version>
5.8.1

> <Gold.Id.Protein>
6NUR|6NUR_protein|mol2

> <Gold.PLP.Fitness>
47.6548

> <Gold.PLP.PLP>
-33.7264

> <Gold.PLP.part.hbond>
-3.0000

> <Gold.PLP.part.metal>
0.0000

> <Gold.PLP.part.buried>
-5.2025

> <Gold.PLP.part.nonpolar>
-26.2011

> <Gold.PLP.part.repulsive>
0.1970

> <Gold.PLP.ligand.clash>
0.0000

> <Gold.PLP.ligand.torsion>
0.5207

> <Gold.PLP.Chemscore.Hbond>
3.9600

> <Gold.PLP.Chemscore.CHOScore>
0.9923

> <Gold.PLP.Chemscore.Metal>
0.0000

> <Gold.Chemscore.Hbonds>
donor molecule, donor type, donor heavy atom, donor atom, acceptor molecule, acceptor atom, score
      L1  H     4    23       P1  7948  2.00
      L1  H    12    31       P1  7948  1.00
      L1  H    18    41       P1 10186  0.91
      L1  C     8    28       P1 10747  0.98

> <Gold.PLP.Chemscore.Internal.Correction>
0.1127

> <Gold.Rescore>
     Score         DG    S(hbond)    S(metal)    S(lipo)     H(rot)  DE(clash)    DE(int)     intcor
     16.70     -17.47       2.92        0.00      72.75       2.45       0.21       0.56       ----

> <Gold.Chemscore.Fitness>
16.6957

> <Gold.Chemscore.DG>
-17.4664

> <Gold.Chemscore.ZeroCoef>
-5.4800

> <Gold.Chemscore.Hbond>
2.9153

> <Gold.Chemscore.Metal>
0.0000

> <Gold.Chemscore.Lipo>
72.7482

> <Gold.Chemscore.Internal_Hbond>
0.0000

> <Gold.Chemscore.DEClash>
0.2062

> <Gold.Chemscore.DEInternal>
0.5645

> <Gold.Chemscore.Rot>
2.4462

> <Gold.Chemscore.Internal.Correction>
   9.000000E+99

> <Gold.Chemscore.Hbonds>
donor molecule, donor type, donor heavy atom, donor atom, acceptor molecule, acceptor atom, score
      L1  H     4    23       P1  7948  0.94
      L1  H    12    31       P1  7948  0.99
      L1  H    18    41       P1 10186  0.25

> <Gold.Chemscore.Hbond.Weighted>
-9.7371

> <Gold.Chemscore.Metal.Weighted>
-0.0000

> <Gold.Chemscore.Lipo.Weighted>
-8.5115

> <Gold.Chemscore.Internal_Hbond.Weighted>
0.0000

> <Gold.Chemscore.DEClash.Weighted>
0.2062

> <Gold.Chemscore.DEInternal.Weighted>
0.5645

> <Gold.Chemscore.Rot.Weighted>
6.2623

> <Gold.Chemscore.Internal.Correction.Weighted>
   9.000000E+99

> <Gold.Protein.RotatedTorsions>
[ 6907 6896 6895 6894 ] final -167.41 input  -60.11 | X-H torsion
[ 7974 7965 7964 7962 ] final   -9.22 input  175.53 | X-H torsion
[ 8008 7997 7996 7995 ] final  -55.70 input   59.86 | X-H torsion
[ 10167 10162 10161 10158 ] final  -26.75 input  -65.29 | X-H torsion
[ 10718 10713 10712 10709 ] final    2.20 input   66.30 | X-H torsion
[ 10763 10752 10751 10750 ] final  172.59 input  -60.55 | X-H torsion
[ 11005 11000 10999 10996 ] final -167.22 input  -57.11 | X-H torsion

> <Gold.Protein.ActiveResidues>
 VAL166  LYS551  ARG553  GLY616  TRP617  ASP618  TYR619  PRO620  LYS621  CYS622 
 ASP623  PHE694  ASN695  SER759  ASP760  ASP761  ALA762  ILE779  LEU786  VAL792 
 PHE793  MET794  SER795  GLU796  ALA797  LYS798  CYS799  TRP800  GLU811  SER814 

> <Gold.Protein.RotatedAtoms>
  151.4592  133.3597  159.2806 H   0  0  0  0  0  0  0  0  0  0  0  0  # atno 6907 bound_to 6896
  150.9037  134.8453  159.7389 H   0  0  0  0  0  0  0  0  0  0  0  0  # atno 6908 bound_to 6896
  152.4894  134.4515  159.9628 H   0  0  0  0  0  0  0  0  0  0  0  0  # atno 6909 bound_to 6896
  146.2258  140.2584  142.8350 H   0  0  0  0  0  0  0  0  0  0  0  0  # atno 7974 bound_to 7965
  154.4204  140.1147  156.5519 H   0  0  0  0  0  0  0  0  0  0  0  0  # atno 8008 bound_to 7997
  155.6401  140.3496  155.4693 H   0  0  0  0  0  0  0  0  0  0  0  0  # atno 8009 bound_to 7997
  155.9877  140.1173  157.0657 H   0  0  0  0  0  0  0  0  0  0  0  0  # atno 8010 bound_to 7997
  140.7281  143.4151  151.1041 H   0  0  0  0  0  0  0  0  0  0  0  0  # atno 10167 bound_to 10162
  156.8595  130.5581  149.5664 H   0  0  0  0  0  0  0  0  0  0  0  0  # atno 10718 bound_to 10713
  154.4281  135.2759  155.1930 H   0  0  0  0  0  0  0  0  0  0  0  0  # atno 10763 bound_to 10752
  154.3848  135.6079  153.5814 H   0  0  0  0  0  0  0  0  0  0  0  0  # atno 10764 bound_to 10752
  152.9835  135.5889  154.4588 H   0  0  0  0  0  0  0  0  0  0  0  0  # atno 10765 bound_to 10752
  140.5557  134.5383  157.5132 H   0  0  0  0  0  0  0  0  0  0  0  0  # atno 11005 bound_to 11000
  144.9358  140.8025  143.5661 LP  0  0  0  0  0  0  0  0  0  0  0  0  # atno 17320 bound_to 7965
  145.2531  139.2023  143.4931 LP  0  0  0  0  0  0  0  0  0  0  0  0  # atno 17321 bound_to 7965
  139.7790  143.8383  152.3134 LP  0  0  0  0  0  0  0  0  0  0  0  0  # atno 17342 bound_to 10162
  139.8328  144.7246  150.9429 LP  0  0  0  0  0  0  0  0  0  0  0  0  # atno 17343 bound_to 10162
  156.0784  130.5801  150.9518 LP  0  0  0  0  0  0  0  0  0  0  0  0  # atno 17370 bound_to 10713
  157.6258  131.0926  150.8536 LP  0  0  0  0  0  0  0  0  0  0  0  0  # atno 17371 bound_to 10713
  139.9432  134.7748  156.0625 LP  0  0  0  0  0  0  0  0  0  0  0  0  # atno 17394 bound_to 11000
  141.1145  133.6632  156.3059 LP  0  0  0  0  0  0  0  0  0  0  0  0  # atno 17395 bound_to 11000

$$$$
