#       Name:                AV-unprocessed.smi:352
#       Creating user name   scv26
#       Creation time:       Thu Mar 26 22:33:28 2020


#       File generated by GOLD software.
#

@<TRIPOS>MOLECULE
AV-unprocessed.smi:352
    50    51     1
SMALL
NO_CHARGES


@<TRIPOS>ATOM
      1 ****        -2.7572   5.3047  -3.6627 C.3            1 S1                 0.0000
      2 ****        -2.5881   4.5326  -2.3994 C.2            1 S1                 0.0000
      3 ****        -2.1738   3.2571  -2.1383 C.2            1 S1                 0.0000
      4 ****        -2.2548   3.1800  -0.7173 C.2            1 S1                 0.0000
      5 ****        -1.9289   2.0557   0.0845 N.am           1 S1                 0.0000
      6 ****        -1.4696   0.8556  -0.3081 C.2            1 S1                 0.0000
      7 ****        -1.2772   0.5121  -1.4736 O.2            1 S1                 0.0000
      8 ****        -1.2341   0.0601   0.7454 N.am           1 S1                 0.0000
      9 ****        -0.7277  -1.3119   0.6841 C.3            1 S1                 0.0000
     10 ****         0.8151  -1.4258   0.9205 C.3            1 S1                 0.0000
     11 ****         1.1792  -0.5900   2.1268 N.4            1 S1                 1.0000
     12 ****         2.6138  -0.2331   2.2804 C.3            1 S1                 0.0000
     13 ****         0.6287  -1.0710   3.4215 C.3            1 S1                 0.0000
     14 ****         1.1984  -2.9208   1.1401 C.3            1 S1                 0.0000
     15 ****         0.9896  -3.8056  -0.1042 C.3            1 S1                 0.0000
     16 ****         1.7433  -3.2587  -1.3234 C.3            1 S1                 0.0000
     17 ****         1.3646  -1.7984  -1.6018 C.3            1 S1                 0.0000
     18 ****         1.5802  -0.9273  -0.3502 C.3            1 S1                 0.0000
     19 ****        -2.6779   4.3043  -0.1699 N.2            1 S1                 0.0000
     20 ****        -2.8952   5.1776  -1.2419 O.3            1 S1                 0.0000
     21 ****        -2.2672   4.7999  -4.4955 H              1 S1                 0.0000
     22 ****        -2.3236   6.3006  -3.5698 H              1 S1                 0.0000
     23 ****        -3.8134   5.4157  -3.9083 H              1 S1                 0.0000
     24 ****        -1.8675   2.5150  -2.8601 H              1 S1                 0.0000
     25 ****        -2.0480   2.1897   1.0777 H              1 S1                 0.0000
     26 ****        -1.4412   0.4250   1.6637 H              1 S1                 0.0000
     27 ****        -1.2664  -1.8768   1.4439 H              1 S1                 0.0000
     28 ****        -1.0364  -1.7796  -0.2495 H              1 S1                 0.0000
     29 ****         3.2510  -1.1172   2.2961 H              1 S1                 0.0000
     30 ****         2.7796   0.3080   3.2128 H              1 S1                 0.0000
     31 ****         2.9511   0.4335   1.4874 H              1 S1                 0.0000
     32 ****         1.1235  -1.9848   3.7513 H              1 S1                 0.0000
     33 ****        -0.4432  -1.2549   3.3800 H              1 S1                 0.0000
     34 ****         0.7823  -0.3205   4.1975 H              1 S1                 0.0000
     35 ****         2.2445  -2.9965   1.4372 H              1 S1                 0.0000
     36 ****         0.6220  -3.3507   1.9593 H              1 S1                 0.0000
     37 ****         1.3292  -4.8197   0.1085 H              1 S1                 0.0000
     38 ****        -0.0726  -3.8886  -0.3345 H              1 S1                 0.0000
     39 ****         2.8175  -3.3293  -1.1477 H              1 S1                 0.0000
     40 ****         1.5328  -3.8728  -2.1995 H              1 S1                 0.0000
     41 ****         1.9759  -1.4163  -2.4199 H              1 S1                 0.0000
     42 ****         0.3354  -1.7368  -1.9523 H              1 S1                 0.0000
     43 ****         1.3304   0.1099  -0.5728 H              1 S1                 0.0000
     44 ****         2.6558  -0.9435  -0.1792 H              1 S1                 0.0000
     45 ****         0.7200   0.2946   1.9632 H              1 S1                 0.0000
     46 ****        -1.4660   1.1497  -2.2205 LP             1 S1                 0.0000
     47 ****        -0.9320  -0.4048  -1.6742 LP             1 S1                 0.0000
     48 ****        -2.8141   4.4919   0.8028 LP             1 S1                 0.0000
     49 ****        -3.8548   5.4586  -1.2578 LP             1 S1                 0.0000
     50 ****        -2.3131   5.9845  -1.1418 LP             1 S1                 0.0000
@<TRIPOS>BOND
    1    1    2 1     
    2    1   21 1     
    3    1   22 1     
    4    1   23 1     
    5    2   20 1     
    6    2    3 2     
    7    3    4 1     
    8    3   24 1     
    9    4    5 1     
   10    4   19 2     
   11    5    6 am    
   12    5   25 1     
   13    6    7 2     
   14    6    8 am    
   15    8    9 1     
   16    8   26 1     
   17    9   10 1     
   18    9   27 1     
   19    9   28 1     
   20   10   18 1     
   21   10   11 1     
   22   10   14 1     
   23   11   12 1     
   24   11   13 1     
   25   11   45 1     
   26   12   29 1     
   27   12   30 1     
   28   12   31 1     
   29   13   32 1     
   30   13   33 1     
   31   13   34 1     
   32   14   15 1     
   33   14   35 1     
   34   14   36 1     
   35   15   16 1     
   36   15   37 1     
   37   15   38 1     
   38   16   17 1     
   39   16   39 1     
   40   16   40 1     
   41   17   18 1     
   42   17   41 1     
   43   17   42 1     
   44   18   43 1     
   45   18   44 1     
   46   19   20 1     
   47    7   46 1     
   48    7   47 1     
   49   19   48 1     
   50   20   49 1     
   51   20   50 1     
@<TRIPOS>SUBSTRUCTURE
      1 S1             1
@<TRIPOS>SET
LONE_PAIRS      STATIC     ATOMS    <user>   **** ""
5 46 47 48 49 50
DONOR_HYDROGENS      STATIC     ATOMS    <user>   **** ""
3 25 26 45
ATOM$BLUE        STATIC     ATOMS    COLORGROUP SYSTEM
5 46 47 48 49 50
ATOM$RED        STATIC     ATOMS    COLORGROUP SYSTEM
3 25 26 45
