AV-unprocessed.smi:282|AV-procd|sdf|2118|dock8
  -GOLD-   2262021413D 1   1.00000     0.00000
 Structure written by MMmdl.
 65 69  0  0  0  0  0  0  0  0  2 V2000
  152.2156  139.6056  155.7471 C   0  0  0  0  0  0  0  0  0  0  0  0
  151.6657  139.2037  157.1227 C   0  0  0  0  0  0  0  0  0  0  0  0
  151.1217  140.3904  157.9621 C   0  0  1  0  0  0  0  0  0  0  0  0
  152.2458  141.0297  158.8110 C   0  0  0  0  0  0  0  0  0  0  0  0
  151.7748  142.2126  159.5736 N   0  3  1  0  0  0  0  0  0  0  0  0
  152.8494  142.7873  160.4239 C   0  0  0  0  0  0  0  0  0  0  0  0
  152.3234  143.9464  161.2849 C   0  0  0  0  0  0  0  0  0  0  0  0
  151.6845  145.0292  160.4078 C   0  0  0  0  0  0  0  0  0  0  0  0
  150.5899  144.4093  159.5309 C   0  0  0  0  0  0  0  0  0  0  0  0
  151.1355  143.2330  158.6969 C   0  0  2  0  0  0  0  0  0  0  0  0
  150.0136  142.5939  157.8621 C   0  0  0  0  0  0  0  0  0  0  0  0
  150.4891  141.4243  157.1316 N   0  0  0  0  0  0  0  0  0  0  0  0
  149.5512  141.0038  156.2533 C   0  0  0  0  0  0  0  0  0  0  0  0
  149.8092  141.1962  154.9370 N   0  0  0  0  0  0  0  0  0  0  0  0
  148.9237  140.7967  154.0192 C   0  0  0  0  0  0  0  0  0  0  0  0
  147.7446  140.1984  154.2018 N   0  0  0  0  0  0  0  0  0  0  0  0
  147.4811  140.0075  155.5265 C   0  0  0  0  0  0  0  0  0  0  0  0
  148.3205  140.3847  156.6118 C   0  0  0  0  0  0  0  0  0  0  0  0
  147.7172  140.0510  157.8175 N   0  0  0  0  0  0  0  0  0  0  0  0
  146.5857  139.5053  157.4643 C   0  0  0  0  0  0  0  0  0  0  0  0
  146.3705  139.4183  156.1066 N   0  0  0  0  0  0  0  0  0  0  0  0
  145.1996  138.8587  155.4446 C   0  0  0  0  0  0  0  0  0  0  0  0
  145.2180  137.3069  155.2674 C   0  0  0  0  0  0  0  0  0  0  0  0
  146.5744  136.8264  154.6854 C   0  0  0  0  0  0  0  0  0  0  0  0
  146.8537  137.4071  153.4269 O   0  0  0  0  0  0  0  0  0  0  0  0
  144.9759  136.6106  156.6302 C   0  0  0  0  0  0  0  0  0  0  0  0
  143.5250  136.7513  157.1259 C   0  0  0  0  0  0  0  0  0  0  0  0
  142.6258  136.2462  156.1477 O   0  0  0  0  0  0  0  0  0  0  0  0
  142.6915  136.9599  154.9201 C   0  0  0  0  0  0  0  0  0  0  0  0
  144.0987  136.8240  154.3105 C   0  0  0  0  0  0  0  0  0  0  0  0
  152.6701  138.7473  155.2515 H   0  0  0  0  0  0  0  0  0  0  0  0
  152.9808  140.3767  155.8388 H   0  0  0  0  0  0  0  0  0  0  0  0
  151.4332  139.9797  155.0878 H   0  0  0  0  0  0  0  0  0  0  0  0
  150.8874  138.4497  156.9987 H   0  0  0  0  0  0  0  0  0  0  0  0
  152.4808  138.7077  157.6497 H   0  0  0  0  0  0  0  0  0  0  0  0
  150.3655  140.0073  158.6478 H   0  0  0  0  0  0  0  0  0  0  0  0
  152.6417  140.3028  159.5199 H   0  0  0  0  0  0  0  0  0  0  0  0
  153.0738  141.3284  158.1656 H   0  0  0  0  0  0  0  0  0  0  0  0
  153.2572  142.0108  161.0723 H   0  0  0  0  0  0  0  0  0  0  0  0
  153.6685  143.1339  159.7915 H   0  0  0  0  0  0  0  0  0  0  0  0
  151.5899  143.5708  161.9996 H   0  0  0  0  0  0  0  0  0  0  0  0
  153.1369  144.3745  161.8713 H   0  0  0  0  0  0  0  0  0  0  0  0
  151.2666  145.8211  161.0300 H   0  0  0  0  0  0  0  0  0  0  0  0
  152.4449  145.4934  159.7782 H   0  0  0  0  0  0  0  0  0  0  0  0
  149.7706  144.0658  160.1643 H   0  0  0  0  0  0  0  0  0  0  0  0
  150.1712  145.1716  158.8731 H   0  0  0  0  0  0  0  0  0  0  0  0
  151.8980  143.6141  158.0147 H   0  0  0  0  0  0  0  0  0  0  0  0
  149.1909  142.2969  158.5145 H   0  0  0  0  0  0  0  0  0  0  0  0
  149.6136  143.3302  157.1628 H   0  0  0  0  0  0  0  0  0  0  0  0
  149.1998  140.9804  152.9914 H   0  0  0  0  0  0  0  0  0  0  0  0
  145.8729  139.1429  158.1908 H   0  0  0  0  0  0  0  0  0  0  0  0
  144.3234  139.1561  156.0218 H   0  0  0  0  0  0  0  0  0  0  0  0
  145.0913  139.3633  154.4856 H   0  0  0  0  0  0  0  0  0  0  0  0
  147.3920  137.0857  155.3590 H   0  0  0  0  0  0  0  0  0  0  0  0
  146.5991  135.7412  154.5858 H   0  0  0  0  0  0  0  0  0  0  0  0
  147.5814  136.9461  153.0385 H   0  0  0  0  0  0  0  0  0  0  0  0
  145.1997  135.5467  156.5414 H   0  0  0  0  0  0  0  0  0  0  0  0
  145.6602  136.9989  157.3854 H   0  0  0  0  0  0  0  0  0  0  0  0
  143.3925  136.1807  158.0451 H   0  0  0  0  0  0  0  0  0  0  0  0
  143.2805  137.7864  157.3654 H   0  0  0  0  0  0  0  0  0  0  0  0
  141.9512  136.5438  154.2367 H   0  0  0  0  0  0  0  0  0  0  0  0
  142.4168  138.0027  155.0784 H   0  0  0  0  0  0  0  0  0  0  0  0
  144.1468  137.3457  153.3552 H   0  0  0  0  0  0  0  0  0  0  0  0
  144.2546  135.7706  154.0739 H   0  0  0  0  0  0  0  0  0  0  0  0
  151.0548  141.8819  160.2000 H   0  0  0  0  0  0  0  0  0  0  0  0
  1  2  1  0  0  0  0
  1 31  1  0  0  0  0
  1 32  1  0  0  0  0
  1 33  1  0  0  0  0
  2  3  1  0  0  0  0
  2 34  1  0  0  0  0
  2 35  1  0  0  0  0
  3 12  1  0  0  0  0
  3  4  1  0  0  0  0
  3 36  1  0  0  0  0
  4  5  1  0  0  0  0
  4 37  1  0  0  0  0
  4 38  1  0  0  0  0
  5 10  1  0  0  0  0
  5  6  1  0  0  0  0
  5 65  1  0  0  0  0
  6  7  1  0  0  0  0
  6 39  1  0  0  0  0
  6 40  1  0  0  0  0
  7  8  1  0  0  0  0
  7 41  1  0  0  0  0
  7 42  1  0  0  0  0
  8  9  1  0  0  0  0
  8 43  1  0  0  0  0
  8 44  1  0  0  0  0
  9 10  1  0  0  0  0
  9 45  1  0  0  0  0
  9 46  1  0  0  0  0
 10 11  1  0  0  0  0
 10 47  1  0  0  0  0
 11 12  1  0  0  0  0
 11 48  1  0  0  0  0
 11 49  1  0  0  0  0
 12 13  1  0  0  0  0
 13 18  1  0  0  0  0
 13 14  2  0  0  0  0
 14 15  1  0  0  0  0
 15 16  2  0  0  0  0
 15 50  1  0  0  0  0
 16 17  1  0  0  0  0
 17 21  1  0  0  0  0
 17 18  2  0  0  0  0
 18 19  1  0  0  0  0
 19 20  2  0  0  0  0
 20 21  1  0  0  0  0
 20 51  1  0  0  0  0
 21 22  1  0  0  0  0
 22 23  1  0  0  0  0
 22 52  1  0  0  0  0
 22 53  1  0  0  0  0
 23 30  1  0  0  0  0
 23 24  1  0  0  0  0
 23 26  1  0  0  0  0
 24 25  1  0  0  0  0
 24 54  1  0  0  0  0
 24 55  1  0  0  0  0
 25 56  1  0  0  0  0
 26 27  1  0  0  0  0
 26 57  1  0  0  0  0
 26 58  1  0  0  0  0
 27 28  1  0  0  0  0
 27 59  1  0  0  0  0
 27 60  1  0  0  0  0
 28 29  1  0  0  0  0
 29 30  1  0  0  0  0
 29 61  1  0  0  0  0
 29 62  1  0  0  0  0
 30 63  1  0  0  0  0
 30 64  1  0  0  0  0
M  CHG  1   5   1
M  END
> <s_m_source_file>
AV-unprocessed.smi

> <i_m_source_file_index>
282

> <i_lp_mmshare_version>
43012

> <i_f3d_flags>
0

> <s_epik_input>
W0NIMl0xW0NIMl1bQ0gyXVtDSDJdW0NAQEhdKE4xMilbQ0gyXU4oW0NAQEhdKFtDSDJdMilbQ0gyXVtDSDNdKWMobltjSF1uMyljKGMzNCluW2NIXW40W0NIMl1DNShbQ0gyXVtPSF0pW0NIMl1bQ0gyXU9bQ0gyXVtDSDJdNQ==

> <s_epik_cmdline>
J2VwaWtfcHl0aG9uJywgJy1waCcsICc3LjAnLCAnLXRuJywgJzgnLCAnLW1hJywgJzIwMCcsICctbWV0YWxfYmluZGluZycsICctaW1hZScsICc8aW5maWxlLm1hZT4nLCAnLW9tYWUnLCAnPG91dGZpbGUubWFlPic=

> <r_lp_tautomer_probability>
1

> <r_epik_Ionization_Penalty>
0.00308583

> <r_epik_Ionization_Penalty_Charging>
0.00300384

> <r_epik_Ionization_Penalty_Neutral>
8.19894e-05

> <r_epik_State_Penalty>
-0

> <r_epik_Charging_Adjusted_Penalty>
0.00300384

> <i_epik_Tot_Q>
1

> <i_epik_Tot_abs_Q>
1

> <r_epik_Metal_State_Penalty>
-0

> <b_epik_Metal_Only>
0

> <s_lp_Force_Field>
OPLS_2005

> <r_lp_Energy>
55.6254

> <b_lp_Chiralities_Consistent>
1

> <s_lp_Variant>
AV-unprocessed.smi:282-2

> <Gold.Version>
5.8.1

> <Gold.Id.Protein>
6NUR|6NUR_protein|mol2

> <Gold.PLP.Fitness>
40.9519

> <Gold.PLP.PLP>
-36.1434

> <Gold.PLP.part.hbond>
-3.0021

> <Gold.PLP.part.metal>
0.0000

> <Gold.PLP.part.buried>
-5.3554

> <Gold.PLP.part.nonpolar>
-28.2648

> <Gold.PLP.part.repulsive>
0.4160

> <Gold.PLP.ligand.clash>
0.0000

> <Gold.PLP.ligand.torsion>
0.8634

> <Gold.PLP.Chemscore.Hbond>
1.0973

> <Gold.PLP.Chemscore.CHOScore>
1.0000

> <Gold.PLP.Chemscore.Metal>
0.0000

> <Gold.Chemscore.Hbonds>
donor molecule, donor type, donor heavy atom, donor atom, acceptor molecule, acceptor atom, score
      L1  H    25    56       P1  7948  1.00
      P1  H  7989  7998       L1    14  0.10
      L1  C    15    50       P1  7957  1.00

> <Gold.PLP.Chemscore.Internal.Correction>
0.2432

> <Gold.Rescore>
     Score         DG    S(hbond)    S(metal)    S(lipo)     H(rot)  DE(clash)    DE(int)     intcor
     12.44     -13.31       1.00        0.00      92.22       2.46       0.03       0.84       ----

> <Gold.Chemscore.Fitness>
12.4437

> <Gold.Chemscore.DG>
-13.3130

> <Gold.Chemscore.ZeroCoef>
-5.4800

> <Gold.Chemscore.Hbond>
0.9983

> <Gold.Chemscore.Metal>
0.0000

> <Gold.Chemscore.Lipo>
92.2245

> <Gold.Chemscore.Internal_Hbond>
0.0000

> <Gold.Chemscore.DEClash>
0.0263

> <Gold.Chemscore.DEInternal>
0.8430

> <Gold.Chemscore.Rot>
2.4576

> <Gold.Chemscore.Internal.Correction>
   9.000000E+99

> <Gold.Chemscore.Hbonds>
donor molecule, donor type, donor heavy atom, donor atom, acceptor molecule, acceptor atom, score
      L1  H    25    56       P1  7948  0.99
      P1  H  7989  7998       L1    14  0.01

> <Gold.Chemscore.Hbond.Weighted>
-3.3343

> <Gold.Chemscore.Metal.Weighted>
-0.0000

> <Gold.Chemscore.Lipo.Weighted>
-10.7903

> <Gold.Chemscore.Internal_Hbond.Weighted>
0.0000

> <Gold.Chemscore.DEClash.Weighted>
0.0263

> <Gold.Chemscore.DEInternal.Weighted>
0.8430

> <Gold.Chemscore.Rot.Weighted>
6.2915

> <Gold.Chemscore.Internal.Correction.Weighted>
   9.000000E+99

> <Gold.Protein.RotatedTorsions>
[ 6907 6896 6895 6894 ] final   51.91 input  -60.11 | X-H torsion
[ 7974 7965 7964 7962 ] final   24.18 input  175.53 | X-H torsion
[ 8008 7997 7996 7995 ] final  -46.48 input   59.86 | X-H torsion
[ 10167 10162 10161 10158 ] final   -7.39 input  -65.29 | X-H torsion
[ 10718 10713 10712 10709 ] final  -10.63 input   66.30 | X-H torsion
[ 10763 10752 10751 10750 ] final   22.21 input  -60.55 | X-H torsion
[ 11005 11000 10999 10996 ] final   63.60 input  -57.11 | X-H torsion

> <Gold.Protein.ActiveResidues>
 VAL166  LYS551  ARG553  GLY616  TRP617  ASP618  TYR619  PRO620  LYS621  CYS622 
 ASP623  PHE694  ASN695  SER759  ASP760  ASP761  ALA762  ILE779  LEU786  VAL792 
 PHE793  MET794  SER795  GLU796  ALA797  LYS798  CYS799  TRP800  GLU811  SER814 

> <Gold.Protein.RotatedAtoms>
  152.3177  134.7419  160.0321 H   0  0  0  0  0  0  0  0  0  0  0  0  # atno 6907 bound_to 6896
  151.7878  133.3351  159.3498 H   0  0  0  0  0  0  0  0  0  0  0  0  # atno 6908 bound_to 6896
  150.7353  134.5801  159.5979 H   0  0  0  0  0  0  0  0  0  0  0  0  # atno 6909 bound_to 6896
  146.1949  139.7640  142.8804 H   0  0  0  0  0  0  0  0  0  0  0  0  # atno 7974 bound_to 7965
  154.4008  140.1370  156.4018 H   0  0  0  0  0  0  0  0  0  0  0  0  # atno 8008 bound_to 7997
  155.7817  140.3481  155.5281 H   0  0  0  0  0  0  0  0  0  0  0  0  # atno 8009 bound_to 7997
  155.8667  140.0965  157.1568 H   0  0  0  0  0  0  0  0  0  0  0  0  # atno 8010 bound_to 7997
  140.7027  143.6087  150.8726 H   0  0  0  0  0  0  0  0  0  0  0  0  # atno 10167 bound_to 10162
  156.6707  130.5008  149.6001 H   0  0  0  0  0  0  0  0  0  0  0  0  # atno 10718 bound_to 10713
  153.0933  135.6653  153.9811 H   0  0  0  0  0  0  0  0  0  0  0  0  # atno 10763 bound_to 10752
  153.9402  135.2995  155.3444 H   0  0  0  0  0  0  0  0  0  0  0  0  # atno 10764 bound_to 10752
  154.7350  135.5106  153.9100 H   0  0  0  0  0  0  0  0  0  0  0  0  # atno 10765 bound_to 10752
  140.0014  134.6437  155.9925 H   0  0  0  0  0  0  0  0  0  0  0  0  # atno 11005 bound_to 11000
  145.3674  141.0337  143.3250 LP  0  0  0  0  0  0  0  0  0  0  0  0  # atno 17320 bound_to 7965
  144.8561  139.5247  143.6834 LP  0  0  0  0  0  0  0  0  0  0  0  0  # atno 17321 bound_to 7965
  139.9810  143.5951  152.2943 LP  0  0  0  0  0  0  0  0  0  0  0  0  # atno 17342 bound_to 10162
  139.6572  144.7662  151.2032 LP  0  0  0  0  0  0  0  0  0  0  0  0  # atno 17343 bound_to 10162
  156.1941  130.6578  151.1094 LP  0  0  0  0  0  0  0  0  0  0  0  0  # atno 17370 bound_to 10713
  157.7078  131.0748  150.6606 LP  0  0  0  0  0  0  0  0  0  0  0  0  # atno 17371 bound_to 10713
  141.1644  133.6537  156.4429 LP  0  0  0  0  0  0  0  0  0  0  0  0  # atno 17394 bound_to 11000
  140.4722  134.6743  157.5134 LP  0  0  0  0  0  0  0  0  0  0  0  0  # atno 17395 bound_to 11000

$$$$
