#       Name:                AV-unprocessed.smi:1041
#       Creating user name   scv26
#       Creation time:       Fri Mar 27 02:55:15 2020


#       File generated by GOLD software.
#

@<TRIPOS>MOLECULE
AV-unprocessed.smi:1041
    60    61     1
SMALL
NO_CHARGES


@<TRIPOS>ATOM
      1 ****        -4.2694  -3.9352  -3.4936 C.3            1 S1                 0.0000
      2 ****        -3.8656  -2.9661  -2.5418 O.3            1 S1                 0.0000
      3 ****        -4.4864  -1.7086  -2.7507 C.3            1 S1                 0.0000
      4 ****        -4.0104  -0.7300  -1.6659 C.3            1 S1                 0.0000
      5 ****        -2.5533  -0.4536  -1.7464 N.4            1 S1                 1.0000
      6 ****        -1.9975   0.0042  -0.4472 C.3            1 S1                 0.0000
      7 ****        -0.4682   0.1477  -0.5135 C.3            1 S1                 0.0000
      8 ****        -0.0409   1.1058  -1.6436 C.3            1 S1                 0.0000
      9 ****         1.4892   1.2386  -1.7615 C.3            1 S1                 0.0000
     10 ****         2.0626   1.7699  -0.5326 N.am           1 S1                 0.0000
     11 ****         3.3272   1.5889  -0.1272 C.2            1 S1                 0.0000
     12 ****         4.1759   0.9928  -0.7893 O.2            1 S1                 0.0000
     13 ****         3.6812   2.1619   1.2453 C.3            1 S1                 0.0000
     14 ****         2.9879   1.4840   2.4261 C.2            1 S1                 0.0000
     15 ****         3.4600   0.3509   3.0055 C.2            1 S1                 0.0000
     16 ****         4.7197  -0.3748   2.5666 C.3            1 S1                 0.0000
     17 ****         2.7984  -0.2397   4.0673 N.pl3          1 S1                 0.0000
     18 ****         1.6358   0.3599   4.5217 C.2            1 S1                 0.0000
     19 ****         0.9933  -0.3653   5.6839 C.3            1 S1                 0.0000
     20 ****         1.1029   1.4381   4.0323 N.2            1 S1                 0.0000
     21 ****         1.7344   2.0756   2.9521 C.2            1 S1                 0.0000
     22 ****         1.2444   3.0899   2.4573 O.2            1 S1                 0.0000
     23 ****        -0.6624   0.6247  -2.9658 C.3            1 S1                 0.0000
     24 ****        -2.1885   0.4743  -2.8495 C.3            1 S1                 0.0000
     25 ****         3.1862  -1.0807   4.4705 H              1 S1                 0.0000
     26 ****        -3.7658  -4.8804  -3.2916 H              1 S1                 0.0000
     27 ****        -4.0098  -3.6256  -4.5069 H              1 S1                 0.0000
     28 ****        -5.3448  -4.1107  -3.4463 H              1 S1                 0.0000
     29 ****        -4.2722  -1.3347  -3.7518 H              1 S1                 0.0000
     30 ****        -5.5691  -1.8237  -2.6801 H              1 S1                 0.0000
     31 ****        -4.5647   0.2074  -1.7285 H              1 S1                 0.0000
     32 ****        -4.2512  -1.1632  -0.6940 H              1 S1                 0.0000
     33 ****        -2.4535   0.9557  -0.1690 H              1 S1                 0.0000
     34 ****        -2.2525  -0.7108   0.3359 H              1 S1                 0.0000
     35 ****        -0.1021   0.5043   0.4499 H              1 S1                 0.0000
     36 ****        -0.0164  -0.8328  -0.6698 H              1 S1                 0.0000
     37 ****        -0.4471   2.0945  -1.4226 H              1 S1                 0.0000
     38 ****         1.9271   0.2662  -1.9949 H              1 S1                 0.0000
     39 ****         1.7486   1.9093  -2.5816 H              1 S1                 0.0000
     40 ****         1.4416   2.2833   0.0761 H              1 S1                 0.0000
     41 ****         4.7608   2.0896   1.3799 H              1 S1                 0.0000
     42 ****         3.4773   3.2333   1.2428 H              1 S1                 0.0000
     43 ****         5.5914   0.2689   2.6839 H              1 S1                 0.0000
     44 ****         4.6455  -0.6685   1.5194 H              1 S1                 0.0000
     45 ****         4.8895  -1.2775   3.1549 H              1 S1                 0.0000
     46 ****         0.1170   0.1746   6.0446 H              1 S1                 0.0000
     47 ****         1.6982  -0.4603   6.5105 H              1 S1                 0.0000
     48 ****         0.6781  -1.3638   5.3799 H              1 S1                 0.0000
     49 ****        -0.4250   1.3269  -3.7659 H              1 S1                 0.0000
     50 ****        -0.2238  -0.3316  -3.2551 H              1 S1                 0.0000
     51 ****        -2.5771   0.1086  -3.7990 H              1 S1                 0.0000
     52 ****        -2.6487   1.4484  -2.6755 H              1 S1                 0.0000
     53 ****        -2.1085  -1.3389  -1.9448 H              1 S1                 0.0000
     54 ****        -2.8745  -2.8488  -2.6042 LP             1 S1                 0.0000
     55 ****        -4.1055  -3.2944  -1.6282 LP             1 S1                 0.0000
     56 ****         3.9366   0.6122  -1.6825 LP             1 S1                 0.0000
     57 ****         5.1049   0.8889  -0.4342 LP             1 S1                 0.0000
     58 ****         0.2576   1.8080   4.4178 LP             1 S1                 0.0000
     59 ****         1.6927   3.5347   1.6820 LP             1 S1                 0.0000
     60 ****         0.3978   3.4694   2.8304 LP             1 S1                 0.0000
@<TRIPOS>BOND
    1    1    2 1     
    2    1   26 1     
    3    1   27 1     
    4    1   28 1     
    5    2    3 1     
    6    3    4 1     
    7    3   29 1     
    8    3   30 1     
    9    4    5 1     
   10    4   31 1     
   11    4   32 1     
   12    5   24 1     
   13    5    6 1     
   14    5   53 1     
   15    6    7 1     
   16    6   33 1     
   17    6   34 1     
   18    7    8 1     
   19    7   35 1     
   20    7   36 1     
   21    8    9 1     
   22    8   23 1     
   23    8   37 1     
   24    9   10 1     
   25    9   38 1     
   26    9   39 1     
   27   10   11 am    
   28   10   40 1     
   29   11   12 2     
   30   11   13 1     
   31   13   41 1     
   32   13   42 1     
   33   13   14 1     
   34   14   21 1     
   35   14   15 2     
   36   15   16 1     
   37   15   17 1     
   38   16   43 1     
   39   16   44 1     
   40   16   45 1     
   41   17   25 1     
   42   17   18 1     
   43   18   19 1     
   44   18   20 2     
   45   19   46 1     
   46   19   47 1     
   47   19   48 1     
   48   20   21 1     
   49   21   22 2     
   50   23   24 1     
   51   23   49 1     
   52   23   50 1     
   53   24   51 1     
   54   24   52 1     
   55    2   54 1     
   56    2   55 1     
   57   12   56 1     
   58   12   57 1     
   59   20   58 1     
   60   22   59 1     
   61   22   60 1     
@<TRIPOS>SUBSTRUCTURE
      1 S1             1
@<TRIPOS>SET
LONE_PAIRS      STATIC     ATOMS    <user>   **** ""
7 54 55 56 57 58 59 60
DONOR_HYDROGENS      STATIC     ATOMS    <user>   **** ""
3 53 40 25
ATOM$BLUE        STATIC     ATOMS    COLORGROUP SYSTEM
7 54 55 56 57 58 59 60
ATOM$RED        STATIC     ATOMS    COLORGROUP SYSTEM
3 53 40 25
