AV-unprocessed.smi:102|AV-procd|sdf|949|dock9
  -GOLD-   2262017473D 1   1.00000     0.00000
 Structure written by MMmdl.
 44 45  0  0  0  0  0  0  0  0  1 V2000
  147.2625  134.6134  161.3531 C   0  0  0  0  0  0  0  0  0  0  0  0
  147.3757  135.8329  160.4472 C   0  0  0  0  0  0  0  0  0  0  0  0
  146.9809  136.9411  160.8103 O   0  0  0  0  0  0  0  0  0  0  0  0
  147.9372  135.5449  159.2633 O   0  0  0  0  0  0  0  0  0  0  0  0
  148.2592  136.5953  158.3669 C   0  0  0  0  0  0  0  0  0  0  0  0
  149.1395  136.0455  157.2405 C   0  0  2  0  0  0  0  0  0  0  0  0
  150.1276  135.1734  157.7708 O   0  0  0  0  0  0  0  0  0  0  0  0
  151.1616  135.0608  156.8476 C   0  0  1  0  0  0  0  0  0  0  0  0
  150.8659  133.8682  155.9495 N   0  0  0  0  0  0  0  0  0  0  0  0
  150.2811  133.9973  154.6922 C   0  0  0  0  0  0  0  0  0  0  0  0
  149.9406  132.9390  153.9196 C   0  0  0  0  0  0  0  0  0  0  0  0
  149.3779  133.1495  152.7175 F   0  0  0  0  0  0  0  0  0  0  0  0
  150.1520  131.5744  154.3897 C   0  0  0  0  0  0  0  0  0  0  0  0
  149.8894  130.5533  153.7579 O   0  0  0  0  0  0  0  0  0  0  0  0
  150.6847  131.4877  155.6777 N   0  0  0  0  0  0  0  0  0  0  0  0
  151.0278  132.5702  156.4892 C   0  0  0  0  0  0  0  0  0  0  0  0
  151.4533  132.3660  157.6253 O   0  0  0  0  0  0  0  0  0  0  0  0
  151.2412  136.4032  156.0940 C   0  0  2  0  0  0  0  0  0  0  0  0
  152.3799  137.1500  156.5040 O   0  0  0  0  0  0  0  0  0  0  0  0
  152.6190  137.3549  157.8110 C   0  0  0  0  0  0  0  0  0  0  0  0
  153.7985  138.2885  158.0479 C   0  0  0  0  0  0  0  0  0  0  0  0
  151.9826  136.8721  158.7476 O   0  0  0  0  0  0  0  0  0  0  0  0
  149.9691  137.1268  156.5380 C   0  0  1  0  0  0  0  0  0  0  0  0
  149.2641  137.6433  155.4166 O   0  0  0  0  0  0  0  0  0  0  0  0
  149.7044  138.7506  154.7927 C   0  0  0  0  0  0  0  0  0  0  0  0
  148.6742  139.3260  153.8299 C   0  0  0  0  0  0  0  0  0  0  0  0
  150.8078  139.2758  154.9412 O   0  0  0  0  0  0  0  0  0  0  0  0
  150.8219  130.5627  156.0587 H   0  0  0  0  0  0  0  0  0  0  0  0
  147.3210  133.6923  160.7726 H   0  0  0  0  0  0  0  0  0  0  0  0
  146.3112  134.6241  161.8854 H   0  0  0  0  0  0  0  0  0  0  0  0
  148.0693  134.6125  162.0859 H   0  0  0  0  0  0  0  0  0  0  0  0
  147.3348  136.9968  157.9491 H   0  0  0  0  0  0  0  0  0  0  0  0
  148.7661  137.4089  158.8880 H   0  0  0  0  0  0  0  0  0  0  0  0
  148.5308  135.5043  156.5144 H   0  0  0  0  0  0  0  0  0  0  0  0
  152.1005  134.8295  157.3538 H   0  0  0  0  0  0  0  0  0  0  0  0
  150.0563  134.9732  154.2912 H   0  0  0  0  0  0  0  0  0  0  0  0
  151.2703  136.2499  155.0157 H   0  0  0  0  0  0  0  0  0  0  0  0
  154.5755  138.1218  157.3014 H   0  0  0  0  0  0  0  0  0  0  0  0
  154.2279  138.1164  159.0351 H   0  0  0  0  0  0  0  0  0  0  0  0
  153.4753  139.3278  157.9875 H   0  0  0  0  0  0  0  0  0  0  0  0
  150.2110  137.9134  157.2553 H   0  0  0  0  0  0  0  0  0  0  0  0
  147.6626  139.1289  154.1855 H   0  0  0  0  0  0  0  0  0  0  0  0
  148.7888  138.8768  152.8435 H   0  0  0  0  0  0  0  0  0  0  0  0
  148.8020  140.4047  153.7363 H   0  0  0  0  0  0  0  0  0  0  0  0
  1  2  1  0  0  0  0
  1 29  1  0  0  0  0
  1 30  1  0  0  0  0
  1 31  1  0  0  0  0
  2  3  2  0  0  0  0
  2  4  1  0  0  0  0
  4  5  1  0  0  0  0
  5  6  1  0  0  0  0
  5 32  1  0  0  0  0
  5 33  1  0  0  0  0
  6 23  1  0  0  0  0
  6  7  1  0  0  0  0
  6 34  1  0  0  0  0
  7  8  1  0  0  0  0
  8  9  1  0  0  0  0
  8 18  1  0  0  0  0
  8 35  1  0  0  0  0
  9 16  1  0  0  0  0
  9 10  1  0  0  0  0
 10 11  2  0  0  0  0
 10 36  1  0  0  0  0
 11 12  1  0  0  0  0
 11 13  1  0  0  0  0
 13 14  2  0  0  0  0
 13 15  1  0  0  0  0
 15 28  1  0  0  0  0
 15 16  1  0  0  0  0
 16 17  2  0  0  0  0
 18 19  1  0  0  0  0
 18 23  1  0  0  0  0
 18 37  1  0  0  0  0
 19 20  1  0  0  0  0
 20 21  1  0  0  0  0
 20 22  2  0  0  0  0
 21 38  1  0  0  0  0
 21 39  1  0  0  0  0
 21 40  1  0  0  0  0
 23 24  1  0  0  0  0
 23 41  1  0  0  0  0
 24 25  1  0  0  0  0
 25 26  1  0  0  0  0
 25 27  2  0  0  0  0
 26 42  1  0  0  0  0
 26 43  1  0  0  0  0
 26 44  1  0  0  0  0
M  END
> <s_m_source_file>
AV-unprocessed.smi

> <i_m_source_file_index>
102

> <i_lp_mmshare_version>
43012

> <i_f3d_flags>
0

> <s_epik_input>
W0NIM11DKD1PKU9bQ0gyXVtDQEBIXTFPW0NASF0oW0NAQEhdKE9DKD1PKVtDSDNdKVtDQEhdMU9DKD1PKVtDSDNdKW4yW2NIXWMoRiljKD1PKVtuSF1jMj1P

> <s_epik_cmdline>
J2VwaWtfcHl0aG9uJywgJy1waCcsICc3LjAnLCAnLXRuJywgJzgnLCAnLW1hJywgJzIwMCcsICctbWV0YWxfYmluZGluZycsICctaW1hZScsICc8aW5maWxlLm1hZT4nLCAnLW9tYWUnLCAnPG91dGZpbGUubWFlPic=

> <r_lp_tautomer_probability>
0.999537

> <r_epik_Ionization_Penalty>
0.058267

> <r_epik_Ionization_Penalty_Charging>
0.058267

> <r_epik_Ionization_Penalty_Neutral>
6.57791e-16

> <r_epik_State_Penalty>
0.0503774

> <r_epik_Charging_Adjusted_Penalty>
0.108644

> <i_epik_Tot_Q>
0

> <i_epik_Tot_abs_Q>
0

> <r_epik_Metal_State_Penalty>
2.6644

> <b_epik_Metal_Only>
0

> <s_epik_Chemistry_Notes>
This compound has an ester and may undergo hydrolysis at high or low pH. This compound contains an acetal/aminal-like group ( X-CH(R)-Y where X, Y are N, S, or O) that may be acid/base labile, releasing an aldehyde.

> <s_lp_Force_Field>
OPLS_2005

> <r_lp_Energy>
9.37948

> <b_lp_Chiralities_Consistent>
1

> <s_lp_Variant>
AV-unprocessed.smi:102-5

> <Gold.Version>
5.8.1

> <Gold.Id.Protein>
6NUR|6NUR_protein|mol2

> <Gold.PLP.Fitness>
44.9701

> <Gold.PLP.PLP>
-35.1104

> <Gold.PLP.part.hbond>
-5.0000

> <Gold.PLP.part.metal>
0.0000

> <Gold.PLP.part.buried>
-4.1788

> <Gold.PLP.part.nonpolar>
-25.3858

> <Gold.PLP.part.repulsive>
0.2846

> <Gold.PLP.ligand.clash>
0.0000

> <Gold.PLP.ligand.torsion>
1.0077

> <Gold.PLP.Chemscore.Hbond>
3.1277

> <Gold.PLP.Chemscore.CHOScore>
0.7630

> <Gold.PLP.Chemscore.Metal>
0.0000

> <Gold.Chemscore.Hbonds>
donor molecule, donor type, donor heavy atom, donor atom, acceptor molecule, acceptor atom, score
      P1  H  6896  6907       L1    22  0.47
      P1  H  6896  6908       L1    17  0.08
      P1  H  6896  6909       L1     7  0.66
      P1  H  6934  6947       L1     3  0.84
      P1  H  7989  7998       L1    27  0.32
      L1  C    10    36       P1  7948  0.04

> <Gold.PLP.Chemscore.Internal.Correction>
0.2033

> <Gold.Rescore>
     Score         DG    S(hbond)    S(metal)    S(lipo)     H(rot)  DE(clash)    DE(int)     intcor
      2.42      -7.47       2.29        0.00      40.41       4.05       0.01       5.05       ----

> <Gold.Chemscore.Fitness>
2.4158

> <Gold.Chemscore.DG>
-7.4734

> <Gold.Chemscore.ZeroCoef>
-5.4800

> <Gold.Chemscore.Hbond>
2.2871

> <Gold.Chemscore.Metal>
0.0000

> <Gold.Chemscore.Lipo>
40.4091

> <Gold.Chemscore.Internal_Hbond>
0.0000

> <Gold.Chemscore.DEClash>
0.0062

> <Gold.Chemscore.DEInternal>
5.0514

> <Gold.Chemscore.Rot>
4.0520

> <Gold.Chemscore.Internal.Correction>
   9.000000E+99

> <Gold.Chemscore.Hbonds>
donor molecule, donor type, donor heavy atom, donor atom, acceptor molecule, acceptor atom, score
      P1  H  6896  6907       L1    22  0.46
      P1  H  6896  6908       L1    17  0.09
      P1  H  6896  6909       L1     7  0.36
      P1  H  6934  6947       L1     3  0.82
      P1  H  7989  7998       L1    27  0.33

> <Gold.Chemscore.Hbond.Weighted>
-7.6388

> <Gold.Chemscore.Metal.Weighted>
-0.0000

> <Gold.Chemscore.Lipo.Weighted>
-4.7279

> <Gold.Chemscore.Internal_Hbond.Weighted>
0.0000

> <Gold.Chemscore.DEClash.Weighted>
0.0062

> <Gold.Chemscore.DEInternal.Weighted>
5.0514

> <Gold.Chemscore.Rot.Weighted>
10.3732

> <Gold.Chemscore.Internal.Correction.Weighted>
   9.000000E+99

> <Gold.Protein.RotatedTorsions>
[ 6907 6896 6895 6894 ] final   19.56 input  -60.11 | X-H torsion
[ 7974 7965 7964 7962 ] final  179.59 input  175.53 | X-H torsion
[ 8008 7997 7996 7995 ] final  104.65 input   59.86 | X-H torsion
[ 10167 10162 10161 10158 ] final -145.01 input  -65.29 | X-H torsion
[ 10718 10713 10712 10709 ] final  131.63 input   66.30 | X-H torsion
[ 10763 10752 10751 10750 ] final  -63.24 input  -60.55 | X-H torsion
[ 11005 11000 10999 10996 ] final   96.11 input  -57.11 | X-H torsion

> <Gold.Protein.ActiveResidues>
 VAL166  LYS551  ARG553  GLY616  TRP617  ASP618  TYR619  PRO620  LYS621  CYS622 
 ASP623  PHE694  ASN695  SER759  ASP760  ASP761  ALA762  ILE779  LEU786  VAL792 
 PHE793  MET794  SER795  GLU796  ALA797  LYS798  CYS799  TRP800  GLU811  SER814 

> <Gold.Protein.RotatedAtoms>
  151.8828  135.0447  160.0490 H   0  0  0  0  0  0  0  0  0  0  0  0  # atno 6907 bound_to 6896
  152.2499  133.5201  159.5327 H   0  0  0  0  0  0  0  0  0  0  0  0  # atno 6908 bound_to 6896
  150.7080  134.0891  159.3968 H   0  0  0  0  0  0  0  0  0  0  0  0  # atno 6909 bound_to 6896
  144.7144  140.0571  143.6433 H   0  0  0  0  0  0  0  0  0  0  0  0  # atno 7974 bound_to 7965
  156.1592  140.3144  155.8777 H   0  0  0  0  0  0  0  0  0  0  0  0  # atno 8008 bound_to 7997
  155.3817  140.0488  157.3060 H   0  0  0  0  0  0  0  0  0  0  0  0  # atno 8009 bound_to 7997
  154.5130  140.2171  155.9131 H   0  0  0  0  0  0  0  0  0  0  0  0  # atno 8010 bound_to 7997
  139.7845  143.8053  152.2643 H   0  0  0  0  0  0  0  0  0  0  0  0  # atno 10167 bound_to 10162
  157.4949  131.1092  150.9506 H   0  0  0  0  0  0  0  0  0  0  0  0  # atno 10718 bound_to 10713
  154.3121  135.6213  153.5470 H   0  0  0  0  0  0  0  0  0  0  0  0  # atno 10763 bound_to 10752
  152.9828  135.5704  154.5165 H   0  0  0  0  0  0  0  0  0  0  0  0  # atno 10764 bound_to 10752
  154.4817  135.2863  155.1542 H   0  0  0  0  0  0  0  0  0  0  0  0  # atno 10765 bound_to 10752
  139.8784  134.8934  156.4110 H   0  0  0  0  0  0  0  0  0  0  0  0  # atno 11005 bound_to 11000
  145.9895  139.3004  143.0993 LP  0  0  0  0  0  0  0  0  0  0  0  0  # atno 17320 bound_to 7965
  145.8919  140.9298  143.0548 LP  0  0  0  0  0  0  0  0  0  0  0  0  # atno 17321 bound_to 7965
  139.8126  144.7329  150.9678 LP  0  0  0  0  0  0  0  0  0  0  0  0  # atno 17342 bound_to 10162
  140.7819  143.4236  151.0803 LP  0  0  0  0  0  0  0  0  0  0  0  0  # atno 17343 bound_to 10162
  157.0196  130.5668  149.5330 LP  0  0  0  0  0  0  0  0  0  0  0  0  # atno 17370 bound_to 10713
  156.0195  130.5289  150.8233 LP  0  0  0  0  0  0  0  0  0  0  0  0  # atno 17371 bound_to 10713
  140.9200  133.7651  155.9895 LP  0  0  0  0  0  0  0  0  0  0  0  0  # atno 17394 bound_to 11000
  140.8450  134.3022  157.5298 LP  0  0  0  0  0  0  0  0  0  0  0  0  # atno 17395 bound_to 11000

$$$$
