#       Name:                AV-unprocessed.smi:1754
#       Creating user name   scv26
#       Creation time:       Fri Mar 27 08:28:51 2020


#       File generated by GOLD software.
#

@<TRIPOS>MOLECULE
AV-unprocessed.smi:1754
    47    48     1
SMALL
NO_CHARGES


@<TRIPOS>ATOM
      1 ****        -5.4303  -1.8051  -0.6137 C.3            1 S1                 0.0000
      2 ****        -4.9952  -0.3931  -1.0264 C.3            1 S1                 0.0000
      3 ****        -4.1991   0.2620   0.0079 N.pl3          1 S1                 0.0000
      4 ****        -4.8793   1.0540   1.0313 C.3            1 S1                 0.0000
      5 ****        -5.1063   2.5050   0.5864 C.3            1 S1                 0.0000
      6 ****        -2.7876   0.1767  -0.0111 C.ar           1 S1                 0.0000
      7 ****        -2.0721  -0.7256  -0.8368 C.ar           1 S1                 0.0000
      8 ****        -0.6629  -0.7458  -0.8005 C.ar           1 S1                 0.0000
      9 ****         0.0290   0.1246   0.0655 C.ar           1 S1                 0.0000
     10 ****         1.4491   0.0868   0.0485 N.am           1 S1                 0.0000
     11 ****         2.3322   0.4676   1.0044 C.2            1 S1                 0.0000
     12 ****         1.9056   0.8463   2.0938 O.2            1 S1                 0.0000
     13 ****         3.6750   0.3985   0.7540 N.pl3          1 S1                -1.0000
     14 ****         4.3751  -0.0296  -0.4701 C.3            1 S1                 0.0000
     15 ****         5.7215   0.7198  -0.5750 C.3            1 S1                 0.0000
     16 ****         6.7578   0.0451   0.3341 C.3            1 S1                 0.0000
     17 ****         6.3626  -1.7407   0.2748 S.o2           1 S1                 0.0000
     18 ****         7.2075  -2.3892  -0.7402 O.2            1 S1                 0.0000
     19 ****         6.2950  -2.2705   1.6456 O.2            1 S1                 0.0000
     20 ****         4.6678  -1.5423  -0.4077 C.3            1 S1                 0.0000
     21 ****        -0.7267   1.0157   0.8619 C.ar           1 S1                 0.0000
     22 ****        -2.0751   1.0015   0.7950 N.pl3          1 S1                 1.0000
     23 ****        -6.0340  -2.2662  -1.3955 H              1 S1                 0.0000
     24 ****        -6.0294  -1.7841   0.2972 H              1 S1                 0.0000
     25 ****        -4.5708  -2.4513  -0.4339 H              1 S1                 0.0000
     26 ****        -4.4582  -0.4154  -1.9743 H              1 S1                 0.0000
     27 ****        -5.8843   0.2101  -1.2121 H              1 S1                 0.0000
     28 ****        -5.8438   0.5910   1.2425 H              1 S1                 0.0000
     29 ****        -4.3291   1.0251   1.9721 H              1 S1                 0.0000
     30 ****        -5.6282   3.0680   1.3603 H              1 S1                 0.0000
     31 ****        -5.7094   2.5521  -0.3207 H              1 S1                 0.0000
     32 ****        -4.1620   3.0126   0.3877 H              1 S1                 0.0000
     33 ****        -2.5793  -1.4118  -1.4974 H              1 S1                 0.0000
     34 ****        -0.1184  -1.4323  -1.4323 H              1 S1                 0.0000
     35 ****         1.8621  -0.3119  -0.7819 H              1 S1                 0.0000
     36 ****         3.7813   0.1860  -1.3597 H              1 S1                 0.0000
     37 ****         6.0732   0.6485  -1.6047 H              1 S1                 0.0000
     38 ****         5.6235   1.7838  -0.3560 H              1 S1                 0.0000
     39 ****         7.7852   0.2164   0.0138 H              1 S1                 0.0000
     40 ****         6.6542   0.3834   1.3665 H              1 S1                 0.0000
     41 ****         3.9542  -2.1036   0.1964 H              1 S1                 0.0000
     42 ****         4.6675  -1.9688  -1.4106 H              1 S1                 0.0000
     43 ****        -0.3121   1.7488   1.5374 H              1 S1                 0.0000
     44 ****        -2.5872   1.6580   1.3841 H              1 S1                 0.0000
     45 ****         0.9205   0.8701   2.2642 LP             1 S1                 0.0000
     46 ****         2.5438   1.1305   2.8093 LP             1 S1                 0.0000
     47 ****         4.2666   0.6787   1.5100 LP             1 S1                 0.0000
@<TRIPOS>BOND
    1    1    2 1     
    2    1   23 1     
    3    1   24 1     
    4    1   25 1     
    5    2    3 1     
    6    2   26 1     
    7    2   27 1     
    8    3    4 1     
    9    3    6 1     
   10    4    5 1     
   11    4   28 1     
   12    4   29 1     
   13    5   30 1     
   14    5   31 1     
   15    5   32 1     
   16    6   22 ar    
   17    6    7 ar    
   18    7    8 ar    
   19    7   33 1     
   20    8    9 ar    
   21    8   34 1     
   22    9   10 1     
   23    9   21 ar    
   24   10   11 am    
   25   10   35 1     
   26   11   12 2     
   27   11   13 1     
   28   13   14 1     
   29   14   20 1     
   30   14   15 1     
   31   14   36 1     
   32   15   16 1     
   33   15   37 1     
   34   15   38 1     
   35   16   17 1     
   36   16   39 1     
   37   16   40 1     
   38   17   18 2     
   39   17   19 2     
   40   17   20 1     
   41   20   41 1     
   42   20   42 1     
   43   21   22 ar    
   44   21   43 1     
   45   22   44 1     
   46   12   45 1     
   47   12   46 1     
   48   13   47 1     
@<TRIPOS>SUBSTRUCTURE
      1 S1             1
@<TRIPOS>SET
LONE_PAIRS      STATIC     ATOMS    <user>   **** ""
5 45 46 47 18 19
DONOR_HYDROGENS      STATIC     ATOMS    <user>   **** ""
2 35 44
ATOM$BLUE        STATIC     ATOMS    COLORGROUP SYSTEM
5 45 46 47 18 19
ATOM$RED        STATIC     ATOMS    COLORGROUP SYSTEM
2 35 44
