AV-unprocessed.smi:3023|AV-procd|sdf|11502|dock10
  -GOLD-   2272016433D 1   1.00000     0.00000
 Structure written by MMmdl.
 43 44  0  0  0  0  0  0  0  0  2 V2000
  148.9061  135.0735  154.9819 C   0  0  0  0  0  0  0  0  0  0  0  0
  149.4546  136.4301  154.7569 N   0  3  1  0  0  0  0  0  0  0  0  0
  148.8461  137.4332  155.6732 C   0  0  0  0  0  0  0  0  0  0  0  0
  148.6168  138.8063  155.0041 C   0  0  0  0  0  0  0  0  0  0  0  0
  149.7999  139.3555  154.1821 C   0  0  0  0  0  0  0  0  0  0  0  0
  151.0927  138.9160  154.7290 N   0  0  0  0  0  0  0  0  0  0  0  0
  151.7456  139.5018  155.7647 C   0  0  0  0  0  0  0  0  0  0  0  0
  152.8972  139.2052  156.0844 O   0  0  0  0  0  0  0  0  0  0  0  0
  151.0367  140.4466  156.4088 N   0  0  0  0  0  0  0  0  0  0  0  0
  151.5264  141.2912  157.4963 C   0  0  0  0  0  0  0  0  0  0  0  0
  150.8481  142.6736  157.4974 C   0  0  0  0  0  0  0  0  0  0  0  0
  151.1491  143.4703  158.7395 C   0  0  0  0  0  0  0  0  0  0  0  0
  150.7148  144.7881  159.0610 C   0  0  0  0  0  0  0  0  0  0  0  0
  151.1306  145.1906  160.2506 N   0  0  0  0  0  0  0  0  0  0  0  0
  151.8473  144.1513  160.7254 N   0  0  0  0  0  0  0  0  0  0  0  0
  152.4574  144.2422  162.0344 C   0  0  0  0  0  0  0  0  0  0  0  0
  151.8785  143.1009  159.8345 C   0  0  0  0  0  0  0  0  0  0  0  0
  151.5785  137.6685  154.1250 C   0  0  0  0  0  0  0  0  0  0  0  0
  150.9455  136.4269  154.7854 C   0  0  0  0  0  0  0  0  0  0  0  0
  149.1503  134.7152  155.9828 H   0  0  0  0  0  0  0  0  0  0  0  0
  149.3088  134.3658  154.2566 H   0  0  0  0  0  0  0  0  0  0  0  0
  147.8213  135.0712  154.8701 H   0  0  0  0  0  0  0  0  0  0  0  0
  147.8767  137.0795  156.0276 H   0  0  0  0  0  0  0  0  0  0  0  0
  149.4588  137.5381  156.5699 H   0  0  0  0  0  0  0  0  0  0  0  0
  147.7393  138.7561  154.3585 H   0  0  0  0  0  0  0  0  0  0  0  0
  148.3643  139.5233  155.7861 H   0  0  0  0  0  0  0  0  0  0  0  0
  149.6948  139.0098  153.1531 H   0  0  0  0  0  0  0  0  0  0  0  0
  149.7410  140.4421  154.1034 H   0  0  0  0  0  0  0  0  0  0  0  0
  150.0973  140.6275  156.0866 H   0  0  0  0  0  0  0  0  0  0  0  0
  151.3274  140.7847  158.4408 H   0  0  0  0  0  0  0  0  0  0  0  0
  152.6096  141.4104  157.4401 H   0  0  0  0  0  0  0  0  0  0  0  0
  151.1675  143.2215  156.6103 H   0  0  0  0  0  0  0  0  0  0  0  0
  149.7721  142.5384  157.3826 H   0  0  0  0  0  0  0  0  0  0  0  0
  150.1021  145.4548  158.4723 H   0  0  0  0  0  0  0  0  0  0  0  0
  153.2087  143.4604  162.1505 H   0  0  0  0  0  0  0  0  0  0  0  0
  151.6945  144.1199  162.8039 H   0  0  0  0  0  0  0  0  0  0  0  0
  152.9380  145.2136  162.1565 H   0  0  0  0  0  0  0  0  0  0  0  0
  152.4025  142.1825  160.0546 H   0  0  0  0  0  0  0  0  0  0  0  0
  151.3718  137.6578  153.0542 H   0  0  0  0  0  0  0  0  0  0  0  0
  152.6658  137.6001  154.1904 H   0  0  0  0  0  0  0  0  0  0  0  0
  151.2940  136.3226  155.8143 H   0  0  0  0  0  0  0  0  0  0  0  0
  151.3123  135.5479  154.2538 H   0  0  0  0  0  0  0  0  0  0  0  0
  149.1769  136.6824  153.8191 H   0  0  0  0  0  0  0  0  0  0  0  0
  1  2  1  0  0  0  0
  1 20  1  0  0  0  0
  1 21  1  0  0  0  0
  1 22  1  0  0  0  0
  2 19  1  0  0  0  0
  2  3  1  0  0  0  0
  2 43  1  0  0  0  0
  3  4  1  0  0  0  0
  3 23  1  0  0  0  0
  3 24  1  0  0  0  0
  4  5  1  0  0  0  0
  4 25  1  0  0  0  0
  4 26  1  0  0  0  0
  5  6  1  0  0  0  0
  5 27  1  0  0  0  0
  5 28  1  0  0  0  0
  6  7  1  0  0  0  0
  6 18  1  0  0  0  0
  7  8  2  0  0  0  0
  7  9  1  0  0  0  0
  9 10  1  0  0  0  0
  9 29  1  0  0  0  0
 10 11  1  0  0  0  0
 10 30  1  0  0  0  0
 10 31  1  0  0  0  0
 11 12  1  0  0  0  0
 11 32  1  0  0  0  0
 11 33  1  0  0  0  0
 12 17  2  0  0  0  0
 12 13  1  0  0  0  0
 13 14  2  0  0  0  0
 13 34  1  0  0  0  0
 14 15  1  0  0  0  0
 15 16  1  0  0  0  0
 15 17  1  0  0  0  0
 16 35  1  0  0  0  0
 16 36  1  0  0  0  0
 16 37  1  0  0  0  0
 17 38  1  0  0  0  0
 18 19  1  0  0  0  0
 18 39  1  0  0  0  0
 18 40  1  0  0  0  0
 19 41  1  0  0  0  0
 19 42  1  0  0  0  0
M  CHG  1   2   1
M  END
> <s_m_source_file>
AV-unprocessed.smi

> <i_m_source_file_index>
3023

> <i_lp_mmshare_version>
43012

> <i_f3d_flags>
0

> <s_epik_input>
W0NIM11OMVtDSDJdW0NIMl1bQ0gyXU4oW0NIMl1bQ0gyXTEpQyg9TylbTkhdW0NIMl1bQ0gyXWMyW2NIXW5uKFtDSDNdKVtjSF0y

> <s_epik_cmdline>
J2VwaWtfcHl0aG9uJywgJy1waCcsICc3LjAnLCAnLXRuJywgJzgnLCAnLW1hJywgJzIwMCcsICctbWV0YWxfYmluZGluZycsICctaW1hZScsICc8aW5maWxlLm1hZT4nLCAnLW9tYWUnLCAnPG91dGZpbGUubWFlPic=

> <r_lp_tautomer_probability>
1

> <r_epik_Ionization_Penalty>
0.00258886

> <r_epik_Ionization_Penalty_Charging>
0.00208099

> <r_epik_Ionization_Penalty_Neutral>
0.00050787

> <r_epik_State_Penalty>
-0

> <r_epik_Charging_Adjusted_Penalty>
0.00208099

> <i_epik_Tot_Q>
1

> <i_epik_Tot_abs_Q>
1

> <r_epik_Metal_State_Penalty>
-0

> <b_epik_Metal_Only>
0

> <s_lp_Force_Field>
OPLS_2005

> <r_lp_Energy>
39.0301

> <b_lp_Chiralities_Consistent>
1

> <s_lp_Variant>
AV-unprocessed.smi:3023-2

> <Gold.Version>
5.8.1

> <Gold.Id.Protein>
6NUR|6NUR_protein|mol2

> <Gold.PLP.Fitness>
46.8329

> <Gold.PLP.PLP>
-35.4460

> <Gold.PLP.part.hbond>
-2.0000

> <Gold.PLP.part.metal>
0.0000

> <Gold.PLP.part.buried>
-2.3288

> <Gold.PLP.part.nonpolar>
-31.4131

> <Gold.PLP.part.repulsive>
0.3133

> <Gold.PLP.ligand.clash>
0.0000

> <Gold.PLP.ligand.torsion>
0.2861

> <Gold.PLP.Chemscore.Hbond>
2.9840

> <Gold.PLP.Chemscore.CHOScore>
0.9954

> <Gold.PLP.Chemscore.Metal>
0.0000

> <Gold.Chemscore.Hbonds>
donor molecule, donor type, donor heavy atom, donor atom, acceptor molecule, acceptor atom, score
      L1  H     2    43       P1  7948  2.00
      P1  H  7997  8008       L1     8  1.00
      L1  C    13    34       P1  8029  0.98

> <Gold.PLP.Chemscore.Internal.Correction>
0.0210

> <Gold.Rescore>
     Score         DG    S(hbond)    S(metal)    S(lipo)     H(rot)  DE(clash)    DE(int)     intcor
     18.58     -18.94       1.94        0.00      90.14       1.39       0.11       0.25       ----

> <Gold.Chemscore.Fitness>
18.5803

> <Gold.Chemscore.DG>
-18.9387

> <Gold.Chemscore.ZeroCoef>
-5.4800

> <Gold.Chemscore.Hbond>
1.9378

> <Gold.Chemscore.Metal>
0.0000

> <Gold.Chemscore.Lipo>
90.1395

> <Gold.Chemscore.Internal_Hbond>
0.0000

> <Gold.Chemscore.DEClash>
0.1054

> <Gold.Chemscore.DEInternal>
0.2530

> <Gold.Chemscore.Rot>
1.3906

> <Gold.Chemscore.Internal.Correction>
   9.000000E+99

> <Gold.Chemscore.Hbonds>
donor molecule, donor type, donor heavy atom, donor atom, acceptor molecule, acceptor atom, score
      L1  H     2    43       P1  7948  0.89
      P1  H  7997  8008       L1     8  1.00

> <Gold.Chemscore.Hbond.Weighted>
-6.4722

> <Gold.Chemscore.Metal.Weighted>
-0.0000

> <Gold.Chemscore.Lipo.Weighted>
-10.5463

> <Gold.Chemscore.Internal_Hbond.Weighted>
0.0000

> <Gold.Chemscore.DEClash.Weighted>
0.1054

> <Gold.Chemscore.DEInternal.Weighted>
0.2530

> <Gold.Chemscore.Rot.Weighted>
3.5598

> <Gold.Chemscore.Internal.Correction.Weighted>
   9.000000E+99

> <Gold.Protein.RotatedTorsions>
[ 6907 6896 6895 6894 ] final  106.87 input  -60.11 | X-H torsion
[ 7974 7965 7964 7962 ] final  -20.45 input  175.53 | X-H torsion
[ 8008 7997 7996 7995 ] final  -40.91 input   59.86 | X-H torsion
[ 10167 10162 10161 10158 ] final -110.35 input  -65.29 | X-H torsion
[ 10718 10713 10712 10709 ] final  -86.64 input   66.30 | X-H torsion
[ 10763 10752 10751 10750 ] final  123.71 input  -60.55 | X-H torsion
[ 11005 11000 10999 10996 ] final -135.88 input  -57.11 | X-H torsion

> <Gold.Protein.ActiveResidues>
 VAL166  LYS551  ARG553  GLY616  TRP617  ASP618  TYR619  PRO620  LYS621  CYS622 
 ASP623  PHE694  ASN695  SER759  ASP760  ASP761  ALA762  ILE779  LEU786  VAL792 
 PHE793  MET794  SER795  GLU796  ALA797  LYS798  CYS799  TRP800  GLU811  SER814 

> <Gold.Protein.RotatedAtoms>
  152.5177  133.9318  159.7583 H   0  0  0  0  0  0  0  0  0  0  0  0  # atno 6907 bound_to 6896
  150.9666  133.6379  159.2752 H   0  0  0  0  0  0  0  0  0  0  0  0  # atno 6908 bound_to 6896
  151.3605  135.0908  159.9486 H   0  0  0  0  0  0  0  0  0  0  0  0  # atno 6909 bound_to 6896
  146.1787  140.4203  142.8503 H   0  0  0  0  0  0  0  0  0  0  0  0  # atno 7974 bound_to 7965
  154.4008  140.1513  156.3104 H   0  0  0  0  0  0  0  0  0  0  0  0  # atno 8008 bound_to 7997
  155.8620  140.3453  155.5741 H   0  0  0  0  0  0  0  0  0  0  0  0  # atno 8009 bound_to 7997
  155.7869  140.0851  157.2020 H   0  0  0  0  0  0  0  0  0  0  0  0  # atno 8010 bound_to 7997
  140.1454  143.4243  152.1532 H   0  0  0  0  0  0  0  0  0  0  0  0  # atno 10167 bound_to 10162
  155.9989  130.4772  150.4745 H   0  0  0  0  0  0  0  0  0  0  0  0  # atno 10718 bound_to 10713
  153.6499  135.3364  155.3096 H   0  0  0  0  0  0  0  0  0  0  0  0  # atno 10763 bound_to 10752
  154.8540  135.4338  154.1916 H   0  0  0  0  0  0  0  0  0  0  0  0  # atno 10764 bound_to 10752
  153.2856  135.7012  153.7418 H   0  0  0  0  0  0  0  0  0  0  0  0  # atno 10765 bound_to 10752
  140.8857  134.1875  157.4561 H   0  0  0  0  0  0  0  0  0  0  0  0  # atno 11005 bound_to 11000
  144.8279  140.6659  143.6310 LP  0  0  0  0  0  0  0  0  0  0  0  0  # atno 17320 bound_to 7965
  145.4137  139.1575  143.4112 LP  0  0  0  0  0  0  0  0  0  0  0  0  # atno 17321 bound_to 7965
  139.5451  144.7291  151.4608 LP  0  0  0  0  0  0  0  0  0  0  0  0  # atno 17342 bound_to 10162
  140.6735  143.8242  150.7028 LP  0  0  0  0  0  0  0  0  0  0  0  0  # atno 17343 bound_to 10162
  157.2757  131.0596  151.2231 LP  0  0  0  0  0  0  0  0  0  0  0  0  # atno 17370 bound_to 10713
  157.3295  130.6978  149.6316 LP  0  0  0  0  0  0  0  0  0  0  0  0  # atno 17371 bound_to 10713
  139.8724  134.9837  156.5208 LP  0  0  0  0  0  0  0  0  0  0  0  0  # atno 17394 bound_to 11000
  140.8407  133.8207  155.9073 LP  0  0  0  0  0  0  0  0  0  0  0  0  # atno 17395 bound_to 11000

$$$$
