AV-unprocessed.smi:765|AV-procd|sdf|3650|dock9
  -GOLD-   22720 1 53D 1   1.00000     0.00000
 Structure written by MMmdl.
 39 40  0  0  0  0  0  0  0  0  1 V2000
  152.0743  141.4287  158.4979 C   0  0  0  0  0  0  0  0  0  0  0  0
  151.3599  140.3402  157.6852 C   0  0  1  0  0  0  0  0  0  0  0  0
  151.2255  140.7390  156.2045 C   0  0  0  0  0  0  0  0  0  0  0  0
  150.5227  139.6471  155.3847 C   0  0  0  0  0  0  0  0  0  0  0  0
  151.2332  138.2896  155.5368 C   0  0  0  0  0  0  0  0  0  0  0  0
  151.3710  137.8515  157.0116 C   0  0  2  0  0  0  0  0  0  0  0  0
  152.1759  136.6164  157.0620 C   0  0  0  0  0  0  0  0  0  0  0  0
  152.8081  135.6479  157.1032 N   0  0  0  0  0  0  0  0  0  0  0  0
  150.0263  137.6155  157.5438 N   0  0  0  0  0  0  0  0  0  0  0  0
  149.7043  137.0947  158.7398 C   0  0  0  0  0  0  0  0  0  0  0  0
  150.5320  136.6091  159.5109 O   0  0  0  0  0  0  0  0  0  0  0  0
  148.2176  137.1758  159.1229 C   0  0  1  0  0  0  0  0  0  0  0  0
  147.2764  136.6649  158.0129 C   0  0  0  0  0  0  0  0  0  0  0  0
  147.9938  136.4844  160.3888 N   0  0  0  0  0  0  0  0  0  0  0  0
  148.0411  135.1271  160.6360 C   0  0  0  0  0  0  0  0  0  0  0  0
  147.7084  134.9359  161.9463 C   0  0  0  0  0  0  0  0  0  0  0  0
  147.4607  136.2512  162.4274 C   0  0  0  0  0  0  0  0  0  0  0  0
  147.6257  137.1737  161.4943 N   0  0  0  0  0  0  0  0  0  0  0  0
  152.0787  138.9789  157.8063 C   0  0  0  0  0  0  0  0  0  0  0  0
  153.0905  141.5916  158.1379 H   0  0  0  0  0  0  0  0  0  0  0  0
  152.1329  141.1558  159.5517 H   0  0  0  0  0  0  0  0  0  0  0  0
  151.5418  142.3780  158.4337 H   0  0  0  0  0  0  0  0  0  0  0  0
  150.3563  140.2396  158.1005 H   0  0  0  0  0  0  0  0  0  0  0  0
  150.6706  141.6740  156.1181 H   0  0  0  0  0  0  0  0  0  0  0  0
  152.2138  140.9274  155.7827 H   0  0  0  0  0  0  0  0  0  0  0  0
  149.4828  139.5633  155.7024 H   0  0  0  0  0  0  0  0  0  0  0  0
  150.4974  139.9348  154.3333 H   0  0  0  0  0  0  0  0  0  0  0  0
  150.6983  137.5285  154.9671 H   0  0  0  0  0  0  0  0  0  0  0  0
  152.2250  138.3588  155.0873 H   0  0  0  0  0  0  0  0  0  0  0  0
  149.2663  137.9711  156.9828 H   0  0  0  0  0  0  0  0  0  0  0  0
  147.9873  138.2301  159.2848 H   0  0  0  0  0  0  0  0  0  0  0  0
  147.4044  137.2375  157.0936 H   0  0  0  0  0  0  0  0  0  0  0  0
  146.2330  136.7621  158.3142 H   0  0  0  0  0  0  0  0  0  0  0  0
  147.4548  135.6152  157.7762 H   0  0  0  0  0  0  0  0  0  0  0  0
  148.3003  134.4158  159.8658 H   0  0  0  0  0  0  0  0  0  0  0  0
  147.6459  133.9988  162.4792 H   0  0  0  0  0  0  0  0  0  0  0  0
  147.1638  136.5612  163.4184 H   0  0  0  0  0  0  0  0  0  0  0  0
  153.1017  139.0827  157.4414 H   0  0  0  0  0  0  0  0  0  0  0  0
  152.1705  138.7026  158.8572 H   0  0  0  0  0  0  0  0  0  0  0  0
  1  2  1  0  0  0  0
  1 20  1  0  0  0  0
  1 21  1  0  0  0  0
  1 22  1  0  0  0  0
  2 19  1  0  0  0  0
  2  3  1  0  0  0  0
  2 23  1  0  0  0  0
  3  4  1  0  0  0  0
  3 24  1  0  0  0  0
  3 25  1  0  0  0  0
  4  5  1  0  0  0  0
  4 26  1  0  0  0  0
  4 27  1  0  0  0  0
  5  6  1  0  0  0  0
  5 28  1  0  0  0  0
  5 29  1  0  0  0  0
  6  7  1  0  0  0  0
  6  9  1  0  0  0  0
  6 19  1  0  0  0  0
  7  8  3  0  0  0  0
  9 10  1  0  0  0  0
  9 30  1  0  0  0  0
 10 11  2  0  0  0  0
 10 12  1  0  0  0  0
 12 13  1  0  0  0  0
 12 14  1  0  0  0  0
 12 31  1  0  0  0  0
 13 32  1  0  0  0  0
 13 33  1  0  0  0  0
 13 34  1  0  0  0  0
 14 18  1  0  0  0  0
 14 15  1  0  0  0  0
 15 16  2  0  0  0  0
 15 35  1  0  0  0  0
 16 17  1  0  0  0  0
 16 36  1  0  0  0  0
 17 18  2  0  0  0  0
 17 37  1  0  0  0  0
 19 38  1  0  0  0  0
 19 39  1  0  0  0  0
M  END
> <s_m_source_file>
AV-unprocessed.smi

> <i_m_source_file_index>
765

> <i_lp_mmshare_version>
43012

> <i_f3d_flags>
0

> <s_epik_input>
W0NIM11bQ0BASF0oW0NIMl0xKVtDSDJdW0NIMl1bQ0gyXVtDQEBdMShDI04pW05IXUMoPU8pW0NASF0oW0NIM10pbjJbY0hdW2NIXVtjSF1uMg==

> <s_epik_cmdline>
J2VwaWtfcHl0aG9uJywgJy1waCcsICc3LjAnLCAnLXRuJywgJzgnLCAnLW1hJywgJzIwMCcsICctbWV0YWxfYmluZGluZycsICctaW1hZScsICc8aW5maWxlLm1hZT4nLCAnLW9tYWUnLCAnPG91dGZpbGUubWFlPic=

> <r_lp_tautomer_probability>
1

> <r_epik_Ionization_Penalty>
2.71142e-05

> <r_epik_Ionization_Penalty_Charging>
0

> <r_epik_Ionization_Penalty_Neutral>
2.71142e-05

> <r_epik_State_Penalty>
-0

> <r_epik_Charging_Adjusted_Penalty>
0

> <i_epik_Tot_Q>
0

> <i_epik_Tot_abs_Q>
0

> <r_epik_Metal_State_Penalty>
-0

> <b_epik_Metal_Only>
0

> <s_lp_Force_Field>
OPLS_2005

> <r_lp_Energy>
11.0403

> <b_lp_Chiralities_Consistent>
1

> <s_lp_Variant>
AV-unprocessed.smi:765-8

> <Gold.Version>
5.8.1

> <Gold.Id.Protein>
6NUR|6NUR_protein|mol2

> <Gold.PLP.Fitness>
42.1416

> <Gold.PLP.PLP>
-31.2235

> <Gold.PLP.part.hbond>
-4.0000

> <Gold.PLP.part.metal>
0.0000

> <Gold.PLP.part.buried>
-4.9193

> <Gold.PLP.part.nonpolar>
-22.4363

> <Gold.PLP.part.repulsive>
0.0381

> <Gold.PLP.ligand.clash>
0.0000

> <Gold.PLP.ligand.torsion>
0.3030

> <Gold.PLP.Chemscore.Hbond>
3.8080

> <Gold.PLP.Chemscore.CHOScore>
0.0000

> <Gold.PLP.Chemscore.Metal>
0.0000

> <Gold.Chemscore.Hbonds>
donor molecule, donor type, donor heavy atom, donor atom, acceptor molecule, acceptor atom, score
      P1  H  6896  6908       L1    11  1.00
      P1  H  6931  6943       L1    18  0.99
      P1  H  6934  6947       L1    18  0.82
      P1  H 10752 10764       L1     8  1.00

> <Gold.PLP.Chemscore.Internal.Correction>
0.1001

> <Gold.Rescore>
     Score         DG    S(hbond)    S(metal)    S(lipo)     H(rot)  DE(clash)    DE(int)     intcor
     19.56     -20.87       3.35        0.00      67.08       1.42       0.00       1.32       ----

> <Gold.Chemscore.Fitness>
19.5557

> <Gold.Chemscore.DG>
-20.8724

> <Gold.Chemscore.ZeroCoef>
-5.4800

> <Gold.Chemscore.Hbond>
3.3456

> <Gold.Chemscore.Metal>
0.0000

> <Gold.Chemscore.Lipo>
67.0849

> <Gold.Chemscore.Internal_Hbond>
0.0000

> <Gold.Chemscore.DEClash>
0.0009

> <Gold.Chemscore.DEInternal>
1.3157

> <Gold.Chemscore.Rot>
1.4183

> <Gold.Chemscore.Internal.Correction>
   9.000000E+99

> <Gold.Chemscore.Hbonds>
donor molecule, donor type, donor heavy atom, donor atom, acceptor molecule, acceptor atom, score
      P1  H  6896  6908       L1    11  1.00
      P1  H  6931  6943       L1    18  0.38
      P1  H  6934  6947       L1    18  0.51
      P1  H 10752 10764       L1     8  0.65

> <Gold.Chemscore.Hbond.Weighted>
-11.1743

> <Gold.Chemscore.Metal.Weighted>
-0.0000

> <Gold.Chemscore.Lipo.Weighted>
-7.8489

> <Gold.Chemscore.Internal_Hbond.Weighted>
0.0000

> <Gold.Chemscore.DEClash.Weighted>
0.0009

> <Gold.Chemscore.DEInternal.Weighted>
1.3157

> <Gold.Chemscore.Rot.Weighted>
3.6309

> <Gold.Chemscore.Internal.Correction.Weighted>
   9.000000E+99

> <Gold.Protein.RotatedTorsions>
[ 6907 6896 6895 6894 ] final -158.09 input  -60.11 | X-H torsion
[ 7974 7965 7964 7962 ] final -139.45 input  175.53 | X-H torsion
[ 8008 7997 7996 7995 ] final -115.94 input   59.86 | X-H torsion
[ 10167 10162 10161 10158 ] final -111.81 input  -65.29 | X-H torsion
[ 10718 10713 10712 10709 ] final   35.50 input   66.30 | X-H torsion
[ 10763 10752 10751 10750 ] final    2.00 input  -60.55 | X-H torsion
[ 11005 11000 10999 10996 ] final -123.98 input  -57.11 | X-H torsion

> <Gold.Protein.ActiveResidues>
 VAL166  LYS551  ARG553  GLY616  TRP617  ASP618  TYR619  PRO620  LYS621  CYS622 
 ASP623  PHE694  ASN695  SER759  ASP760  ASP761  ALA762  ILE779  LEU786  VAL792 
 PHE793  MET794  SER795  GLU796  ALA797  LYS798  CYS799  TRP800  GLU811  SER814 

> <Gold.Protein.RotatedAtoms>
  151.3128  133.4073  159.2647 H   0  0  0  0  0  0  0  0  0  0  0  0  # atno 6907 bound_to 6896
  151.0100  134.9390  159.8012 H   0  0  0  0  0  0  0  0  0  0  0  0  # atno 6908 bound_to 6896
  152.5298  134.3093  159.9160 H   0  0  0  0  0  0  0  0  0  0  0  0  # atno 6909 bound_to 6896
  144.8676  140.6317  143.5288 H   0  0  0  0  0  0  0  0  0  0  0  0  # atno 7974 bound_to 7965
  155.0600  140.0393  157.2573 H   0  0  0  0  0  0  0  0  0  0  0  0  # atno 8008 bound_to 7997
  154.7068  140.2684  155.6643 H   0  0  0  0  0  0  0  0  0  0  0  0  # atno 8009 bound_to 7997
  156.2777  140.2729  156.1696 H   0  0  0  0  0  0  0  0  0  0  0  0  # atno 8010 bound_to 7997
  140.1296  143.4372  152.1636 H   0  0  0  0  0  0  0  0  0  0  0  0  # atno 10167 bound_to 10162
  157.3234  130.7460  149.6800 H   0  0  0  0  0  0  0  0  0  0  0  0  # atno 10718 bound_to 10713
  153.3010  135.6956  153.7203 H   0  0  0  0  0  0  0  0  0  0  0  0  # atno 10763 bound_to 10752
  153.6118  135.3443  155.2982 H   0  0  0  0  0  0  0  0  0  0  0  0  # atno 10764 bound_to 10752
  154.8550  135.4365  154.2121 H   0  0  0  0  0  0  0  0  0  0  0  0  # atno 10765 bound_to 10752
  140.9877  134.0583  157.3691 H   0  0  0  0  0  0  0  0  0  0  0  0  # atno 11005 bound_to 11000
  145.4192  139.1567  143.4083 LP  0  0  0  0  0  0  0  0  0  0  0  0  # atno 17320 bound_to 7965
  146.2907  140.4301  142.8740 LP  0  0  0  0  0  0  0  0  0  0  0  0  # atno 17321 bound_to 7965
  139.5526  144.7349  151.4388 LP  0  0  0  0  0  0  0  0  0  0  0  0  # atno 17342 bound_to 10162
  140.6825  143.8050  150.7140 LP  0  0  0  0  0  0  0  0  0  0  0  0  # atno 17343 bound_to 10162
  155.9688  130.4216  150.4479 LP  0  0  0  0  0  0  0  0  0  0  0  0  # atno 17370 bound_to 10713
  157.2498  131.0544  151.2386 LP  0  0  0  0  0  0  0  0  0  0  0  0  # atno 17371 bound_to 10713
  139.8978  135.0152  156.7117 LP  0  0  0  0  0  0  0  0  0  0  0  0  # atno 17394 bound_to 11000
  140.7089  133.9241  155.8071 LP  0  0  0  0  0  0  0  0  0  0  0  0  # atno 17395 bound_to 11000

$$$$
