AV-unprocessed.smi:1352|AV-procd|sdf|5528|dock3
  -GOLD-   22720 5113D 1   1.00000     0.00000
 Structure written by MMmdl.
 47 48  0  0  0  0  0  0  0  0  2 V2000
  144.6360  133.4873  150.4941 C   0  0  0  0  0  0  0  0  0  0  0  0
  145.6690  132.4980  151.0522 C   0  0  2  0  0  0  0  0  0  0  0  0
  144.9961  131.4098  151.9082 C   0  0  0  0  0  0  0  0  0  0  0  0
  146.0302  130.4499  152.5244 C   0  0  1  0  0  0  0  0  0  0  0  0
  146.6254  129.4700  151.4977 C   0  0  0  0  0  0  0  0  0  0  0  0
  147.1196  131.2398  153.2768 C   0  0  0  0  0  0  0  0  0  0  0  0
  147.7582  132.2634  152.4084 N   0  3  2  0  0  0  0  0  0  0  0  0
  148.9054  132.9285  153.0764 C   0  0  0  0  0  0  0  0  0  0  0  0
  148.5294  133.5020  154.4563 C   0  0  0  0  0  0  0  0  0  0  0  0
  148.4336  134.9566  154.4250 N   0  0  0  0  0  0  0  0  0  0  0  0
  148.5746  135.7591  155.4910 C   0  0  0  0  0  0  0  0  0  0  0  0
  148.7785  135.3340  156.6291 O   0  0  0  0  0  0  0  0  0  0  0  0
  148.4421  137.2651  155.2229 C   0  0  0  0  0  0  0  0  0  0  0  0
  149.6959  138.0083  155.4331 N   0  0  0  0  0  0  0  0  0  0  0  0
  150.8328  137.5621  154.7302 C   0  0  0  0  0  0  0  0  0  0  0  0
  152.0244  138.1688  154.8494 C   0  0  0  0  0  0  0  0  0  0  0  0
  152.1247  139.3093  155.7285 C   0  0  0  0  0  0  0  0  0  0  0  0
  151.0427  139.7467  156.4030 C   0  0  0  0  0  0  0  0  0  0  0  0
  149.7374  139.0887  156.2729 C   0  0  0  0  0  0  0  0  0  0  0  0
  148.7420  139.4842  156.8805 O   0  0  0  0  0  0  0  0  0  0  0  0
  146.7579  133.2217  151.8674 C   0  0  0  0  0  0  0  0  0  0  0  0
  144.1140  134.0112  151.2954 H   0  0  0  0  0  0  0  0  0  0  0  0
  143.8874  132.9743  149.8898 H   0  0  0  0  0  0  0  0  0  0  0  0
  145.1114  134.2369  149.8607 H   0  0  0  0  0  0  0  0  0  0  0  0
  146.1484  132.0183  150.1982 H   0  0  0  0  0  0  0  0  0  0  0  0
  144.4298  131.8840  152.7114 H   0  0  0  0  0  0  0  0  0  0  0  0
  144.2709  130.8520  151.3141 H   0  0  0  0  0  0  0  0  0  0  0  0
  145.5049  129.8387  153.2594 H   0  0  0  0  0  0  0  0  0  0  0  0
  147.2081  129.9823  150.7324 H   0  0  0  0  0  0  0  0  0  0  0  0
  145.8402  128.9055  150.9941 H   0  0  0  0  0  0  0  0  0  0  0  0
  147.2841  128.7497  151.9833 H   0  0  0  0  0  0  0  0  0  0  0  0
  146.6857  131.7342  154.1476 H   0  0  0  0  0  0  0  0  0  0  0  0
  147.8724  130.5467  153.6555 H   0  0  0  0  0  0  0  0  0  0  0  0
  149.7416  132.2324  153.1586 H   0  0  0  0  0  0  0  0  0  0  0  0
  149.2518  133.7503  152.4482 H   0  0  0  0  0  0  0  0  0  0  0  0
  147.5871  133.0747  154.8044 H   0  0  0  0  0  0  0  0  0  0  0  0
  149.2798  133.2457  155.2030 H   0  0  0  0  0  0  0  0  0  0  0  0
  148.2653  135.3861  153.5264 H   0  0  0  0  0  0  0  0  0  0  0  0
  148.0829  137.4223  154.2040 H   0  0  0  0  0  0  0  0  0  0  0  0
  147.6529  137.6556  155.8667 H   0  0  0  0  0  0  0  0  0  0  0  0
  150.6730  136.7075  154.0889 H   0  0  0  0  0  0  0  0  0  0  0  0
  152.8843  137.8153  154.2998 H   0  0  0  0  0  0  0  0  0  0  0  0
  153.0717  139.8154  155.8454 H   0  0  0  0  0  0  0  0  0  0  0  0
  151.1367  140.6023  157.0554 H   0  0  0  0  0  0  0  0  0  0  0  0
  147.2484  133.9529  151.2261 H   0  0  0  0  0  0  0  0  0  0  0  0
  146.3069  133.7788  152.6905 H   0  0  0  0  0  0  0  0  0  0  0  0
  148.1415  131.7597  151.6211 H   0  0  0  0  0  0  0  0  0  0  0  0
  1  2  1  0  0  0  0
  1 22  1  0  0  0  0
  1 23  1  0  0  0  0
  1 24  1  0  0  0  0
  2 21  1  0  0  0  0
  2  3  1  0  0  0  0
  2 25  1  0  0  0  0
  3  4  1  0  0  0  0
  3 26  1  0  0  0  0
  3 27  1  0  0  0  0
  4  5  1  0  0  0  0
  4  6  1  0  0  0  0
  4 28  1  0  0  0  0
  5 29  1  0  0  0  0
  5 30  1  0  0  0  0
  5 31  1  0  0  0  0
  6  7  1  0  0  0  0
  6 32  1  0  0  0  0
  6 33  1  0  0  0  0
  7  8  1  0  0  0  0
  7 21  1  0  0  0  0
  7 47  1  0  0  0  0
  8  9  1  0  0  0  0
  8 34  1  0  0  0  0
  8 35  1  0  0  0  0
  9 10  1  0  0  0  0
  9 36  1  0  0  0  0
  9 37  1  0  0  0  0
 10 11  1  0  0  0  0
 10 38  1  0  0  0  0
 11 12  2  0  0  0  0
 11 13  1  0  0  0  0
 13 14  1  0  0  0  0
 13 39  1  0  0  0  0
 13 40  1  0  0  0  0
 14 19  1  0  0  0  0
 14 15  1  0  0  0  0
 15 16  2  0  0  0  0
 15 41  1  0  0  0  0
 16 17  1  0  0  0  0
 16 42  1  0  0  0  0
 17 18  2  0  0  0  0
 17 43  1  0  0  0  0
 18 19  1  0  0  0  0
 18 44  1  0  0  0  0
 19 20  2  0  0  0  0
 21 45  1  0  0  0  0
 21 46  1  0  0  0  0
M  CHG  1   7   1
M  END
> <s_m_source_file>
AV-unprocessed.smi

> <i_m_source_file_index>
1352

> <i_lp_mmshare_version>
43012

> <i_f3d_flags>
0

> <s_epik_input>
W0NIM11bQ0BASF0xW0NIMl1bQ0BASF0oW0NIM10pW0NIMl1OKFtDSDJdMSlbQ0gyXVtDSDJdW05IXUMoPU8pW0NIMl1uMltjSF1bY0hdW2NIXVtjSF1jMj1P

> <s_epik_cmdline>
J2VwaWtfcHl0aG9uJywgJy1waCcsICc3LjAnLCAnLXRuJywgJzgnLCAnLW1hJywgJzIwMCcsICctbWV0YWxfYmluZGluZycsICctaW1hZScsICc8aW5maWxlLm1hZT4nLCAnLW9tYWUnLCAnPG91dGZpbGUubWFlPic=

> <r_lp_tautomer_probability>
1

> <r_epik_Ionization_Penalty>
0.00156146

> <r_epik_Ionization_Penalty_Charging>
0.00156138

> <r_epik_Ionization_Penalty_Neutral>
8.12891e-08

> <r_epik_State_Penalty>
0.00104868

> <r_epik_Charging_Adjusted_Penalty>
0.00261006

> <i_epik_Tot_Q>
1

> <i_epik_Tot_abs_Q>
1

> <r_epik_Metal_State_Penalty>
-0

> <b_epik_Metal_Only>
0

> <s_lp_Force_Field>
OPLS_2005

> <r_lp_Energy>
27.9536

> <b_lp_Chiralities_Consistent>
1

> <s_lp_Variant>
AV-unprocessed.smi:1352-1

> <Gold.Version>
5.8.1

> <Gold.Id.Protein>
6NUR|6NUR_protein|mol2

> <Gold.PLP.Fitness>
45.9124

> <Gold.PLP.PLP>
-38.0855

> <Gold.PLP.part.hbond>
-2.0000

> <Gold.PLP.part.metal>
0.0000

> <Gold.PLP.part.buried>
-3.4626

> <Gold.PLP.part.nonpolar>
-33.3606

> <Gold.PLP.part.repulsive>
0.0220

> <Gold.PLP.ligand.clash>
0.0000

> <Gold.PLP.ligand.torsion>
0.6419

> <Gold.PLP.Chemscore.Hbond>
2.0000

> <Gold.PLP.Chemscore.CHOScore>
1.0106

> <Gold.PLP.Chemscore.Metal>
0.0000

> <Gold.Chemscore.Hbonds>
donor molecule, donor type, donor heavy atom, donor atom, acceptor molecule, acceptor atom, score
      L1  H     7    47       P1 10747  1.00
      L1  H    10    38       P1  7948  0.99
      L1  C    15    41       P1  7948  0.18
      L1  C    15    41       P1  7949  0.34

> <Gold.PLP.Chemscore.Internal.Correction>
0.0790

> <Gold.Rescore>
     Score         DG    S(hbond)    S(metal)    S(lipo)     H(rot)  DE(clash)    DE(int)     intcor
     18.25     -19.00       1.91        0.00     101.00       1.83       0.15       0.60       ----

> <Gold.Chemscore.Fitness>
18.2536

> <Gold.Chemscore.DG>
-18.9964

> <Gold.Chemscore.ZeroCoef>
-5.4800

> <Gold.Chemscore.Hbond>
1.9137

> <Gold.Chemscore.Metal>
0.0000

> <Gold.Chemscore.Lipo>
100.9997

> <Gold.Chemscore.Internal_Hbond>
0.0000

> <Gold.Chemscore.DEClash>
0.1471

> <Gold.Chemscore.DEInternal>
0.5958

> <Gold.Chemscore.Rot>
1.8329

> <Gold.Chemscore.Internal.Correction>
   9.000000E+99

> <Gold.Chemscore.Hbonds>
donor molecule, donor type, donor heavy atom, donor atom, acceptor molecule, acceptor atom, score
      L1  H     7    47       P1 10747  1.00
      L1  H    10    38       P1  7948  0.91

> <Gold.Chemscore.Hbond.Weighted>
-6.3916

> <Gold.Chemscore.Metal.Weighted>
-0.0000

> <Gold.Chemscore.Lipo.Weighted>
-11.8170

> <Gold.Chemscore.Internal_Hbond.Weighted>
0.0000

> <Gold.Chemscore.DEClash.Weighted>
0.1471

> <Gold.Chemscore.DEInternal.Weighted>
0.5958

> <Gold.Chemscore.Rot.Weighted>
4.6922

> <Gold.Chemscore.Internal.Correction.Weighted>
   9.000000E+99

> <Gold.Protein.RotatedTorsions>
[ 6907 6896 6895 6894 ] final  100.60 input  -60.11 | X-H torsion
[ 7974 7965 7964 7962 ] final -123.58 input  175.53 | X-H torsion
[ 8008 7997 7996 7995 ] final  102.01 input   59.86 | X-H torsion
[ 10167 10162 10161 10158 ] final  165.86 input  -65.29 | X-H torsion
[ 10718 10713 10712 10709 ] final -107.32 input   66.30 | X-H torsion
[ 10763 10752 10751 10750 ] final  117.38 input  -60.55 | X-H torsion
[ 11005 11000 10999 10996 ] final   18.85 input  -57.11 | X-H torsion

> <Gold.Protein.ActiveResidues>
 VAL166  LYS551  ARG553  GLY616  TRP617  ASP618  TYR619  PRO620  LYS621  CYS622 
 ASP623  PHE694  ASN695  SER759  ASP760  ASP761  ALA762  ILE779  LEU786  VAL792 
 PHE793  MET794  SER795  GLU796  ALA797  LYS798  CYS799  TRP800  GLU811  SER814 

> <Gold.Protein.RotatedAtoms>
  152.5368  134.0253  159.7999 H   0  0  0  0  0  0  0  0  0  0  0  0  # atno 6907 bound_to 6896
  151.0432  133.5680  159.2656 H   0  0  0  0  0  0  0  0  0  0  0  0  # atno 6908 bound_to 6896
  151.2641  135.0671  159.9163 H   0  0  0  0  0  0  0  0  0  0  0  0  # atno 6909 bound_to 6896
  145.0172  140.7956  143.4403 H   0  0  0  0  0  0  0  0  0  0  0  0  # atno 7974 bound_to 7965
  156.1353  140.3188  155.8410 H   0  0  0  0  0  0  0  0  0  0  0  0  # atno 8008 bound_to 7997
  155.4257  140.0515  157.3039 H   0  0  0  0  0  0  0  0  0  0  0  0  # atno 8009 bound_to 7997
  154.4931  140.2100  155.9517 H   0  0  0  0  0  0  0  0  0  0  0  0  # atno 8010 bound_to 7997
  139.4913  144.4088  151.9324 H   0  0  0  0  0  0  0  0  0  0  0  0  # atno 10167 bound_to 10162
  156.0431  130.5657  150.7805 H   0  0  0  0  0  0  0  0  0  0  0  0  # atno 10718 bound_to 10713
  153.5515  135.3539  155.2761 H   0  0  0  0  0  0  0  0  0  0  0  0  # atno 10763 bound_to 10752
  154.8706  135.4115  154.2932 H   0  0  0  0  0  0  0  0  0  0  0  0  # atno 10764 bound_to 10752
  153.3659  135.7062  153.6744 H   0  0  0  0  0  0  0  0  0  0  0  0  # atno 10765 bound_to 10752
  140.4202  134.1526  155.7672 H   0  0  0  0  0  0  0  0  0  0  0  0  # atno 11005 bound_to 11000
  145.1944  139.2284  143.5225 LP  0  0  0  0  0  0  0  0  0  0  0  0  # atno 17320 bound_to 7965
  146.3479  140.1748  142.8589 LP  0  0  0  0  0  0  0  0  0  0  0  0  # atno 17321 bound_to 7965
  140.3529  144.3067  150.5946 LP  0  0  0  0  0  0  0  0  0  0  0  0  # atno 17342 bound_to 10162
  140.5470  143.2213  151.7991 LP  0  0  0  0  0  0  0  0  0  0  0  0  # atno 17343 bound_to 10162
  157.5274  131.0935  151.0000 LP  0  0  0  0  0  0  0  0  0  0  0  0  # atno 17370 bound_to 10713
  157.0315  130.5713  149.5344 LP  0  0  0  0  0  0  0  0  0  0  0  0  # atno 17371 bound_to 10713
  141.1787  133.8460  157.1334 LP  0  0  0  0  0  0  0  0  0  0  0  0  # atno 17394 bound_to 11000
  140.0205  134.9948  157.0582 LP  0  0  0  0  0  0  0  0  0  0  0  0  # atno 17395 bound_to 11000

$$$$
