#       Name:                AV-unprocessed.smi:2159
#       Creating user name   scv26
#       Creation time:       Fri Mar 27 11:57:29 2020


#       File generated by GOLD software.
#

@<TRIPOS>MOLECULE
AV-unprocessed.smi:2159
    54    56     1
SMALL
NO_CHARGES


@<TRIPOS>ATOM
      1 ****        -3.3459   1.3801   0.4499 O.2            1 S1                 0.0000
      2 ****        -2.6449   0.6656   1.1666 C.2            1 S1                 0.0000
      3 ****        -1.1376   0.9096   1.2530 C.3            1 S1                 0.0000
      4 ****        -0.5011   1.0682  -0.1419 C.3            1 S1                 0.0000
      5 ****         0.9604   1.0134  -0.0721 N.am           1 S1                 0.0000
      6 ****         1.7509   2.0827   0.1399 C.2            1 S1                 0.0000
      7 ****         1.4076   3.2630   0.1980 O.2            1 S1                 0.0000
      8 ****         3.1702   1.6012   0.4019 C.3            1 S1                 0.0000
      9 ****         4.4029   2.3805  -0.0588 C.3            1 S1                 0.0000
     10 ****         5.6441   1.5744   0.4086 C.3            1 S1                 0.0000
     11 ****         5.6053   0.0668   0.0190 C.3            1 S1                 0.0000
     12 ****         4.2559  -0.6324   0.3342 C.3            1 S1                 0.0000
     13 ****         3.1550   0.2414  -0.2687 C.3            1 S1                 0.0000
     14 ****         1.6799  -0.1197  -0.1806 C.2            1 S1                 0.0000
     15 ****         1.2498  -1.2700  -0.2619 O.2            1 S1                 0.0000
     16 ****        -3.1247  -0.3665   1.8793 N.am           1 S1                 0.0000
     17 ****        -4.4987  -0.8618   1.8316 C.3            1 S1                 0.0000
     18 ****        -4.6434  -2.1148   0.9430 C.3            1 S1                 0.0000
     19 ****        -4.0997  -1.9388  -0.4659 C.ar           1 S1                 0.0000
     20 ****        -4.8990  -1.3633  -1.4760 C.ar           1 S1                 0.0000
     21 ****        -4.3334  -1.1730  -2.7516 C.ar           1 S1                 0.0000
     22 ****        -2.9979  -1.5642  -2.9676 C.ar           1 S1                 0.0000
     23 ****        -2.2844  -2.1335  -1.8942 C.ar           1 S1                 0.0000
     24 ****        -2.8170  -2.3198  -0.6676 N.ar           1 S1                 0.0000
     25 ****        -0.9543   1.7995   1.8561 H              1 S1                 0.0000
     26 ****        -0.6715   0.0739   1.7780 H              1 S1                 0.0000
     27 ****        -0.8601   0.2851  -0.8126 H              1 S1                 0.0000
     28 ****        -0.8183   2.0092  -0.5956 H              1 S1                 0.0000
     29 ****         3.2337   1.4836   1.4863 H              1 S1                 0.0000
     30 ****         4.4052   2.4990  -1.1432 H              1 S1                 0.0000
     31 ****         4.4136   3.3815   0.3738 H              1 S1                 0.0000
     32 ****         6.5519   2.0340   0.0165 H              1 S1                 0.0000
     33 ****         5.7175   1.6477   1.4944 H              1 S1                 0.0000
     34 ****         5.7992  -0.0183  -1.0511 H              1 S1                 0.0000
     35 ****         6.4203  -0.4631   0.5126 H              1 S1                 0.0000
     36 ****         4.2362  -1.6349  -0.0945 H              1 S1                 0.0000
     37 ****         4.1198  -0.7412   1.4110 H              1 S1                 0.0000
     38 ****         3.3577   0.3477  -1.3370 H              1 S1                 0.0000
     39 ****        -2.4716  -0.8950   2.4395 H              1 S1                 0.0000
     40 ****        -4.8160  -1.0957   2.8479 H              1 S1                 0.0000
     41 ****        -5.1748  -0.0819   1.4775 H              1 S1                 0.0000
     42 ****        -4.1310  -2.9548   1.4145 H              1 S1                 0.0000
     43 ****        -5.6938  -2.4021   0.8832 H              1 S1                 0.0000
     44 ****        -5.9164  -1.0608  -1.2749 H              1 S1                 0.0000
     45 ****        -4.9121  -0.7299  -3.5485 H              1 S1                 0.0000
     46 ****        -2.5309  -1.4300  -3.9318 H              1 S1                 0.0000
     47 ****        -1.2575  -2.4423  -2.0218 H              1 S1                 0.0000
     48 ****        -2.9299   2.1213  -0.0768 LP             1 S1                 0.0000
     49 ****        -4.3313   1.2192   0.3945 LP             1 S1                 0.0000
     50 ****         0.4457   3.5103   0.0814 LP             1 S1                 0.0000
     51 ****         2.0905   3.9749   0.3618 LP             1 S1                 0.0000
     52 ****         0.2639  -1.4372  -0.2507 LP             1 S1                 0.0000
     53 ****         1.8862  -2.0375  -0.3391 LP             1 S1                 0.0000
     54 ****        -2.2792  -2.7275   0.0704 LP             1 S1                 0.0000
@<TRIPOS>BOND
    1    1    2 2     
    2    2    3 1     
    3    2   16 am    
    4    3    4 1     
    5    3   25 1     
    6    3   26 1     
    7    4    5 1     
    8    4   27 1     
    9    4   28 1     
   10    5   14 am    
   11    5    6 am    
   12    6    7 2     
   13    6    8 1     
   14    8   13 1     
   15    8    9 1     
   16    8   29 1     
   17    9   10 1     
   18    9   30 1     
   19    9   31 1     
   20   10   11 1     
   21   10   32 1     
   22   10   33 1     
   23   11   12 1     
   24   11   34 1     
   25   11   35 1     
   26   12   13 1     
   27   12   36 1     
   28   12   37 1     
   29   13   14 1     
   30   13   38 1     
   31   14   15 2     
   32   16   17 1     
   33   16   39 1     
   34   17   18 1     
   35   17   40 1     
   36   17   41 1     
   37   18   19 1     
   38   18   42 1     
   39   18   43 1     
   40   19   24 ar    
   41   19   20 ar    
   42   20   21 ar    
   43   20   44 1     
   44   21   22 ar    
   45   21   45 1     
   46   22   23 ar    
   47   22   46 1     
   48   23   24 ar    
   49   23   47 1     
   50    1   48 1     
   51    1   49 1     
   52    7   50 1     
   53    7   51 1     
   54   15   52 1     
   55   15   53 1     
   56   24   54 1     
@<TRIPOS>SUBSTRUCTURE
      1 S1             1
@<TRIPOS>SET
LONE_PAIRS      STATIC     ATOMS    <user>   **** ""
7 48 49 50 51 52 53 54
DONOR_HYDROGENS      STATIC     ATOMS    <user>   **** ""
1 39
ATOM$BLUE        STATIC     ATOMS    COLORGROUP SYSTEM
7 48 49 50 51 52 53 54
ATOM$RED        STATIC     ATOMS    COLORGROUP SYSTEM
1 39
