#       Name:                AV-unprocessed.smi:3029
#       Creating user name   scv26
#       Creation time:       Fri Mar 27 16:47:24 2020


#       File generated by GOLD software.
#

@<TRIPOS>MOLECULE
AV-unprocessed.smi:3029
    46    47     1
SMALL
NO_CHARGES


@<TRIPOS>ATOM
      1 ****        -2.6988   1.3742   2.1372 O.2            1 S1                 0.0000
      2 ****        -2.8773   2.0359   1.1146 C.2            1 S1                 0.0000
      3 ****        -3.4121   3.4009   1.1554 C.2            1 S1                 0.0000
      4 ****        -3.5909   4.1255   0.0334 C.2            1 S1                 0.0000
      5 ****        -3.2518   3.5701  -1.2626 C.2            1 S1                 0.0000
      6 ****        -3.4253   4.3449  -2.4716 N.pl3          1 S1                 1.0000
      7 ****        -3.1213   3.8428  -3.5496 O.2            1 S1                 0.0000
      8 ****        -3.8727   5.4837  -2.3813 O.2            1 S1                -1.0000
      9 ****        -2.7671   2.3132  -1.2982 C.2            1 S1                 0.0000
     10 ****        -2.5892   1.5474  -0.1298 N.am           1 S1                 0.0000
     11 ****        -2.0538   0.1905  -0.2974 C.3            1 S1                 0.0000
     12 ****        -0.5281   0.1696  -0.1190 C.3            1 S1                 0.0000
     13 ****        -0.0406  -1.1921  -0.2702 N.3            1 S1                 0.0000
     14 ****         1.3960  -1.2682  -0.0325 C.3            1 S1                 0.0000
     15 ****         2.0199  -1.8447  -1.3203 C.3            1 S1                 0.0000
     16 ****         3.5294  -2.0685  -1.1729 C.3            1 S1                 0.0000
     17 ****         3.8233  -2.9831   0.0209 C.3            1 S1                 0.0000
     18 ****         3.2286  -2.4031   1.3119 C.3            1 S1                 0.0000
     19 ****         1.7042  -2.1569   1.2078 C.3            1 S1                 0.0000
     20 ****         1.1676  -1.5704   2.5391 C.3            1 S1                 0.0000
     21 ****         1.6651  -0.3511   2.7488 F              1 S1                 0.0000
     22 ****        -0.1633  -1.4983   2.5400 F              1 S1                 0.0000
     23 ****         1.5221  -2.3554   3.5569 F              1 S1                 0.0000
     24 ****        -3.6702   3.8346   2.1104 H              1 S1                 0.0000
     25 ****        -3.9891   5.1263   0.1142 H              1 S1                 0.0000
     26 ****        -2.4792   1.8114  -2.2109 H              1 S1                 0.0000
     27 ****        -2.5242  -0.4936   0.4117 H              1 S1                 0.0000
     28 ****        -2.3163  -0.1986  -1.2828 H              1 S1                 0.0000
     29 ****        -0.0508   0.8133  -0.8591 H              1 S1                 0.0000
     30 ****        -0.2594   0.5486   0.8678 H              1 S1                 0.0000
     31 ****        -0.2504  -1.5243  -1.2007 H              1 S1                 0.0000
     32 ****         1.8147  -0.2737   0.1330 H              1 S1                 0.0000
     33 ****         1.5441  -2.7938  -1.5735 H              1 S1                 0.0000
     34 ****         1.8338  -1.1732  -2.1597 H              1 S1                 0.0000
     35 ****         3.9320  -2.5070  -2.0864 H              1 S1                 0.0000
     36 ****         4.0336  -1.1107  -1.0384 H              1 S1                 0.0000
     37 ****         3.4091  -3.9753  -0.1628 H              1 S1                 0.0000
     38 ****         4.9000  -3.1128   0.1334 H              1 S1                 0.0000
     39 ****         3.4439  -3.0850   2.1349 H              1 S1                 0.0000
     40 ****         3.7353  -1.4673   1.5508 H              1 S1                 0.0000
     41 ****         1.2285  -3.1277   1.0577 H              1 S1                 0.0000
     42 ****        -2.3314   0.4463   2.0745 LP             1 S1                 0.0000
     43 ****        -2.9211   1.7647   3.0306 LP             1 S1                 0.0000
     44 ****        -2.7596   2.9111  -3.5830 LP             1 S1                 0.0000
     45 ****        -3.2353   4.3655  -4.3945 LP             1 S1                 0.0000
     46 ****        -0.4987  -1.7672   0.4075 LP             1 S1                 0.0000
@<TRIPOS>BOND
    1    1    2 2     
    2    2   10 am    
    3    2    3 1     
    4    3    4 2     
    5    3   24 1     
    6    4    5 1     
    7    4   25 1     
    8    5    6 1     
    9    5    9 2     
   10    6    7 2     
   11    6    8 1     
   12    9   10 1     
   13    9   26 1     
   14   10   11 1     
   15   11   12 1     
   16   11   27 1     
   17   11   28 1     
   18   12   13 1     
   19   12   29 1     
   20   12   30 1     
   21   13   14 1     
   22   13   31 1     
   23   14   19 1     
   24   14   15 1     
   25   14   32 1     
   26   15   16 1     
   27   15   33 1     
   28   15   34 1     
   29   16   17 1     
   30   16   35 1     
   31   16   36 1     
   32   17   18 1     
   33   17   37 1     
   34   17   38 1     
   35   18   19 1     
   36   18   39 1     
   37   18   40 1     
   38   19   20 1     
   39   19   41 1     
   40   20   21 1     
   41   20   22 1     
   42   20   23 1     
   43    1   42 1     
   44    1   43 1     
   45    7   44 1     
   46    7   45 1     
   47   13   46 1     
@<TRIPOS>SUBSTRUCTURE
      1 S1             1
@<TRIPOS>SET
LONE_PAIRS      STATIC     ATOMS    <user>   **** ""
6 42 43 44 45 8 46
DONOR_HYDROGENS      STATIC     ATOMS    <user>   **** ""
1 31
ATOM$BLUE        STATIC     ATOMS    COLORGROUP SYSTEM
6 42 43 44 45 8 46
ATOM$RED        STATIC     ATOMS    COLORGROUP SYSTEM
1 31
