AV-unprocessed.smi:1851|AV-procd|sdf|7523|dock7
  -GOLD-   22720 9233D 1   1.00000     0.00000
 Structure written by MMmdl.
 39 41  0  0  0  0  0  0  0  0  1 V2000
  156.1085  139.4098  159.4038 O   0  0  0  0  0  0  0  0  0  0  0  0
  156.3838  140.0528  160.4154 C   0  0  0  0  0  0  0  0  0  0  0  0
  155.4862  140.4629  161.3231 N   0  0  0  0  0  0  0  0  0  0  0  0
  154.0492  140.2194  161.2509 C   0  0  0  0  0  0  0  0  0  0  0  0
  153.3652  141.4537  160.7393 C   0  0  0  0  0  0  0  0  0  0  0  0
  153.2899  142.5711  161.4633 N   0  0  0  0  0  0  0  0  0  0  0  0
  152.6042  143.4306  160.6274 C   0  0  0  0  0  0  0  0  0  0  0  0
  152.2083  144.7742  160.8155 C   0  0  0  0  0  0  0  0  0  0  0  0
  151.5118  145.4618  159.7997 C   0  0  0  0  0  0  0  0  0  0  0  0
  151.2012  144.8172  158.5848 C   0  0  0  0  0  0  0  0  0  0  0  0
  151.5846  143.4780  158.3781 C   0  0  0  0  0  0  0  0  0  0  0  0
  152.2789  142.7962  159.3953 C   0  0  0  0  0  0  0  0  0  0  0  0
  152.7904  141.5079  159.5111 N   0  0  0  0  0  0  0  0  0  0  0  0
  152.7190  140.4638  158.5016 C   0  0  0  0  0  0  0  0  0  0  0  0
  151.3226  139.8335  158.4437 C   0  0  0  0  0  0  0  0  0  0  0  0
  151.0320  139.4962  157.0948 O   0  0  0  0  0  0  0  0  0  0  0  0
  149.9995  140.1582  156.4654 C   0  0  0  0  0  0  0  0  0  0  0  0
  149.9818  140.1230  155.0555 C   0  0  0  0  0  0  0  0  0  0  0  0
  148.9648  140.7732  154.3302 C   0  0  0  0  0  0  0  0  0  0  0  0
  147.9491  141.4686  155.0123 C   0  0  0  0  0  0  0  0  0  0  0  0
  146.7022  142.2670  154.1263 Cl  0  0  0  0  0  0  0  0  0  0  0  0
  147.9533  141.5110  156.4190 C   0  0  0  0  0  0  0  0  0  0  0  0
  148.9711  140.8607  157.1440 C   0  0  0  0  0  0  0  0  0  0  0  0
  157.3996  140.3684  160.6986 H   0  0  0  0  0  0  0  0  0  0  0  0
  155.8214  140.9870  162.1183 H   0  0  0  0  0  0  0  0  0  0  0  0
  153.8253  139.3730  160.5990 H   0  0  0  0  0  0  0  0  0  0  0  0
  153.6705  139.9619  162.2398 H   0  0  0  0  0  0  0  0  0  0  0  0
  152.4423  145.2771  161.7421 H   0  0  0  0  0  0  0  0  0  0  0  0
  151.2153  146.4891  159.9530 H   0  0  0  0  0  0  0  0  0  0  0  0
  150.6686  145.3511  157.8116 H   0  0  0  0  0  0  0  0  0  0  0  0
  151.3486  142.9814  157.4488 H   0  0  0  0  0  0  0  0  0  0  0  0
  152.9957  140.8752  157.5311 H   0  0  0  0  0  0  0  0  0  0  0  0
  153.4647  139.7029  158.7346 H   0  0  0  0  0  0  0  0  0  0  0  0
  151.2960  138.9404  159.0704 H   0  0  0  0  0  0  0  0  0  0  0  0
  150.5819  140.5392  158.8233 H   0  0  0  0  0  0  0  0  0  0  0  0
  150.7575  139.5922  154.5234 H   0  0  0  0  0  0  0  0  0  0  0  0
  148.9657  140.7374  153.2506 H   0  0  0  0  0  0  0  0  0  0  0  0
  147.1751  142.0433  156.9460 H   0  0  0  0  0  0  0  0  0  0  0  0
  148.9395  140.9160  158.2214 H   0  0  0  0  0  0  0  0  0  0  0  0
  1  2  2  0  0  0  0
  2  3  1  0  0  0  0
  2 24  1  0  0  0  0
  3  4  1  0  0  0  0
  3 25  1  0  0  0  0
  4  5  1  0  0  0  0
  4 26  1  0  0  0  0
  4 27  1  0  0  0  0
  5 13  1  0  0  0  0
  5  6  2  0  0  0  0
  6  7  1  0  0  0  0
  7 12  2  0  0  0  0
  7  8  1  0  0  0  0
  8  9  2  0  0  0  0
  8 28  1  0  0  0  0
  9 10  1  0  0  0  0
  9 29  1  0  0  0  0
 10 11  2  0  0  0  0
 10 30  1  0  0  0  0
 11 12  1  0  0  0  0
 11 31  1  0  0  0  0
 12 13  1  0  0  0  0
 13 14  1  0  0  0  0
 14 15  1  0  0  0  0
 14 32  1  0  0  0  0
 14 33  1  0  0  0  0
 15 16  1  0  0  0  0
 15 34  1  0  0  0  0
 15 35  1  0  0  0  0
 16 17  1  0  0  0  0
 17 23  1  0  0  0  0
 17 18  2  0  0  0  0
 18 19  1  0  0  0  0
 18 36  1  0  0  0  0
 19 20  2  0  0  0  0
 19 37  1  0  0  0  0
 20 21  1  0  0  0  0
 20 22  1  0  0  0  0
 22 23  2  0  0  0  0
 22 38  1  0  0  0  0
 23 39  1  0  0  0  0
M  END
> <s_m_source_file>
AV-unprocessed.smi

> <i_m_source_file_index>
1851

> <i_lp_mmshare_version>
43012

> <i_f3d_flags>
0

> <s_epik_input>
Tz1bQ0hdW05IXVtDSDJdYyhuMSluKGMoYzEyKVtjSF1bY0hdW2NIXVtjSF0yKVtDSDJdW0NIMl1PYzNbY0hdW2NIXWMoQ2wpW2NIXVtjSF0z

> <s_epik_cmdline>
J2VwaWtfcHl0aG9uJywgJy1waCcsICc3LjAnLCAnLXRuJywgJzgnLCAnLW1hJywgJzIwMCcsICctbWV0YWxfYmluZGluZycsICctaW1hZScsICc8aW5maWxlLm1hZT4nLCAnLW9tYWUnLCAnPG91dGZpbGUubWFlPic=

> <r_lp_tautomer_probability>
1

> <r_epik_Ionization_Penalty>
0.0670201

> <r_epik_Ionization_Penalty_Charging>
0

> <r_epik_Ionization_Penalty_Neutral>
0.0670201

> <r_epik_State_Penalty>
0.0585513

> <r_epik_Charging_Adjusted_Penalty>
0.0585513

> <i_epik_Tot_Q>
0

> <i_epik_Tot_abs_Q>
0

> <r_epik_Metal_State_Penalty>
0.0525581

> <b_epik_Metal_Only>
0

> <s_lp_Force_Field>
OPLS_2005

> <r_lp_Energy>
12.626

> <b_lp_Chiralities_Consistent>
1

> <s_lp_Variant>
AV-unprocessed.smi:1851-1

> <Gold.Version>
5.8.1

> <Gold.Id.Protein>
6NUR|6NUR_protein|mol2

> <Gold.PLP.Fitness>
52.5382

> <Gold.PLP.PLP>
-52.0479

> <Gold.PLP.part.hbond>
-2.0000

> <Gold.PLP.part.metal>
0.0000

> <Gold.PLP.part.buried>
-5.0106

> <Gold.PLP.part.nonpolar>
-44.5336

> <Gold.PLP.part.repulsive>
0.0701

> <Gold.PLP.ligand.clash>
0.0000

> <Gold.PLP.ligand.torsion>
1.3021

> <Gold.PLP.Chemscore.Hbond>
1.0000

> <Gold.PLP.Chemscore.CHOScore>
0.0000

> <Gold.PLP.Chemscore.Metal>
0.0000

> <Gold.Chemscore.Hbonds>
donor molecule, donor type, donor heavy atom, donor atom, acceptor molecule, acceptor atom, score
      P1  H  7997  8010       L1     1  0.54

> <Gold.PLP.Chemscore.Internal.Correction>
0.0944

> <Gold.Rescore>
     Score         DG    S(hbond)    S(metal)    S(lipo)     H(rot)  DE(clash)    DE(int)     intcor
     16.03     -17.20       1.00        0.00     124.60       2.42       0.24       0.92       ----

> <Gold.Chemscore.Fitness>
16.0332

> <Gold.Chemscore.DG>
-17.1960

> <Gold.Chemscore.ZeroCoef>
-5.4800

> <Gold.Chemscore.Hbond>
0.9982

> <Gold.Chemscore.Metal>
0.0000

> <Gold.Chemscore.Lipo>
124.6039

> <Gold.Chemscore.Internal_Hbond>
0.0000

> <Gold.Chemscore.DEClash>
0.2424

> <Gold.Chemscore.DEInternal>
0.9204

> <Gold.Chemscore.Rot>
2.4205

> <Gold.Chemscore.Internal.Correction>
   9.000000E+99

> <Gold.Chemscore.Hbonds>
donor molecule, donor type, donor heavy atom, donor atom, acceptor molecule, acceptor atom, score
      P1  H  7997  8010       L1     1  0.54

> <Gold.Chemscore.Hbond.Weighted>
-3.3339

> <Gold.Chemscore.Metal.Weighted>
-0.0000

> <Gold.Chemscore.Lipo.Weighted>
-14.5787

> <Gold.Chemscore.Internal_Hbond.Weighted>
0.0000

> <Gold.Chemscore.DEClash.Weighted>
0.2424

> <Gold.Chemscore.DEInternal.Weighted>
0.9204

> <Gold.Chemscore.Rot.Weighted>
6.1965

> <Gold.Chemscore.Internal.Correction.Weighted>
   9.000000E+99

> <Gold.Protein.RotatedTorsions>
[ 6907 6896 6895 6894 ] final   57.28 input  -60.11 | X-H torsion
[ 7974 7965 7964 7962 ] final  -60.82 input  175.53 | X-H torsion
[ 8008 7997 7996 7995 ] final  -28.33 input   59.86 | X-H torsion
[ 10167 10162 10161 10158 ] final -108.78 input  -65.29 | X-H torsion
[ 10718 10713 10712 10709 ] final  -10.41 input   66.30 | X-H torsion
[ 10763 10752 10751 10750 ] final   39.91 input  -60.55 | X-H torsion
[ 11005 11000 10999 10996 ] final  -49.32 input  -57.11 | X-H torsion

> <Gold.Protein.ActiveResidues>
 VAL166  LYS551  ARG553  GLY616  TRP617  ASP618  TYR619  PRO620  LYS621  CYS622 
 ASP623  PHE694  ASN695  SER759  ASP760  ASP761  ALA762  ILE779  LEU786  VAL792 
 PHE793  MET794  SER795  GLU796  ALA797  LYS798  CYS799  TRP800  GLU811  SER814 

> <Gold.Protein.RotatedAtoms>
  152.3716  134.6725  160.0173 H   0  0  0  0  0  0  0  0  0  0  0  0  # atno 6907 bound_to 6896
  151.7016  133.3306  159.3276 H   0  0  0  0  0  0  0  0  0  0  0  0  # atno 6908 bound_to 6896
  150.7678  134.6545  159.6351 H   0  0  0  0  0  0  0  0  0  0  0  0  # atno 6909 bound_to 6896
  145.8109  140.8599  143.0182 H   0  0  0  0  0  0  0  0  0  0  0  0  # atno 7974 bound_to 7965
  154.4337  140.1848  156.1072 H   0  0  0  0  0  0  0  0  0  0  0  0  # atno 8008 bound_to 7997
  156.0246  140.3337  155.7049 H   0  0  0  0  0  0  0  0  0  0  0  0  # atno 8009 bound_to 7997
  155.5927  140.0632  157.2745 H   0  0  0  0  0  0  0  0  0  0  0  0  # atno 8010 bound_to 7997
  140.1624  143.4109  152.1415 H   0  0  0  0  0  0  0  0  0  0  0  0  # atno 10167 bound_to 10162
  156.6740  130.5017  149.5991 H   0  0  0  0  0  0  0  0  0  0  0  0  # atno 10718 bound_to 10713
  152.9952  135.6207  154.2540 H   0  0  0  0  0  0  0  0  0  0  0  0  # atno 10763 bound_to 10752
  154.2278  135.2793  155.2903 H   0  0  0  0  0  0  0  0  0  0  0  0  # atno 10764 bound_to 10752
  154.5475  135.5743  153.6951 H   0  0  0  0  0  0  0  0  0  0  0  0  # atno 10765 bound_to 10752
  141.0752  133.6668  156.3568 H   0  0  0  0  0  0  0  0  0  0  0  0  # atno 11005 bound_to 11000
  144.6757  140.0395  143.7481 LP  0  0  0  0  0  0  0  0  0  0  0  0  # atno 17320 bound_to 7965
  145.9778  139.2918  143.1060 LP  0  0  0  0  0  0  0  0  0  0  0  0  # atno 17321 bound_to 7965
  139.5375  144.7224  151.4845 LP  0  0  0  0  0  0  0  0  0  0  0  0  # atno 17342 bound_to 10162
  140.6634  143.8449  150.6914 LP  0  0  0  0  0  0  0  0  0  0  0  0  # atno 17343 bound_to 10162
  156.1917  130.6564  151.1069 LP  0  0  0  0  0  0  0  0  0  0  0  0  # atno 17370 bound_to 10713
  157.7067  131.0753  150.6642 LP  0  0  0  0  0  0  0  0  0  0  0  0  # atno 17371 bound_to 10713
  140.5588  134.5954  157.5428 LP  0  0  0  0  0  0  0  0  0  0  0  0  # atno 17394 bound_to 11000
  139.9564  134.7527  156.0331 LP  0  0  0  0  0  0  0  0  0  0  0  0  # atno 17395 bound_to 11000

$$$$
