#       Name:                AV-unprocessed.smi:2639
#       Creating user name   scv26
#       Creation time:       Fri Mar 27 14:27:51 2020


#       File generated by GOLD software.
#

@<TRIPOS>MOLECULE
AV-unprocessed.smi:2639
    48    49     1
SMALL
NO_CHARGES


@<TRIPOS>ATOM
      1 ****         0.1065  -0.1546   2.7515 C.3            1 S1                 0.0000
      2 ****         0.6300   0.5100   1.4525 C.3            1 S1                 0.0000
      3 ****         2.1863   0.5415   1.5056 C.3            1 S1                 0.0000
      4 ****         2.6731   1.4384   2.4836 O.3            1 S1                 0.0000
      5 ****         0.1983  -0.2742   0.2842 N.am           1 S1                 0.0000
      6 ****         0.4578  -1.5584  -0.0144 C.2            1 S1                 0.0000
      7 ****         1.1260  -2.3106   0.6937 O.2            1 S1                 0.0000
      8 ****        -0.1249  -1.9080  -1.1742 N.am           1 S1                 0.0000
      9 ****        -0.0744  -3.1582  -1.8489 C.ar           1 S1                 0.0000
     10 ****        -1.1021  -3.4434  -2.7754 C.ar           1 S1                 0.0000
     11 ****        -1.0849  -4.6647  -3.4794 C.ar           1 S1                 0.0000
     12 ****        -0.0836  -5.5465  -3.2720 N.pl3          1 S1                 1.0000
     13 ****         0.9284  -5.3119  -2.4093 C.ar           1 S1                 0.0000
     14 ****         0.9646  -4.1081  -1.6764 C.ar           1 S1                 0.0000
     15 ****         0.0272   1.9517   1.2963 C.3            1 S1                 0.0000
     16 ****        -1.5255   1.9755   1.2608 C.3            1 S1                 0.0000
     17 ****        -2.0852   3.4037   1.1628 C.3            1 S1                 0.0000
     18 ****        -1.5262   4.1403  -0.0605 C.3            1 S1                 0.0000
     19 ****         0.0068   4.1467  -0.0329 C.3            1 S1                 0.0000
     20 ****         0.5710   2.7201   0.0613 C.3            1 S1                 0.0000
     21 ****         0.2369   0.5031   3.6115 H              1 S1                 0.0000
     22 ****         0.6374  -1.0792   2.9787 H              1 S1                 0.0000
     23 ****        -0.9511  -0.4095   2.6875 H              1 S1                 0.0000
     24 ****         2.5928  -0.4425   1.7388 H              1 S1                 0.0000
     25 ****         2.6106   0.8179   0.5404 H              1 S1                 0.0000
     26 ****         3.6175   1.4042   2.4787 H              1 S1                 0.0000
     27 ****        -0.3711   0.2338  -0.3766 H              1 S1                 0.0000
     28 ****        -0.7179  -1.2100  -1.5985 H              1 S1                 0.0000
     29 ****        -1.9021  -2.7367  -2.9435 H              1 S1                 0.0000
     30 ****        -1.8356  -4.9593  -4.1985 H              1 S1                 0.0000
     31 ****         1.6786  -6.0858  -2.3354 H              1 S1                 0.0000
     32 ****         1.7937  -3.9328  -1.0080 H              1 S1                 0.0000
     33 ****         0.3197   2.5245   2.1776 H              1 S1                 0.0000
     34 ****        -1.8953   1.3918   0.4173 H              1 S1                 0.0000
     35 ****        -1.9401   1.5170   2.1572 H              1 S1                 0.0000
     36 ****        -3.1739   3.3722   1.1103 H              1 S1                 0.0000
     37 ****        -1.8357   3.9570   2.0693 H              1 S1                 0.0000
     38 ****        -1.8764   3.6575  -0.9737 H              1 S1                 0.0000
     39 ****        -1.9033   5.1632  -0.0848 H              1 S1                 0.0000
     40 ****         0.3914   4.6394  -0.9263 H              1 S1                 0.0000
     41 ****         0.3554   4.7338   0.8178 H              1 S1                 0.0000
     42 ****         1.6568   2.7951   0.0987 H              1 S1                 0.0000
     43 ****         0.3316   2.1806  -0.8558 H              1 S1                 0.0000
     44 ****        -0.0891  -6.4243  -3.7924 H              1 S1                 0.0000
     45 ****         2.3307   1.1730   3.3848 LP             1 S1                 0.0000
     46 ****         2.3682   2.3668   2.2713 LP             1 S1                 0.0000
     47 ****         1.5145  -1.9754   1.5521 LP             1 S1                 0.0000
     48 ****         1.2807  -3.2572   0.4110 LP             1 S1                 0.0000
@<TRIPOS>BOND
    1    1    2 1     
    2    1   21 1     
    3    1   22 1     
    4    1   23 1     
    5    2    3 1     
    6    2    5 1     
    7    2   15 1     
    8    3    4 1     
    9    3   24 1     
   10    3   25 1     
   11    4   26 1     
   12    5    6 am    
   13    5   27 1     
   14    6    7 2     
   15    6    8 am    
   16    8    9 1     
   17    8   28 1     
   18    9   14 ar    
   19    9   10 ar    
   20   10   11 ar    
   21   10   29 1     
   22   11   12 ar    
   23   11   30 1     
   24   12   13 ar    
   25   12   44 1     
   26   13   14 ar    
   27   13   31 1     
   28   14   32 1     
   29   15   20 1     
   30   15   16 1     
   31   15   33 1     
   32   16   17 1     
   33   16   34 1     
   34   16   35 1     
   35   17   18 1     
   36   17   36 1     
   37   17   37 1     
   38   18   19 1     
   39   18   38 1     
   40   18   39 1     
   41   19   20 1     
   42   19   40 1     
   43   19   41 1     
   44   20   42 1     
   45   20   43 1     
   46    4   45 1     
   47    4   46 1     
   48    7   47 1     
   49    7   48 1     
@<TRIPOS>SUBSTRUCTURE
      1 S1             1
@<TRIPOS>SET
LONE_PAIRS      STATIC     ATOMS    <user>   **** ""
4 45 46 47 48
DONOR_HYDROGENS      STATIC     ATOMS    <user>   **** ""
4 26 27 28 44
ATOM$BLUE        STATIC     ATOMS    COLORGROUP SYSTEM
4 45 46 47 48
ATOM$RED        STATIC     ATOMS    COLORGROUP SYSTEM
4 26 27 28 44
