AV-unprocessed.smi:1749|AV-procd|sdf|7051|dock6
  -GOLD-   22720 8263D 1   1.00000     0.00000
 Structure written by MMmdl.
 31 32  0  0  0  0  0  0  0  0  2 V2000
  152.9085  142.6897  162.6524 C   0  0  0  0  0  0  0  0  0  0  0  0
  152.4100  142.9478  161.2236 C   0  0  1  0  0  0  0  0  0  0  0  0
  151.9410  144.4045  161.0449 C   0  0  0  0  0  0  0  0  0  0  0  0
  151.4462  144.6678  159.6138 C   0  0  0  0  0  0  0  0  0  0  0  0
  152.5244  144.3139  158.5756 C   0  0  0  0  0  0  0  0  0  0  0  0
  153.0240  142.8624  158.7330 C   0  0  2  0  0  0  0  0  0  0  0  0
  151.9853  141.9041  158.3615 N   0  0  0  0  0  0  0  0  0  0  0  0
  152.1216  140.5701  158.2333 C   0  0  0  0  0  0  0  0  0  0  0  0
  153.2174  140.0576  158.4578 O   0  0  0  0  0  0  0  0  0  0  0  0
  151.0270  139.8577  157.8564 N   0  5  0  0  0  0  0  0  0  0  0  0
  150.5720  139.8493  156.5895 C   0  0  0  0  0  0  0  0  0  0  0  0
  151.0796  140.6479  155.6369 N   0  0  0  0  0  0  0  0  0  0  0  0
  150.4585  140.4914  154.4053 N   0  0  0  0  0  0  0  0  0  0  0  0
  149.5014  139.5658  154.4579 C   0  0  0  0  0  0  0  0  0  0  0  0
  149.2707  138.8026  156.0166 S   0  0  0  0  0  0  0  0  0  0  0  0
  153.4900  142.5959  160.1781 C   0  0  0  0  0  0  0  0  0  0  0  0
  153.7720  143.3118  162.8896 H   0  0  0  0  0  0  0  0  0  0  0  0
  153.2020  141.6478  162.7830 H   0  0  0  0  0  0  0  0  0  0  0  0
  152.1301  142.9066  163.3845 H   0  0  0  0  0  0  0  0  0  0  0  0
  151.5503  142.2963  161.0585 H   0  0  0  0  0  0  0  0  0  0  0  0
  151.1427  144.6294  161.7529 H   0  0  0  0  0  0  0  0  0  0  0  0
  152.7600  145.0868  161.2764 H   0  0  0  0  0  0  0  0  0  0  0  0
  150.5453  144.0827  159.4239 H   0  0  0  0  0  0  0  0  0  0  0  0
  151.1598  145.7143  159.5072 H   0  0  0  0  0  0  0  0  0  0  0  0
  152.1406  144.4786  157.5682 H   0  0  0  0  0  0  0  0  0  0  0  0
  153.3675  144.9956  158.6922 H   0  0  0  0  0  0  0  0  0  0  0  0
  153.8806  142.7128  158.0735 H   0  0  0  0  0  0  0  0  0  0  0  0
  151.0737  142.2903  158.1650 H   0  0  0  0  0  0  0  0  0  0  0  0
  148.9286  139.3302  153.5735 H   0  0  0  0  0  0  0  0  0  0  0  0
  154.3864  143.1856  160.3750 H   0  0  0  0  0  0  0  0  0  0  0  0
  153.7866  141.5514  160.2835 H   0  0  0  0  0  0  0  0  0  0  0  0
  1  2  1  0  0  0  0
  1 17  1  0  0  0  0
  1 18  1  0  0  0  0
  1 19  1  0  0  0  0
  2 16  1  0  0  0  0
  2  3  1  0  0  0  0
  2 20  1  0  0  0  0
  3  4  1  0  0  0  0
  3 21  1  0  0  0  0
  3 22  1  0  0  0  0
  4  5  1  0  0  0  0
  4 23  1  0  0  0  0
  4 24  1  0  0  0  0
  5  6  1  0  0  0  0
  5 25  1  0  0  0  0
  5 26  1  0  0  0  0
  6  7  1  0  0  0  0
  6 16  1  0  0  0  0
  6 27  1  0  0  0  0
  7  8  1  0  0  0  0
  7 28  1  0  0  0  0
  8  9  2  0  0  0  0
  8 10  1  0  0  0  0
 10 11  1  0  0  0  0
 11 15  1  0  0  0  0
 11 12  2  0  0  0  0
 12 13  1  0  0  0  0
 13 14  2  0  0  0  0
 14 15  1  0  0  0  0
 14 29  1  0  0  0  0
 16 30  1  0  0  0  0
 16 31  1  0  0  0  0
M  CHG  1  10  -1
M  END
> <s_m_source_file>
AV-unprocessed.smi

> <i_m_source_file_index>
1749

> <i_lp_mmshare_version>
43012

> <i_f3d_flags>
0

> <s_epik_input>
W0NIM11bQ0BASF0xW0NIMl1bQ0gyXVtDSDJdW0NASF0oW0NIMl0xKVtOSF1DKD1PKVtOSF1jMm5uW2NIXXMy

> <s_epik_cmdline>
J2VwaWtfcHl0aG9uJywgJy1waCcsICc3LjAnLCAnLXRuJywgJzgnLCAnLW1hJywgJzIwMCcsICctbWV0YWxfYmluZGluZycsICctaW1hZScsICc8aW5maWxlLm1hZT4nLCAnLW9tYWUnLCAnPG91dGZpbGUubWFlPic=

> <r_lp_tautomer_probability>
1

> <r_epik_Ionization_Penalty>
4.55442

> <r_epik_Ionization_Penalty_Charging>
4.5081

> <r_epik_Ionization_Penalty_Neutral>
0.0463156

> <r_epik_State_Penalty>
4.50781

> <r_epik_Charging_Adjusted_Penalty>
9.01591

> <i_epik_Tot_Q>
-1

> <i_epik_Tot_abs_Q>
1

> <r_epik_Metal_State_Penalty>
0.823335

> <b_epik_Metal_Only>
1

> <s_lp_Force_Field>
OPLS_2005

> <r_lp_Energy>
7.79441

> <b_lp_Chiralities_Consistent>
1

> <s_lp_Variant>
AV-unprocessed.smi:1749-8

> <Gold.Version>
5.8.1

> <Gold.Id.Protein>
6NUR|6NUR_protein|mol2

> <Gold.PLP.Fitness>
42.3045

> <Gold.PLP.PLP>
-35.6874

> <Gold.PLP.part.hbond>
-2.5938

> <Gold.PLP.part.metal>
0.0000

> <Gold.PLP.part.buried>
-4.6657

> <Gold.PLP.part.nonpolar>
-28.9132

> <Gold.PLP.part.repulsive>
0.2257

> <Gold.PLP.ligand.clash>
0.0000

> <Gold.PLP.ligand.torsion>
0.7601

> <Gold.PLP.Chemscore.Hbond>
1.9833

> <Gold.PLP.Chemscore.CHOScore>
0.7253

> <Gold.PLP.Chemscore.Metal>
0.0000

> <Gold.Chemscore.Hbonds>
donor molecule, donor type, donor heavy atom, donor atom, acceptor molecule, acceptor atom, score
      P1  H  7989  7998       L1    13  0.98
      P1  H  7997  8010       L1     9  1.00
      L1  C    14    29       P1  7957  0.73

> <Gold.PLP.Chemscore.Internal.Correction>
0.0112

> <Gold.Rescore>
     Score         DG    S(hbond)    S(metal)    S(lipo)     H(rot)  DE(clash)    DE(int)     intcor
     18.84     -19.63       1.73        0.00      93.59       1.00       0.00       0.79       ----

> <Gold.Chemscore.Fitness>
18.8429

> <Gold.Chemscore.DG>
-19.6331

> <Gold.Chemscore.ZeroCoef>
-5.4800

> <Gold.Chemscore.Hbond>
1.7255

> <Gold.Chemscore.Metal>
0.0000

> <Gold.Chemscore.Lipo>
93.5891

> <Gold.Chemscore.Internal_Hbond>
0.0000

> <Gold.Chemscore.DEClash>
0.0015

> <Gold.Chemscore.DEInternal>
0.7888

> <Gold.Chemscore.Rot>
1.0000

> <Gold.Chemscore.Internal.Correction>
   9.000000E+99

> <Gold.Chemscore.Hbonds>
donor molecule, donor type, donor heavy atom, donor atom, acceptor molecule, acceptor atom, score
      P1  H  7989  7998       L1    13  0.22
      P1  H  7997  8010       L1     9  0.91

> <Gold.Chemscore.Hbond.Weighted>
-5.7632

> <Gold.Chemscore.Metal.Weighted>
-0.0000

> <Gold.Chemscore.Lipo.Weighted>
-10.9499

> <Gold.Chemscore.Internal_Hbond.Weighted>
0.0000

> <Gold.Chemscore.DEClash.Weighted>
0.0015

> <Gold.Chemscore.DEInternal.Weighted>
0.7888

> <Gold.Chemscore.Rot.Weighted>
2.5600

> <Gold.Chemscore.Internal.Correction.Weighted>
   9.000000E+99

> <Gold.Protein.RotatedTorsions>
[ 6907 6896 6895 6894 ] final  -96.35 input  -60.11 | X-H torsion
[ 7974 7965 7964 7962 ] final   96.63 input  175.53 | X-H torsion
[ 8008 7997 7996 7995 ] final   25.09 input   59.86 | X-H torsion
[ 10167 10162 10161 10158 ] final  -36.29 input  -65.29 | X-H torsion
[ 10718 10713 10712 10709 ] final  -49.46 input   66.30 | X-H torsion
[ 10763 10752 10751 10750 ] final   96.49 input  -60.55 | X-H torsion
[ 11005 11000 10999 10996 ] final   -8.62 input  -57.11 | X-H torsion

> <Gold.Protein.ActiveResidues>
 VAL166  LYS551  ARG553  GLY616  TRP617  ASP618  TYR619  PRO620  LYS621  CYS622 
 ASP623  PHE694  ASN695  SER759  ASP760  ASP761  ALA762  ILE779  LEU786  VAL792 
 PHE793  MET794  SER795  GLU796  ALA797  LYS798  CYS799  TRP800  GLU811  SER814 

> <Gold.Protein.RotatedAtoms>
  150.6986  134.1517  159.4142 H   0  0  0  0  0  0  0  0  0  0  0  0  # atno 6907 bound_to 6896
  151.9499  135.0171  160.0550 H   0  0  0  0  0  0  0  0  0  0  0  0  # atno 6908 bound_to 6896
  152.2020  133.4812  159.5100 H   0  0  0  0  0  0  0  0  0  0  0  0  # atno 6909 bound_to 6896
  145.4362  139.2305  143.3117 H   0  0  0  0  0  0  0  0  0  0  0  0  # atno 7974 bound_to 7965
  155.0064  140.3131  155.4847 H   0  0  0  0  0  0  0  0  0  0  0  0  # atno 8008 bound_to 7997
  156.2916  140.2222  156.5117 H   0  0  0  0  0  0  0  0  0  0  0  0  # atno 8009 bound_to 7997
  154.7573  140.0461  157.0932 H   0  0  0  0  0  0  0  0  0  0  0  0  # atno 8010 bound_to 7997
  140.7146  143.3419  151.2339 H   0  0  0  0  0  0  0  0  0  0  0  0  # atno 10167 bound_to 10162
  156.1891  130.4152  149.9396 H   0  0  0  0  0  0  0  0  0  0  0  0  # atno 10718 bound_to 10713
  153.2655  135.4217  155.0937 H   0  0  0  0  0  0  0  0  0  0  0  0  # atno 10763 bound_to 10752
  154.8436  135.3459  154.6317 H   0  0  0  0  0  0  0  0  0  0  0  0  # atno 10764 bound_to 10752
  153.6737  135.7042  153.5196 H   0  0  0  0  0  0  0  0  0  0  0  0  # atno 10765 bound_to 10752
  140.7254  133.8793  155.8852 H   0  0  0  0  0  0  0  0  0  0  0  0  # atno 11005 bound_to 11000
  146.2580  140.5105  142.8865 LP  0  0  0  0  0  0  0  0  0  0  0  0  # atno 17320 bound_to 7965
  144.8150  140.6453  143.6390 LP  0  0  0  0  0  0  0  0  0  0  0  0  # atno 17321 bound_to 7965
  139.6928  143.9663  152.2868 LP  0  0  0  0  0  0  0  0  0  0  0  0  # atno 17342 bound_to 10162
  139.9330  144.6729  150.8343 LP  0  0  0  0  0  0  0  0  0  0  0  0  # atno 17343 bound_to 10162
  156.7142  130.8982  151.3612 LP  0  0  0  0  0  0  0  0  0  0  0  0  # atno 17370 bound_to 10713
  157.6918  130.9241  150.0534 LP  0  0  0  0  0  0  0  0  0  0  0  0  # atno 17371 bound_to 10713
  140.9967  134.1206  157.4357 LP  0  0  0  0  0  0  0  0  0  0  0  0  # atno 17394 bound_to 11000
  139.8838  135.0056  156.6327 LP  0  0  0  0  0  0  0  0  0  0  0  0  # atno 17395 bound_to 11000

$$$$
