AV-unprocessed.smi:1030|AV-procd|sdf|4479|dock5
  -GOLD-   22720 2453D 1   1.00000     0.00000
 Structure written by MMmdl.
 28 29  0  0  0  0  0  0  0  0  2 V2000
  153.5564  138.6385  160.3895 N   0  5  0  0  0  0  0  0  0  0  0  0
  152.9804  138.8546  158.8971 S   0  0  0  0  0  0  0  0  0  0  0  0
  154.0109  138.6517  157.8667 O   0  0  0  0  0  0  0  0  0  0  0  0
  151.6715  138.2156  158.6878 O   0  0  0  0  0  0  0  0  0  0  0  0
  152.6895  140.6325  159.0020 C   0  0  0  0  0  0  0  0  0  0  0  0
  153.2676  141.3541  160.0680 C   0  0  0  0  0  0  0  0  0  0  0  0
  153.0452  142.7414  160.1516 C   0  0  0  0  0  0  0  0  0  0  0  0
  152.2532  143.3516  159.1614 C   0  0  0  0  0  0  0  0  0  0  0  0
  151.6935  142.6737  158.1377 N   0  0  0  0  0  0  0  0  0  0  0  0
  151.9008  141.3357  158.0526 C   0  0  0  0  0  0  0  0  0  0  0  0
  151.2890  140.6653  156.9823 N   0  0  0  0  0  0  0  0  0  0  0  0
  150.3224  141.4693  156.2472 C   0  0  0  0  0  0  0  0  0  0  0  0
  149.5803  140.5861  155.2298 C   0  0  0  0  0  0  0  0  0  0  0  0
  150.5240  139.9468  154.3734 O   0  0  0  0  0  0  0  0  0  0  0  0
  151.4217  139.1081  155.0969 C   0  0  0  0  0  0  0  0  0  0  0  0
  152.2126  139.9506  156.1125 C   0  0  0  0  0  0  0  0  0  0  0  0
  152.9669  139.1788  161.0333 H   0  0  0  0  0  0  0  0  0  0  0  0
  153.8711  140.8626  160.8161 H   0  0  0  0  0  0  0  0  0  0  0  0
  153.4720  143.3225  160.9554 H   0  0  0  0  0  0  0  0  0  0  0  0
  152.0615  144.4138  159.1930 H   0  0  0  0  0  0  0  0  0  0  0  0
  149.6126  141.9217  156.9409 H   0  0  0  0  0  0  0  0  0  0  0  0
  150.8352  142.2821  155.7310 H   0  0  0  0  0  0  0  0  0  0  0  0
  148.9690  139.8382  155.7381 H   0  0  0  0  0  0  0  0  0  0  0  0
  148.9054  141.1933  154.6265 H   0  0  0  0  0  0  0  0  0  0  0  0
  150.8677  138.3137  155.6000 H   0  0  0  0  0  0  0  0  0  0  0  0
  152.1031  138.6265  154.3957 H   0  0  0  0  0  0  0  0  0  0  0  0
  152.8520  140.6624  155.5885 H   0  0  0  0  0  0  0  0  0  0  0  0
  152.8611  139.3083  156.7097 H   0  0  0  0  0  0  0  0  0  0  0  0
  1  2  1  0  0  0  0
  1 17  1  0  0  0  0
  2  3  2  0  0  0  0
  2  4  2  0  0  0  0
  2  5  1  0  0  0  0
  5 10  1  0  0  0  0
  5  6  2  0  0  0  0
  6  7  1  0  0  0  0
  6 18  1  0  0  0  0
  7  8  2  0  0  0  0
  7 19  1  0  0  0  0
  8  9  1  0  0  0  0
  8 20  1  0  0  0  0
  9 10  2  0  0  0  0
 10 11  1  0  0  0  0
 11 16  1  0  0  0  0
 11 12  1  0  0  0  0
 12 13  1  0  0  0  0
 12 21  1  0  0  0  0
 12 22  1  0  0  0  0
 13 14  1  0  0  0  0
 13 23  1  0  0  0  0
 13 24  1  0  0  0  0
 14 15  1  0  0  0  0
 15 16  1  0  0  0  0
 15 25  1  0  0  0  0
 15 26  1  0  0  0  0
 16 27  1  0  0  0  0
 16 28  1  0  0  0  0
M  CHG  1   1  -1
M  END
> <s_m_source_file>
AV-unprocessed.smi

> <i_m_source_file_index>
1030

> <i_lp_mmshare_version>
43012

> <i_f3d_flags>
0

> <s_epik_input>
W05IMl1TKD1PKSg9TyljMVtjSF1bY0hdW2NIXW5jMU4yW0NIMl1bQ0gyXU9bQ0gyXVtDSDJdMg==

> <s_epik_cmdline>
J2VwaWtfcHl0aG9uJywgJy1waCcsICc3LjAnLCAnLXRuJywgJzgnLCAnLW1hJywgJzIwMCcsICctbWV0YWxfYmluZGluZycsICctaW1hZScsICc8aW5maWxlLm1hZT4nLCAnLW9tYWUnLCAnPG91dGZpbGUubWFlPic=

> <r_lp_tautomer_probability>
1

> <r_epik_Ionization_Penalty>
3.31232

> <r_epik_Ionization_Penalty_Charging>
3.30848

> <r_epik_Ionization_Penalty_Neutral>
0.00383963

> <r_epik_State_Penalty>
3.30625

> <r_epik_Charging_Adjusted_Penalty>
6.61473

> <i_epik_Tot_Q>
-1

> <i_epik_Tot_abs_Q>
1

> <r_epik_Metal_State_Penalty>
0.483198

> <b_epik_Metal_Only>
1

> <s_lp_Force_Field>
OPLS_2005

> <r_lp_Energy>
26.4459

> <b_lp_Chiralities_Consistent>
1

> <s_lp_Variant>
AV-unprocessed.smi:1030-2

> <Gold.Version>
5.8.1

> <Gold.Id.Protein>
6NUR|6NUR_protein|mol2

> <Gold.PLP.Fitness>
35.2053

> <Gold.PLP.PLP>
-29.5436

> <Gold.PLP.part.hbond>
-2.0000

> <Gold.PLP.part.metal>
0.0000

> <Gold.PLP.part.buried>
-4.1952

> <Gold.PLP.part.nonpolar>
-24.0141

> <Gold.PLP.part.repulsive>
0.1537

> <Gold.PLP.ligand.clash>
0.0070

> <Gold.PLP.ligand.torsion>
1.2934

> <Gold.PLP.Chemscore.Hbond>
2.0000

> <Gold.PLP.Chemscore.CHOScore>
0.0000

> <Gold.PLP.Chemscore.Metal>
0.0000

> <Gold.Chemscore.Hbonds>
donor molecule, donor type, donor heavy atom, donor atom, acceptor molecule, acceptor atom, score
      P1  H  7989  7998       L1    14  1.00
      P1  H  7997  8010       L1     3  1.00

> <Gold.PLP.Chemscore.Internal.Correction>
2.2556

> <Gold.Rescore>
     Score         DG    S(hbond)    S(metal)    S(lipo)     H(rot)  DE(clash)    DE(int)     intcor
     13.15     -17.07       1.80        0.00      69.53       1.00       1.10       2.82       ----

> <Gold.Chemscore.Fitness>
13.1471

> <Gold.Chemscore.DG>
-17.0662

> <Gold.Chemscore.ZeroCoef>
-5.4800

> <Gold.Chemscore.Hbond>
1.7997

> <Gold.Chemscore.Metal>
0.0000

> <Gold.Chemscore.Lipo>
69.5309

> <Gold.Chemscore.Internal_Hbond>
0.0000

> <Gold.Chemscore.DEClash>
1.0975

> <Gold.Chemscore.DEInternal>
2.8216

> <Gold.Chemscore.Rot>
1.0000

> <Gold.Chemscore.Internal.Correction>
   9.000000E+99

> <Gold.Chemscore.Hbonds>
donor molecule, donor type, donor heavy atom, donor atom, acceptor molecule, acceptor atom, score
      P1  H  7989  7998       L1    14  0.25
      P1  H  7997  8010       L1     3  0.93

> <Gold.Chemscore.Hbond.Weighted>
-6.0111

> <Gold.Chemscore.Metal.Weighted>
-0.0000

> <Gold.Chemscore.Lipo.Weighted>
-8.1351

> <Gold.Chemscore.Internal_Hbond.Weighted>
0.0000

> <Gold.Chemscore.DEClash.Weighted>
1.0975

> <Gold.Chemscore.DEInternal.Weighted>
2.8216

> <Gold.Chemscore.Rot.Weighted>
2.5600

> <Gold.Chemscore.Internal.Correction.Weighted>
   9.000000E+99

> <Gold.Protein.RotatedTorsions>
[ 6907 6896 6895 6894 ] final  163.25 input  -60.11 | X-H torsion
[ 7974 7965 7964 7962 ] final -158.33 input  175.53 | X-H torsion
[ 8008 7997 7996 7995 ] final   12.59 input   59.86 | X-H torsion
[ 10167 10162 10161 10158 ] final   14.35 input  -65.29 | X-H torsion
[ 10718 10713 10712 10709 ] final  -98.63 input   66.30 | X-H torsion
[ 10763 10752 10751 10750 ] final  135.56 input  -60.55 | X-H torsion
[ 11005 11000 10999 10996 ] final  145.84 input  -57.11 | X-H torsion

> <Gold.Protein.ActiveResidues>
 VAL166  LYS551  ARG553  GLY616  TRP617  ASP618  TYR619  PRO620  LYS621  CYS622 
 ASP623  PHE694  ASN695  SER759  ASP760  ASP761  ALA762  ILE779  LEU786  VAL792 
 PHE793  MET794  SER795  GLU796  ALA797  LYS798  CYS799  TRP800  GLU811  SER814 

> <Gold.Protein.RotatedAtoms>
  151.9280  133.3603  159.3920 H   0  0  0  0  0  0  0  0  0  0  0  0  # atno 6907 bound_to 6896
  150.7023  134.4566  159.5370 H   0  0  0  0  0  0  0  0  0  0  0  0  # atno 6908 bound_to 6896
  152.2202  134.8420  160.0537 H   0  0  0  0  0  0  0  0  0  0  0  0  # atno 6909 bound_to 6896
  144.7510  140.3842  143.6048 H   0  0  0  0  0  0  0  0  0  0  0  0  # atno 7974 bound_to 7965
  154.8227  140.2886  155.5775 H   0  0  0  0  0  0  0  0  0  0  0  0  # atno 8008 bound_to 7997
  156.2999  140.2547  156.3068 H   0  0  0  0  0  0  0  0  0  0  0  0  # atno 8009 bound_to 7997
  154.9320  140.0383  157.2042 H   0  0  0  0  0  0  0  0  0  0  0  0  # atno 8010 bound_to 7997
  140.5941  143.8736  150.6901 H   0  0  0  0  0  0  0  0  0  0  0  0  # atno 10167 bound_to 10162
  156.0112  130.5247  150.6552 H   0  0  0  0  0  0  0  0  0  0  0  0  # atno 10718 bound_to 10713
  153.8420  135.3090  155.3427 H   0  0  0  0  0  0  0  0  0  0  0  0  # atno 10763 bound_to 10752
  154.7929  135.4772  154.0096 H   0  0  0  0  0  0  0  0  0  0  0  0  # atno 10764 bound_to 10752
  153.1570  135.6854  153.8890 H   0  0  0  0  0  0  0  0  0  0  0  0  # atno 10765 bound_to 10752
  140.0744  134.9133  157.1399 H   0  0  0  0  0  0  0  0  0  0  0  0  # atno 11005 bound_to 11000
  145.6945  139.1646  143.2628 LP  0  0  0  0  0  0  0  0  0  0  0  0  # atno 17320 bound_to 7965
  146.1460  140.6992  142.9345 LP  0  0  0  0  0  0  0  0  0  0  0  0  # atno 17321 bound_to 7965
  140.2266  143.3767  152.1599 LP  0  0  0  0  0  0  0  0  0  0  0  0  # atno 17342 bound_to 10162
  139.5247  144.7086  151.5276 LP  0  0  0  0  0  0  0  0  0  0  0  0  # atno 17343 bound_to 10162
  157.4305  131.0848  151.1043 LP  0  0  0  0  0  0  0  0  0  0  0  0  # atno 17370 bound_to 10713
  157.1617  130.6228  149.5613 LP  0  0  0  0  0  0  0  0  0  0  0  0  # atno 17371 bound_to 10713
  140.3579  134.2526  155.7190 LP  0  0  0  0  0  0  0  0  0  0  0  0  # atno 17394 bound_to 11000
  141.2024  133.7938  157.0392 LP  0  0  0  0  0  0  0  0  0  0  0  0  # atno 17395 bound_to 11000

$$$$
