AV-unprocessed.smi:3214|AV-procd|sdf|12284|dock7
  -GOLD-   2272018123D 1   1.00000     0.00000
 Structure written by MMmdl.
 37 37  0  0  0  0  0  0  0  0  2 V2000
  151.1412  138.1107  154.0898 C   0  0  0  0  0  0  0  0  0  0  0  0
  149.9444  137.9827  155.0374 C   0  0  0  0  0  0  0  0  0  0  0  0
  148.8420  137.2933  154.3813 N   0  0  0  0  0  0  0  0  0  0  0  0
  147.6702  137.0099  154.9679 C   0  0  0  0  0  0  0  0  0  0  0  0
  147.4122  137.3064  156.1346 O   0  0  0  0  0  0  0  0  0  0  0  0
  146.6383  136.2747  154.1069 C   0  0  0  0  0  0  0  0  0  0  0  0
  146.9246  134.7682  153.9908 C   0  0  0  0  0  0  0  0  0  0  0  0
  147.2837  134.4038  152.6037 N   0  3  0  0  0  0  0  0  0  0  0  0
  147.7388  133.0073  152.4073 C   0  0  1  0  0  0  0  0  0  0  0  0
  148.7232  132.6397  153.5259 C   0  0  0  0  0  0  0  0  0  0  0  0
  146.5524  132.0159  152.3896 C   0  0  0  0  0  0  0  0  0  0  0  0
  145.6453  132.2110  151.2731 N   0  0  0  0  0  0  0  0  0  0  0  0
  145.9054  132.0864  149.9242 C   0  0  0  0  0  0  0  0  0  0  0  0
  144.7485  132.3755  149.2591 C   0  0  0  0  0  0  0  0  0  0  0  0
  143.8273  132.6821  150.2995 C   0  0  0  0  0  0  0  0  0  0  0  0
  144.3687  132.5876  151.5033 N   0  0  0  0  0  0  0  0  0  0  0  0
  151.9687  138.6247  154.5792 H   0  0  0  0  0  0  0  0  0  0  0  0
  150.8794  138.6796  153.1970 H   0  0  0  0  0  0  0  0  0  0  0  0
  151.5004  137.1315  153.7718 H   0  0  0  0  0  0  0  0  0  0  0  0
  150.2368  137.4328  155.9332 H   0  0  0  0  0  0  0  0  0  0  0  0
  149.6178  138.9732  155.3580 H   0  0  0  0  0  0  0  0  0  0  0  0
  148.9813  137.0144  153.4208 H   0  0  0  0  0  0  0  0  0  0  0  0
  145.6420  136.4284  154.5249 H   0  0  0  0  0  0  0  0  0  0  0  0
  146.6376  136.7307  153.1159 H   0  0  0  0  0  0  0  0  0  0  0  0
  147.7341  134.4920  154.6646 H   0  0  0  0  0  0  0  0  0  0  0  0
  146.0456  134.1966  154.2933 H   0  0  0  0  0  0  0  0  0  0  0  0
  146.4528  134.5316  152.0441 H   0  0  0  0  0  0  0  0  0  0  0  0
  148.2886  132.9396  151.4671 H   0  0  0  0  0  0  0  0  0  0  0  0
  149.1128  131.6304  153.3894 H   0  0  0  0  0  0  0  0  0  0  0  0
  148.2475  132.6821  154.5064 H   0  0  0  0  0  0  0  0  0  0  0  0
  149.5762  133.3191  153.5395 H   0  0  0  0  0  0  0  0  0  0  0  0
  146.9240  130.9917  152.3316 H   0  0  0  0  0  0  0  0  0  0  0  0
  145.9847  132.0838  153.3189 H   0  0  0  0  0  0  0  0  0  0  0  0
  146.8790  131.8019  149.5528 H   0  0  0  0  0  0  0  0  0  0  0  0
  144.5853  132.3734  148.1916 H   0  0  0  0  0  0  0  0  0  0  0  0
  142.7897  132.9699  150.2164 H   0  0  0  0  0  0  0  0  0  0  0  0
  147.9974  135.0315  152.2622 H   0  0  0  0  0  0  0  0  0  0  0  0
  1  2  1  0  0  0  0
  1 17  1  0  0  0  0
  1 18  1  0  0  0  0
  1 19  1  0  0  0  0
  2  3  1  0  0  0  0
  2 20  1  0  0  0  0
  2 21  1  0  0  0  0
  3  4  1  0  0  0  0
  3 22  1  0  0  0  0
  4  5  2  0  0  0  0
  4  6  1  0  0  0  0
  6  7  1  0  0  0  0
  6 23  1  0  0  0  0
  6 24  1  0  0  0  0
  7  8  1  0  0  0  0
  7 25  1  0  0  0  0
  7 26  1  0  0  0  0
  8  9  1  0  0  0  0
  8 27  1  0  0  0  0
  8 37  1  0  0  0  0
  9 10  1  0  0  0  0
  9 11  1  0  0  0  0
  9 28  1  0  0  0  0
 10 29  1  0  0  0  0
 10 30  1  0  0  0  0
 10 31  1  0  0  0  0
 11 12  1  0  0  0  0
 11 32  1  0  0  0  0
 11 33  1  0  0  0  0
 12 16  1  0  0  0  0
 12 13  1  0  0  0  0
 13 14  2  0  0  0  0
 13 34  1  0  0  0  0
 14 15  1  0  0  0  0
 14 35  1  0  0  0  0
 15 16  2  0  0  0  0
 15 36  1  0  0  0  0
M  CHG  1   8   1
M  END
> <s_m_source_file>
AV-unprocessed.smi

> <i_m_source_file_index>
3214

> <i_lp_mmshare_version>
43012

> <i_f3d_flags>
0

> <s_epik_input>
W0NIM11bQ0gyXVtOSF1DKD1PKVtDSDJdW0NIMl1bTkhdW0NASF0oW0NIM10pW0NIMl1uMVtjSF1bY0hdW2NIXW4x

> <s_epik_cmdline>
J2VwaWtfcHl0aG9uJywgJy1waCcsICc3LjAnLCAnLXRuJywgJzgnLCAnLW1hJywgJzIwMCcsICctbWV0YWxfYmluZGluZycsICctaW1hZScsICc8aW5maWxlLm1hZT4nLCAnLW9tYWUnLCAnPG91dGZpbGUubWFlPic=

> <r_lp_tautomer_probability>
1

> <r_epik_Ionization_Penalty>
0.00598156

> <r_epik_Ionization_Penalty_Charging>
0.00597743

> <r_epik_Ionization_Penalty_Neutral>
4.12922e-06

> <r_epik_State_Penalty>
0.00439883

> <r_epik_Charging_Adjusted_Penalty>
0.0103763

> <i_epik_Tot_Q>
1

> <i_epik_Tot_abs_Q>
1

> <r_epik_Metal_State_Penalty>
-0

> <b_epik_Metal_Only>
0

> <s_lp_Force_Field>
OPLS_2005

> <r_lp_Energy>
6.42892

> <b_lp_Chiralities_Consistent>
1

> <s_lp_Variant>
AV-unprocessed.smi:3214-2

> <Gold.Version>
5.8.1

> <Gold.Id.Protein>
6NUR|6NUR_protein|mol2

> <Gold.PLP.Fitness>
42.6609

> <Gold.PLP.PLP>
-29.0759

> <Gold.PLP.part.hbond>
-2.0000

> <Gold.PLP.part.metal>
0.0000

> <Gold.PLP.part.buried>
-2.9104

> <Gold.PLP.part.nonpolar>
-23.2219

> <Gold.PLP.part.repulsive>
0.1685

> <Gold.PLP.ligand.clash>
0.0000

> <Gold.PLP.ligand.torsion>
0.8024

> <Gold.PLP.Chemscore.Hbond>
3.0000

> <Gold.PLP.Chemscore.CHOScore>
2.0000

> <Gold.PLP.Chemscore.Metal>
0.0000

> <Gold.Chemscore.Hbonds>
donor molecule, donor type, donor heavy atom, donor atom, acceptor molecule, acceptor atom, score
      L1  H     3    22       P1  7948  1.00
      L1  H     8    37       P1  7948  2.00
      L1  C    13    34       P1 10747  1.00
      L1  C    15    36       P1 10186  1.00

> <Gold.PLP.Chemscore.Internal.Correction>
0.1898

> <Gold.Rescore>
     Score         DG    S(hbond)    S(metal)    S(lipo)     H(rot)  DE(clash)    DE(int)     intcor
     12.98     -13.70       1.93        0.00      67.57       2.39       0.04       0.68       ----

> <Gold.Chemscore.Fitness>
12.9788

> <Gold.Chemscore.DG>
-13.6967

> <Gold.Chemscore.ZeroCoef>
-5.4800

> <Gold.Chemscore.Hbond>
1.9285

> <Gold.Chemscore.Metal>
0.0000

> <Gold.Chemscore.Lipo>
67.5749

> <Gold.Chemscore.Internal_Hbond>
0.0000

> <Gold.Chemscore.DEClash>
0.0398

> <Gold.Chemscore.DEInternal>
0.6781

> <Gold.Chemscore.Rot>
2.3948

> <Gold.Chemscore.Internal.Correction>
   9.000000E+99

> <Gold.Chemscore.Hbonds>
donor molecule, donor type, donor heavy atom, donor atom, acceptor molecule, acceptor atom, score
      L1  H     3    22       P1  7948  1.00
      L1  H     8    37       P1  7948  0.74

> <Gold.Chemscore.Hbond.Weighted>
-6.4410

> <Gold.Chemscore.Metal.Weighted>
-0.0000

> <Gold.Chemscore.Lipo.Weighted>
-7.9063

> <Gold.Chemscore.Internal_Hbond.Weighted>
0.0000

> <Gold.Chemscore.DEClash.Weighted>
0.0398

> <Gold.Chemscore.DEInternal.Weighted>
0.6781

> <Gold.Chemscore.Rot.Weighted>
6.1306

> <Gold.Chemscore.Internal.Correction.Weighted>
   9.000000E+99

> <Gold.Protein.RotatedTorsions>
[ 6907 6896 6895 6894 ] final -170.55 input  -60.11 | X-H torsion
[ 7974 7965 7964 7962 ] final  156.79 input  175.53 | X-H torsion
[ 8008 7997 7996 7995 ] final  -65.49 input   59.86 | X-H torsion
[ 10167 10162 10161 10158 ] final -174.39 input  -65.29 | X-H torsion
[ 10718 10713 10712 10709 ] final -131.06 input   66.30 | X-H torsion
[ 10763 10752 10751 10750 ] final  -14.15 input  -60.55 | X-H torsion
[ 11005 11000 10999 10996 ] final  112.56 input  -57.11 | X-H torsion

> <Gold.Protein.ActiveResidues>
 VAL166  LYS551  ARG553  GLY616  TRP617  ASP618  TYR619  PRO620  LYS621  CYS622 
 ASP623  PHE694  ASN695  SER759  ASP760  ASP761  ALA762  ILE779  LEU786  VAL792 
 PHE793  MET794  SER795  GLU796  ALA797  LYS798  CYS799  TRP800  GLU811  SER814 

> <Gold.Protein.RotatedAtoms>
  151.5095  133.3488  159.2882 H   0  0  0  0  0  0  0  0  0  0  0  0  # atno 6907 bound_to 6896
  150.8721  134.8099  159.7174 H   0  0  0  0  0  0  0  0  0  0  0  0  # atno 6908 bound_to 6896
  152.4706  134.4980  159.9768 H   0  0  0  0  0  0  0  0  0  0  0  0  # atno 6909 bound_to 6896
  144.7942  139.7252  143.6209 H   0  0  0  0  0  0  0  0  0  0  0  0  # atno 7974 bound_to 7965
  154.4675  140.0932  156.7058 H   0  0  0  0  0  0  0  0  0  0  0  0  # atno 8008 bound_to 7997
  155.4817  140.3468  155.4322 H   0  0  0  0  0  0  0  0  0  0  0  0  # atno 8009 bound_to 7997
  156.0982  140.1415  156.9492 H   0  0  0  0  0  0  0  0  0  0  0  0  # atno 8010 bound_to 7997
  139.5636  144.1809  152.1278 H   0  0  0  0  0  0  0  0  0  0  0  0  # atno 10167 bound_to 10162
  156.2206  130.6976  151.0752 H   0  0  0  0  0  0  0  0  0  0  0  0  # atno 10718 bound_to 10713
  153.5240  135.7015  153.5717 H   0  0  0  0  0  0  0  0  0  0  0  0  # atno 10763 bound_to 10752
  153.3754  135.3934  155.1818 H   0  0  0  0  0  0  0  0  0  0  0  0  # atno 10764 bound_to 10752
  154.8692  135.3822  154.4731 H   0  0  0  0  0  0  0  0  0  0  0  0  # atno 10765 bound_to 10752
  139.8930  134.9532  156.6604 H   0  0  0  0  0  0  0  0  0  0  0  0  # atno 11005 bound_to 11000
  146.2204  139.5626  142.9622 LP  0  0  0  0  0  0  0  0  0  0  0  0  # atno 17320 bound_to 7965
  145.5716  141.0393  143.2171 LP  0  0  0  0  0  0  0  0  0  0  0  0  # atno 17321 bound_to 7965
  140.1328  144.5273  150.6792 LP  0  0  0  0  0  0  0  0  0  0  0  0  # atno 17342 bound_to 10162
  140.6918  143.2380  151.5110 LP  0  0  0  0  0  0  0  0  0  0  0  0  # atno 17343 bound_to 10162
  157.7086  131.0745  150.6582 LP  0  0  0  0  0  0  0  0  0  0  0  0  # atno 17370 bound_to 10713
  156.6645  130.4521  149.5677 LP  0  0  0  0  0  0  0  0  0  0  0  0  # atno 17371 bound_to 10713
  140.7451  133.8945  155.8306 LP  0  0  0  0  0  0  0  0  0  0  0  0  # atno 17394 bound_to 11000
  141.0046  134.1104  157.4283 LP  0  0  0  0  0  0  0  0  0  0  0  0  # atno 17395 bound_to 11000

$$$$
