AV-unprocessed.smi:2147|AV-procd|sdf|8745|dock10
  -GOLD-   2272011523D 1   1.00000     0.00000
 Structure written by MMmdl.
 42 44  0  0  0  0  0  0  0  0  2 V2000
  151.7643  144.9866  160.0405 C   0  0  0  0  0  0  0  0  0  0  0  0
  152.2836  143.8273  160.8892 C   0  0  0  0  0  0  0  0  0  0  0  0
  152.5121  144.0247  162.0821 O   0  0  0  0  0  0  0  0  0  0  0  0
  152.4832  142.5101  160.2201 C   0  0  0  0  0  0  0  0  0  0  0  0
  153.4595  141.5880  160.6631 C   0  0  0  0  0  0  0  0  0  0  0  0
  153.6249  140.3532  160.0068 C   0  0  0  0  0  0  0  0  0  0  0  0
  152.8267  140.0084  158.8983 C   0  0  0  0  0  0  0  0  0  0  0  0
  153.0623  138.7831  158.3124 O   0  0  0  0  0  0  0  0  0  0  0  0
  152.1641  138.3361  157.3055 C   0  0  0  0  0  0  0  0  0  0  0  0
  152.4417  139.1121  156.0097 C   0  0  1  0  0  0  0  0  0  0  0  0
  153.6124  138.5878  155.4144 O   0  0  0  0  0  0  0  0  0  0  0  0
  151.2691  139.0264  155.0120 C   0  0  0  0  0  0  0  0  0  0  0  0
  150.3746  140.1893  155.0795 N   0  0  0  0  0  0  0  0  0  0  0  0
  150.5462  141.3885  155.6991 C   0  0  0  0  0  0  0  0  0  0  0  0
  149.4281  142.1323  155.4714 N   0  3  0  0  0  0  0  0  0  0  0  0
  148.5287  141.3965  154.6966 C   0  0  0  0  0  0  0  0  0  0  0  0
  147.2649  141.7202  154.2126 C   0  0  0  0  0  0  0  0  0  0  0  0
  146.6080  140.7330  153.4486 C   0  0  0  0  0  0  0  0  0  0  0  0
  147.2076  139.4825  153.1918 C   0  0  0  0  0  0  0  0  0  0  0  0
  148.4897  139.1649  153.6875 C   0  0  0  0  0  0  0  0  0  0  0  0
  149.1314  140.1466  154.4411 C   0  0  0  0  0  0  0  0  0  0  0  0
  151.8444  140.9287  158.4572 C   0  0  0  0  0  0  0  0  0  0  0  0
  151.6775  142.1640  159.1123 C   0  0  0  0  0  0  0  0  0  0  0  0
  150.7955  144.7389  159.6064 H   0  0  0  0  0  0  0  0  0  0  0  0
  152.4637  145.2137  159.2358 H   0  0  0  0  0  0  0  0  0  0  0  0
  151.6451  145.8822  160.6508 H   0  0  0  0  0  0  0  0  0  0  0  0
  154.0968  141.8064  161.5068 H   0  0  0  0  0  0  0  0  0  0  0  0
  154.3774  139.6626  160.3584 H   0  0  0  0  0  0  0  0  0  0  0  0
  152.3157  137.2686  157.1362 H   0  0  0  0  0  0  0  0  0  0  0  0
  151.1277  138.4860  157.6134 H   0  0  0  0  0  0  0  0  0  0  0  0
  152.6404  140.1555  156.2565 H   0  0  0  0  0  0  0  0  0  0  0  0
  153.8963  137.8403  155.9184 H   0  0  0  0  0  0  0  0  0  0  0  0
  151.6469  138.9656  153.9903 H   0  0  0  0  0  0  0  0  0  0  0  0
  150.6770  138.1252  155.1765 H   0  0  0  0  0  0  0  0  0  0  0  0
  151.4108  141.6919  156.2716 H   0  0  0  0  0  0  0  0  0  0  0  0
  146.8030  142.6767  154.4085 H   0  0  0  0  0  0  0  0  0  0  0  0
  145.6244  140.9392  153.0520 H   0  0  0  0  0  0  0  0  0  0  0  0
  146.6727  138.7516  152.6027 H   0  0  0  0  0  0  0  0  0  0  0  0
  148.9409  138.2043  153.4876 H   0  0  0  0  0  0  0  0  0  0  0  0
  151.2038  140.7121  157.6161 H   0  0  0  0  0  0  0  0  0  0  0  0
  150.9204  142.8448  158.7502 H   0  0  0  0  0  0  0  0  0  0  0  0
  149.2911  143.0714  155.8226 H   0  0  0  0  0  0  0  0  0  0  0  0
  1  2  1  0  0  0  0
  1 24  1  0  0  0  0
  1 25  1  0  0  0  0
  1 26  1  0  0  0  0
  2  3  2  0  0  0  0
  2  4  1  0  0  0  0
  4 23  1  0  0  0  0
  4  5  2  0  0  0  0
  5  6  1  0  0  0  0
  5 27  1  0  0  0  0
  6  7  2  0  0  0  0
  6 28  1  0  0  0  0
  7  8  1  0  0  0  0
  7 22  1  0  0  0  0
  8  9  1  0  0  0  0
  9 10  1  0  0  0  0
  9 29  1  0  0  0  0
  9 30  1  0  0  0  0
 10 11  1  0  0  0  0
 10 12  1  0  0  0  0
 10 31  1  0  0  0  0
 11 32  1  0  0  0  0
 12 13  1  0  0  0  0
 12 33  1  0  0  0  0
 12 34  1  0  0  0  0
 13 21  1  0  0  0  0
 13 14  1  0  0  0  0
 14 15  2  0  0  0  0
 14 35  1  0  0  0  0
 15 16  1  0  0  0  0
 15 42  1  0  0  0  0
 16 21  2  0  0  0  0
 16 17  1  0  0  0  0
 17 18  2  0  0  0  0
 17 36  1  0  0  0  0
 18 19  1  0  0  0  0
 18 37  1  0  0  0  0
 19 20  2  0  0  0  0
 19 38  1  0  0  0  0
 20 21  1  0  0  0  0
 20 39  1  0  0  0  0
 22 23  2  0  0  0  0
 22 40  1  0  0  0  0
 23 41  1  0  0  0  0
M  CHG  1  15   1
M  END
> <s_m_source_file>
AV-unprocessed.smi

> <i_m_source_file_index>
2147

> <i_lp_mmshare_version>
43012

> <i_f3d_flags>
0

> <s_epik_input>
W0NIM11DKD1PKWMxW2NIXVtjSF1jKFtjSF1bY0hdMSlPW0NIMl1bQ0BIXShbT0hdKVtDSDJdbihbY0hdbjIpYyhjMjMpW2NIXVtjSF1bY0hdW2NIXTM=

> <s_epik_cmdline>
J2VwaWtfcHl0aG9uJywgJy1waCcsICc3LjAnLCAnLXRuJywgJzgnLCAnLW1hJywgJzIwMCcsICctbWV0YWxfYmluZGluZycsICctaW1hZScsICc8aW5maWxlLm1hZT4nLCAnLW9tYWUnLCAnPG91dGZpbGUubWFlPic=

> <r_lp_tautomer_probability>
0.99995

> <r_epik_Ionization_Penalty>
1.40272

> <r_epik_Ionization_Penalty_Charging>
1.40272

> <r_epik_Ionization_Penalty_Neutral>
2.3993e-06

> <r_epik_State_Penalty>
1.48501

> <r_epik_Charging_Adjusted_Penalty>
2.88772

> <i_epik_Tot_Q>
1

> <i_epik_Tot_abs_Q>
1

> <r_epik_Metal_State_Penalty>
5.5274

> <b_epik_Metal_Only>
0

> <s_lp_Force_Field>
OPLS_2005

> <r_lp_Energy>
26.1974

> <b_lp_Chiralities_Consistent>
1

> <s_lp_Variant>
AV-unprocessed.smi:2147-4

> <Gold.Version>
5.8.1

> <Gold.Id.Protein>
6NUR|6NUR_protein|mol2

> <Gold.PLP.Fitness>
55.2214

> <Gold.PLP.PLP>
-50.2943

> <Gold.PLP.part.hbond>
-1.9014

> <Gold.PLP.part.metal>
0.0000

> <Gold.PLP.part.buried>
0.8019

> <Gold.PLP.part.nonpolar>
-48.2349

> <Gold.PLP.part.repulsive>
0.3578

> <Gold.PLP.ligand.clash>
0.0000

> <Gold.PLP.ligand.torsion>
1.2646

> <Gold.PLP.Chemscore.Hbond>
2.4448

> <Gold.PLP.Chemscore.CHOScore>
0.0000

> <Gold.PLP.Chemscore.Metal>
0.0000

> <Gold.Chemscore.Hbonds>
donor molecule, donor type, donor heavy atom, donor atom, acceptor molecule, acceptor atom, score
      L1  H    15    42       P1  8028  2.00
      P1  H  7997  8008       L1    11  0.40

> <Gold.PLP.Chemscore.Internal.Correction>
0.1219

> <Gold.Rescore>
     Score         DG    S(hbond)    S(metal)    S(lipo)     H(rot)  DE(clash)    DE(int)     intcor
     14.97     -16.66       1.03        0.00     120.41       2.48       0.49       1.19       ----

> <Gold.Chemscore.Fitness>
14.9743

> <Gold.Chemscore.DG>
-16.6554

> <Gold.Chemscore.ZeroCoef>
-5.4800

> <Gold.Chemscore.Hbond>
1.0321

> <Gold.Chemscore.Metal>
0.0000

> <Gold.Chemscore.Lipo>
120.4059

> <Gold.Chemscore.Internal_Hbond>
0.0000

> <Gold.Chemscore.DEClash>
0.4930

> <Gold.Chemscore.DEInternal>
1.1881

> <Gold.Chemscore.Rot>
2.4842

> <Gold.Chemscore.Internal.Correction>
   9.000000E+99

> <Gold.Chemscore.Hbonds>
donor molecule, donor type, donor heavy atom, donor atom, acceptor molecule, acceptor atom, score
      L1  H    15    42       P1  8028  0.97
      P1  H  7997  8008       L1    11  0.02

> <Gold.Chemscore.Hbond.Weighted>
-3.4473

> <Gold.Chemscore.Metal.Weighted>
-0.0000

> <Gold.Chemscore.Lipo.Weighted>
-14.0875

> <Gold.Chemscore.Internal_Hbond.Weighted>
0.0000

> <Gold.Chemscore.DEClash.Weighted>
0.4930

> <Gold.Chemscore.DEInternal.Weighted>
1.1881

> <Gold.Chemscore.Rot.Weighted>
6.3594

> <Gold.Chemscore.Internal.Correction.Weighted>
   9.000000E+99

> <Gold.Protein.RotatedTorsions>
[ 6907 6896 6895 6894 ] final  -83.56 input  -60.11 | X-H torsion
[ 7974 7965 7964 7962 ] final   69.87 input  175.53 | X-H torsion
[ 8008 7997 7996 7995 ] final   -7.90 input   59.86 | X-H torsion
[ 10167 10162 10161 10158 ] final   33.77 input  -65.29 | X-H torsion
[ 10718 10713 10712 10709 ] final   26.03 input   66.30 | X-H torsion
[ 10763 10752 10751 10750 ] final -101.23 input  -60.55 | X-H torsion
[ 11005 11000 10999 10996 ] final  130.90 input  -57.11 | X-H torsion

> <Gold.Protein.ActiveResidues>
 VAL166  LYS551  ARG553  GLY616  TRP617  ASP618  TYR619  PRO620  LYS621  CYS622 
 ASP623  PHE694  ASN695  SER759  ASP760  ASP761  ALA762  ILE779  LEU786  VAL792 
 PHE793  MET794  SER795  GLU796  ALA797  LYS798  CYS799  TRP800  GLU811  SER814 

> <Gold.Protein.RotatedAtoms>
  150.6884  134.3493  159.4901 H   0  0  0  0  0  0  0  0  0  0  0  0  # atno 6907 bound_to 6896
  152.1336  134.9113  160.0566 H   0  0  0  0  0  0  0  0  0  0  0  0  # atno 6908 bound_to 6896
  152.0273  133.3888  159.4320 H   0  0  0  0  0  0  0  0  0  0  0  0  # atno 6909 bound_to 6896
  145.7851  139.2906  143.1243 H   0  0  0  0  0  0  0  0  0  0  0  0  # atno 7974 bound_to 7965
  154.5793  140.2395  155.8076 H   0  0  0  0  0  0  0  0  0  0  0  0  # atno 8008 bound_to 7997
  156.2167  140.3010  155.9813 H   0  0  0  0  0  0  0  0  0  0  0  0  # atno 8009 bound_to 7997
  155.2569  140.0413  157.2983 H   0  0  0  0  0  0  0  0  0  0  0  0  # atno 8010 bound_to 7997
  140.4377  144.1233  150.6169 H   0  0  0  0  0  0  0  0  0  0  0  0  # atno 10167 bound_to 10162
  157.2013  130.6891  149.6189 H   0  0  0  0  0  0  0  0  0  0  0  0  # atno 10718 bound_to 10713
  154.7642  135.4905  153.9522 H   0  0  0  0  0  0  0  0  0  0  0  0  # atno 10763 bound_to 10752
  153.1287  135.6748  153.9221 H   0  0  0  0  0  0  0  0  0  0  0  0  # atno 10764 bound_to 10752
  153.8931  135.3118  155.3426 H   0  0  0  0  0  0  0  0  0  0  0  0  # atno 10765 bound_to 10752
  139.9699  134.9580  156.9360 H   0  0  0  0  0  0  0  0  0  0  0  0  # atno 11005 bound_to 11000
  146.0034  140.8500  143.0007 LP  0  0  0  0  0  0  0  0  0  0  0  0  # atno 17320 bound_to 7965
  144.6790  140.2385  143.7346 LP  0  0  0  0  0  0  0  0  0  0  0  0  # atno 17321 bound_to 7965
  140.4355  143.2549  151.9541 LP  0  0  0  0  0  0  0  0  0  0  0  0  # atno 17342 bound_to 10162
  139.4788  144.5704  151.8097 LP  0  0  0  0  0  0  0  0  0  0  0  0  # atno 17343 bound_to 10162
  155.9700  130.4582  150.5990 LP  0  0  0  0  0  0  0  0  0  0  0  0  # atno 17370 bound_to 10713
  157.3764  131.0774  151.1514 LP  0  0  0  0  0  0  0  0  0  0  0  0  # atno 17371 bound_to 10713
  140.5317  134.0807  155.7317 LP  0  0  0  0  0  0  0  0  0  0  0  0  # atno 17394 bound_to 11000
  141.1378  133.9191  157.2394 LP  0  0  0  0  0  0  0  0  0  0  0  0  # atno 17395 bound_to 11000

$$$$
