AV-unprocessed.smi:236|AV-procd|sdf|1812|dock8
  -GOLD-   2262020393D 1   1.00000     0.00000
 Structure written by MMmdl.
 58 62  0  0  0  0  0  0  0  0  1 V2000
  144.6261  133.7964  162.2972 C   0  0  0  0  0  0  0  0  0  0  0  0
  145.4525  135.0041  162.7630 C   0  0  1  0  0  0  0  0  0  0  0  0
  146.6753  134.5806  163.3599 O   0  0  0  0  0  0  0  0  0  0  0  0
  147.7022  135.5353  163.1059 C   0  0  0  0  0  0  0  0  0  0  0  0
  147.0169  136.7041  162.4035 C   0  0  0  0  0  0  0  0  0  0  0  0
  145.8561  136.0270  161.6843 C   0  0  2  0  0  0  0  0  0  0  0  0
  144.8226  136.9743  161.4925 O   0  0  0  0  0  0  0  0  0  0  0  0
  146.2436  135.3890  160.3212 C   0  0  0  0  0  0  0  0  0  0  0  0
  147.2656  136.1242  159.5930 N   0  0  0  0  0  0  0  0  0  0  0  0
  148.6044  136.2026  159.9045 C   0  0  0  0  0  0  0  0  0  0  0  0
  149.3222  136.9344  159.0971 N   0  0  0  0  0  0  0  0  0  0  0  0
  148.4135  137.3784  158.1438 C   0  0  0  0  0  0  0  0  0  0  0  0
  148.5047  138.2045  156.9876 C   0  0  0  0  0  0  0  0  0  0  0  0
  149.6325  138.8028  156.5505 N   0  0  0  0  0  0  0  0  0  0  0  0
  150.0165  138.3838  155.2098 C   0  0  0  0  0  0  0  0  0  0  0  0
  151.3907  138.9722  154.8526 C   0  0  0  0  0  0  0  0  0  0  0  0
  151.3540  140.3878  155.0062 O   0  0  0  0  0  0  0  0  0  0  0  0
  151.0704  140.7843  156.3472 C   0  0  1  0  0  0  0  0  0  0  0  0
  151.1299  142.3154  156.4146 C   0  0  0  0  0  0  0  0  0  0  0  0
  151.1142  142.7191  157.7737 O   0  0  0  0  0  0  0  0  0  0  0  0
  151.2065  144.1246  157.9272 C   0  0  0  0  0  0  0  0  0  0  0  0
  151.1259  144.4682  159.3992 C   0  0  0  0  0  0  0  0  0  0  0  0
  151.9325  145.6095  159.9770 C   0  0  0  0  0  0  0  0  0  0  0  0
  152.2998  144.1861  160.3093 C   0  0  0  0  0  0  0  0  0  0  0  0
  149.6760  140.2492  156.7271 C   0  0  0  0  0  0  0  0  0  0  0  0
  147.3725  138.4359  156.2795 N   0  0  0  0  0  0  0  0  0  0  0  0
  146.2175  137.8875  156.6687 C   0  0  0  0  0  0  0  0  0  0  0  0
  145.9789  137.0989  157.7191 N   0  0  0  0  0  0  0  0  0  0  0  0
  147.1158  136.8730  158.4386 C   0  0  0  0  0  0  0  0  0  0  0  0
  143.7036  134.1167  161.8123 H   0  0  0  0  0  0  0  0  0  0  0  0
  144.3533  133.1682  163.1451 H   0  0  0  0  0  0  0  0  0  0  0  0
  145.1800  133.1729  161.5956 H   0  0  0  0  0  0  0  0  0  0  0  0
  144.8961  135.5213  163.5473 H   0  0  0  0  0  0  0  0  0  0  0  0
  148.1976  135.8408  164.0276 H   0  0  0  0  0  0  0  0  0  0  0  0
  148.4496  135.0802  162.4552 H   0  0  0  0  0  0  0  0  0  0  0  0
  146.6395  137.3948  163.1599 H   0  0  0  0  0  0  0  0  0  0  0  0
  147.6876  137.2717  161.7602 H   0  0  0  0  0  0  0  0  0  0  0  0
  144.9020  137.3328  160.6214 H   0  0  0  0  0  0  0  0  0  0  0  0
  146.6043  134.3706  160.4685 H   0  0  0  0  0  0  0  0  0  0  0  0
  145.3683  135.3093  159.6756 H   0  0  0  0  0  0  0  0  0  0  0  0
  149.0326  135.7055  160.7630 H   0  0  0  0  0  0  0  0  0  0  0  0
  150.0505  137.2951  155.1529 H   0  0  0  0  0  0  0  0  0  0  0  0
  149.2686  138.7226  154.4913 H   0  0  0  0  0  0  0  0  0  0  0  0
  152.1726  138.5468  155.4836 H   0  0  0  0  0  0  0  0  0  0  0  0
  151.6463  138.7316  153.8208 H   0  0  0  0  0  0  0  0  0  0  0  0
  151.8182  140.3660  157.0237 H   0  0  0  0  0  0  0  0  0  0  0  0
  152.0234  142.6837  155.9079 H   0  0  0  0  0  0  0  0  0  0  0  0
  150.2639  142.7435  155.9071 H   0  0  0  0  0  0  0  0  0  0  0  0
  152.1579  144.4853  157.5340 H   0  0  0  0  0  0  0  0  0  0  0  0
  150.4052  144.6270  157.3830 H   0  0  0  0  0  0  0  0  0  0  0  0
  150.1437  144.2983  159.8368 H   0  0  0  0  0  0  0  0  0  0  0  0
  152.5930  146.1552  159.3062 H   0  0  0  0  0  0  0  0  0  0  0  0
  151.4684  146.2056  160.7600 H   0  0  0  0  0  0  0  0  0  0  0  0
  152.0812  143.8309  161.3142 H   0  0  0  0  0  0  0  0  0  0  0  0
  153.2059  143.7845  159.8597 H   0  0  0  0  0  0  0  0  0  0  0  0
  148.9210  140.7267  156.1022 H   0  0  0  0  0  0  0  0  0  0  0  0
  149.4449  140.5001  157.7633 H   0  0  0  0  0  0  0  0  0  0  0  0
  145.3613  138.1159  156.0513 H   0  0  0  0  0  0  0  0  0  0  0  0
  1  2  1  0  0  0  0
  1 30  1  0  0  0  0
  1 31  1  0  0  0  0
  1 32  1  0  0  0  0
  2  6  1  0  0  0  0
  2  3  1  0  0  0  0
  2 33  1  0  0  0  0
  3  4  1  0  0  0  0
  4  5  1  0  0  0  0
  4 34  1  0  0  0  0
  4 35  1  0  0  0  0
  5  6  1  0  0  0  0
  5 36  1  0  0  0  0
  5 37  1  0  0  0  0
  6  7  1  0  0  0  0
  6  8  1  0  0  0  0
  7 38  1  0  0  0  0
  8  9  1  0  0  0  0
  8 39  1  0  0  0  0
  8 40  1  0  0  0  0
  9 29  1  0  0  0  0
  9 10  1  0  0  0  0
 10 11  2  0  0  0  0
 10 41  1  0  0  0  0
 11 12  1  0  0  0  0
 12 29  2  0  0  0  0
 12 13  1  0  0  0  0
 13 14  1  0  0  0  0
 13 26  2  0  0  0  0
 14 25  1  0  0  0  0
 14 15  1  0  0  0  0
 15 16  1  0  0  0  0
 15 42  1  0  0  0  0
 15 43  1  0  0  0  0
 16 17  1  0  0  0  0
 16 44  1  0  0  0  0
 16 45  1  0  0  0  0
 17 18  1  0  0  0  0
 18 19  1  0  0  0  0
 18 25  1  0  0  0  0
 18 46  1  0  0  0  0
 19 20  1  0  0  0  0
 19 47  1  0  0  0  0
 19 48  1  0  0  0  0
 20 21  1  0  0  0  0
 21 22  1  0  0  0  0
 21 49  1  0  0  0  0
 21 50  1  0  0  0  0
 22 24  1  0  0  0  0
 22 23  1  0  0  0  0
 22 51  1  0  0  0  0
 23 24  1  0  0  0  0
 23 52  1  0  0  0  0
 23 53  1  0  0  0  0
 24 54  1  0  0  0  0
 24 55  1  0  0  0  0
 25 56  1  0  0  0  0
 25 57  1  0  0  0  0
 26 27  1  0  0  0  0
 27 28  2  0  0  0  0
 27 58  1  0  0  0  0
 28 29  1  0  0  0  0
M  END
> <s_m_source_file>
AV-unprocessed.smi

> <i_m_source_file_index>
236

> <i_lp_mmshare_version>
43012

> <i_f3d_flags>
0

> <s_epik_input>
W0NIMl0xW0NIMl1PW0NAQEhdKFtDSDNdKVtDQEBdMShbT0hdKVtDSDJdbihbY0hdbjIpYyhjMjMpbltjSF1uYzNONFtDSDJdW0NIMl1PW0NASF0oW0NIMl00KVtDSDJdT1tDSDJdW0NIXTVbQ0gyXVtDSDJdNQ==

> <s_epik_cmdline>
J2VwaWtfcHl0aG9uJywgJy1waCcsICc3LjAnLCAnLXRuJywgJzgnLCAnLW1hJywgJzIwMCcsICctbWV0YWxfYmluZGluZycsICctaW1hZScsICc8aW5maWxlLm1hZT4nLCAnLW9tYWUnLCAnPG91dGZpbGUubWFlPic=

> <r_lp_tautomer_probability>
1

> <r_epik_Ionization_Penalty>
7.21838e-05

> <r_epik_Ionization_Penalty_Charging>
0

> <r_epik_Ionization_Penalty_Neutral>
7.21838e-05

> <r_epik_State_Penalty>
-0

> <r_epik_Charging_Adjusted_Penalty>
0

> <i_epik_Tot_Q>
0

> <i_epik_Tot_abs_Q>
0

> <r_epik_Metal_State_Penalty>
-0

> <b_epik_Metal_Only>
0

> <s_lp_Force_Field>
OPLS_2005

> <r_lp_Energy>
49.6686

> <b_lp_Chiralities_Consistent>
1

> <s_lp_Variant>
AV-unprocessed.smi:236-4

> <Gold.Version>
5.8.1

> <Gold.Id.Protein>
6NUR|6NUR_protein|mol2

> <Gold.PLP.Fitness>
47.7287

> <Gold.PLP.PLP>
-46.1750

> <Gold.PLP.part.hbond>
-2.0000

> <Gold.PLP.part.metal>
0.0000

> <Gold.PLP.part.buried>
-8.6724

> <Gold.PLP.part.nonpolar>
-36.0711

> <Gold.PLP.part.repulsive>
0.1429

> <Gold.PLP.ligand.clash>
0.0000

> <Gold.PLP.ligand.torsion>
1.1176

> <Gold.PLP.Chemscore.Hbond>
0.9920

> <Gold.PLP.Chemscore.CHOScore>
0.0000

> <Gold.PLP.Chemscore.Metal>
0.0000

> <Gold.Chemscore.Hbonds>
donor molecule, donor type, donor heavy atom, donor atom, acceptor molecule, acceptor atom, score
      P1  H  7989  7998       L1    17  1.00

> <Gold.PLP.Chemscore.Internal.Correction>
0.8129

> <Gold.Rescore>
     Score         DG    S(hbond)    S(metal)    S(lipo)     H(rot)  DE(clash)    DE(int)     intcor
     12.72     -15.58       0.98        0.00     121.07       2.87       1.31       1.54       ----

> <Gold.Chemscore.Fitness>
12.7239

> <Gold.Chemscore.DG>
-15.5798

> <Gold.Chemscore.ZeroCoef>
-5.4800

> <Gold.Chemscore.Hbond>
0.9791

> <Gold.Chemscore.Metal>
0.0000

> <Gold.Chemscore.Lipo>
121.0722

> <Gold.Chemscore.Internal_Hbond>
0.0000

> <Gold.Chemscore.DEClash>
1.3147

> <Gold.Chemscore.DEInternal>
1.5411

> <Gold.Chemscore.Rot>
2.8655

> <Gold.Chemscore.Internal.Correction>
   9.000000E+99

> <Gold.Chemscore.Hbonds>
donor molecule, donor type, donor heavy atom, donor atom, acceptor molecule, acceptor atom, score
      P1  H  7989  7998       L1    17  0.32

> <Gold.Chemscore.Hbond.Weighted>
-3.2701

> <Gold.Chemscore.Metal.Weighted>
-0.0000

> <Gold.Chemscore.Lipo.Weighted>
-14.1654

> <Gold.Chemscore.Internal_Hbond.Weighted>
0.0000

> <Gold.Chemscore.DEClash.Weighted>
1.3147

> <Gold.Chemscore.DEInternal.Weighted>
1.5411

> <Gold.Chemscore.Rot.Weighted>
7.3358

> <Gold.Chemscore.Internal.Correction.Weighted>
   9.000000E+99

> <Gold.Protein.RotatedTorsions>
[ 6907 6896 6895 6894 ] final  179.71 input  -60.11 | X-H torsion
[ 7974 7965 7964 7962 ] final  -40.61 input  175.53 | X-H torsion
[ 8008 7997 7996 7995 ] final   79.17 input   59.86 | X-H torsion
[ 10167 10162 10161 10158 ] final -154.33 input  -65.29 | X-H torsion
[ 10718 10713 10712 10709 ] final   57.45 input   66.30 | X-H torsion
[ 10763 10752 10751 10750 ] final  -44.22 input  -60.55 | X-H torsion
[ 11005 11000 10999 10996 ] final   88.02 input  -57.11 | X-H torsion

> <Gold.Protein.ActiveResidues>
 VAL166  LYS551  ARG553  GLY616  TRP617  ASP618  TYR619  PRO620  LYS621  CYS622 
 ASP623  PHE694  ASN695  SER759  ASP760  ASP761  ALA762  ILE779  LEU786  VAL792 
 PHE793  MET794  SER795  GLU796  ALA797  LYS798  CYS799  TRP800  GLU811  SER814 

> <Gold.Protein.RotatedAtoms>
  151.6672  133.3315  159.3187 H   0  0  0  0  0  0  0  0  0  0  0  0  # atno 6907 bound_to 6896
  150.7885  134.6893  159.6497 H   0  0  0  0  0  0  0  0  0  0  0  0  # atno 6908 bound_to 6896
  152.3960  134.6368  160.0141 H   0  0  0  0  0  0  0  0  0  0  0  0  # atno 6909 bound_to 6896
  146.0288  140.6758  142.9142 H   0  0  0  0  0  0  0  0  0  0  0  0  # atno 7974 bound_to 7965
  155.8659  140.3451  155.5788 H   0  0  0  0  0  0  0  0  0  0  0  0  # atno 8008 bound_to 7997
  155.7882  140.0868  157.2042 H   0  0  0  0  0  0  0  0  0  0  0  0  # atno 8009 bound_to 7997
  154.4014  140.1488  156.3118 H   0  0  0  0  0  0  0  0  0  0  0  0  # atno 8010 bound_to 7997
  139.7022  143.9245  152.2433 H   0  0  0  0  0  0  0  0  0  0  0  0  # atno 10167 bound_to 10162
  157.5515  130.8769  149.8971 H   0  0  0  0  0  0  0  0  0  0  0  0  # atno 10718 bound_to 10713
  154.0084  135.6684  153.4763 H   0  0  0  0  0  0  0  0  0  0  0  0  # atno 10763 bound_to 10752
  153.0631  135.5016  154.8136 H   0  0  0  0  0  0  0  0  0  0  0  0  # atno 10764 bound_to 10752
  154.7010  135.3079  154.9304 H   0  0  0  0  0  0  0  0  0  0  0  0  # atno 10765 bound_to 10752
  139.8906  134.8461  156.2942 H   0  0  0  0  0  0  0  0  0  0  0  0  # atno 11005 bound_to 11000
  144.7021  140.3698  143.7147 LP  0  0  0  0  0  0  0  0  0  0  0  0  # atno 17320 bound_to 7965
  145.7074  139.1676  143.2558 LP  0  0  0  0  0  0  0  0  0  0  0  0  # atno 17321 bound_to 7965
  139.9090  144.6867  150.8583 LP  0  0  0  0  0  0  0  0  0  0  0  0  # atno 17342 bound_to 10162
  140.7712  143.3457  151.2116 LP  0  0  0  0  0  0  0  0  0  0  0  0  # atno 17343 bound_to 10162
  156.0581  130.3704  150.1044 LP  0  0  0  0  0  0  0  0  0  0  0  0  # atno 17370 bound_to 10713
  156.9216  130.9685  151.3547 LP  0  0  0  0  0  0  0  0  0  0  0  0  # atno 17371 bound_to 10713
  140.9956  133.7182  156.0881 LP  0  0  0  0  0  0  0  0  0  0  0  0  # atno 17394 bound_to 11000
  140.7567  134.3985  157.5532 LP  0  0  0  0  0  0  0  0  0  0  0  0  # atno 17395 bound_to 11000

$$$$
