#       Name:                AV-unprocessed.smi:1240
#       Creating user name   scv26
#       Creation time:       Fri Mar 27 04:29:11 2020


#       File generated by GOLD software.
#

@<TRIPOS>MOLECULE
AV-unprocessed.smi:1240
    55    57     1
SMALL
NO_CHARGES


@<TRIPOS>ATOM
      1 ****        -1.3847   0.4987   1.6202 O.2            1 S1                 0.0000
      2 ****        -1.6577   1.0263   0.5424 C.2            1 S1                 0.0000
      3 ****        -1.5590   0.3932  -0.6356 N.am           1 S1                 0.0000
      4 ****        -1.1118  -0.9848  -0.8148 C.3            1 S1                 0.0000
      5 ****         0.4281  -1.2048  -0.6217 C.3            1 S1                 0.0000
      6 ****         1.2070  -0.4749  -1.7782 C.3            1 S1                 0.0000
      7 ****         2.7266  -0.5451  -1.7720 C.3            1 S1                 0.0000
      8 ****         3.1126   0.5211  -2.7865 C.3            1 S1                 0.0000
      9 ****         2.1694   1.5614  -2.5855 O.3            1 S1                 0.0000
     10 ****         1.0416   1.0524  -1.8803 C.3            1 S1                 0.0000
     11 ****         0.8241  -2.6410  -0.5248 N.3            1 S1                 0.0000
     12 ****        -0.2098  -3.5596  -0.0308 C.3            1 S1                 0.0000
     13 ****         0.2656  -5.0233   0.0100 C.3            1 S1                 0.0000
     14 ****         1.4292  -5.1319   0.8182 O.3            1 S1                 0.0000
     15 ****         2.4823  -4.2970   0.3569 C.3            1 S1                 0.0000
     16 ****         2.0031  -2.8361   0.3312 C.3            1 S1                 0.0000
     17 ****        -2.0634   2.2974   0.3779 N.am           1 S1                 0.0000
     18 ****        -2.2673   3.3009   1.3643 C.ar           1 S1                 0.0000
     19 ****        -2.2774   4.6459   0.9321 C.ar           1 S1                 0.0000
     20 ****        -2.4897   5.6773   1.8694 C.ar           1 S1                 0.0000
     21 ****        -2.6906   5.3734   3.1694 N.pl3          1 S1                 1.0000
     22 ****        -2.7034   4.1035   3.6284 C.ar           1 S1                 0.0000
     23 ****        -2.4969   3.0301   2.7378 C.ar           1 S1                 0.0000
     24 ****        -1.7992   0.9027  -1.4735 H              1 S1                 0.0000
     25 ****        -1.7016  -1.5563  -0.0989 H              1 S1                 0.0000
     26 ****        -1.4196  -1.3233  -1.8047 H              1 S1                 0.0000
     27 ****         0.6923  -0.7248   0.3217 H              1 S1                 0.0000
     28 ****         0.8738  -0.9069  -2.7236 H              1 S1                 0.0000
     29 ****         3.1214  -0.2656  -0.7941 H              1 S1                 0.0000
     30 ****         3.1165  -1.5246  -2.0505 H              1 S1                 0.0000
     31 ****         4.1359   0.8746  -2.6584 H              1 S1                 0.0000
     32 ****         3.0063   0.1384  -3.8025 H              1 S1                 0.0000
     33 ****         0.1289   1.3401  -2.4019 H              1 S1                 0.0000
     34 ****         1.0312   1.5097  -0.8901 H              1 S1                 0.0000
     35 ****        -0.5354  -3.2560   0.9654 H              1 S1                 0.0000
     36 ****        -1.0827  -3.5335  -0.6824 H              1 S1                 0.0000
     37 ****        -0.5141  -5.6635   0.4226 H              1 S1                 0.0000
     38 ****         0.4789  -5.3873  -0.9963 H              1 S1                 0.0000
     39 ****         3.3368  -4.4037   1.0250 H              1 S1                 0.0000
     40 ****         2.8078  -4.6158  -0.6346 H              1 S1                 0.0000
     41 ****         2.8408  -2.2230   0.0237 H              1 S1                 0.0000
     42 ****         1.7675  -2.5239   1.3499 H              1 S1                 0.0000
     43 ****        -2.1787   2.6019  -0.5778 H              1 S1                 0.0000
     44 ****        -2.1190   4.8899  -0.1086 H              1 S1                 0.0000
     45 ****        -2.5067   6.7281   1.6195 H              1 S1                 0.0000
     46 ****        -2.8837   3.9838   4.6869 H              1 S1                 0.0000
     47 ****        -2.5311   2.0237   3.1253 H              1 S1                 0.0000
     48 ****        -2.8438   6.1342   3.8321 H              1 S1                 0.0000
     49 ****        -1.0707  -0.4504   1.6470 LP             1 S1                 0.0000
     50 ****        -1.4769   1.0190   2.4691 LP             1 S1                 0.0000
     51 ****         1.8744   1.9192  -3.4715 LP             1 S1                 0.0000
     52 ****         2.5914   2.2953  -2.0534 LP             1 S1                 0.0000
     53 ****         1.0112  -2.8691  -1.4803 LP             1 S1                 0.0000
     54 ****         1.7422  -6.0816   0.8062 LP             1 S1                 0.0000
     55 ****         1.1966  -4.8694   1.7546 LP             1 S1                 0.0000
@<TRIPOS>BOND
    1    1    2 2     
    2    2    3 am    
    3    2   17 am    
    4    3    4 1     
    5    3   24 1     
    6    4    5 1     
    7    4   25 1     
    8    4   26 1     
    9    5    6 1     
   10    5   11 1     
   11    5   27 1     
   12    6   10 1     
   13    6    7 1     
   14    6   28 1     
   15    7    8 1     
   16    7   29 1     
   17    7   30 1     
   18    8    9 1     
   19    8   31 1     
   20    8   32 1     
   21    9   10 1     
   22   10   33 1     
   23   10   34 1     
   24   11   16 1     
   25   11   12 1     
   26   12   13 1     
   27   12   35 1     
   28   12   36 1     
   29   13   14 1     
   30   13   37 1     
   31   13   38 1     
   32   14   15 1     
   33   15   16 1     
   34   15   39 1     
   35   15   40 1     
   36   16   41 1     
   37   16   42 1     
   38   17   18 1     
   39   17   43 1     
   40   18   23 ar    
   41   18   19 ar    
   42   19   20 ar    
   43   19   44 1     
   44   20   21 ar    
   45   20   45 1     
   46   21   22 ar    
   47   21   48 1     
   48   22   23 ar    
   49   22   46 1     
   50   23   47 1     
   51    1   49 1     
   52    1   50 1     
   53    9   51 1     
   54    9   52 1     
   55   11   53 1     
   56   14   54 1     
   57   14   55 1     
@<TRIPOS>SUBSTRUCTURE
      1 S1             1
@<TRIPOS>SET
LONE_PAIRS      STATIC     ATOMS    <user>   **** ""
7 49 50 51 52 53 54 55
DONOR_HYDROGENS      STATIC     ATOMS    <user>   **** ""
3 24 43 48
ATOM$BLUE        STATIC     ATOMS    COLORGROUP SYSTEM
7 49 50 51 52 53 54 55
ATOM$RED        STATIC     ATOMS    COLORGROUP SYSTEM
3 24 43 48
