#       Name:                AV-unprocessed.smi:92
#       Creating user name   scv26
#       Creation time:       Thu Mar 26 17:27:52 2020


#       File generated by GOLD software.
#

@<TRIPOS>MOLECULE
AV-unprocessed.smi:92
    68    71     1
SMALL
NO_CHARGES


@<TRIPOS>ATOM
      1 ****        -7.0820   0.4369   3.0952 C.3            1 S1                 0.0000
      2 ****        -6.3882   0.9661   1.8315 C.3            1 S1                 0.0000
      3 ****        -5.0574   0.3467   1.6059 N.4            1 S1                 1.0000
      4 ****        -4.6298   0.4500   0.1870 C.3            1 S1                 0.0000
      5 ****        -3.2999  -0.2839  -0.0708 C.3            1 S1                 0.0000
      6 ****        -2.1736   0.0677   0.9236 C.3            1 S1                 0.0000
      7 ****        -1.4023   1.2658   0.5460 N.pl3          1 S1                 0.0000
      8 ****        -1.9140   2.6319   0.6403 C.3            1 S1                 0.0000
      9 ****        -0.0555   1.1308   0.4321 C.ar           1 S1                 0.0000
     10 ****         0.7517   1.9838   1.1166 N.ar           1 S1                 0.0000
     11 ****         2.0800   1.8641   1.0394 C.ar           1 S1                 0.0000
     12 ****         2.7987   0.9827   0.3422 N.ar           1 S1                 0.0000
     13 ****         1.9962   0.1338  -0.3618 C.ar           1 S1                 0.0000
     14 ****         0.5723   0.1350  -0.3700 C.ar           1 S1                 0.0000
     15 ****         0.1046  -0.8777  -1.1999 N.2            1 S1                 0.0000
     16 ****         1.1887  -1.4542  -1.6421 C.2            1 S1                 0.0000
     17 ****         2.3697  -0.8920  -1.2133 N.pl3          1 S1                 0.0000
     18 ****         3.6946  -1.3522  -1.5133 C.3            1 S1                 0.0000
     19 ****         4.8433  -0.3675  -1.7502 C.3            1 S1                 0.0000
     20 ****         5.4323  -1.2943  -2.8365 C.3            1 S1                 0.0000
     21 ****         5.8493  -0.5900  -4.1366 C.3            1 S1                 0.0000
     22 ****         6.9077   0.3194  -3.9129 O.3            1 S1                 0.0000
     23 ****         6.6038  -2.2130  -2.4222 C.3            1 S1                 0.0000
     24 ****         6.3371  -2.9724  -1.2608 O.3            1 S1                 0.0000
     25 ****         4.0330  -1.9486  -2.8838 C.3            1 S1                 0.0000
     26 ****        -2.7006   0.0533   2.3796 C.3            1 S1                 0.0000
     27 ****        -1.6409   0.4406   3.4253 C.3            1 S1                 0.0000
     28 ****        -4.0129   0.8453   2.5396 C.3            1 S1                 0.0000
     29 ****        -8.0909   0.8420   3.1745 H              1 S1                 0.0000
     30 ****        -6.5523   0.7178   4.0050 H              1 S1                 0.0000
     31 ****        -7.1647  -0.6501   3.0735 H              1 S1                 0.0000
     32 ****        -7.0361   0.7417   0.9831 H              1 S1                 0.0000
     33 ****        -6.2947   2.0524   1.8685 H              1 S1                 0.0000
     34 ****        -5.3952   0.0051  -0.4500 H              1 S1                 0.0000
     35 ****        -4.5727   1.4953  -0.1085 H              1 S1                 0.0000
     36 ****        -3.4933  -1.3545   0.0086 H              1 S1                 0.0000
     37 ****        -2.9676  -0.1216  -1.0967 H              1 S1                 0.0000
     38 ****        -1.4813  -0.7732   0.8821 H              1 S1                 0.0000
     39 ****        -1.3544   3.2969  -0.0188 H              1 S1                 0.0000
     40 ****        -1.8197   3.0121   1.6573 H              1 S1                 0.0000
     41 ****        -2.9557   2.7040   0.3462 H              1 S1                 0.0000
     42 ****         2.6483   2.5768   1.6189 H              1 S1                 0.0000
     43 ****         1.1549  -2.3081  -2.3032 H              1 S1                 0.0000
     44 ****         3.9492  -2.0515  -0.7162 H              1 S1                 0.0000
     45 ****         4.4946   0.5857  -2.1516 H              1 S1                 0.0000
     46 ****         5.4860  -0.2119  -0.8831 H              1 S1                 0.0000
     47 ****         6.1556  -1.3102  -4.8961 H              1 S1                 0.0000
     48 ****         5.0159  -0.0299  -4.5619 H              1 S1                 0.0000
     49 ****         6.6189   0.9670  -3.2878 H              1 S1                 0.0000
     50 ****         6.8486  -2.9106  -3.2237 H              1 S1                 0.0000
     51 ****         7.5062  -1.6323  -2.2289 H              1 S1                 0.0000
     52 ****         7.0997  -3.4937  -1.0611 H              1 S1                 0.0000
     53 ****         4.0363  -3.0389  -2.9103 H              1 S1                 0.0000
     54 ****         3.4025  -1.5451  -3.6780 H              1 S1                 0.0000
     55 ****        -2.9556  -0.9862   2.5929 H              1 S1                 0.0000
     56 ****        -1.3629   1.4917   3.3534 H              1 S1                 0.0000
     57 ****        -0.7339  -0.1521   3.3022 H              1 S1                 0.0000
     58 ****        -2.0099   0.2695   4.4369 H              1 S1                 0.0000
     59 ****        -3.8551   1.9123   2.3858 H              1 S1                 0.0000
     60 ****        -4.3575   0.7339   3.5669 H              1 S1                 0.0000
     61 ****        -5.1672  -0.6401   1.7925 H              1 S1                 0.0000
     62 ****         0.3491   2.7046   1.6808 LP             1 S1                 0.0000
     63 ****         3.7981   0.9487   0.3364 LP             1 S1                 0.0000
     64 ****        -0.8449  -1.1109  -1.4099 LP             1 S1                 0.0000
     65 ****         7.1555   0.7668  -4.7723 LP             1 S1                 0.0000
     66 ****         7.7014  -0.1691  -3.5505 LP             1 S1                 0.0000
     67 ****         5.5523  -3.5709  -1.4221 LP             1 S1                 0.0000
     68 ****         6.1375  -2.3600  -0.4959 LP             1 S1                 0.0000
@<TRIPOS>BOND
    1    1    2 1     
    2    1   29 1     
    3    1   30 1     
    4    1   31 1     
    5    2    3 1     
    6    2   32 1     
    7    2   33 1     
    8    3   28 1     
    9    3    4 1     
   10    3   61 1     
   11    4    5 1     
   12    4   34 1     
   13    4   35 1     
   14    5    6 1     
   15    5   36 1     
   16    5   37 1     
   17    6    7 1     
   18    6   26 1     
   19    6   38 1     
   20    7    8 1     
   21    7    9 1     
   22    8   39 1     
   23    8   40 1     
   24    8   41 1     
   25    9   14 ar    
   26    9   10 ar    
   27   10   11 ar    
   28   11   12 ar    
   29   11   42 1     
   30   12   13 ar    
   31   13   17 1     
   32   13   14 ar    
   33   14   15 1     
   34   15   16 2     
   35   16   17 1     
   36   16   43 1     
   37   17   18 1     
   38   18   25 1     
   39   18   19 1     
   40   18   44 1     
   41   19   20 1     
   42   19   45 1     
   43   19   46 1     
   44   20   21 1     
   45   20   23 1     
   46   20   25 1     
   47   21   22 1     
   48   21   47 1     
   49   21   48 1     
   50   22   49 1     
   51   23   24 1     
   52   23   50 1     
   53   23   51 1     
   54   24   52 1     
   55   25   53 1     
   56   25   54 1     
   57   26   27 1     
   58   26   28 1     
   59   26   55 1     
   60   27   56 1     
   61   27   57 1     
   62   27   58 1     
   63   28   59 1     
   64   28   60 1     
   65   10   62 1     
   66   12   63 1     
   67   15   64 1     
   68   22   65 1     
   69   22   66 1     
   70   24   67 1     
   71   24   68 1     
@<TRIPOS>SUBSTRUCTURE
      1 S1             1
@<TRIPOS>SET
LONE_PAIRS      STATIC     ATOMS    <user>   **** ""
7 62 63 64 65 66 67 68
DONOR_HYDROGENS      STATIC     ATOMS    <user>   **** ""
3 61 49 52
ATOM$BLUE        STATIC     ATOMS    COLORGROUP SYSTEM
7 62 63 64 65 66 67 68
ATOM$RED        STATIC     ATOMS    COLORGROUP SYSTEM
3 61 49 52
