#       Name:                AV-unprocessed.smi:2562
#       Creating user name   scv26
#       Creation time:       Fri Mar 27 14:09:32 2020


#       File generated by GOLD software.
#

@<TRIPOS>MOLECULE
AV-unprocessed.smi:2562
    35    36     1
SMALL
NO_CHARGES


@<TRIPOS>ATOM
      1 ****        -3.4613   4.2170   0.3983 C.3            1 S1                 0.0000
      2 ****        -2.8337   2.8193   0.4296 C.3            1 S1                 0.0000
      3 ****        -1.3631   2.8413   0.8685 C.3            1 S1                 0.0000
      4 ****        -0.7569   1.4550   0.8917 C.2            1 S1                 0.0000
      5 ****        -0.7806   0.6030   1.9318 N.pl3          1 S1                -1.0000
      6 ****        -0.1979  -0.5291   1.5932 N.2            1 S1                 0.0000
      7 ****         0.1732  -0.3721   0.3126 C.2            1 S1                 0.0000
      8 ****         0.9131  -1.4104  -0.5076 C.3            1 S1                 0.0000
      9 ****         2.4377  -1.3002  -0.3008 C.3            1 S1                 0.0000
     10 ****         3.1407  -2.3143  -1.0873 N.3            1 S1                 0.0000
     11 ****         2.6411  -3.6548  -0.7908 C.3            1 S1                 0.0000
     12 ****         1.1175  -3.7113  -0.9936 C.3            1 S1                 0.0000
     13 ****         0.4944  -2.7316  -0.1709 O.3            1 S1                 0.0000
     14 ****        -0.1586   0.8497  -0.1295 N.2            1 S1                 0.0000
     15 ****        -4.5049   4.1672   0.0874 H              1 S1                 0.0000
     16 ****        -2.9361   4.8681  -0.3009 H              1 S1                 0.0000
     17 ****        -3.4289   4.6843   1.3827 H              1 S1                 0.0000
     18 ****        -3.4052   2.1830   1.1062 H              1 S1                 0.0000
     19 ****        -2.9122   2.3669  -0.5596 H              1 S1                 0.0000
     20 ****        -0.7781   3.4682   0.1947 H              1 S1                 0.0000
     21 ****        -1.2733   3.2787   1.8634 H              1 S1                 0.0000
     22 ****         0.6720  -1.2233  -1.5558 H              1 S1                 0.0000
     23 ****         2.7830  -0.3053  -0.5833 H              1 S1                 0.0000
     24 ****         2.6734  -1.4243   0.7570 H              1 S1                 0.0000
     25 ****         4.1345  -2.2692  -0.8867 H              1 S1                 0.0000
     26 ****         3.1331  -4.3880  -1.4300 H              1 S1                 0.0000
     27 ****         2.8832  -3.9221   0.2385 H              1 S1                 0.0000
     28 ****         0.8541  -3.5506  -2.0404 H              1 S1                 0.0000
     29 ****         0.7387  -4.6953  -0.7175 H              1 S1                 0.0000
     30 ****        -1.1802   0.7991   2.8272 LP             1 S1                 0.0000
     31 ****        -0.0609  -1.3353   2.1687 LP             1 S1                 0.0000
     32 ****         2.9787  -2.1283  -2.0564 LP             1 S1                 0.0000
     33 ****        -0.4968  -2.7958  -0.2860 LP             1 S1                 0.0000
     34 ****         0.7316  -2.9126   0.7835 LP             1 S1                 0.0000
     35 ****         0.0095   1.2277  -1.0400 LP             1 S1                 0.0000
@<TRIPOS>BOND
    1    1    2 1     
    2    1   15 1     
    3    1   16 1     
    4    1   17 1     
    5    2    3 1     
    6    2   18 1     
    7    2   19 1     
    8    3   20 1     
    9    3   21 1     
   10    3    4 1     
   11    4   14 2     
   12    4    5 1     
   13    5    6 1     
   14    6    7 2     
   15    7   14 1     
   16    7    8 1     
   17    8   13 1     
   18    8    9 1     
   19    8   22 1     
   20    9   10 1     
   21    9   23 1     
   22    9   24 1     
   23   10   11 1     
   24   10   25 1     
   25   11   12 1     
   26   11   26 1     
   27   11   27 1     
   28   12   13 1     
   29   12   28 1     
   30   12   29 1     
   31    5   30 1     
   32    6   31 1     
   33   10   32 1     
   34   13   33 1     
   35   13   34 1     
   36   14   35 1     
@<TRIPOS>SUBSTRUCTURE
      1 S1             1
@<TRIPOS>SET
LONE_PAIRS      STATIC     ATOMS    <user>   **** ""
6 30 31 32 33 34 35
DONOR_HYDROGENS      STATIC     ATOMS    <user>   **** ""
1 25
ATOM$BLUE        STATIC     ATOMS    COLORGROUP SYSTEM
6 30 31 32 33 34 35
ATOM$RED        STATIC     ATOMS    COLORGROUP SYSTEM
1 25
