AV-unprocessed.smi:232|AV-procd|sdf|1770|dock4
  -GOLD-   2262020303D 1   1.00000     0.00000
 Structure written by MMmdl.
 52 55  0  0  0  0  0  0  0  0  1 V2000
  152.1889  145.3092  158.9506 C   0  0  0  0  0  0  0  0  0  0  0  0
  152.1241  144.0890  158.0234 C   0  0  0  0  0  0  0  0  0  0  0  0
  152.7935  142.8351  158.6278 C   0  0  1  0  0  0  0  0  0  0  0  0
  153.1608  143.0018  160.1154 C   0  0  0  0  0  0  0  0  0  0  0  0
  152.6153  141.7541  160.8194 C   0  0  0  0  0  0  0  0  0  0  0  0
  152.2967  140.7760  159.6877 C   0  0  2  0  0  0  0  0  0  0  0  0
  153.4984  139.8608  159.3722 C   0  0  0  0  0  0  0  0  0  0  0  0
  151.9352  141.6510  158.5773 N   0  0  0  0  0  0  0  0  0  0  0  0
  151.6258  141.0538  157.3950 C   0  0  0  0  0  0  0  0  0  0  0  0
  152.5162  140.2113  156.8057 N   0  0  0  0  0  0  0  0  0  0  0  0
  152.2146  139.6018  155.6560 C   0  0  0  0  0  0  0  0  0  0  0  0
  151.0957  139.6881  154.9349 N   0  0  0  0  0  0  0  0  0  0  0  0
  150.1979  140.5323  155.5182 C   0  0  0  0  0  0  0  0  0  0  0  0
  150.3791  141.2493  156.7351 C   0  0  0  0  0  0  0  0  0  0  0  0
  149.2484  142.0128  157.0039 N   0  0  0  0  0  0  0  0  0  0  0  0
  148.4420  141.7525  156.0113 C   0  0  0  0  0  0  0  0  0  0  0  0
  148.9326  140.8730  155.0741 N   0  0  0  0  0  0  0  0  0  0  0  0
  148.2505  140.4105  153.8778 C   0  0  0  0  0  0  0  0  0  0  0  0
  148.1311  138.8720  153.8210 C   0  0  2  0  0  0  0  0  0  0  0  0
  147.8832  138.4939  152.4801 O   0  0  0  0  0  0  0  0  0  0  0  0
  146.9771  138.3249  154.6848 C   0  0  2  0  0  0  0  0  0  0  0  0
  146.8094  136.8052  154.6450 C   0  0  0  0  0  0  0  0  0  0  0  0
  145.3565  136.6005  155.0380 C   0  0  0  0  0  0  0  0  0  0  0  0
  144.7054  137.9545  154.7451 C   0  0  0  0  0  0  0  0  0  0  0  0
  145.7290  138.7433  154.1526 O   0  0  0  0  0  0  0  0  0  0  0  0
  151.7266  146.1775  158.4803 H   0  0  0  0  0  0  0  0  0  0  0  0
  153.2218  145.5692  159.1834 H   0  0  0  0  0  0  0  0  0  0  0  0
  151.6684  145.1274  159.8908 H   0  0  0  0  0  0  0  0  0  0  0  0
  151.0844  143.8700  157.7775 H   0  0  0  0  0  0  0  0  0  0  0  0
  152.6026  144.3578  157.0820 H   0  0  0  0  0  0  0  0  0  0  0  0
  153.7072  142.6166  158.0730 H   0  0  0  0  0  0  0  0  0  0  0  0
  154.2433  143.0713  160.2270 H   0  0  0  0  0  0  0  0  0  0  0  0
  152.7292  143.9011  160.5566 H   0  0  0  0  0  0  0  0  0  0  0  0
  153.3053  141.3485  161.5601 H   0  0  0  0  0  0  0  0  0  0  0  0
  151.6927  142.0120  161.3412 H   0  0  0  0  0  0  0  0  0  0  0  0
  151.4472  140.1609  159.9827 H   0  0  0  0  0  0  0  0  0  0  0  0
  153.7707  139.2660  160.2440 H   0  0  0  0  0  0  0  0  0  0  0  0
  154.3776  140.4332  159.0753 H   0  0  0  0  0  0  0  0  0  0  0  0
  153.2681  139.1630  158.5666 H   0  0  0  0  0  0  0  0  0  0  0  0
  152.9782  138.9498  155.2586 H   0  0  0  0  0  0  0  0  0  0  0  0
  147.4601  142.1962  155.9356 H   0  0  0  0  0  0  0  0  0  0  0  0
  147.2637  140.8734  153.8595 H   0  0  0  0  0  0  0  0  0  0  0  0
  148.7841  140.7837  153.0025 H   0  0  0  0  0  0  0  0  0  0  0  0
  149.0740  138.4268  154.1414 H   0  0  0  0  0  0  0  0  0  0  0  0
  148.1132  137.5832  152.3773 H   0  0  0  0  0  0  0  0  0  0  0  0
  147.0686  138.6573  155.7212 H   0  0  0  0  0  0  0  0  0  0  0  0
  146.9671  136.4370  153.6302 H   0  0  0  0  0  0  0  0  0  0  0  0
  147.5018  136.2827  155.3056 H   0  0  0  0  0  0  0  0  0  0  0  0
  144.8995  135.7905  154.4686 H   0  0  0  0  0  0  0  0  0  0  0  0
  145.2683  136.3599  156.0981 H   0  0  0  0  0  0  0  0  0  0  0  0
  143.8488  137.8701  154.0762 H   0  0  0  0  0  0  0  0  0  0  0  0
  144.3710  138.4288  155.6689 H   0  0  0  0  0  0  0  0  0  0  0  0
  1  2  1  0  0  0  0
  1 26  1  0  0  0  0
  1 27  1  0  0  0  0
  1 28  1  0  0  0  0
  2  3  1  0  0  0  0
  2 29  1  0  0  0  0
  2 30  1  0  0  0  0
  3  8  1  0  0  0  0
  3  4  1  0  0  0  0
  3 31  1  0  0  0  0
  4  5  1  0  0  0  0
  4 32  1  0  0  0  0
  4 33  1  0  0  0  0
  5  6  1  0  0  0  0
  5 34  1  0  0  0  0
  5 35  1  0  0  0  0
  6  7  1  0  0  0  0
  6  8  1  0  0  0  0
  6 36  1  0  0  0  0
  7 37  1  0  0  0  0
  7 38  1  0  0  0  0
  7 39  1  0  0  0  0
  8  9  1  0  0  0  0
  9 14  1  0  0  0  0
  9 10  2  0  0  0  0
 10 11  1  0  0  0  0
 11 12  2  0  0  0  0
 11 40  1  0  0  0  0
 12 13  1  0  0  0  0
 13 17  1  0  0  0  0
 13 14  2  0  0  0  0
 14 15  1  0  0  0  0
 15 16  2  0  0  0  0
 16 17  1  0  0  0  0
 16 41  1  0  0  0  0
 17 18  1  0  0  0  0
 18 19  1  0  0  0  0
 18 42  1  0  0  0  0
 18 43  1  0  0  0  0
 19 20  1  0  0  0  0
 19 21  1  0  0  0  0
 19 44  1  0  0  0  0
 20 45  1  0  0  0  0
 21 25  1  0  0  0  0
 21 22  1  0  0  0  0
 21 46  1  0  0  0  0
 22 23  1  0  0  0  0
 22 47  1  0  0  0  0
 22 48  1  0  0  0  0
 23 24  1  0  0  0  0
 23 49  1  0  0  0  0
 23 50  1  0  0  0  0
 24 25  1  0  0  0  0
 24 51  1  0  0  0  0
 24 52  1  0  0  0  0
M  END
> <s_m_source_file>
AV-unprocessed.smi

> <i_m_source_file_index>
232

> <i_lp_mmshare_version>
43012

> <i_f3d_flags>
0

> <s_epik_input>
W0NIM11bQ0gyXVtDQEBIXTFbQ0gyXVtDSDJdW0NAQEhdKFtDSDNdKU4xYyhuW2NIXW4yKWMoYzIzKW5bY0hdbjNbQ0gyXVtDQEhdKFtPSF0pW0NAQEhdNFtDSDJdW0NIMl1bQ0gyXU80

> <s_epik_cmdline>
J2VwaWtfcHl0aG9uJywgJy1waCcsICc3LjAnLCAnLXRuJywgJzgnLCAnLW1hJywgJzIwMCcsICctbWV0YWxfYmluZGluZycsICctaW1hZScsICc8aW5maWxlLm1hZT4nLCAnLW9tYWUnLCAnPG91dGZpbGUubWFlPic=

> <r_lp_tautomer_probability>
1

> <r_epik_Ionization_Penalty>
0.00258048

> <r_epik_Ionization_Penalty_Charging>
0

> <r_epik_Ionization_Penalty_Neutral>
0.00258048

> <r_epik_State_Penalty>
0.00168551

> <r_epik_Charging_Adjusted_Penalty>
0.00168551

> <i_epik_Tot_Q>
0

> <i_epik_Tot_abs_Q>
0

> <r_epik_Metal_State_Penalty>
-0

> <b_epik_Metal_Only>
0

> <s_lp_Force_Field>
OPLS_2005

> <r_lp_Energy>
53.6071

> <b_lp_Chiralities_Consistent>
1

> <s_lp_Variant>
AV-unprocessed.smi:232-4

> <Gold.Version>
5.8.1

> <Gold.Id.Protein>
6NUR|6NUR_protein|mol2

> <Gold.PLP.Fitness>
48.7613

> <Gold.PLP.PLP>
-42.0106

> <Gold.PLP.part.hbond>
-4.0000

> <Gold.PLP.part.metal>
0.0000

> <Gold.PLP.part.buried>
-1.8984

> <Gold.PLP.part.nonpolar>
-35.9338

> <Gold.PLP.part.repulsive>
0.7318

> <Gold.PLP.ligand.clash>
0.0000

> <Gold.PLP.ligand.torsion>
1.2023

> <Gold.PLP.Chemscore.Hbond>
2.9440

> <Gold.PLP.Chemscore.CHOScore>
0.0000

> <Gold.PLP.Chemscore.Metal>
0.0000

> <Gold.Chemscore.Hbonds>
donor molecule, donor type, donor heavy atom, donor atom, acceptor molecule, acceptor atom, score
      L1  H    20    45       P1  7948  1.00
      P1  H  7989  7998       L1    12  0.85
      P1  H  7997  8009       L1    10  0.88
      L1  C    16    41       P1  8028  0.01

> <Gold.PLP.Chemscore.Internal.Correction>
0.3233

> <Gold.Rescore>
     Score         DG    S(hbond)    S(metal)    S(lipo)     H(rot)  DE(clash)    DE(int)     intcor
     12.92     -15.54       1.61        0.00      93.17       2.43       0.01       2.61       ----

> <Gold.Chemscore.Fitness>
12.9232

> <Gold.Chemscore.DG>
-15.5372

> <Gold.Chemscore.ZeroCoef>
-5.4800

> <Gold.Chemscore.Hbond>
1.6068

> <Gold.Chemscore.Metal>
0.0000

> <Gold.Chemscore.Lipo>
93.1728

> <Gold.Chemscore.Internal_Hbond>
0.0000

> <Gold.Chemscore.DEClash>
0.0082

> <Gold.Chemscore.DEInternal>
2.6057

> <Gold.Chemscore.Rot>
2.4260

> <Gold.Chemscore.Internal.Correction>
   9.000000E+99

> <Gold.Chemscore.Hbonds>
donor molecule, donor type, donor heavy atom, donor atom, acceptor molecule, acceptor atom, score
      L1  H    20    45       P1  7948  0.99
      P1  H  7989  7998       L1    12  0.05
      P1  H  7997  8009       L1    10  0.16

> <Gold.Chemscore.Hbond.Weighted>
-5.3666

> <Gold.Chemscore.Metal.Weighted>
-0.0000

> <Gold.Chemscore.Lipo.Weighted>
-10.9012

> <Gold.Chemscore.Internal_Hbond.Weighted>
0.0000

> <Gold.Chemscore.DEClash.Weighted>
0.0082

> <Gold.Chemscore.DEInternal.Weighted>
2.6057

> <Gold.Chemscore.Rot.Weighted>
6.2107

> <Gold.Chemscore.Internal.Correction.Weighted>
   9.000000E+99

> <Gold.Protein.RotatedTorsions>
[ 6907 6896 6895 6894 ] final  -51.81 input  -60.11 | X-H torsion
[ 7974 7965 7964 7962 ] final  -77.42 input  175.53 | X-H torsion
[ 8008 7997 7996 7995 ] final  176.04 input   59.86 | X-H torsion
[ 10167 10162 10161 10158 ] final  -79.33 input  -65.29 | X-H torsion
[ 10718 10713 10712 10709 ] final  -43.44 input   66.30 | X-H torsion
[ 10763 10752 10751 10750 ] final  -35.42 input  -60.55 | X-H torsion
[ 11005 11000 10999 10996 ] final  165.97 input  -57.11 | X-H torsion

> <Gold.Protein.ActiveResidues>
 VAL166  LYS551  ARG553  GLY616  TRP617  ASP618  TYR619  PRO620  LYS621  CYS622 
 ASP623  PHE694  ASN695  SER759  ASP760  ASP761  ALA762  ILE779  LEU786  VAL792 
 PHE793  MET794  SER795  GLU796  ALA797  LYS798  CYS799  TRP800  GLU811  SER814 

> <Gold.Protein.RotatedAtoms>
  150.8577  134.7920  159.7057 H   0  0  0  0  0  0  0  0  0  0  0  0  # atno 6907 bound_to 6896
  152.4623  134.5152  159.9775 H   0  0  0  0  0  0  0  0  0  0  0  0  # atno 6908 bound_to 6896
  151.5261  133.3419  159.2945 H   0  0  0  0  0  0  0  0  0  0  0  0  # atno 6909 bound_to 6896
  145.6000  140.9411  143.1246 H   0  0  0  0  0  0  0  0  0  0  0  0  # atno 7974 bound_to 7965
  156.0807  140.1394  156.9715 H   0  0  0  0  0  0  0  0  0  0  0  0  # atno 8008 bound_to 7997
  154.4583  140.0952  156.6871 H   0  0  0  0  0  0  0  0  0  0  0  0  # atno 8009 bound_to 7997
  155.5080  140.3453  155.4385 H   0  0  0  0  0  0  0  0  0  0  0  0  # atno 8010 bound_to 7997
  140.4603  143.2456  151.8359 H   0  0  0  0  0  0  0  0  0  0  0  0  # atno 10167 bound_to 10162
  156.2489  130.4186  149.8672 H   0  0  0  0  0  0  0  0  0  0  0  0  # atno 10718 bound_to 10713
  153.8630  135.6838  153.4781 H   0  0  0  0  0  0  0  0  0  0  0  0  # atno 10763 bound_to 10752
  153.1331  135.4689  154.9378 H   0  0  0  0  0  0  0  0  0  0  0  0  # atno 10764 bound_to 10752
  154.7750  135.3250  154.8061 H   0  0  0  0  0  0  0  0  0  0  0  0  # atno 10765 bound_to 10752
  140.2616  134.7898  157.3595 H   0  0  0  0  0  0  0  0  0  0  0  0  # atno 11005 bound_to 11000
  144.7314  139.7714  143.7345 LP  0  0  0  0  0  0  0  0  0  0  0  0  # atno 17320 bound_to 7965
  146.1583  139.4689  143.0004 LP  0  0  0  0  0  0  0  0  0  0  0  0  # atno 17321 bound_to 7965
  139.4805  144.5016  151.9053 LP  0  0  0  0  0  0  0  0  0  0  0  0  # atno 17342 bound_to 10162
  140.4102  144.2379  150.5889 LP  0  0  0  0  0  0  0  0  0  0  0  0  # atno 17343 bound_to 10162
  156.6228  130.8633  151.3479 LP  0  0  0  0  0  0  0  0  0  0  0  0  # atno 17370 bound_to 10713
  157.7206  130.9554  150.1425 LP  0  0  0  0  0  0  0  0  0  0  0  0  # atno 17371 bound_to 10713
  140.1459  134.4911  155.7996 LP  0  0  0  0  0  0  0  0  0  0  0  0  # atno 17394 bound_to 11000
  141.2189  133.6843  156.7293 LP  0  0  0  0  0  0  0  0  0  0  0  0  # atno 17395 bound_to 11000

$$$$
