#       Name:                AV-unprocessed.smi:2555
#       Creating user name   scv26
#       Creation time:       Fri Mar 27 14:06:44 2020


#       File generated by GOLD software.
#

@<TRIPOS>MOLECULE
AV-unprocessed.smi:2555
    45    46     1
SMALL
NO_CHARGES


@<TRIPOS>ATOM
      1 ****        -3.4527   2.3514  -1.2273 C.3            1 S1                 0.0000
      2 ****        -3.9676   0.9408  -1.2054 C.2            1 S1                 0.0000
      3 ****        -5.2423   0.7134  -0.9363 N.2            1 S1                 0.0000
      4 ****        -5.4036  -0.6744  -0.9912 O.3            1 S1                 0.0000
      5 ****        -4.2047  -1.2346  -1.2932 C.2            1 S1                 0.0000
      6 ****        -4.1660  -2.7218  -1.3961 C.3            1 S1                 0.0000
      7 ****        -3.2502  -0.2665  -1.4435 C.2            1 S1                 0.0000
      8 ****        -1.7903  -0.4297  -1.7775 C.3            1 S1                 0.0000
      9 ****        -0.9813  -0.5610  -0.4872 C.2            1 S1                 0.0000
     10 ****        -0.9104  -1.6489   0.0845 O.2            1 S1                 0.0000
     11 ****        -0.3800   0.5530  -0.0406 N.am           1 S1                 0.0000
     12 ****         0.4102   0.6587   1.1826 C.3            1 S1                 0.0000
     13 ****         1.9300   0.6426   0.9124 C.3            1 S1                 0.0000
     14 ****         2.4159  -0.6796   0.2751 C.3            1 S1                 0.0000
     15 ****         3.9373  -0.6860   0.0527 C.3            1 S1                 0.0000
     16 ****         4.6953  -0.4017   1.3574 C.3            1 S1                 0.0000
     17 ****         4.2304   0.9199   1.9858 C.3            1 S1                 0.0000
     18 ****         2.7104   0.9209   2.2141 C.3            1 S1                 0.0000
     19 ****        -2.6489   2.4833  -0.5031 H              1 S1                 0.0000
     20 ****        -4.2350   3.0723  -0.9869 H              1 S1                 0.0000
     21 ****        -3.0586   2.6059  -2.2113 H              1 S1                 0.0000
     22 ****        -3.2303  -3.1136  -0.9967 H              1 S1                 0.0000
     23 ****        -4.2484  -3.0380  -2.4360 H              1 S1                 0.0000
     24 ****        -4.9851  -3.1750  -0.8373 H              1 S1                 0.0000
     25 ****        -1.6201  -1.3181  -2.3866 H              1 S1                 0.0000
     26 ****        -1.4182   0.4120  -2.3631 H              1 S1                 0.0000
     27 ****        -0.4927   1.3984  -0.5813 H              1 S1                 0.0000
     28 ****         0.1355   1.5992   1.6610 H              1 S1                 0.0000
     29 ****         0.1418  -0.1270   1.8910 H              1 S1                 0.0000
     30 ****         2.1522   1.4514   0.2144 H              1 S1                 0.0000
     31 ****         2.1378  -1.5190   0.9139 H              1 S1                 0.0000
     32 ****         1.9226  -0.8455  -0.6824 H              1 S1                 0.0000
     33 ****         4.2480  -1.6484  -0.3546 H              1 S1                 0.0000
     34 ****         4.2002   0.0648  -0.6936 H              1 S1                 0.0000
     35 ****         4.5327  -1.2193   2.0609 H              1 S1                 0.0000
     36 ****         5.7681  -0.3665   1.1653 H              1 S1                 0.0000
     37 ****         4.7477   1.0830   2.9317 H              1 S1                 0.0000
     38 ****         4.5041   1.7519   1.3357 H              1 S1                 0.0000
     39 ****         2.4084   1.8822   2.6312 H              1 S1                 0.0000
     40 ****         2.4572   0.1688   2.9625 H              1 S1                 0.0000
     41 ****        -5.9464   1.3944  -0.7349 LP             1 S1                 0.0000
     42 ****        -6.0728  -0.9088  -1.6963 LP             1 S1                 0.0000
     43 ****        -5.7206  -1.0126  -0.1052 LP             1 S1                 0.0000
     44 ****        -1.3816  -2.4449  -0.2953 LP             1 S1                 0.0000
     45 ****        -0.3816  -1.7366   0.9287 LP             1 S1                 0.0000
@<TRIPOS>BOND
    1    1    2 1     
    2    1   19 1     
    3    1   20 1     
    4    1   21 1     
    5    2    7 1     
    6    2    3 2     
    7    3    4 1     
    8    4    5 1     
    9    5    6 1     
   10    5    7 2     
   11    6   22 1     
   12    6   23 1     
   13    6   24 1     
   14    7    8 1     
   15    8    9 1     
   16    8   25 1     
   17    8   26 1     
   18    9   10 2     
   19    9   11 am    
   20   11   12 1     
   21   11   27 1     
   22   12   13 1     
   23   12   28 1     
   24   12   29 1     
   25   13   18 1     
   26   13   14 1     
   27   13   30 1     
   28   14   15 1     
   29   14   31 1     
   30   14   32 1     
   31   15   16 1     
   32   15   33 1     
   33   15   34 1     
   34   16   17 1     
   35   16   35 1     
   36   16   36 1     
   37   17   18 1     
   38   17   37 1     
   39   17   38 1     
   40   18   39 1     
   41   18   40 1     
   42    3   41 1     
   43    4   42 1     
   44    4   43 1     
   45   10   44 1     
   46   10   45 1     
@<TRIPOS>SUBSTRUCTURE
      1 S1             1
@<TRIPOS>SET
LONE_PAIRS      STATIC     ATOMS    <user>   **** ""
5 41 42 43 44 45
DONOR_HYDROGENS      STATIC     ATOMS    <user>   **** ""
1 27
ATOM$BLUE        STATIC     ATOMS    COLORGROUP SYSTEM
5 41 42 43 44 45
ATOM$RED        STATIC     ATOMS    COLORGROUP SYSTEM
1 27
