AV-unprocessed.smi:36|AV-procd|sdf|281|dock4
  -GOLD-   2262016 53D 1   1.00000     0.00000
 Structure written by MMmdl.
 64 67  0  0  0  0  0  0  0  0  1 V2000
  145.9839  132.6399  149.9635 C   0  0  0  0  0  0  0  0  0  0  0  0
  144.5722  132.8275  150.5446 C   0  0  0  0  0  0  0  0  0  0  0  0
  143.5785  133.1384  149.4129 C   0  0  0  0  0  0  0  0  0  0  0  0
  144.1363  131.5495  151.2806 C   0  0  0  0  0  0  0  0  0  0  0  0
  144.5821  134.2845  151.7805 Si  0  0  0  0  0  0  0  0  0  0  0  0
  145.2551  135.8641  150.9658 C   0  0  0  0  0  0  0  0  0  0  0  0
  142.8445  134.6092  152.4783 C   0  0  0  0  0  0  0  0  0  0  0  0
  145.6025  133.8756  153.0662 O   0  0  0  0  0  0  0  0  0  0  0  0
  146.8398  134.5121  153.3083 C   0  0  0  0  0  0  0  0  0  0  0  0
  147.4490  133.9614  154.6043 C   0  0  2  0  0  0  0  0  0  0  0  0
  147.6069  135.0520  155.5124 O   0  0  0  0  0  0  0  0  0  0  0  0
  148.8568  134.9685  156.1086 C   0  0  2  0  0  0  0  0  0  0  0  0
  149.2859  136.3380  156.5161 N   0  0  0  0  0  0  0  0  0  0  0  0
  149.4036  136.8416  157.7923 C   0  0  0  0  0  0  0  0  0  0  0  0
  149.7896  138.0872  157.8688 N   0  0  0  0  0  0  0  0  0  0  0  0
  149.9437  138.4736  156.5435 C   0  0  0  0  0  0  0  0  0  0  0  0
  150.3297  139.6844  155.9115 C   0  0  0  0  0  0  0  0  0  0  0  0
  150.6442  140.7703  156.6565 N   0  0  0  0  0  0  0  0  0  0  0  0
  151.6997  140.9039  157.6450 C   0  0  0  0  0  0  0  0  0  0  0  0
  152.5078  140.0016  157.8670 O   0  0  0  0  0  0  0  0  0  0  0  0
  151.8067  142.2410  158.3188 C   0  0  0  0  0  0  0  0  0  0  0  0
  151.3015  143.3958  157.6805 C   0  0  0  0  0  0  0  0  0  0  0  0
  151.4118  144.6575  158.2971 C   0  0  0  0  0  0  0  0  0  0  0  0
  152.0362  144.7763  159.5529 C   0  0  0  0  0  0  0  0  0  0  0  0
  152.5529  143.6327  160.1907 C   0  0  0  0  0  0  0  0  0  0  0  0
  152.4422  142.3702  159.5757 C   0  0  0  0  0  0  0  0  0  0  0  0
  150.3747  139.6938  154.5530 N   0  0  0  0  0  0  0  0  0  0  0  0
  150.0550  138.5959  153.8612 C   0  0  0  0  0  0  0  0  0  0  0  0
  149.6736  137.4024  154.3202 N   0  0  0  0  0  0  0  0  0  0  0  0
  149.6312  137.3834  155.6844 C   0  0  0  0  0  0  0  0  0  0  0  0
  149.7821  134.3819  155.0531 C   0  0  0  0  0  0  0  0  0  0  0  0
  148.8605  133.3696  154.3984 C   0  0  1  0  0  0  0  0  0  0  0  0
  148.9685  132.1189  155.0505 O   0  0  0  0  0  0  0  0  0  0  0  0
  146.0124  131.8152  149.2505 H   0  0  0  0  0  0  0  0  0  0  0  0
  146.7104  132.4214  150.7464 H   0  0  0  0  0  0  0  0  0  0  0  0
  146.3214  133.5357  149.4416 H   0  0  0  0  0  0  0  0  0  0  0  0
  143.8649  134.0374  148.8668 H   0  0  0  0  0  0  0  0  0  0  0  0
  142.5723  133.2973  149.8023 H   0  0  0  0  0  0  0  0  0  0  0  0
  143.5281  132.3204  148.6933 H   0  0  0  0  0  0  0  0  0  0  0  0
  144.0972  130.6954  150.6034 H   0  0  0  0  0  0  0  0  0  0  0  0
  143.1460  131.6652  151.7223 H   0  0  0  0  0  0  0  0  0  0  0  0
  144.8274  131.2977  152.0853 H   0  0  0  0  0  0  0  0  0  0  0  0
  144.6542  136.1597  150.1059 H   0  0  0  0  0  0  0  0  0  0  0  0
  146.2782  135.7290  150.6158 H   0  0  0  0  0  0  0  0  0  0  0  0
  145.2594  136.7033  151.6609 H   0  0  0  0  0  0  0  0  0  0  0  0
  142.1375  134.8687  151.6906 H   0  0  0  0  0  0  0  0  0  0  0  0
  142.8492  135.4315  153.1934 H   0  0  0  0  0  0  0  0  0  0  0  0
  142.4503  133.7345  152.9952 H   0  0  0  0  0  0  0  0  0  0  0  0
  147.5062  134.3167  152.4674 H   0  0  0  0  0  0  0  0  0  0  0  0
  146.6989  135.5920  153.3689 H   0  0  0  0  0  0  0  0  0  0  0  0
  146.7781  133.2187  155.0398 H   0  0  0  0  0  0  0  0  0  0  0  0
  148.8120  134.3793  157.0260 H   0  0  0  0  0  0  0  0  0  0  0  0
  149.1928  136.2514  158.6723 H   0  0  0  0  0  0  0  0  0  0  0  0
  150.0720  141.5888  156.5076 H   0  0  0  0  0  0  0  0  0  0  0  0
  150.8211  143.3216  156.7155 H   0  0  0  0  0  0  0  0  0  0  0  0
  151.0183  145.5347  157.8048 H   0  0  0  0  0  0  0  0  0  0  0  0
  152.1218  145.7441  160.0245 H   0  0  0  0  0  0  0  0  0  0  0  0
  153.0375  143.7240  161.1517 H   0  0  0  0  0  0  0  0  0  0  0  0
  152.8540  141.5068  160.0779 H   0  0  0  0  0  0  0  0  0  0  0  0
  150.1132  138.6871  152.7866 H   0  0  0  0  0  0  0  0  0  0  0  0
  150.0620  135.1538  154.3354 H   0  0  0  0  0  0  0  0  0  0  0  0
  150.6850  133.9609  155.4971 H   0  0  0  0  0  0  0  0  0  0  0  0
  149.1092  133.2297  153.3457 H   0  0  0  0  0  0  0  0  0  0  0  0
  148.2548  131.5685  154.7658 H   0  0  0  0  0  0  0  0  0  0  0  0
  1  2  1  0  0  0  0
  1 34  1  0  0  0  0
  1 35  1  0  0  0  0
  1 36  1  0  0  0  0
  2  3  1  0  0  0  0
  2  4  1  0  0  0  0
  2  5  1  0  0  0  0
  3 37  1  0  0  0  0
  3 38  1  0  0  0  0
  3 39  1  0  0  0  0
  4 40  1  0  0  0  0
  4 41  1  0  0  0  0
  4 42  1  0  0  0  0
  5  6  1  0  0  0  0
  5  7  1  0  0  0  0
  5  8  1  0  0  0  0
  6 43  1  0  0  0  0
  6 44  1  0  0  0  0
  6 45  1  0  0  0  0
  7 46  1  0  0  0  0
  7 47  1  0  0  0  0
  7 48  1  0  0  0  0
  8  9  1  0  0  0  0
  9 10  1  0  0  0  0
  9 49  1  0  0  0  0
  9 50  1  0  0  0  0
 10 32  1  0  0  0  0
 10 11  1  0  0  0  0
 10 51  1  0  0  0  0
 11 12  1  0  0  0  0
 12 13  1  0  0  0  0
 12 31  1  0  0  0  0
 12 52  1  0  0  0  0
 13 30  1  0  0  0  0
 13 14  1  0  0  0  0
 14 15  2  0  0  0  0
 14 53  1  0  0  0  0
 15 16  1  0  0  0  0
 16 30  2  0  0  0  0
 16 17  1  0  0  0  0
 17 18  1  0  0  0  0
 17 27  2  0  0  0  0
 18 19  1  0  0  0  0
 18 54  1  0  0  0  0
 19 20  2  0  0  0  0
 19 21  1  0  0  0  0
 21 26  1  0  0  0  0
 21 22  2  0  0  0  0
 22 23  1  0  0  0  0
 22 55  1  0  0  0  0
 23 24  2  0  0  0  0
 23 56  1  0  0  0  0
 24 25  1  0  0  0  0
 24 57  1  0  0  0  0
 25 26  2  0  0  0  0
 25 58  1  0  0  0  0
 26 59  1  0  0  0  0
 27 28  1  0  0  0  0
 28 29  2  0  0  0  0
 28 60  1  0  0  0  0
 29 30  1  0  0  0  0
 31 32  1  0  0  0  0
 31 61  1  0  0  0  0
 31 62  1  0  0  0  0
 32 33  1  0  0  0  0
 32 63  1  0  0  0  0
 33 64  1  0  0  0  0
M  END
> <s_m_source_file>
AV-unprocessed.smi

> <i_m_source_file_index>
36

> <i_lp_mmshare_version>
43012

> <i_f3d_flags>
0

> <s_epik_input>
W0NIM11DKFtDSDNdKShbQ0gzXSlbU2ldKFtDSDNdKShbQ0gzXSlPW0NIMl1bQ0BASF0xT1tDQEhdKFtDSDJdW0NASF0xW09IXSluKFtjSF1uMiljKGMyMyluW2NIXW5jM1tOSF1DKD1PKWM0W2NIXVtjSF1bY0hdW2NIXVtjSF00

> <s_epik_cmdline>
J2VwaWtfcHl0aG9uJywgJy1waCcsICc3LjAnLCAnLXRuJywgJzgnLCAnLW1hJywgJzIwMCcsICctbWV0YWxfYmluZGluZycsICctaW1hZScsICc8aW5maWxlLm1hZT4nLCAnLW9tYWUnLCAnPG91dGZpbGUubWFlPic=

> <r_lp_tautomer_probability>
1

> <r_epik_Ionization_Penalty>
0.00150433

> <r_epik_Ionization_Penalty_Charging>
0

> <r_epik_Ionization_Penalty_Neutral>
0.00150433

> <r_epik_State_Penalty>
0.00724046

> <r_epik_Charging_Adjusted_Penalty>
0.00724046

> <i_epik_Tot_Q>
0

> <i_epik_Tot_abs_Q>
0

> <r_epik_Metal_State_Penalty>
0.323355

> <b_epik_Metal_Only>
0

> <s_epik_Chemistry_Notes>
This compound contains an acetal/aminal-like group ( X-CH(R)-Y where X, Y are N, S, or O) that may be acid/base labile, releasing an aldehyde.

> <s_lp_Force_Field>
OPLS_2005

> <r_lp_Energy>
37.1131

> <b_lp_Chiralities_Consistent>
1

> <s_lp_Variant>
AV-unprocessed.smi:36-3

> <Gold.Version>
5.8.1

> <Gold.Id.Protein>
6NUR|6NUR_protein|mol2

> <Gold.PLP.Fitness>
56.5886

> <Gold.PLP.PLP>
-53.0432

> <Gold.PLP.part.hbond>
-2.0000

> <Gold.PLP.part.metal>
0.0000

> <Gold.PLP.part.buried>
-6.1778

> <Gold.PLP.part.nonpolar>
-47.3577

> <Gold.PLP.part.repulsive>
1.6231

> <Gold.PLP.ligand.clash>
0.0000

> <Gold.PLP.ligand.torsion>
2.9232

> <Gold.PLP.Chemscore.Hbond>
2.0000

> <Gold.PLP.Chemscore.CHOScore>
1.0000

> <Gold.PLP.Chemscore.Metal>
0.0000

> <Gold.Chemscore.Hbonds>
donor molecule, donor type, donor heavy atom, donor atom, acceptor molecule, acceptor atom, score
      P1  H  7989  7998       L1    27  1.00
      P1  H  7997  8010       L1    20  0.41
      L1  C    28    60       P1  7948  0.14
      L1  C    28    60       P1  7957  1.00

> <Gold.PLP.Chemscore.Internal.Correction>
0.3919

> <Gold.Rescore>
     Score         DG    S(hbond)    S(metal)    S(lipo)     H(rot)  DE(clash)    DE(int)     intcor
     15.92     -19.43       1.41        0.00     138.07       2.70       0.85       2.65       ----

> <Gold.Chemscore.Fitness>
15.9244

> <Gold.Chemscore.DG>
-19.4268

> <Gold.Chemscore.ZeroCoef>
-5.4800

> <Gold.Chemscore.Hbond>
1.4119

> <Gold.Chemscore.Metal>
0.0000

> <Gold.Chemscore.Lipo>
138.0651

> <Gold.Chemscore.Internal_Hbond>
0.0000

> <Gold.Chemscore.DEClash>
0.8510

> <Gold.Chemscore.DEInternal>
2.6515

> <Gold.Chemscore.Rot>
2.7041

> <Gold.Chemscore.Internal.Correction>
   9.000000E+99

> <Gold.Chemscore.Hbonds>
donor molecule, donor type, donor heavy atom, donor atom, acceptor molecule, acceptor atom, score
      P1  H  7989  7998       L1    27  0.70
      P1  H  7997  8010       L1    20  0.39

> <Gold.Chemscore.Hbond.Weighted>
-4.7157

> <Gold.Chemscore.Metal.Weighted>
-0.0000

> <Gold.Chemscore.Lipo.Weighted>
-16.1536

> <Gold.Chemscore.Internal_Hbond.Weighted>
0.0000

> <Gold.Chemscore.DEClash.Weighted>
0.8510

> <Gold.Chemscore.DEInternal.Weighted>
2.6515

> <Gold.Chemscore.Rot.Weighted>
6.9225

> <Gold.Chemscore.Internal.Correction.Weighted>
   9.000000E+99

> <Gold.Protein.RotatedTorsions>
[ 6907 6896 6895 6894 ] final   19.39 input  -60.11 | X-H torsion
[ 7974 7965 7964 7962 ] final  -73.97 input  175.53 | X-H torsion
[ 8008 7997 7996 7995 ] final   32.66 input   59.86 | X-H torsion
[ 10167 10162 10161 10158 ] final  152.48 input  -65.29 | X-H torsion
[ 10718 10713 10712 10709 ] final  -87.68 input   66.30 | X-H torsion
[ 10763 10752 10751 10750 ] final -129.01 input  -60.55 | X-H torsion
[ 11005 11000 10999 10996 ] final -147.45 input  -57.11 | X-H torsion

> <Gold.Protein.ActiveResidues>
 VAL166  LYS551  ARG553  GLY616  TRP617  ASP618  TYR619  PRO620  LYS621  CYS622 
 ASP623  PHE694  ASN695  SER759  ASP760  ASP761  ALA762  ILE779  LEU786  VAL792 
 PHE793  MET794  SER795  GLU796  ALA797  LYS798  CYS799  TRP800  GLU811  SER814 

> <Gold.Protein.RotatedAtoms>
  151.8801  135.0457  160.0487 H   0  0  0  0  0  0  0  0  0  0  0  0  # atno 6907 bound_to 6896
  152.2519  133.5218  159.5339 H   0  0  0  0  0  0  0  0  0  0  0  0  # atno 6908 bound_to 6896
  150.7087  134.0864  159.3959 H   0  0  0  0  0  0  0  0  0  0  0  0  # atno 6909 bound_to 6896
  145.6452  140.9299  143.1014 H   0  0  0  0  0  0  0  0  0  0  0  0  # atno 7974 bound_to 7965
  155.1261  140.3253  155.4485 H   0  0  0  0  0  0  0  0  0  0  0  0  # atno 8008 bound_to 7997
  156.2648  140.2018  156.6330 H   0  0  0  0  0  0  0  0  0  0  0  0  # atno 8009 bound_to 7997
  154.6647  140.0543  157.0088 H   0  0  0  0  0  0  0  0  0  0  0  0  # atno 8010 bound_to 7997
  139.4833  144.5354  151.7653 H   0  0  0  0  0  0  0  0  0  0  0  0  # atno 10167 bound_to 10162
  155.9985  130.4808  150.4903 H   0  0  0  0  0  0  0  0  0  0  0  0  # atno 10718 bound_to 10713
  154.8757  135.3909  154.3850 H   0  0  0  0  0  0  0  0  0  0  0  0  # atno 10763 bound_to 10752
  153.4593  135.7029  153.6065 H   0  0  0  0  0  0  0  0  0  0  0  0  # atno 10764 bound_to 10752
  153.4571  135.3820  155.2285 H   0  0  0  0  0  0  0  0  0  0  0  0  # atno 10765 bound_to 10752
  140.7715  134.3184  157.5073 H   0  0  0  0  0  0  0  0  0  0  0  0  # atno 11005 bound_to 11000
  144.7142  139.8256  143.7404 LP  0  0  0  0  0  0  0  0  0  0  0  0  # atno 17320 bound_to 7965
  146.1248  139.4272  143.0205 LP  0  0  0  0  0  0  0  0  0  0  0  0  # atno 17321 bound_to 7965
  140.4886  144.1343  150.5946 LP  0  0  0  0  0  0  0  0  0  0  0  0  # atno 17342 bound_to 10162
  140.4196  143.2618  151.9731 LP  0  0  0  0  0  0  0  0  0  0  0  0  # atno 17343 bound_to 10162
  157.2899  131.0624  151.2141 LP  0  0  0  0  0  0  0  0  0  0  0  0  # atno 17370 bound_to 10713
  157.3157  130.6912  149.6241 LP  0  0  0  0  0  0  0  0  0  0  0  0  # atno 17371 bound_to 10713
  139.8755  134.9263  156.3397 LP  0  0  0  0  0  0  0  0  0  0  0  0  # atno 17394 bound_to 11000
  140.9569  133.7414  156.0348 LP  0  0  0  0  0  0  0  0  0  0  0  0  # atno 17395 bound_to 11000

$$$$
