AV-unprocessed.smi:13|AV-procd|sdf|70|dock9
  -GOLD-   2262015193D 1   1.00000     0.00000
 Structure written by MMmdl.
 54 58  0  0  0  0  0  0  0  0  1 V2000
  150.5773  144.4658  158.8642 C   0  0  0  0  0  0  0  0  0  0  0  0
  152.0377  143.9960  158.8947 C   0  0  0  0  0  0  0  0  0  0  0  0
  152.8336  144.9804  158.0383 C   0  0  0  0  0  0  0  0  0  0  0  0
  152.6119  143.7076  160.2904 C   0  0  0  0  0  0  0  0  0  0  0  0
  152.2893  142.3090  160.0577 N   0  0  0  0  0  0  0  0  0  0  0  0
  153.2373  141.3738  160.5514 C   0  0  0  0  0  0  0  0  0  0  0  0
  153.7205  141.6060  161.7978 N   0  0  0  0  0  0  0  0  0  0  0  0
  154.6041  140.7786  162.3622 C   0  0  0  0  0  0  0  0  0  0  0  0
  155.1378  139.6641  161.8630 N   0  0  0  0  0  0  0  0  0  0  0  0
  154.6629  139.4132  160.6108 C   0  0  0  0  0  0  0  0  0  0  0  0
  153.7249  140.2063  159.8890 C   0  0  0  0  0  0  0  0  0  0  0  0
  153.4861  139.6288  158.6464 N   0  0  0  0  0  0  0  0  0  0  0  0
  154.2378  138.5627  158.6345 C   0  0  0  0  0  0  0  0  0  0  0  0
  154.9726  138.3520  159.7783 N   0  0  0  0  0  0  0  0  0  0  0  0
  155.8814  137.2461  160.0381 C   0  0  0  0  0  0  0  0  0  0  0  0
  155.2091  136.0629  160.7723 C   0  0  2  0  0  0  0  0  0  0  0  0
  154.2152  135.5054  159.9294 O   0  0  0  0  0  0  0  0  0  0  0  0
  154.5613  136.4378  162.1025 C   0  0  0  0  0  0  0  0  0  0  0  0
  154.7220  135.1684  162.9267 C   0  0  0  0  0  0  0  0  0  0  0  0
  156.0186  134.7271  162.5627 O   0  0  0  0  0  0  0  0  0  0  0  0
  156.1957  134.9453  161.1665 C   0  0  0  0  0  0  0  0  0  0  0  0
  152.3098  142.5031  158.6134 C   0  0  1  0  0  0  0  0  0  0  0  0
  151.2837  141.6144  157.9091 C   0  0  2  0  0  0  0  0  0  0  0  0
  150.9637  142.0430  156.4783 C   0  0  0  0  0  0  0  0  0  0  0  0
  149.5848  141.4532  156.2423 C   0  0  0  0  0  0  0  0  0  0  0  0
  149.0281  141.2431  157.6535 C   0  0  0  0  0  0  0  0  0  0  0  0
  150.0194  141.7514  158.5375 O   0  0  0  0  0  0  0  0  0  0  0  0
  150.4768  145.4831  159.2437 H   0  0  0  0  0  0  0  0  0  0  0  0
  149.9372  143.8330  159.4796 H   0  0  0  0  0  0  0  0  0  0  0  0
  150.1720  144.4501  157.8521 H   0  0  0  0  0  0  0  0  0  0  0  0
  153.8931  144.7229  158.0161 H   0  0  0  0  0  0  0  0  0  0  0  0
  152.7577  145.9987  158.4207 H   0  0  0  0  0  0  0  0  0  0  0  0
  152.4816  144.9861  157.0061 H   0  0  0  0  0  0  0  0  0  0  0  0
  153.6781  143.9189  160.3737 H   0  0  0  0  0  0  0  0  0  0  0  0
  152.0465  144.1531  161.1094 H   0  0  0  0  0  0  0  0  0  0  0  0
  154.9269  141.0473  163.3571 H   0  0  0  0  0  0  0  0  0  0  0  0
  154.2721  137.8919  157.7882 H   0  0  0  0  0  0  0  0  0  0  0  0
  156.3016  136.9152  159.0873 H   0  0  0  0  0  0  0  0  0  0  0  0
  156.7187  137.6239  160.6260 H   0  0  0  0  0  0  0  0  0  0  0  0
  154.5022  135.5896  159.0330 H   0  0  0  0  0  0  0  0  0  0  0  0
  155.1242  137.2382  162.5839 H   0  0  0  0  0  0  0  0  0  0  0  0
  153.5251  136.7675  162.0131 H   0  0  0  0  0  0  0  0  0  0  0  0
  154.6425  135.3467  163.9992 H   0  0  0  0  0  0  0  0  0  0  0  0
  153.9825  134.4178  162.6427 H   0  0  0  0  0  0  0  0  0  0  0  0
  156.0046  134.0175  160.6247 H   0  0  0  0  0  0  0  0  0  0  0  0
  157.2334  135.2224  160.9794 H   0  0  0  0  0  0  0  0  0  0  0  0
  153.3120  142.3813  158.2013 H   0  0  0  0  0  0  0  0  0  0  0  0
  151.5754  140.5626  157.9307 H   0  0  0  0  0  0  0  0  0  0  0  0
  150.9154  143.1310  156.4121 H   0  0  0  0  0  0  0  0  0  0  0  0
  151.7027  141.6944  155.7565 H   0  0  0  0  0  0  0  0  0  0  0  0
  148.9607  142.1191  155.6454 H   0  0  0  0  0  0  0  0  0  0  0  0
  149.6557  140.4990  155.7190 H   0  0  0  0  0  0  0  0  0  0  0  0
  148.0798  141.7584  157.8068 H   0  0  0  0  0  0  0  0  0  0  0  0
  148.8742  140.1815  157.8521 H   0  0  0  0  0  0  0  0  0  0  0  0
  1  2  1  0  0  0  0
  1 28  1  0  0  0  0
  1 29  1  0  0  0  0
  1 30  1  0  0  0  0
  2 22  1  0  0  0  0
  2  3  1  0  0  0  0
  2  4  1  0  0  0  0
  3 31  1  0  0  0  0
  3 32  1  0  0  0  0
  3 33  1  0  0  0  0
  4  5  1  0  0  0  0
  4 34  1  0  0  0  0
  4 35  1  0  0  0  0
  5  6  1  0  0  0  0
  5 22  1  0  0  0  0
  6 11  1  0  0  0  0
  6  7  2  0  0  0  0
  7  8  1  0  0  0  0
  8  9  2  0  0  0  0
  8 36  1  0  0  0  0
  9 10  1  0  0  0  0
 10 14  1  0  0  0  0
 10 11  2  0  0  0  0
 11 12  1  0  0  0  0
 12 13  2  0  0  0  0
 13 14  1  0  0  0  0
 13 37  1  0  0  0  0
 14 15  1  0  0  0  0
 15 16  1  0  0  0  0
 15 38  1  0  0  0  0
 15 39  1  0  0  0  0
 16 21  1  0  0  0  0
 16 17  1  0  0  0  0
 16 18  1  0  0  0  0
 17 40  1  0  0  0  0
 18 19  1  0  0  0  0
 18 41  1  0  0  0  0
 18 42  1  0  0  0  0
 19 20  1  0  0  0  0
 19 43  1  0  0  0  0
 19 44  1  0  0  0  0
 20 21  1  0  0  0  0
 21 45  1  0  0  0  0
 21 46  1  0  0  0  0
 22 23  1  0  0  0  0
 22 47  1  0  0  0  0
 23 27  1  0  0  0  0
 23 24  1  0  0  0  0
 23 48  1  0  0  0  0
 24 25  1  0  0  0  0
 24 49  1  0  0  0  0
 24 50  1  0  0  0  0
 25 26  1  0  0  0  0
 25 51  1  0  0  0  0
 25 52  1  0  0  0  0
 26 27  1  0  0  0  0
 26 53  1  0  0  0  0
 26 54  1  0  0  0  0
M  END
> <s_m_source_file>
AV-unprocessed.smi

> <i_m_source_file_index>
13

> <i_lp_mmshare_version>
43012

> <i_f3d_flags>
0

> <s_epik_input>
TzFbQ0gyXVtDSDJdW0NIMl1bQ0BIXTFbQ0BASF0yTihbQ0gyXUMyKFtDSDNdKVtDSDNdKWMobltjSF1uMyljKGMzNCluW2NIXW40W0NIMl1bQ0BAXTUoW09IXSlbQ0gyXVtDSDJdT1tDSDJdNQ==

> <s_epik_cmdline>
J2VwaWtfcHl0aG9uJywgJy1waCcsICc3LjAnLCAnLXRuJywgJzgnLCAnLW1hJywgJzIwMCcsICctbWV0YWxfYmluZGluZycsICctaW1hZScsICc8aW5maWxlLm1hZT4nLCAnLW9tYWUnLCAnPG91dGZpbGUubWFlPic=

> <r_lp_tautomer_probability>
1

> <r_epik_Ionization_Penalty>
0.00202764

> <r_epik_Ionization_Penalty_Charging>
0

> <r_epik_Ionization_Penalty_Neutral>
0.00202764

> <r_epik_State_Penalty>
0.00134017

> <r_epik_Charging_Adjusted_Penalty>
0.00134017

> <i_epik_Tot_Q>
0

> <i_epik_Tot_abs_Q>
0

> <r_epik_Metal_State_Penalty>
-0

> <b_epik_Metal_Only>
0

> <s_lp_Force_Field>
OPLS_2005

> <r_lp_Energy>
60.4811

> <b_lp_Chiralities_Consistent>
1

> <s_lp_Variant>
AV-unprocessed.smi:13-2

> <Gold.Version>
5.8.1

> <Gold.Id.Protein>
6NUR|6NUR_protein|mol2

> <Gold.PLP.Fitness>
46.1731

> <Gold.PLP.PLP>
-44.4137

> <Gold.PLP.part.hbond>
-2.0954

> <Gold.PLP.part.metal>
0.0000

> <Gold.PLP.part.buried>
-6.3650

> <Gold.PLP.part.nonpolar>
-35.7775

> <Gold.PLP.part.repulsive>
0.0471

> <Gold.PLP.ligand.clash>
0.0000

> <Gold.PLP.ligand.torsion>
1.0857

> <Gold.PLP.Chemscore.Hbond>
1.1584

> <Gold.PLP.Chemscore.CHOScore>
0.0000

> <Gold.PLP.Chemscore.Metal>
0.0000

> <Gold.Chemscore.Hbonds>
donor molecule, donor type, donor heavy atom, donor atom, acceptor molecule, acceptor atom, score
      P1  H  6896  6908       L1    17  1.00
      P1  H  7997  8008       L1    12  0.13

> <Gold.PLP.Chemscore.Internal.Correction>
0.4555

> <Gold.Rescore>
     Score         DG    S(hbond)    S(metal)    S(lipo)     H(rot)  DE(clash)    DE(int)     intcor
     12.27     -15.69       1.00        0.00     109.15       2.30       0.07       3.35       ----

> <Gold.Chemscore.Fitness>
12.2671

> <Gold.Chemscore.DG>
-15.6888

> <Gold.Chemscore.ZeroCoef>
-5.4800

> <Gold.Chemscore.Hbond>
0.9956

> <Gold.Chemscore.Metal>
0.0000

> <Gold.Chemscore.Lipo>
109.1476

> <Gold.Chemscore.Internal_Hbond>
0.0000

> <Gold.Chemscore.DEClash>
0.0740

> <Gold.Chemscore.DEInternal>
3.3477

> <Gold.Chemscore.Rot>
2.2996

> <Gold.Chemscore.Internal.Correction>
   9.000000E+99

> <Gold.Chemscore.Hbonds>
donor molecule, donor type, donor heavy atom, donor atom, acceptor molecule, acceptor atom, score
      P1  H  6896  6908       L1    17  0.69

> <Gold.Chemscore.Hbond.Weighted>
-3.3254

> <Gold.Chemscore.Metal.Weighted>
-0.0000

> <Gold.Chemscore.Lipo.Weighted>
-12.7703

> <Gold.Chemscore.Internal_Hbond.Weighted>
0.0000

> <Gold.Chemscore.DEClash.Weighted>
0.0740

> <Gold.Chemscore.DEInternal.Weighted>
3.3477

> <Gold.Chemscore.Rot.Weighted>
5.8869

> <Gold.Chemscore.Internal.Correction.Weighted>
   9.000000E+99

> <Gold.Protein.RotatedTorsions>
[ 6907 6896 6895 6894 ] final  -50.17 input  -60.11 | X-H torsion
[ 7974 7965 7964 7962 ] final -106.59 input  175.53 | X-H torsion
[ 8008 7997 7996 7995 ] final  -75.56 input   59.86 | X-H torsion
[ 10167 10162 10161 10158 ] final   91.88 input  -65.29 | X-H torsion
[ 10718 10713 10712 10709 ] final   14.17 input   66.30 | X-H torsion
[ 10763 10752 10751 10750 ] final -119.09 input  -60.55 | X-H torsion
[ 11005 11000 10999 10996 ] final -133.17 input  -57.11 | X-H torsion

> <Gold.Protein.ActiveResidues>
 VAL166  LYS551  ARG553  GLY616  TRP617  ASP618  TYR619  PRO620  LYS621  CYS622 
 ASP623  PHE694  ASN695  SER759  ASP760  ASP761  ALA762  ILE779  LEU786  VAL792 
 PHE793  MET794  SER795  GLU796  ALA797  LYS798  CYS799  TRP800  GLU811  SER814 

> <Gold.Protein.RotatedAtoms>
  150.8733  134.8111  159.7170 H   0  0  0  0  0  0  0  0  0  0  0  0  # atno 6907 bound_to 6896
  152.4729  134.4912  159.9705 H   0  0  0  0  0  0  0  0  0  0  0  0  # atno 6908 bound_to 6896
  151.4997  133.3468  159.2902 H   0  0  0  0  0  0  0  0  0  0  0  0  # atno 6909 bound_to 6896
  145.2160  140.9115  143.3287 H   0  0  0  0  0  0  0  0  0  0  0  0  # atno 7974 bound_to 7965
  154.5427  140.0742  156.8537 H   0  0  0  0  0  0  0  0  0  0  0  0  # atno 8008 bound_to 7997
  155.3148  140.3392  155.4224 H   0  0  0  0  0  0  0  0  0  0  0  0  # atno 8009 bound_to 7997
  156.1890  140.1679  156.8116 H   0  0  0  0  0  0  0  0  0  0  0  0  # atno 8010 bound_to 7997
  139.8331  144.6677  150.9375 H   0  0  0  0  0  0  0  0  0  0  0  0  # atno 10167 bound_to 10162
  157.0353  130.6209  149.5742 H   0  0  0  0  0  0  0  0  0  0  0  0  # atno 10718 bound_to 10713
  154.8607  135.4251  154.2243 H   0  0  0  0  0  0  0  0  0  0  0  0  # atno 10763 bound_to 10752
  153.3241  135.6984  153.7010 H   0  0  0  0  0  0  0  0  0  0  0  0  # atno 10764 bound_to 10752
  153.6053  135.3529  155.2933 H   0  0  0  0  0  0  0  0  0  0  0  0  # atno 10765 bound_to 10752
  140.9105  134.1574  157.4393 H   0  0  0  0  0  0  0  0  0  0  0  0  # atno 11005 bound_to 11000
  144.9811  139.3783  143.6262 LP  0  0  0  0  0  0  0  0  0  0  0  0  # atno 17320 bound_to 7965
  146.3387  139.8951  142.8803 LP  0  0  0  0  0  0  0  0  0  0  0  0  # atno 17321 bound_to 7965
  140.7805  143.3982  151.1194 LP  0  0  0  0  0  0  0  0  0  0  0  0  # atno 17342 bound_to 10162
  139.7634  143.8601  152.3105 LP  0  0  0  0  0  0  0  0  0  0  0  0  # atno 17343 bound_to 10162
  156.0056  130.5142  150.7817 LP  0  0  0  0  0  0  0  0  0  0  0  0  # atno 17370 bound_to 10713
  157.5146  131.0927  151.0155 LP  0  0  0  0  0  0  0  0  0  0  0  0  # atno 17371 bound_to 10713
  139.8756  134.9934  156.5641 LP  0  0  0  0  0  0  0  0  0  0  0  0  # atno 17394 bound_to 11000
  140.8116  133.8424  155.8815 LP  0  0  0  0  0  0  0  0  0  0  0  0  # atno 17395 bound_to 11000

$$$$
