#       Name:                AV-unprocessed.smi:701
#       Creating user name   scv26
#       Creation time:       Fri Mar 27 00:39:03 2020


#       File generated by GOLD software.
#

@<TRIPOS>MOLECULE
AV-unprocessed.smi:701
    57    59     1
SMALL
NO_CHARGES


@<TRIPOS>ATOM
      1 ****        -3.3818   3.4311   2.6071 C.3            1 S1                 0.0000
      2 ****        -3.4056   3.4737   1.0733 C.3            1 S1                 0.0000
      3 ****        -2.8557   2.3030   0.4838 O.3            1 S1                 0.0000
      4 ****        -1.4464   2.1756   0.6089 C.3            1 S1                 0.0000
      5 ****        -1.0093   1.2850   1.7759 C.3            1 S1                 0.0000
      6 ****         0.0931   0.7876   0.8439 C.3            1 S1                 0.0000
      7 ****         0.3706  -0.6341   1.0143 N.am           1 S1                 0.0000
      8 ****         1.3940  -1.2811   0.4388 C.2            1 S1                 0.0000
      9 ****         2.2077  -0.7279  -0.3023 O.2            1 S1                 0.0000
     10 ****         1.4889  -2.7859   0.7263 C.3            1 S1                 0.0000
     11 ****         2.8467  -3.3189   0.5447 N.am           1 S1                 0.0000
     12 ****         3.2019  -3.9405  -0.6441 C.2            1 S1                 0.0000
     13 ****         4.4369  -4.4415  -0.8831 C.2            1 S1                 0.0000
     14 ****         5.4815  -4.3465   0.1311 C.2            1 S1                 0.0000
     15 ****         6.6285  -4.7707   0.0096 O.2            1 S1                 0.0000
     16 ****         5.0858  -3.7123   1.3119 N.am           1 S1                 0.0000
     17 ****         3.8157  -3.1917   1.5637 C.2            1 S1                 0.0000
     18 ****         3.5732  -2.6461   2.6396 O.2            1 S1                 0.0000
     19 ****        -0.8167   1.1404  -0.3653 C.3            1 S1                 0.0000
     20 ****        -1.7413   0.0115  -0.8929 C.3            1 S1                 0.0000
     21 ****        -2.6905   0.4550  -2.0233 C.3            1 S1                 0.0000
     22 ****        -1.9262   1.1090  -3.1800 C.3            1 S1                 0.0000
     23 ****        -1.0199   2.2364  -2.6733 C.3            1 S1                 0.0000
     24 ****        -0.0731   1.7264  -1.5762 C.3            1 S1                 0.0000
     25 ****         5.7765  -3.6210   2.0427 H              1 S1                 0.0000
     26 ****        -3.9137   4.2866   3.0239 H              1 S1                 0.0000
     27 ****        -2.3642   3.4624   2.9945 H              1 S1                 0.0000
     28 ****        -3.8607   2.5263   2.9821 H              1 S1                 0.0000
     29 ****        -4.4409   3.5478   0.7397 H              1 S1                 0.0000
     30 ****        -2.8982   4.3642   0.6996 H              1 S1                 0.0000
     31 ****        -0.9148   3.1302   0.5827 H              1 S1                 0.0000
     32 ****        -0.6491   1.8202   2.6543 H              1 S1                 0.0000
     33 ****        -1.7475   0.5251   2.0380 H              1 S1                 0.0000
     34 ****         0.9802   1.4232   0.9038 H              1 S1                 0.0000
     35 ****        -0.2589  -1.1592   1.6038 H              1 S1                 0.0000
     36 ****         1.1333  -2.9946   1.7376 H              1 S1                 0.0000
     37 ****         0.7901  -3.2999   0.0649 H              1 S1                 0.0000
     38 ****         2.4608  -4.0289  -1.4258 H              1 S1                 0.0000
     39 ****         4.6535  -4.9141  -1.8302 H              1 S1                 0.0000
     40 ****        -1.1356  -0.8135  -1.2697 H              1 S1                 0.0000
     41 ****        -2.3373  -0.4115  -0.0838 H              1 S1                 0.0000
     42 ****        -3.2507  -0.4046  -2.3922 H              1 S1                 0.0000
     43 ****        -3.4334   1.1543  -1.6415 H              1 S1                 0.0000
     44 ****        -1.3196   0.3572  -3.6861 H              1 S1                 0.0000
     45 ****        -2.6264   1.4936  -3.9221 H              1 S1                 0.0000
     46 ****        -0.4428   2.6478  -3.5019 H              1 S1                 0.0000
     47 ****        -1.6291   3.0528  -2.2829 H              1 S1                 0.0000
     48 ****         0.5751   2.5453  -1.2625 H              1 S1                 0.0000
     49 ****         0.5935   0.9746  -2.0009 H              1 S1                 0.0000
     50 ****        -3.0816   2.3102  -0.4903 LP             1 S1                 0.0000
     51 ****        -3.2792   1.5081   0.9183 LP             1 S1                 0.0000
     52 ****         2.1217   0.2488  -0.4988 LP             1 S1                 0.0000
     53 ****         2.9544  -1.2556  -0.7074 LP             1 S1                 0.0000
     54 ****         6.9071  -5.2236  -0.8374 LP             1 S1                 0.0000
     55 ****         7.2833  -4.6631   0.7577 LP             1 S1                 0.0000
     56 ****         2.6625  -2.2732   2.8170 LP             1 S1                 0.0000
     57 ****         4.2869  -2.5757   3.3365 LP             1 S1                 0.0000
@<TRIPOS>BOND
    1    1    2 1     
    2    1   26 1     
    3    1   27 1     
    4    1   28 1     
    5    2    3 1     
    6    2   29 1     
    7    2   30 1     
    8    3    4 1     
    9    4   19 1     
   10    4    5 1     
   11    4   31 1     
   12    5    6 1     
   13    5   32 1     
   14    5   33 1     
   15    6    7 1     
   16    6   19 1     
   17    6   34 1     
   18    7    8 am    
   19    7   35 1     
   20    8    9 2     
   21    8   10 1     
   22   10   11 1     
   23   10   36 1     
   24   10   37 1     
   25   11   17 1     
   26   11   12 1     
   27   12   13 2     
   28   12   38 1     
   29   13   14 1     
   30   13   39 1     
   31   14   15 2     
   32   14   16 1     
   33   16   25 1     
   34   16   17 1     
   35   17   18 2     
   36   19   24 1     
   37   19   20 1     
   38   20   21 1     
   39   20   40 1     
   40   20   41 1     
   41   21   22 1     
   42   21   42 1     
   43   21   43 1     
   44   22   23 1     
   45   22   44 1     
   46   22   45 1     
   47   23   24 1     
   48   23   46 1     
   49   23   47 1     
   50   24   48 1     
   51   24   49 1     
   52    3   50 1     
   53    3   51 1     
   54    9   52 1     
   55    9   53 1     
   56   15   54 1     
   57   15   55 1     
   58   18   56 1     
   59   18   57 1     
@<TRIPOS>SUBSTRUCTURE
      1 S1             1
@<TRIPOS>SET
LONE_PAIRS      STATIC     ATOMS    <user>   **** ""
8 50 51 52 53 54 55 56 57
DONOR_HYDROGENS      STATIC     ATOMS    <user>   **** ""
2 35 25
ATOM$BLUE        STATIC     ATOMS    COLORGROUP SYSTEM
8 50 51 52 53 54 55 56 57
ATOM$RED        STATIC     ATOMS    COLORGROUP SYSTEM
2 35 25
