AV-unprocessed.smi:187|AV-procd|sdf|1469|dock9
  -GOLD-   2262019283D 1   1.00000     0.00000
 Structure written by MMmdl.
 53 56  0  0  0  0  0  0  0  0  1 V2000
  145.9250  138.9832  156.6612 C   0  0  0  0  0  0  0  0  0  0  0  0
  146.5288  139.7143  155.4436 C   0  0  1  0  0  0  0  0  0  0  0  0
  147.0273  141.1073  155.8835 C   0  0  0  0  0  0  0  0  0  0  0  0
  147.7280  141.8601  154.7402 C   0  0  0  0  0  0  0  0  0  0  0  0
  148.8477  141.0210  154.0904 C   0  0  1  0  0  0  0  0  0  0  0  0
  150.1085  140.9255  154.9714 C   0  0  0  0  0  0  0  0  0  0  0  0
  150.0539  141.5134  156.1693 N   0  0  0  0  0  0  0  0  0  0  0  0
  151.1210  140.3461  154.5825 O   0  0  0  0  0  0  0  0  0  0  0  0
  148.2940  139.6344  153.6996 C   0  0  0  0  0  0  0  0  0  0  0  0
  147.6226  138.9596  154.8123 N   0  0  0  0  0  0  0  0  0  0  0  0
  147.3831  137.6670  154.4918 C   0  0  0  0  0  0  0  0  0  0  0  0
  148.1304  136.6731  155.0419 N   0  0  0  0  0  0  0  0  0  0  0  0
  147.8748  135.3981  154.7324 C   0  0  0  0  0  0  0  0  0  0  0  0
  146.9336  134.9071  153.9224 N   0  0  0  0  0  0  0  0  0  0  0  0
  146.1749  135.9042  153.3822 C   0  0  0  0  0  0  0  0  0  0  0  0
  146.3323  137.2988  153.6118 C   0  0  0  0  0  0  0  0  0  0  0  0
  145.3879  138.0127  152.8862 N   0  0  0  0  0  0  0  0  0  0  0  0
  144.7145  137.0908  152.2533 C   0  0  0  0  0  0  0  0  0  0  0  0
  145.1047  135.7949  152.5123 N   0  0  0  0  0  0  0  0  0  0  0  0
  144.5685  134.5956  151.9390 C   0  0  0  0  0  0  0  0  0  0  0  0
  145.2273  133.2315  152.1591 C   0  0  0  0  0  0  0  0  0  0  0  0
  144.7721  132.7945  150.7476 C   0  0  0  0  0  0  0  0  0  0  0  0
  145.8067  131.9977  149.9352 C   0  0  0  0  0  0  0  0  0  0  0  0
  147.1153  132.4849  150.1529 O   0  0  0  0  0  0  0  0  0  0  0  0
  143.4132  132.0678  150.6865 C   0  0  0  0  0  0  0  0  0  0  0  0
  142.9520  131.9465  149.3562 O   0  0  0  0  0  0  0  0  0  0  0  0
  144.7196  134.3084  150.4441 C   0  0  0  0  0  0  0  0  0  0  0  0
  145.1522  139.5899  157.1336 H   0  0  0  0  0  0  0  0  0  0  0  0
  146.6866  138.7744  157.4135 H   0  0  0  0  0  0  0  0  0  0  0  0
  145.4596  138.0364  156.3883 H   0  0  0  0  0  0  0  0  0  0  0  0
  145.7442  139.8556  154.6987 H   0  0  0  0  0  0  0  0  0  0  0  0
  146.1894  141.7023  156.2479 H   0  0  0  0  0  0  0  0  0  0  0  0
  147.7103  141.0056  156.7274 H   0  0  0  0  0  0  0  0  0  0  0  0
  146.9900  142.1173  153.9793 H   0  0  0  0  0  0  0  0  0  0  0  0
  148.1240  142.8077  155.1077 H   0  0  0  0  0  0  0  0  0  0  0  0
  149.1429  141.5228  153.1674 H   0  0  0  0  0  0  0  0  0  0  0  0
  150.8520  141.4784  156.7865 H   0  0  0  0  0  0  0  0  0  0  0  0
  149.2105  141.9900  156.4538 H   0  0  0  0  0  0  0  0  0  0  0  0
  147.5843  139.7464  152.8783 H   0  0  0  0  0  0  0  0  0  0  0  0
  149.1069  139.0119  153.3206 H   0  0  0  0  0  0  0  0  0  0  0  0
  148.5146  134.6662  155.2031 H   0  0  0  0  0  0  0  0  0  0  0  0
  143.9062  137.3365  151.5802 H   0  0  0  0  0  0  0  0  0  0  0  0
  143.5179  134.5671  152.2331 H   0  0  0  0  0  0  0  0  0  0  0  0
  146.3129  133.2994  152.2513 H   0  0  0  0  0  0  0  0  0  0  0  0
  144.8033  132.6574  152.9834 H   0  0  0  0  0  0  0  0  0  0  0  0
  145.7937  130.9447  150.2180 H   0  0  0  0  0  0  0  0  0  0  0  0
  145.5902  132.0291  148.8671 H   0  0  0  0  0  0  0  0  0  0  0  0
  147.7100  131.7506  150.1729 H   0  0  0  0  0  0  0  0  0  0  0  0
  143.4816  131.0644  151.1071 H   0  0  0  0  0  0  0  0  0  0  0  0
  142.6561  132.5882  151.2735 H   0  0  0  0  0  0  0  0  0  0  0  0
  142.2339  132.5480  149.2317 H   0  0  0  0  0  0  0  0  0  0  0  0
  143.8726  134.6257  149.8351 H   0  0  0  0  0  0  0  0  0  0  0  0
  145.6570  134.6950  150.0393 H   0  0  0  0  0  0  0  0  0  0  0  0
  1  2  1  0  0  0  0
  1 28  1  0  0  0  0
  1 29  1  0  0  0  0
  1 30  1  0  0  0  0
  2 10  1  0  0  0  0
  2  3  1  0  0  0  0
  2 31  1  0  0  0  0
  3  4  1  0  0  0  0
  3 32  1  0  0  0  0
  3 33  1  0  0  0  0
  4  5  1  0  0  0  0
  4 34  1  0  0  0  0
  4 35  1  0  0  0  0
  5  6  1  0  0  0  0
  5  9  1  0  0  0  0
  5 36  1  0  0  0  0
  6  7  1  0  0  0  0
  6  8  2  0  0  0  0
  7 37  1  0  0  0  0
  7 38  1  0  0  0  0
  9 10  1  0  0  0  0
  9 39  1  0  0  0  0
  9 40  1  0  0  0  0
 10 11  1  0  0  0  0
 11 16  1  0  0  0  0
 11 12  2  0  0  0  0
 12 13  1  0  0  0  0
 13 14  2  0  0  0  0
 13 41  1  0  0  0  0
 14 15  1  0  0  0  0
 15 19  1  0  0  0  0
 15 16  2  0  0  0  0
 16 17  1  0  0  0  0
 17 18  2  0  0  0  0
 18 19  1  0  0  0  0
 18 42  1  0  0  0  0
 19 20  1  0  0  0  0
 20 27  1  0  0  0  0
 20 21  1  0  0  0  0
 20 43  1  0  0  0  0
 21 22  1  0  0  0  0
 21 44  1  0  0  0  0
 21 45  1  0  0  0  0
 22 23  1  0  0  0  0
 22 25  1  0  0  0  0
 22 27  1  0  0  0  0
 23 24  1  0  0  0  0
 23 46  1  0  0  0  0
 23 47  1  0  0  0  0
 24 48  1  0  0  0  0
 25 26  1  0  0  0  0
 25 49  1  0  0  0  0
 25 50  1  0  0  0  0
 26 51  1  0  0  0  0
 27 52  1  0  0  0  0
 27 53  1  0  0  0  0
M  END
> <s_m_source_file>
AV-unprocessed.smi

> <i_m_source_file_index>
187

> <i_lp_mmshare_version>
43012

> <i_f3d_flags>
0

> <s_epik_input>
W0NIM11bQ0BASF0xW0NIMl1bQ0gyXVtDQEBIXShDKD1PKVtOSDJdKVtDSDJdTjFjKG5bY0hdbjIpYyhjMjMpbltjSF1uM1tDSF0oW0NIMl00KVtDSDJdQzQoW0NIMl1bT0hdKVtDSDJdW09IXQ==

> <s_epik_cmdline>
J2VwaWtfcHl0aG9uJywgJy1waCcsICc3LjAnLCAnLXRuJywgJzgnLCAnLW1hJywgJzIwMCcsICctbWV0YWxfYmluZGluZycsICctaW1hZScsICc8aW5maWxlLm1hZT4nLCAnLW9tYWUnLCAnPG91dGZpbGUubWFlPic=

> <r_lp_tautomer_probability>
1

> <r_epik_Ionization_Penalty>
0.0017711

> <r_epik_Ionization_Penalty_Charging>
0

> <r_epik_Ionization_Penalty_Neutral>
0.0017711

> <r_epik_State_Penalty>
0.00107211

> <r_epik_Charging_Adjusted_Penalty>
0.00107211

> <i_epik_Tot_Q>
0

> <i_epik_Tot_abs_Q>
0

> <r_epik_Metal_State_Penalty>
-0

> <b_epik_Metal_Only>
0

> <s_lp_Force_Field>
OPLS_2005

> <r_lp_Energy>
37.2201

> <b_lp_Chiralities_Consistent>
1

> <s_lp_Variant>
AV-unprocessed.smi:187-2

> <Gold.Version>
5.8.1

> <Gold.Id.Protein>
6NUR|6NUR_protein|mol2

> <Gold.PLP.Fitness>
49.7574

> <Gold.PLP.PLP>
-35.6536

> <Gold.PLP.part.hbond>
-5.9454

> <Gold.PLP.part.metal>
0.0000

> <Gold.PLP.part.buried>
-3.7356

> <Gold.PLP.part.nonpolar>
-26.0362

> <Gold.PLP.part.repulsive>
0.5664

> <Gold.PLP.ligand.clash>
0.0000

> <Gold.PLP.ligand.torsion>
0.5176

> <Gold.PLP.Chemscore.Hbond>
3.8038

> <Gold.PLP.Chemscore.CHOScore>
1.0000

> <Gold.PLP.Chemscore.Metal>
0.0000

> <Gold.Chemscore.Hbonds>
donor molecule, donor type, donor heavy atom, donor atom, acceptor molecule, acceptor atom, score
      L1  H    24    48       P1 10747  1.00
      L1  H    26    51       P1 10186  0.46
      P1  H  7989  7998       L1     8  0.44
      P1  H 10785 10796       L1    26  1.00
      L1  C    18    42       P1 10171  1.00

> <Gold.PLP.Chemscore.Internal.Correction>
0.7278

> <Gold.Rescore>
     Score         DG    S(hbond)    S(metal)    S(lipo)     H(rot)  DE(clash)    DE(int)     intcor
     12.00     -13.79       3.45        0.00      59.94       3.99       0.05       1.74       ----

> <Gold.Chemscore.Fitness>
11.9962

> <Gold.Chemscore.DG>
-13.7920

> <Gold.Chemscore.ZeroCoef>
-5.4800

> <Gold.Chemscore.Hbond>
3.4473

> <Gold.Chemscore.Metal>
0.0000

> <Gold.Chemscore.Lipo>
59.9372

> <Gold.Chemscore.Internal_Hbond>
0.0000

> <Gold.Chemscore.DEClash>
0.0515

> <Gold.Chemscore.DEInternal>
1.7443

> <Gold.Chemscore.Rot>
3.9902

> <Gold.Chemscore.Internal.Correction>
   9.000000E+99

> <Gold.Chemscore.Hbonds>
donor molecule, donor type, donor heavy atom, donor atom, acceptor molecule, acceptor atom, score
      L1  H    24    48       P1 10747  0.94
      L1  H    26    51       P1 10186  0.45
      P1  H  7989  7998       L1     8  0.37
      P1  H 10785 10796       L1    26  0.74

> <Gold.Chemscore.Hbond.Weighted>
-11.5141

> <Gold.Chemscore.Metal.Weighted>
-0.0000

> <Gold.Chemscore.Lipo.Weighted>
-7.0127

> <Gold.Chemscore.Internal_Hbond.Weighted>
0.0000

> <Gold.Chemscore.DEClash.Weighted>
0.0515

> <Gold.Chemscore.DEInternal.Weighted>
1.7443

> <Gold.Chemscore.Rot.Weighted>
10.2148

> <Gold.Chemscore.Internal.Correction.Weighted>
   9.000000E+99

> <Gold.Protein.RotatedTorsions>
[ 6907 6896 6895 6894 ] final   28.90 input  -60.11 | X-H torsion
[ 7974 7965 7964 7962 ] final  177.78 input  175.53 | X-H torsion
[ 8008 7997 7996 7995 ] final  137.74 input   59.86 | X-H torsion
[ 10167 10162 10161 10158 ] final -166.25 input  -65.29 | X-H torsion
[ 10718 10713 10712 10709 ] final  -44.61 input   66.30 | X-H torsion
[ 10763 10752 10751 10750 ] final   -1.02 input  -60.55 | X-H torsion
[ 11005 11000 10999 10996 ] final  -69.35 input  -57.11 | X-H torsion

> <Gold.Protein.ActiveResidues>
 VAL166  LYS551  ARG553  GLY616  TRP617  ASP618  TYR619  PRO620  LYS621  CYS622 
 ASP623  PHE694  ASN695  SER759  ASP760  ASP761  ALA762  ILE779  LEU786  VAL792 
 PHE793  MET794  SER795  GLU796  ALA797  LYS798  CYS799  TRP800  GLU811  SER814 

> <Gold.Protein.RotatedAtoms>
  152.0236  134.9808  160.0570 H   0  0  0  0  0  0  0  0  0  0  0  0  # atno 6907 bound_to 6896
  152.1313  133.4404  159.4730 H   0  0  0  0  0  0  0  0  0  0  0  0  # atno 6908 bound_to 6896
  150.6856  134.2336  159.4487 H   0  0  0  0  0  0  0  0  0  0  0  0  # atno 6909 bound_to 6896
  144.7164  140.0298  143.6439 H   0  0  0  0  0  0  0  0  0  0  0  0  # atno 7974 bound_to 7965
  156.3001  140.2411  156.3960 H   0  0  0  0  0  0  0  0  0  0  0  0  # atno 8008 bound_to 7997
  154.8571  140.0421  157.1661 H   0  0  0  0  0  0  0  0  0  0  0  0  # atno 8009 bound_to 7997
  154.8936  140.2967  155.5360 H   0  0  0  0  0  0  0  0  0  0  0  0  # atno 8010 bound_to 7997
  139.6127  144.0782  152.1858 H   0  0  0  0  0  0  0  0  0  0  0  0  # atno 10167 bound_to 10162
  156.2368  130.4177  149.8808 H   0  0  0  0  0  0  0  0  0  0  0  0  # atno 10718 bound_to 10713
  153.3394  135.6979  153.6880 H   0  0  0  0  0  0  0  0  0  0  0  0  # atno 10763 bound_to 10752
  153.5651  135.3527  155.2815 H   0  0  0  0  0  0  0  0  0  0  0  0  # atno 10764 bound_to 10752
  154.8633  135.4258  154.2603 H   0  0  0  0  0  0  0  0  0  0  0  0  # atno 10765 bound_to 10752
  141.1552  133.6762  156.6587 H   0  0  0  0  0  0  0  0  0  0  0  0  # atno 11005 bound_to 11000
  146.0111  139.3171  143.0869 LP  0  0  0  0  0  0  0  0  0  0  0  0  # atno 17320 bound_to 7965
  145.8680  140.9437  143.0665 LP  0  0  0  0  0  0  0  0  0  0  0  0  # atno 17321 bound_to 7965
  140.0404  144.6011  150.7415 LP  0  0  0  0  0  0  0  0  0  0  0  0  # atno 17342 bound_to 10162
  140.7330  143.2712  151.3882 LP  0  0  0  0  0  0  0  0  0  0  0  0  # atno 17343 bound_to 10162
  156.6403  130.8702  151.3512 LP  0  0  0  0  0  0  0  0  0  0  0  0  # atno 17370 bound_to 10713
  157.7158  130.9495  150.1250 LP  0  0  0  0  0  0  0  0  0  0  0  0  # atno 17371 bound_to 10713
  140.3264  134.7965  157.4293 LP  0  0  0  0  0  0  0  0  0  0  0  0  # atno 17394 bound_to 11000
  140.1053  134.5418  155.8315 LP  0  0  0  0  0  0  0  0  0  0  0  0  # atno 17395 bound_to 11000

$$$$
