#       Name:                AV-unprocessed.smi:1982
#       Creating user name   scv26
#       Creation time:       Fri Mar 27 10:21:42 2020


#       File generated by GOLD software.
#

@<TRIPOS>MOLECULE
AV-unprocessed.smi:1982
    41    42     1
SMALL
NO_CHARGES


@<TRIPOS>ATOM
      1 ****        -3.0799  -1.2666   1.6061 C.3            1 S1                 0.0000
      2 ****        -2.4613  -0.4207   0.4778 C.3            1 S1                 0.0000
      3 ****        -3.0190  -0.8894  -0.8815 C.3            1 S1                 0.0000
      4 ****        -2.4611  -0.0616  -2.0444 C.3            1 S1                 0.0000
      5 ****        -0.9309  -0.1213  -2.0625 C.3            1 S1                 0.0000
      6 ****        -0.3371   0.3548  -0.7239 C.3            1 S1                 0.0000
      7 ****         1.1169   0.2266  -0.7707 N.am           1 S1                 0.0000
      8 ****         1.9789   1.1829  -1.1502 C.2            1 S1                 0.0000
      9 ****         1.6308   2.2778  -1.5905 O.2            1 S1                 0.0000
     10 ****         3.4659   0.8568  -1.0000 C.3            1 S1                 0.0000
     11 ****         3.7909   0.5221   0.3754 N.pl3          1 S1                 0.0000
     12 ****         3.9053   1.2889   1.4619 C.2            1 S1                 0.0000
     13 ****         4.1953   0.5726   2.5372 N.2            1 S1                 0.0000
     14 ****         4.2599  -0.7205   2.0461 N.2            1 S1                 0.0000
     15 ****         4.0214  -0.7568   0.7641 N.2            1 S1                 0.0000
     16 ****        -0.9062  -0.4404   0.4823 C.3            1 S1                 0.0000
     17 ****        -0.3222   0.0817   1.8144 C.3            1 S1                 0.0000
     18 ****        -2.7237  -2.2966   1.5713 H              1 S1                 0.0000
     19 ****        -4.1671  -1.2908   1.5261 H              1 S1                 0.0000
     20 ****        -2.8493  -0.8635   2.5915 H              1 S1                 0.0000
     21 ****        -2.7857   0.6104   0.6271 H              1 S1                 0.0000
     22 ****        -2.7781  -1.9420  -1.0365 H              1 S1                 0.0000
     23 ****        -4.1074  -0.8205  -0.8827 H              1 S1                 0.0000
     24 ****        -2.8592  -0.4313  -2.9897 H              1 S1                 0.0000
     25 ****        -2.7897   0.9744  -1.9520 H              1 S1                 0.0000
     26 ****        -0.6101  -1.1436  -2.2687 H              1 S1                 0.0000
     27 ****        -0.5524   0.4924  -2.8810 H              1 S1                 0.0000
     28 ****        -0.6020   1.4051  -0.5850 H              1 S1                 0.0000
     29 ****         1.5017  -0.6439  -0.4325 H              1 S1                 0.0000
     30 ****         3.7291   0.0233  -1.6530 H              1 S1                 0.0000
     31 ****         4.0718   1.7115  -1.3030 H              1 S1                 0.0000
     32 ****         3.7668   2.3600   1.4665 H              1 S1                 0.0000
     33 ****        -0.5893  -1.4792   0.3730 H              1 S1                 0.0000
     34 ****        -0.6406   1.1061   2.0097 H              1 S1                 0.0000
     35 ****         0.7678   0.0710   1.8155 H              1 S1                 0.0000
     36 ****        -0.6297  -0.5310   2.6608 H              1 S1                 0.0000
     37 ****         0.6587   2.4941  -1.6814 LP             1 S1                 0.0000
     38 ****         2.3200   2.9514  -1.8576 LP             1 S1                 0.0000
     39 ****         4.3339   0.8887   3.4758 LP             1 S1                 0.0000
     40 ****         4.4637  -1.5250   2.6039 LP             1 S1                 0.0000
     41 ****         4.0106  -1.5693   0.1812 LP             1 S1                 0.0000
@<TRIPOS>BOND
    1    1    2 1     
    2    1   18 1     
    3    1   19 1     
    4    1   20 1     
    5    2   16 1     
    6    2    3 1     
    7    2   21 1     
    8    3    4 1     
    9    3   22 1     
   10    3   23 1     
   11    4    5 1     
   12    4   24 1     
   13    4   25 1     
   14    5    6 1     
   15    5   26 1     
   16    5   27 1     
   17    6    7 1     
   18    6   16 1     
   19    6   28 1     
   20    7    8 am    
   21    7   29 1     
   22    8    9 2     
   23    8   10 1     
   24   10   11 1     
   25   10   30 1     
   26   10   31 1     
   27   11   15 1     
   28   11   12 1     
   29   12   13 2     
   30   12   32 1     
   31   13   14 1     
   32   14   15 2     
   33   16   17 1     
   34   16   33 1     
   35   17   34 1     
   36   17   35 1     
   37   17   36 1     
   38    9   37 1     
   39    9   38 1     
   40   13   39 1     
   41   14   40 1     
   42   15   41 1     
@<TRIPOS>SUBSTRUCTURE
      1 S1             1
@<TRIPOS>SET
LONE_PAIRS      STATIC     ATOMS    <user>   **** ""
5 37 38 39 40 41
DONOR_HYDROGENS      STATIC     ATOMS    <user>   **** ""
1 29
ATOM$BLUE        STATIC     ATOMS    COLORGROUP SYSTEM
5 37 38 39 40 41
ATOM$RED        STATIC     ATOMS    COLORGROUP SYSTEM
1 29
