#       Name:                AV-unprocessed.smi:1809
#       Creating user name   scv26
#       Creation time:       Fri Mar 27 08:56:57 2020


#       File generated by GOLD software.
#

@<TRIPOS>MOLECULE
AV-unprocessed.smi:1809
    46    48     1
SMALL
NO_CHARGES


@<TRIPOS>ATOM
      1 ****        -7.2609   2.1925   1.9891 C.3            1 S1                 0.0000
      2 ****        -5.9015   1.5876   1.9023 C.2            1 S1                 0.0000
      3 ****        -5.6700   0.4151   1.2995 N.2            1 S1                 0.0000
      4 ****        -4.3295   0.0576   1.3410 N.2            1 S1                 0.0000
      5 ****        -3.5872   0.9742   1.9770 C.2            1 S1                 0.0000
      6 ****        -2.1829   0.8633   2.1583 N.am           1 S1                 0.0000
      7 ****        -1.3792  -0.1607   1.8213 C.2            1 S1                 0.0000
      8 ****        -1.7464  -1.2120   1.2961 O.2            1 S1                 0.0000
      9 ****        -0.1011   0.1003   2.1320 N.am           1 S1                 0.0000
     10 ****         1.0160  -0.8229   1.9510 C.3            1 S1                 0.0000
     11 ****         1.7681  -0.5956   0.6259 C.3            1 S1                 0.0000
     12 ****         0.9367  -0.9465  -0.6274 C.3            1 S1                 0.0000
     13 ****         1.7428  -0.8832  -1.8686 N.4            1 S1                 1.0000
     14 ****         1.9522   0.4607  -2.4507 C.3            1 S1                 0.0000
     15 ****         3.3109   0.4127  -3.1679 C.3            1 S1                 0.0000
     16 ****         3.8104  -1.0269  -3.0033 C.3            1 S1                 0.0000
     17 ****         3.0582  -1.5486  -1.7782 C.3            1 S1                 0.0000
     18 ****         3.7766  -1.1944  -0.4576 C.3            1 S1                 0.0000
     19 ****         2.9182  -1.4329   0.6484 O.3            1 S1                 0.0000
     20 ****        -4.4744   2.3652   2.5768 S.3            1 S1                 0.0000
     21 ****        -8.0210   1.4131   2.0506 H              1 S1                 0.0000
     22 ****        -7.4535   2.8021   1.1062 H              1 S1                 0.0000
     23 ****        -7.3377   2.8233   2.8749 H              1 S1                 0.0000
     24 ****        -1.7416   1.6532   2.6055 H              1 S1                 0.0000
     25 ****         0.1114   0.9907   2.5582 H              1 S1                 0.0000
     26 ****         1.7017  -0.6633   2.7835 H              1 S1                 0.0000
     27 ****         0.6832  -1.8594   2.0304 H              1 S1                 0.0000
     28 ****         2.0874   0.4472   0.5854 H              1 S1                 0.0000
     29 ****         0.5538  -1.9633  -0.5312 H              1 S1                 0.0000
     30 ****         0.0695  -0.2935  -0.7278 H              1 S1                 0.0000
     31 ****         1.1379   0.6978  -3.1359 H              1 S1                 0.0000
     32 ****         1.9667   1.2276  -1.6751 H              1 S1                 0.0000
     33 ****         3.2327   0.6953  -4.2182 H              1 S1                 0.0000
     34 ****         4.0044   1.1079  -2.6933 H              1 S1                 0.0000
     35 ****         3.5255  -1.6109  -3.8794 H              1 S1                 0.0000
     36 ****         4.8945  -1.0920  -2.9030 H              1 S1                 0.0000
     37 ****         2.9212  -2.6294  -1.8324 H              1 S1                 0.0000
     38 ****         4.6720  -1.8063  -0.3459 H              1 S1                 0.0000
     39 ****         4.1067  -0.1543  -0.4464 H              1 S1                 0.0000
     40 ****         1.2264  -1.3910  -2.5730 H              1 S1                 0.0000
     41 ****        -6.3815  -0.1399   0.8686 LP             1 S1                 0.0000
     42 ****        -3.9617  -0.7833   0.9439 LP             1 S1                 0.0000
     43 ****        -2.7137  -1.3551   1.0868 LP             1 S1                 0.0000
     44 ****        -1.0773  -1.9228   1.0790 LP             1 S1                 0.0000
     45 ****         2.6220  -2.3878   0.6263 LP             1 S1                 0.0000
     46 ****         3.4255  -1.2608   1.4929 LP             1 S1                 0.0000
@<TRIPOS>BOND
    1    1    2 1     
    2    1   21 1     
    3    1   22 1     
    4    1   23 1     
    5    2   20 1     
    6    2    3 2     
    7    3    4 1     
    8    4    5 2     
    9    5    6 1     
   10    5   20 1     
   11    6    7 am    
   12    6   24 1     
   13    7    8 2     
   14    7    9 am    
   15    9   10 1     
   16    9   25 1     
   17   10   11 1     
   18   10   26 1     
   19   10   27 1     
   20   11   19 1     
   21   11   12 1     
   22   11   28 1     
   23   12   13 1     
   24   12   29 1     
   25   12   30 1     
   26   13   17 1     
   27   13   14 1     
   28   13   40 1     
   29   14   15 1     
   30   14   31 1     
   31   14   32 1     
   32   15   16 1     
   33   15   33 1     
   34   15   34 1     
   35   16   17 1     
   36   16   35 1     
   37   16   36 1     
   38   17   18 1     
   39   17   37 1     
   40   18   19 1     
   41   18   38 1     
   42   18   39 1     
   43    3   41 1     
   44    4   42 1     
   45    8   43 1     
   46    8   44 1     
   47   19   45 1     
   48   19   46 1     
@<TRIPOS>SUBSTRUCTURE
      1 S1             1
@<TRIPOS>SET
LONE_PAIRS      STATIC     ATOMS    <user>   **** ""
6 41 42 43 44 45 46
DONOR_HYDROGENS      STATIC     ATOMS    <user>   **** ""
3 24 25 40
ATOM$BLUE        STATIC     ATOMS    COLORGROUP SYSTEM
6 41 42 43 44 45 46
ATOM$RED        STATIC     ATOMS    COLORGROUP SYSTEM
3 24 25 40
