#       Name:                AV-unprocessed.smi:99
#       Creating user name   scv26
#       Creation time:       Thu Mar 26 17:39:00 2020


#       File generated by GOLD software.
#

@<TRIPOS>MOLECULE
AV-unprocessed.smi:99
    65    68     1
SMALL
NO_CHARGES


@<TRIPOS>ATOM
      1 ****        -2.9108   0.9957  -0.5148 O.2            1 S1                 0.0000
      2 ****        -2.0805   1.7935  -0.9550 C.2            1 S1                 0.0000
      3 ****        -0.7535   1.6722  -0.7604 O.3            1 S1                 0.0000
      4 ****        -0.2407   0.5589  -0.0482 C.3            1 S1                 0.0000
      5 ****         1.2972   0.6176  -0.0633 C.3            1 S1                 0.0000
      6 ****         1.7760   0.3452  -1.3808 O.3            1 S1                 0.0000
      7 ****         2.2042  -0.9853  -1.5104 C.3            1 S1                 0.0000
      8 ****         1.4423  -1.6611  -2.6337 N.am           1 S1                 0.0000
      9 ****         0.2805  -1.1160  -3.1559 C.2            1 S1                 0.0000
     10 ****        -0.3909  -1.7219  -4.1567 C.2            1 S1                 0.0000
     11 ****         0.1171  -2.9762  -4.7052 C.2            1 S1                 0.0000
     12 ****        -0.5017  -3.5214  -5.6171 O.2            1 S1                 0.0000
     13 ****         1.2657  -3.4897  -4.1776 N.pl3          1 S1                -1.0000
     14 ****         1.9465  -2.8795  -3.1638 C.2            1 S1                 0.0000
     15 ****         2.9831  -3.3336  -2.6777 O.2            1 S1                 0.0000
     16 ****         2.0153  -1.6736  -0.1408 C.3            1 S1                 0.0000
     17 ****         0.8198  -2.4340  -0.0579 O.3            1 S1                 0.0000
     18 ****         1.9847  -0.4592   0.7758 C.3            1 S1                 0.0000
     19 ****         1.3886  -0.6939   2.0477 O.3            1 S1                 0.0000
     20 ****         2.0905  -1.2661   3.0488 C.2            1 S1                 0.0000
     21 ****         3.2653  -1.6235   2.9432 O.2            1 S1                 0.0000
     22 ****         1.2904  -1.4258   4.2972 C.ar           1 S1                 0.0000
     23 ****         1.8919  -2.0108   5.4360 C.ar           1 S1                 0.0000
     24 ****         1.1609  -2.1755   6.6286 C.ar           1 S1                 0.0000
     25 ****        -0.1811  -1.7576   6.6967 C.ar           1 S1                 0.0000
     26 ****        -0.7910  -1.1746   5.5708 C.ar           1 S1                 0.0000
     27 ****        -0.0616  -1.0090   4.3772 C.ar           1 S1                 0.0000
     28 ****        -2.4412   2.9970  -1.7585 C.ar           1 S1                 0.0000
     29 ****        -3.8043   3.2810  -2.0079 C.ar           1 S1                 0.0000
     30 ****        -4.1753   4.4091  -2.7654 C.ar           1 S1                 0.0000
     31 ****        -3.1875   5.2664  -3.2837 C.ar           1 S1                 0.0000
     32 ****        -1.8280   4.9944  -3.0436 C.ar           1 S1                 0.0000
     33 ****        -1.4549   3.8670  -2.2859 C.ar           1 S1                 0.0000
     34 ****        -0.6080   0.6011   0.9779 H              1 S1                 0.0000
     35 ****        -0.6059  -0.3689  -0.4879 H              1 S1                 0.0000
     36 ****         1.6242   1.6072   0.2572 H              1 S1                 0.0000
     37 ****         3.2458  -0.9618  -1.8357 H              1 S1                 0.0000
     38 ****        -0.1110  -0.1883  -2.7696 H              1 S1                 0.0000
     39 ****        -1.2952  -1.2826  -4.5514 H              1 S1                 0.0000
     40 ****         2.8641  -2.3258   0.0672 H              1 S1                 0.0000
     41 ****         0.7725  -2.8261   0.8003 H              1 S1                 0.0000
     42 ****         3.0132  -0.1245   0.9227 H              1 S1                 0.0000
     43 ****         2.9207  -2.3399   5.4072 H              1 S1                 0.0000
     44 ****         1.6308  -2.6236   7.4916 H              1 S1                 0.0000
     45 ****        -0.7419  -1.8843   7.6110 H              1 S1                 0.0000
     46 ****        -1.8214  -0.8542   5.6215 H              1 S1                 0.0000
     47 ****        -0.5612  -0.5591   3.5316 H              1 S1                 0.0000
     48 ****        -4.5806   2.6368  -1.6208 H              1 S1                 0.0000
     49 ****        -5.2194   4.6159  -2.9486 H              1 S1                 0.0000
     50 ****        -3.4720   6.1310  -3.8651 H              1 S1                 0.0000
     51 ****        -1.0688   5.6515  -3.4417 H              1 S1                 0.0000
     52 ****        -0.4026   3.6859  -2.1227 H              1 S1                 0.0000
     53 ****        -2.6106   0.2057   0.0197 LP             1 S1                 0.0000
     54 ****        -3.8845   1.1386  -0.6923 LP             1 S1                 0.0000
     55 ****         2.5440   0.9541  -1.5793 LP             1 S1                 0.0000
     56 ****         1.0390   0.5141  -2.0353 LP             1 S1                 0.0000
     57 ****        -1.3391  -3.1054  -5.9718 LP             1 S1                 0.0000
     58 ****        -0.1676  -4.3808  -6.0042 LP             1 S1                 0.0000
     59 ****         1.6230  -4.3470  -4.5482 LP             1 S1                 0.0000
     60 ****         3.4418  -2.8469  -1.9343 LP             1 S1                 0.0000
     61 ****         3.3660  -4.1890  -3.0266 LP             1 S1                 0.0000
     62 ****         0.8265  -3.1500  -0.7560 LP             1 S1                 0.0000
     63 ****         0.0300  -1.8373  -0.2001 LP             1 S1                 0.0000
     64 ****         3.7513  -1.4947   2.0787 LP             1 S1                 0.0000
     65 ****         3.7325  -2.0422   3.7219 LP             1 S1                 0.0000
@<TRIPOS>BOND
    1    1    2 2     
    2    2    3 1     
    3    2   28 1     
    4    3    4 1     
    5    4    5 1     
    6    4   34 1     
    7    4   35 1     
    8    5   18 1     
    9    5    6 1     
   10    5   36 1     
   11    6    7 1     
   12    7    8 1     
   13    7   16 1     
   14    7   37 1     
   15    8   14 am    
   16    8    9 1     
   17    9   10 2     
   18    9   38 1     
   19   10   11 1     
   20   10   39 1     
   21   11   12 2     
   22   11   13 1     
   23   13   14 1     
   24   14   15 2     
   25   16   17 1     
   26   16   18 1     
   27   16   40 1     
   28   17   41 1     
   29   18   19 1     
   30   18   42 1     
   31   19   20 1     
   32   20   21 2     
   33   20   22 1     
   34   22   27 ar    
   35   22   23 ar    
   36   23   24 ar    
   37   23   43 1     
   38   24   25 ar    
   39   24   44 1     
   40   25   26 ar    
   41   25   45 1     
   42   26   27 ar    
   43   26   46 1     
   44   27   47 1     
   45   28   33 ar    
   46   28   29 ar    
   47   29   30 ar    
   48   29   48 1     
   49   30   31 ar    
   50   30   49 1     
   51   31   32 ar    
   52   31   50 1     
   53   32   33 ar    
   54   32   51 1     
   55   33   52 1     
   56    1   53 1     
   57    1   54 1     
   58    6   55 1     
   59    6   56 1     
   60   12   57 1     
   61   12   58 1     
   62   13   59 1     
   63   15   60 1     
   64   15   61 1     
   65   17   62 1     
   66   17   63 1     
   67   21   64 1     
   68   21   65 1     
@<TRIPOS>SUBSTRUCTURE
      1 S1             1
@<TRIPOS>SET
LONE_PAIRS      STATIC     ATOMS    <user>   **** ""
13 53 54 55 56 57 58 59 60 61 62 63 64 65
DONOR_HYDROGENS      STATIC     ATOMS    <user>   **** ""
1 41
ATOM$BLUE        STATIC     ATOMS    COLORGROUP SYSTEM
13 53 54 55 56 57 58 59 60 61 62 63 64 65
ATOM$RED        STATIC     ATOMS    COLORGROUP SYSTEM
1 41
