AV-unprocessed.smi:1055|AV-procd|sdf|4625|dock10
  -GOLD-   22720 3123D 1   1.00000     0.00000
 Structure written by MMmdl.
 52 53  0  0  0  0  0  0  0  0  3 V2000
  146.5074  142.3407  153.7773 C   0  0  0  0  0  0  0  0  0  0  0  0
  147.2658  141.3415  154.2575 C   0  0  0  0  0  0  0  0  0  0  0  0
  148.7799  141.4299  154.2972 C   0  0  0  0  0  0  0  0  0  0  0  0
  146.6602  140.0514  154.7876 C   0  0  0  0  0  0  0  0  0  0  0  0
  146.0329  139.2497  153.7074 N   0  3  2  0  0  0  0  0  0  0  0  0
  145.4422  137.9868  154.2181 C   0  0  0  0  0  0  0  0  0  0  0  0
  144.6625  137.2495  153.1143 C   0  0  0  0  0  0  0  0  0  0  0  0
  145.5278  136.9852  151.8698 C   0  0  2  0  0  0  0  0  0  0  0  0
  146.5138  135.9387  152.1402 N   0  0  0  0  0  0  0  0  0  0  0  0
  146.2382  134.6319  152.2622 C   0  0  0  0  0  0  0  0  0  0  0  0
  145.1083  134.1632  152.1297 O   0  0  0  0  0  0  0  0  0  0  0  0
  147.3485  133.9204  152.5246 N   0  0  0  0  0  0  0  0  0  0  0  0
  147.4689  132.5229  152.7571 C   0  0  0  0  0  0  0  0  0  0  0  0
  146.4638  131.6797  152.2396 C   0  0  0  0  0  0  0  0  0  0  0  0
  146.5487  130.2853  152.4311 C   0  0  0  0  0  0  0  0  0  0  0  0
  147.6489  129.7360  153.1341 C   0  0  0  0  0  0  0  0  0  0  0  0
  147.8063  128.3520  153.3641 N   0  0  0  0  0  0  0  0  0  0  0  0
  148.2724  127.8815  154.6637 C   0  0  0  0  0  0  0  0  0  0  0  0
  147.4828  127.4001  152.3097 C   0  0  0  0  0  0  0  0  0  0  0  0
  148.5958  130.5854  153.6018 N   0  3  0  0  0  0  0  0  0  0  0  0
  148.5531  131.9258  153.4433 C   0  0  0  0  0  0  0  0  0  0  0  0
  146.1945  138.2961  151.4075 C   0  0  0  0  0  0  0  0  0  0  0  0
  146.9382  139.0042  152.5536 C   0  0  0  0  0  0  0  0  0  0  0  0
  146.9514  143.2511  153.4012 H   0  0  0  0  0  0  0  0  0  0  0  0
  145.4301  142.2653  153.7522 H   0  0  0  0  0  0  0  0  0  0  0  0
  149.2220  140.6154  153.7229 H   0  0  0  0  0  0  0  0  0  0  0  0
  149.1427  141.3638  155.3231 H   0  0  0  0  0  0  0  0  0  0  0  0
  149.1337  142.3715  153.8755 H   0  0  0  0  0  0  0  0  0  0  0  0
  147.4140  139.4523  155.3014 H   0  0  0  0  0  0  0  0  0  0  0  0
  145.9123  140.3219  155.5344 H   0  0  0  0  0  0  0  0  0  0  0  0
  146.2321  137.3490  154.6179 H   0  0  0  0  0  0  0  0  0  0  0  0
  144.7660  138.2065  155.0451 H   0  0  0  0  0  0  0  0  0  0  0  0
  144.2579  136.3134  153.5010 H   0  0  0  0  0  0  0  0  0  0  0  0
  143.8012  137.8540  152.8265 H   0  0  0  0  0  0  0  0  0  0  0  0
  144.8691  136.6288  151.0756 H   0  0  0  0  0  0  0  0  0  0  0  0
  147.4710  136.2349  152.2632 H   0  0  0  0  0  0  0  0  0  0  0  0
  148.2164  134.4358  152.5261 H   0  0  0  0  0  0  0  0  0  0  0  0
  145.6253  132.0958  151.7002 H   0  0  0  0  0  0  0  0  0  0  0  0
  145.7653  129.6587  152.0320 H   0  0  0  0  0  0  0  0  0  0  0  0
  149.2489  128.3064  154.8990 H   0  0  0  0  0  0  0  0  0  0  0  0
  148.3696  126.7957  154.6816 H   0  0  0  0  0  0  0  0  0  0  0  0
  147.5707  128.1674  155.4477 H   0  0  0  0  0  0  0  0  0  0  0  0
  148.1084  127.5723  151.4334 H   0  0  0  0  0  0  0  0  0  0  0  0
  146.4369  127.4932  152.0160 H   0  0  0  0  0  0  0  0  0  0  0  0
  147.6456  126.3735  152.6383 H   0  0  0  0  0  0  0  0  0  0  0  0
  149.3948  132.4562  153.8620 H   0  0  0  0  0  0  0  0  0  0  0  0
  146.8766  138.1091  150.5774 H   0  0  0  0  0  0  0  0  0  0  0  0
  145.4271  138.9664  151.0181 H   0  0  0  0  0  0  0  0  0  0  0  0
  147.3392  139.9469  152.1813 H   0  0  0  0  0  0  0  0  0  0  0  0
  147.7917  138.4069  152.8780 H   0  0  0  0  0  0  0  0  0  0  0  0
  145.2613  139.8016  153.3600 H   0  0  0  0  0  0  0  0  0  0  0  0
  149.3919  130.1891  154.1017 H   0  0  0  0  0  0  0  0  0  0  0  0
  1  2  2  0  0  0  0
  1 24  1  0  0  0  0
  1 25  1  0  0  0  0
  2  3  1  0  0  0  0
  2  4  1  0  0  0  0
  3 26  1  0  0  0  0
  3 27  1  0  0  0  0
  3 28  1  0  0  0  0
  4  5  1  0  0  0  0
  4 29  1  0  0  0  0
  4 30  1  0  0  0  0
  5 23  1  0  0  0  0
  5  6  1  0  0  0  0
  5 51  1  0  0  0  0
  6  7  1  0  0  0  0
  6 31  1  0  0  0  0
  6 32  1  0  0  0  0
  7  8  1  0  0  0  0
  7 33  1  0  0  0  0
  7 34  1  0  0  0  0
  8  9  1  0  0  0  0
  8 22  1  0  0  0  0
  8 35  1  0  0  0  0
  9 10  1  0  0  0  0
  9 36  1  0  0  0  0
 10 11  2  0  0  0  0
 10 12  1  0  0  0  0
 12 13  1  0  0  0  0
 12 37  1  0  0  0  0
 13 21  1  0  0  0  0
 13 14  2  0  0  0  0
 14 15  1  0  0  0  0
 14 38  1  0  0  0  0
 15 16  2  0  0  0  0
 15 39  1  0  0  0  0
 16 17  1  0  0  0  0
 16 20  1  0  0  0  0
 17 18  1  0  0  0  0
 17 19  1  0  0  0  0
 18 40  1  0  0  0  0
 18 41  1  0  0  0  0
 18 42  1  0  0  0  0
 19 43  1  0  0  0  0
 19 44  1  0  0  0  0
 19 45  1  0  0  0  0
 20 21  2  0  0  0  0
 20 52  1  0  0  0  0
 21 46  1  0  0  0  0
 22 23  1  0  0  0  0
 22 47  1  0  0  0  0
 22 48  1  0  0  0  0
 23 49  1  0  0  0  0
 23 50  1  0  0  0  0
M  CHG  1   5   1
M  CHG  1  20   1
M  END
> <s_m_source_file>
AV-unprocessed.smi

> <i_m_source_file_index>
1055

> <i_lp_mmshare_version>
43012

> <i_f3d_flags>
0

> <s_epik_input>
W0NIMl09QyhbQ0gzXSlbQ0gyXU4xW0NIMl1bQ0gyXVtDSF0oW0NIMl1bQ0gyXTEpW05IXUMoPU8pW05IXWMyW2NIXVtjSF1jKE4oW0NIM10pW0NIM10pbltjSF0y

> <s_epik_cmdline>
J2VwaWtfcHl0aG9uJywgJy1waCcsICc3LjAnLCAnLXRuJywgJzgnLCAnLW1hJywgJzIwMCcsICctbWV0YWxfYmluZGluZycsICctaW1hZScsICc8aW5maWxlLm1hZT4nLCAnLW9tYWUnLCAnPG91dGZpbGUubWFlPic=

> <r_lp_tautomer_probability>
0.999994

> <r_epik_Ionization_Penalty>
0.344238

> <r_epik_Ionization_Penalty_Charging>
0.344219

> <r_epik_Ionization_Penalty_Neutral>
1.87459e-05

> <r_epik_State_Penalty>
0.320654

> <r_epik_Charging_Adjusted_Penalty>
0.664873

> <i_epik_Tot_Q>
2

> <i_epik_Tot_abs_Q>
2

> <r_epik_Metal_State_Penalty>
0.58246

> <b_epik_Metal_Only>
0

> <s_lp_Force_Field>
OPLS_2005

> <r_lp_Energy>
26.4869

> <b_lp_Chiralities_Consistent>
1

> <s_lp_Variant>
AV-unprocessed.smi:1055-2

> <Gold.Version>
5.8.1

> <Gold.Id.Protein>
6NUR|6NUR_protein|mol2

> <Gold.PLP.Fitness>
46.4445

> <Gold.PLP.PLP>
-37.0395

> <Gold.PLP.part.hbond>
-2.7997

> <Gold.PLP.part.metal>
0.0000

> <Gold.PLP.part.buried>
0.1824

> <Gold.PLP.part.nonpolar>
-34.9281

> <Gold.PLP.part.repulsive>
0.1440

> <Gold.PLP.ligand.clash>
0.0000

> <Gold.PLP.ligand.torsion>
1.0168

> <Gold.PLP.Chemscore.Hbond>
3.8000

> <Gold.PLP.Chemscore.CHOScore>
0.0000

> <Gold.PLP.Chemscore.Metal>
0.0000

> <Gold.Chemscore.Hbonds>
donor molecule, donor type, donor heavy atom, donor atom, acceptor molecule, acceptor atom, score
      L1  H     5    51       P1 10175  2.00
      L1  H     9    36       P1  7948  0.98
      L1  H    12    37       P1  7948  0.76

> <Gold.PLP.Chemscore.Internal.Correction>
0.0386

> <Gold.Rescore>
     Score         DG    S(hbond)    S(metal)    S(lipo)     H(rot)  DE(clash)    DE(int)     intcor
     15.86     -19.45       2.14        0.00      87.72       1.35       1.31       2.28       ----

> <Gold.Chemscore.Fitness>
15.8587

> <Gold.Chemscore.DG>
-19.4538

> <Gold.Chemscore.ZeroCoef>
-5.4800

> <Gold.Chemscore.Hbond>
2.1429

> <Gold.Chemscore.Metal>
0.0000

> <Gold.Chemscore.Lipo>
87.7231

> <Gold.Chemscore.Internal_Hbond>
0.0000

> <Gold.Chemscore.DEClash>
1.3136

> <Gold.Chemscore.DEInternal>
2.2815

> <Gold.Chemscore.Rot>
1.3465

> <Gold.Chemscore.Internal.Correction>
   9.000000E+99

> <Gold.Chemscore.Hbonds>
donor molecule, donor type, donor heavy atom, donor atom, acceptor molecule, acceptor atom, score
      L1  H     5    51       P1 10175  0.99
      L1  H     9    36       P1  7948  0.88
      L1  H    12    37       P1  7948  0.16

> <Gold.Chemscore.Hbond.Weighted>
-7.1572

> <Gold.Chemscore.Metal.Weighted>
-0.0000

> <Gold.Chemscore.Lipo.Weighted>
-10.2636

> <Gold.Chemscore.Internal_Hbond.Weighted>
0.0000

> <Gold.Chemscore.DEClash.Weighted>
1.3136

> <Gold.Chemscore.DEInternal.Weighted>
2.2815

> <Gold.Chemscore.Rot.Weighted>
3.4470

> <Gold.Chemscore.Internal.Correction.Weighted>
   9.000000E+99

> <Gold.Protein.RotatedTorsions>
[ 6907 6896 6895 6894 ] final  -77.49 input  -60.11 | X-H torsion
[ 7974 7965 7964 7962 ] final  -79.05 input  175.53 | X-H torsion
[ 8008 7997 7996 7995 ] final   38.52 input   59.86 | X-H torsion
[ 10167 10162 10161 10158 ] final -147.90 input  -65.29 | X-H torsion
[ 10718 10713 10712 10709 ] final  -52.40 input   66.30 | X-H torsion
[ 10763 10752 10751 10750 ] final  -14.11 input  -60.55 | X-H torsion
[ 11005 11000 10999 10996 ] final  -13.66 input  -57.11 | X-H torsion

> <Gold.Protein.ActiveResidues>
 VAL166  LYS551  ARG553  GLY616  TRP617  ASP618  TYR619  PRO620  LYS621  CYS622 
 ASP623  PHE694  ASN695  SER759  ASP760  ASP761  ALA762  ILE779  LEU786  VAL792 
 PHE793  MET794  SER795  GLU796  ALA797  LYS798  CYS799  TRP800  GLU811  SER814 

> <Gold.Protein.RotatedAtoms>
  150.6997  134.4414  159.5293 H   0  0  0  0  0  0  0  0  0  0  0  0  # atno 6907 bound_to 6896
  152.2123  134.8487  160.0505 H   0  0  0  0  0  0  0  0  0  0  0  0  # atno 6908 bound_to 6896
  151.9368  133.3591  159.3987 H   0  0  0  0  0  0  0  0  0  0  0  0  # atno 6909 bound_to 6896
  145.5783  140.9453  143.1358 H   0  0  0  0  0  0  0  0  0  0  0  0  # atno 7974 bound_to 7965
  155.2215  140.3331  155.4315 H   0  0  0  0  0  0  0  0  0  0  0  0  # atno 8008 bound_to 7997
  156.2331  140.1860  156.7238 H   0  0  0  0  0  0  0  0  0  0  0  0  # atno 8009 bound_to 7997
  154.6012  140.0623  156.9356 H   0  0  0  0  0  0  0  0  0  0  0  0  # atno 8010 bound_to 7997
  139.7580  143.8419  152.2601 H   0  0  0  0  0  0  0  0  0  0  0  0  # atno 10167 bound_to 10162
  156.1625  130.4149  149.9771 H   0  0  0  0  0  0  0  0  0  0  0  0  # atno 10718 bound_to 10713
  153.5234  135.7015  153.5720 H   0  0  0  0  0  0  0  0  0  0  0  0  # atno 10763 bound_to 10752
  153.3759  135.3933  155.1822 H   0  0  0  0  0  0  0  0  0  0  0  0  # atno 10764 bound_to 10752
  154.8692  135.3823  154.4725 H   0  0  0  0  0  0  0  0  0  0  0  0  # atno 10765 bound_to 10752
  140.7784  133.8382  155.9269 H   0  0  0  0  0  0  0  0  0  0  0  0  # atno 11005 bound_to 11000
  144.7405  139.7461  143.7312 LP  0  0  0  0  0  0  0  0  0  0  0  0  # atno 17320 bound_to 7965
  146.1734  139.4895  142.9912 LP  0  0  0  0  0  0  0  0  0  0  0  0  # atno 17321 bound_to 7965
  139.8417  144.7207  150.9323 LP  0  0  0  0  0  0  0  0  0  0  0  0  # atno 17342 bound_to 10162
  140.7804  143.3977  151.1201 LP  0  0  0  0  0  0  0  0  0  0  0  0  # atno 17343 bound_to 10162
  156.7596  130.9146  151.3641 LP  0  0  0  0  0  0  0  0  0  0  0  0  # atno 17370 bound_to 10713
  157.6743  130.9080  150.0113 LP  0  0  0  0  0  0  0  0  0  0  0  0  # atno 17371 bound_to 10713
  140.9507  134.1783  157.4730 LP  0  0  0  0  0  0  0  0  0  0  0  0  # atno 17394 bound_to 11000
  139.8746  134.9908  156.5518 LP  0  0  0  0  0  0  0  0  0  0  0  0  # atno 17395 bound_to 11000

$$$$
