AV-unprocessed.smi:2095|AV-procd|sdf|8559|dock5
  -GOLD-   2272011283D 1   1.00000     0.00000
 Structure written by MMmdl.
 42 43  0  0  0  0  0  0  0  0  2 V2000
  145.6536  136.1575  150.7728 C   0  0  0  0  0  0  0  0  0  0  0  0
  145.0331  134.9434  151.4874 C   0  0  1  0  0  0  0  0  0  0  0  0
  145.1106  133.6581  150.6468 C   0  0  0  0  0  0  0  0  0  0  0  0
  146.5391  133.1039  150.6243 C   0  0  0  0  0  0  0  0  0  0  0  0
  147.0688  132.9127  152.0524 C   0  0  0  0  0  0  0  0  0  0  0  0
  147.0287  134.1837  152.8306 N   0  3  2  0  0  0  0  0  0  0  0  0
  147.7549  134.0594  154.1380 C   0  0  1  0  0  0  0  0  0  0  0  0
  149.1882  133.5453  153.8778 C   0  0  0  0  0  0  0  0  0  0  0  0
  147.7769  135.3588  154.9902 C   0  0  0  0  0  0  0  0  0  0  0  0
  148.5381  136.4359  154.3602 N   0  0  0  0  0  0  0  0  0  0  0  0
  149.3172  137.3208  155.0027 C   0  0  0  0  0  0  0  0  0  0  0  0
  149.4665  137.3276  156.2246 O   0  0  0  0  0  0  0  0  0  0  0  0
  150.0251  138.3636  154.1339 C   0  0  0  0  0  0  0  0  0  0  0  0
  151.0746  139.0445  154.8698 N   0  0  0  0  0  0  0  0  0  0  0  0
  152.1639  138.5745  155.4812 C   0  0  0  0  0  0  0  0  0  0  0  0
  152.8669  139.5458  156.0434 N   0  0  0  0  0  0  0  0  0  0  0  0
  152.1342  140.6809  155.7388 N   0  0  0  0  0  0  0  0  0  0  0  0
  151.0702  140.3898  155.0418 N   0  0  0  0  0  0  0  0  0  0  0  0
  145.6365  134.7217  152.8915 C   0  0  0  0  0  0  0  0  0  0  0  0
  146.7264  136.0378  150.6211 H   0  0  0  0  0  0  0  0  0  0  0  0
  145.5044  137.0700  151.3507 H   0  0  0  0  0  0  0  0  0  0  0  0
  145.1956  136.3123  149.7955 H   0  0  0  0  0  0  0  0  0  0  0  0
  143.9762  135.1772  151.6213 H   0  0  0  0  0  0  0  0  0  0  0  0
  144.4436  132.9078  151.0737 H   0  0  0  0  0  0  0  0  0  0  0  0
  144.7568  133.8397  149.6313 H   0  0  0  0  0  0  0  0  0  0  0  0
  146.5563  132.1520  150.0927 H   0  0  0  0  0  0  0  0  0  0  0  0
  147.1967  133.7749  150.0707 H   0  0  0  0  0  0  0  0  0  0  0  0
  146.4777  132.1543  152.5683 H   0  0  0  0  0  0  0  0  0  0  0  0
  148.0844  132.5239  151.9943 H   0  0  0  0  0  0  0  0  0  0  0  0
  147.2295  133.3108  154.7335 H   0  0  0  0  0  0  0  0  0  0  0  0
  149.7066  133.3083  154.8064 H   0  0  0  0  0  0  0  0  0  0  0  0
  149.7819  134.2918  153.3490 H   0  0  0  0  0  0  0  0  0  0  0  0
  149.2045  132.6344  153.2815 H   0  0  0  0  0  0  0  0  0  0  0  0
  146.7606  135.6863  155.2163 H   0  0  0  0  0  0  0  0  0  0  0  0
  148.2667  135.1785  155.9472 H   0  0  0  0  0  0  0  0  0  0  0  0
  148.4736  136.5096  153.3550 H   0  0  0  0  0  0  0  0  0  0  0  0
  150.4677  137.8980  153.2519 H   0  0  0  0  0  0  0  0  0  0  0  0
  149.2963  139.0947  153.7809 H   0  0  0  0  0  0  0  0  0  0  0  0
  152.4383  137.5305  155.5152 H   0  0  0  0  0  0  0  0  0  0  0  0
  145.6056  135.6792  153.4102 H   0  0  0  0  0  0  0  0  0  0  0  0
  145.0116  134.0308  153.4599 H   0  0  0  0  0  0  0  0  0  0  0  0
  147.5497  134.8653  152.2972 H   0  0  0  0  0  0  0  0  0  0  0  0
  1  2  1  0  0  0  0
  1 20  1  0  0  0  0
  1 21  1  0  0  0  0
  1 22  1  0  0  0  0
  2 19  1  0  0  0  0
  2  3  1  0  0  0  0
  2 23  1  0  0  0  0
  3  4  1  0  0  0  0
  3 24  1  0  0  0  0
  3 25  1  0  0  0  0
  4  5  1  0  0  0  0
  4 26  1  0  0  0  0
  4 27  1  0  0  0  0
  5  6  1  0  0  0  0
  5 28  1  0  0  0  0
  5 29  1  0  0  0  0
  6  7  1  0  0  0  0
  6 19  1  0  0  0  0
  6 42  1  0  0  0  0
  7  8  1  0  0  0  0
  7  9  1  0  0  0  0
  7 30  1  0  0  0  0
  8 31  1  0  0  0  0
  8 32  1  0  0  0  0
  8 33  1  0  0  0  0
  9 10  1  0  0  0  0
  9 34  1  0  0  0  0
  9 35  1  0  0  0  0
 10 11  1  0  0  0  0
 10 36  1  0  0  0  0
 11 12  2  0  0  0  0
 11 13  1  0  0  0  0
 13 14  1  0  0  0  0
 13 37  1  0  0  0  0
 13 38  1  0  0  0  0
 14 18  1  0  0  0  0
 14 15  1  0  0  0  0
 15 16  2  0  0  0  0
 15 39  1  0  0  0  0
 16 17  1  0  0  0  0
 17 18  2  0  0  0  0
 19 40  1  0  0  0  0
 19 41  1  0  0  0  0
M  CHG  1   6   1
M  END
> <s_m_source_file>
AV-unprocessed.smi

> <i_m_source_file_index>
2095

> <i_lp_mmshare_version>
43012

> <i_f3d_flags>
0

> <s_epik_input>
W0NIM11bQ0BASF0xW0NIMl1bQ0gyXVtDSDJdTihbQ0gyXTEpW0NASF0oW0NIM10pW0NIMl1bTkhdQyg9TylbQ0gyXW4yW2NIXW5ubjI=

> <s_epik_cmdline>
J2VwaWtfcHl0aG9uJywgJy1waCcsICc3LjAnLCAnLXRuJywgJzgnLCAnLW1hJywgJzIwMCcsICctbWV0YWxfYmluZGluZycsICctaW1hZScsICc8aW5maWxlLm1hZT4nLCAnLW9tYWUnLCAnPG91dGZpbGUubWFlPic=

> <r_lp_tautomer_probability>
1

> <r_epik_Ionization_Penalty>
0.00268321

> <r_epik_Ionization_Penalty_Charging>
0.00267875

> <r_epik_Ionization_Penalty_Neutral>
4.46125e-06

> <r_epik_State_Penalty>
0.00186642

> <r_epik_Charging_Adjusted_Penalty>
0.00454517

> <i_epik_Tot_Q>
1

> <i_epik_Tot_abs_Q>
1

> <r_epik_Metal_State_Penalty>
-0

> <b_epik_Metal_Only>
0

> <s_lp_Force_Field>
OPLS_2005

> <r_lp_Energy>
29.9009

> <b_lp_Chiralities_Consistent>
1

> <s_lp_Variant>
AV-unprocessed.smi:2095-6

> <Gold.Version>
5.8.1

> <Gold.Id.Protein>
6NUR|6NUR_protein|mol2

> <Gold.PLP.Fitness>
44.4078

> <Gold.PLP.PLP>
-30.2321

> <Gold.PLP.part.hbond>
-5.5802

> <Gold.PLP.part.metal>
0.0000

> <Gold.PLP.part.buried>
-0.5393

> <Gold.PLP.part.nonpolar>
-25.3638

> <Gold.PLP.part.repulsive>
0.0704

> <Gold.PLP.ligand.clash>
0.0000

> <Gold.PLP.ligand.torsion>
0.3713

> <Gold.PLP.Chemscore.Hbond>
4.9500

> <Gold.PLP.Chemscore.CHOScore>
0.0000

> <Gold.PLP.Chemscore.Metal>
0.0000

> <Gold.Chemscore.Hbonds>
donor molecule, donor type, donor heavy atom, donor atom, acceptor molecule, acceptor atom, score
      L1  H     6    42       P1  7948  2.00
      L1  H    10    36       P1  7948  1.00
      P1  H  7989  7998       L1    18  0.90
      P1  H  7997  8009       L1    16  1.00

> <Gold.PLP.Chemscore.Internal.Correction>
0.0683

> <Gold.Rescore>
     Score         DG    S(hbond)    S(metal)    S(lipo)     H(rot)  DE(clash)    DE(int)     intcor
     14.44     -14.99       2.85        0.00      57.89       2.64       0.15       0.40       ----

> <Gold.Chemscore.Fitness>
14.4377

> <Gold.Chemscore.DG>
-14.9915

> <Gold.Chemscore.ZeroCoef>
-5.4800

> <Gold.Chemscore.Hbond>
2.8464

> <Gold.Chemscore.Metal>
0.0000

> <Gold.Chemscore.Lipo>
57.8872

> <Gold.Chemscore.Internal_Hbond>
0.0000

> <Gold.Chemscore.DEClash>
0.1535

> <Gold.Chemscore.DEInternal>
0.4003

> <Gold.Chemscore.Rot>
2.6439

> <Gold.Chemscore.Internal.Correction>
   9.000000E+99

> <Gold.Chemscore.Hbonds>
donor molecule, donor type, donor heavy atom, donor atom, acceptor molecule, acceptor atom, score
      L1  H     6    42       P1  7948  0.91
      L1  H    10    36       P1  7948  0.95
      P1  H  7989  7998       L1    18  0.04
      P1  H  7997  8009       L1    16  0.34

> <Gold.Chemscore.Hbond.Weighted>
-9.5071

> <Gold.Chemscore.Metal.Weighted>
-0.0000

> <Gold.Chemscore.Lipo.Weighted>
-6.7728

> <Gold.Chemscore.Internal_Hbond.Weighted>
0.0000

> <Gold.Chemscore.DEClash.Weighted>
0.1535

> <Gold.Chemscore.DEInternal.Weighted>
0.4003

> <Gold.Chemscore.Rot.Weighted>
6.7685

> <Gold.Chemscore.Internal.Correction.Weighted>
   9.000000E+99

> <Gold.Protein.RotatedTorsions>
[ 6907 6896 6895 6894 ] final  -23.08 input  -60.11 | X-H torsion
[ 7974 7965 7964 7962 ] final   47.12 input  175.53 | X-H torsion
[ 8008 7997 7996 7995 ] final -154.20 input   59.86 | X-H torsion
[ 10167 10162 10161 10158 ] final  118.74 input  -65.29 | X-H torsion
[ 10718 10713 10712 10709 ] final  -85.79 input   66.30 | X-H torsion
[ 10763 10752 10751 10750 ] final -149.74 input  -60.55 | X-H torsion
[ 11005 11000 10999 10996 ] final  -35.29 input  -57.11 | X-H torsion

> <Gold.Protein.ActiveResidues>
 VAL166  LYS551  ARG553  GLY616  TRP617  ASP618  TYR619  PRO620  LYS621  CYS622 
 ASP623  PHE694  ASN695  SER759  ASP760  ASP761  ALA762  ILE779  LEU786  VAL792 
 PHE793  MET794  SER795  GLU796  ALA797  LYS798  CYS799  TRP800  GLU811  SER814 

> <Gold.Protein.RotatedAtoms>
  151.2092  135.0474  159.8903 H   0  0  0  0  0  0  0  0  0  0  0  0  # atno 6907 bound_to 6896
  152.5426  134.0764  159.8226 H   0  0  0  0  0  0  0  0  0  0  0  0  # atno 6908 bound_to 6896
  151.0914  133.5265  159.2646 H   0  0  0  0  0  0  0  0  0  0  0  0  # atno 6909 bound_to 6896
  146.0327  139.4783  142.9828 H   0  0  0  0  0  0  0  0  0  0  0  0  # atno 7974 bound_to 7965
  155.6827  140.0746  157.2478 H   0  0  0  0  0  0  0  0  0  0  0  0  # atno 8008 bound_to 7997
  154.4102  140.1679  156.2052 H   0  0  0  0  0  0  0  0  0  0  0  0  # atno 8009 bound_to 7997
  155.9521  140.3376  155.6419 H   0  0  0  0  0  0  0  0  0  0  0  0  # atno 8010 bound_to 7997
  139.6091  144.7077  151.2884 H   0  0  0  0  0  0  0  0  0  0  0  0  # atno 10167 bound_to 10162
  155.9994  130.4743  150.4616 H   0  0  0  0  0  0  0  0  0  0  0  0  # atno 10718 bound_to 10713
  154.8160  135.3301  154.7175 H   0  0  0  0  0  0  0  0  0  0  0  0  # atno 10763 bound_to 10752
  153.7816  135.6918  153.4892 H   0  0  0  0  0  0  0  0  0  0  0  0  # atno 10764 bound_to 10752
  153.1976  135.4528  155.0174 H   0  0  0  0  0  0  0  0  0  0  0  0  # atno 10765 bound_to 10752
  140.9784  133.7070  156.1642 H   0  0  0  0  0  0  0  0  0  0  0  0  # atno 11005 bound_to 11000
  145.7014  141.0134  143.1502 LP  0  0  0  0  0  0  0  0  0  0  0  0  # atno 17320 bound_to 7965
  144.7037  139.8649  143.7436 LP  0  0  0  0  0  0  0  0  0  0  0  0  # atno 17321 bound_to 7965
  140.7306  143.6874  150.7950 LP  0  0  0  0  0  0  0  0  0  0  0  0  # atno 17342 bound_to 10162
  140.0465  143.5293  152.2693 LP  0  0  0  0  0  0  0  0  0  0  0  0  # atno 17343 bound_to 10162
  157.2639  131.0573  151.2303 LP  0  0  0  0  0  0  0  0  0  0  0  0  # atno 17370 bound_to 10713
  157.3407  130.7032  149.6380 LP  0  0  0  0  0  0  0  0  0  0  0  0  # atno 17371 bound_to 10713
  140.7223  134.4345  157.5574 LP  0  0  0  0  0  0  0  0  0  0  0  0  # atno 17394 bound_to 11000
  139.8940  134.8717  156.2197 LP  0  0  0  0  0  0  0  0  0  0  0  0  # atno 17395 bound_to 11000

$$$$
