AV-unprocessed.smi:2528|AV-procd|sdf|9949|dock4
  -GOLD-   2272013593D 1   1.00000     0.00000
 Structure written by MMmdl.
 44 46  0  0  0  0  0  0  0  0  2 V2000
  144.4644  136.6765  151.8148 O   0  0  0  0  0  0  0  0  0  0  0  0
  145.6534  136.4436  151.5953 C   0  0  0  0  0  0  0  0  0  0  0  0
  146.6132  137.3757  151.6860 N   0  0  0  0  0  0  0  0  0  0  0  0
  146.3851  138.7710  152.0459 C   0  0  0  0  0  0  0  0  0  0  0  0
  147.3554  139.2418  153.1533 C   0  0  1  0  0  0  0  0  0  0  0  0
  147.4715  140.7744  153.2534 C   0  0  0  0  0  0  0  0  0  0  0  0
  146.2538  141.3721  153.8489 N   0  3  2  0  0  0  0  0  0  0  0  0
  146.3343  142.8536  153.9172 C   0  0  0  0  0  0  0  0  0  0  0  0
  145.0298  143.4567  154.4601 C   0  0  0  0  0  0  0  0  0  0  0  0
  144.6910  142.8659  155.8339 C   0  0  0  0  0  0  0  0  0  0  0  0
  144.6322  141.3353  155.7441 C   0  0  0  0  0  0  0  0  0  0  0  0
  145.9382  140.7534  155.1653 C   0  0  1  0  0  0  0  0  0  0  0  0
  145.8433  139.2231  155.0169 C   0  0  0  0  0  0  0  0  0  0  0  0
  147.0338  138.7021  154.4357 O   0  0  0  0  0  0  0  0  0  0  0  0
  146.1602  135.2515  151.2345 N   0  0  0  0  0  0  0  0  0  0  0  0
  145.4690  134.0239  151.0509 C   0  0  0  0  0  0  0  0  0  0  0  0
  146.2844  132.8698  151.0645 C   0  0  0  0  0  0  0  0  0  0  0  0
  145.6945  131.6024  150.8936 C   0  0  0  0  0  0  0  0  0  0  0  0
  144.3022  131.5213  150.7134 C   0  0  0  0  0  0  0  0  0  0  0  0
  143.5632  132.7185  150.7119 C   0  0  0  0  0  0  0  0  0  0  0  0
  144.1265  133.9344  150.8756 N   0  0  0  0  0  0  0  0  0  0  0  0
  147.5650  137.1032  151.4876 H   0  0  0  0  0  0  0  0  0  0  0  0
  146.4993  139.3981  151.1600 H   0  0  0  0  0  0  0  0  0  0  0  0
  145.3457  138.8831  152.3523 H   0  0  0  0  0  0  0  0  0  0  0  0
  148.3467  138.8621  152.9034 H   0  0  0  0  0  0  0  0  0  0  0  0
  148.3325  141.0336  153.8717 H   0  0  0  0  0  0  0  0  0  0  0  0
  147.6538  141.2023  152.2666 H   0  0  0  0  0  0  0  0  0  0  0  0
  147.1733  143.1460  154.5510 H   0  0  0  0  0  0  0  0  0  0  0  0
  146.5336  143.2537  152.9223 H   0  0  0  0  0  0  0  0  0  0  0  0
  145.1209  144.5409  154.5319 H   0  0  0  0  0  0  0  0  0  0  0  0
  144.2146  143.2592  153.7626 H   0  0  0  0  0  0  0  0  0  0  0  0
  145.4465  143.1652  156.5617 H   0  0  0  0  0  0  0  0  0  0  0  0
  143.7389  143.2607  156.1900 H   0  0  0  0  0  0  0  0  0  0  0  0
  144.4429  140.9172  156.7333 H   0  0  0  0  0  0  0  0  0  0  0  0
  143.7871  141.0427  155.1191 H   0  0  0  0  0  0  0  0  0  0  0  0
  146.7560  140.9831  155.8509 H   0  0  0  0  0  0  0  0  0  0  0  0
  145.7125  138.7620  155.9962 H   0  0  0  0  0  0  0  0  0  0  0  0
  144.9725  138.9369  154.4269 H   0  0  0  0  0  0  0  0  0  0  0  0
  147.1564  135.2147  151.0778 H   0  0  0  0  0  0  0  0  0  0  0  0
  147.3526  132.9496  151.2046 H   0  0  0  0  0  0  0  0  0  0  0  0
  146.3006  130.7085  150.9016 H   0  0  0  0  0  0  0  0  0  0  0  0
  143.8137  130.5674  150.5799 H   0  0  0  0  0  0  0  0  0  0  0  0
  142.4920  132.7002  150.5767 H   0  0  0  0  0  0  0  0  0  0  0  0
  145.4864  141.1506  153.2308 H   0  0  0  0  0  0  0  0  0  0  0  0
  1  2  2  0  0  0  0
  2  3  1  0  0  0  0
  2 15  1  0  0  0  0
  3  4  1  0  0  0  0
  3 22  1  0  0  0  0
  4  5  1  0  0  0  0
  4 23  1  0  0  0  0
  4 24  1  0  0  0  0
  5 14  1  0  0  0  0
  5  6  1  0  0  0  0
  5 25  1  0  0  0  0
  6  7  1  0  0  0  0
  6 26  1  0  0  0  0
  6 27  1  0  0  0  0
  7 12  1  0  0  0  0
  7  8  1  0  0  0  0
  7 44  1  0  0  0  0
  8  9  1  0  0  0  0
  8 28  1  0  0  0  0
  8 29  1  0  0  0  0
  9 10  1  0  0  0  0
  9 30  1  0  0  0  0
  9 31  1  0  0  0  0
 10 11  1  0  0  0  0
 10 32  1  0  0  0  0
 10 33  1  0  0  0  0
 11 12  1  0  0  0  0
 11 34  1  0  0  0  0
 11 35  1  0  0  0  0
 12 13  1  0  0  0  0
 12 36  1  0  0  0  0
 13 14  1  0  0  0  0
 13 37  1  0  0  0  0
 13 38  1  0  0  0  0
 15 16  1  0  0  0  0
 15 39  1  0  0  0  0
 16 21  1  0  0  0  0
 16 17  2  0  0  0  0
 17 18  1  0  0  0  0
 17 40  1  0  0  0  0
 18 19  2  0  0  0  0
 18 41  1  0  0  0  0
 19 20  1  0  0  0  0
 19 42  1  0  0  0  0
 20 21  2  0  0  0  0
 20 43  1  0  0  0  0
M  CHG  1   7   1
M  END
> <s_m_source_file>
AV-unprocessed.smi

> <i_m_source_file_index>
2528

> <i_lp_mmshare_version>
43012

> <i_f3d_flags>
0

> <s_epik_input>
bjFbY0hdW2NIXVtjSF1bY0hdYzFbTkhdQyg9TylbTkhdW0NIMl1bQ0BIXShbQ0gyXTIpT1tDSDJdW0NAQEhdKE4yMylbQ0gyXVtDSDJdW0NIMl1bQ0gyXTM=

> <s_epik_cmdline>
J2VwaWtfcHl0aG9uJywgJy1waCcsICc3LjAnLCAnLXRuJywgJzgnLCAnLW1hJywgJzIwMCcsICctbWV0YWxfYmluZGluZycsICctaW1hZScsICc8aW5maWxlLm1hZT4nLCAnLW9tYWUnLCAnPG91dGZpbGUubWFlPic=

> <r_epik_Ionization_Penalty>
0.0932337

> <r_epik_Ionization_Penalty_Charging>
0.0931942

> <r_epik_Ionization_Penalty_Neutral>
3.9565e-05

> <r_epik_State_Penalty>
0.0834605

> <r_epik_Charging_Adjusted_Penalty>
0.176655

> <i_epik_Tot_Q>
1

> <i_epik_Tot_abs_Q>
1

> <r_epik_Metal_State_Penalty>
0.0834607

> <b_epik_Metal_Only>
0

> <s_lp_Force_Field>
OPLS_2005

> <r_lp_Energy>
28.0782

> <b_lp_Chiralities_Consistent>
1

> <s_lp_Variant>
AV-unprocessed.smi:2528-2

> <Gold.Version>
5.8.1

> <Gold.Id.Protein>
6NUR|6NUR_protein|mol2

> <Gold.PLP.Fitness>
49.6457

> <Gold.PLP.PLP>
-36.2239

> <Gold.PLP.part.hbond>
-3.0000

> <Gold.PLP.part.metal>
0.0000

> <Gold.PLP.part.buried>
-5.3333

> <Gold.PLP.part.nonpolar>
-31.1920

> <Gold.PLP.part.repulsive>
2.3762

> <Gold.PLP.ligand.clash>
0.0000

> <Gold.PLP.ligand.torsion>
0.2483

> <Gold.PLP.Chemscore.Hbond>
3.6455

> <Gold.PLP.Chemscore.CHOScore>
0.9911

> <Gold.PLP.Chemscore.Metal>
0.0000

> <Gold.Chemscore.Hbonds>
donor molecule, donor type, donor heavy atom, donor atom, acceptor molecule, acceptor atom, score
      L1  H     3    22       P1  7948  1.00
      L1  H     7    44       P1 10175  1.89
      L1  H    15    39       P1  7948  0.54
      L1  C    20    43       P1 10186  0.99

> <Gold.PLP.Chemscore.Internal.Correction>
0.0085

> <Gold.Rescore>
     Score         DG    S(hbond)    S(metal)    S(lipo)     H(rot)  DE(clash)    DE(int)     intcor
     16.69     -18.34       2.31        0.00      72.00       1.29       0.21       1.44       ----

> <Gold.Chemscore.Fitness>
16.6899

> <Gold.Chemscore.DG>
-18.3377

> <Gold.Chemscore.ZeroCoef>
-5.4800

> <Gold.Chemscore.Hbond>
2.3140

> <Gold.Chemscore.Metal>
0.0000

> <Gold.Chemscore.Lipo>
71.9976

> <Gold.Chemscore.Internal_Hbond>
0.0000

> <Gold.Chemscore.DEClash>
0.2070

> <Gold.Chemscore.DEInternal>
1.4408

> <Gold.Chemscore.Rot>
1.2870

> <Gold.Chemscore.Internal.Correction>
   9.000000E+99

> <Gold.Chemscore.Hbonds>
donor molecule, donor type, donor heavy atom, donor atom, acceptor molecule, acceptor atom, score
      L1  H     3    22       P1  7948  0.97
      L1  H     7    44       P1 10175  0.27
      L1  H    15    39       P1  7948  0.36

> <Gold.Chemscore.Hbond.Weighted>
-7.7288

> <Gold.Chemscore.Metal.Weighted>
-0.0000

> <Gold.Chemscore.Lipo.Weighted>
-8.4237

> <Gold.Chemscore.Internal_Hbond.Weighted>
0.0000

> <Gold.Chemscore.DEClash.Weighted>
0.2070

> <Gold.Chemscore.DEInternal.Weighted>
1.4408

> <Gold.Chemscore.Rot.Weighted>
3.2948

> <Gold.Chemscore.Internal.Correction.Weighted>
   9.000000E+99

> <Gold.Protein.RotatedTorsions>
[ 6907 6896 6895 6894 ] final -109.50 input  -60.11 | X-H torsion
[ 7974 7965 7964 7962 ] final   94.06 input  175.53 | X-H torsion
[ 8008 7997 7996 7995 ] final  -24.04 input   59.86 | X-H torsion
[ 10167 10162 10161 10158 ] final   97.71 input  -65.29 | X-H torsion
[ 10718 10713 10712 10709 ] final   41.73 input   66.30 | X-H torsion
[ 10763 10752 10751 10750 ] final  -90.35 input  -60.55 | X-H torsion
[ 11005 11000 10999 10996 ] final  138.54 input  -57.11 | X-H torsion

> <Gold.Protein.ActiveResidues>
 VAL166  LYS551  ARG553  GLY616  TRP617  ASP618  TYR619  PRO620  LYS621  CYS622 
 ASP623  PHE694  ASN695  SER759  ASP760  ASP761  ALA762  ILE779  LEU786  VAL792 
 PHE793  MET794  SER795  GLU796  ALA797  LYS798  CYS799  TRP800  GLU811  SER814 

> <Gold.Protein.RotatedAtoms>
  150.7566  133.9520  159.3488 H   0  0  0  0  0  0  0  0  0  0  0  0  # atno 6907 bound_to 6896
  151.7438  135.0846  160.0329 H   0  0  0  0  0  0  0  0  0  0  0  0  # atno 6908 bound_to 6896
  152.3511  133.6144  159.5981 H   0  0  0  0  0  0  0  0  0  0  0  0  # atno 6909 bound_to 6896
  145.4706  139.2282  143.2937 H   0  0  0  0  0  0  0  0  0  0  0  0  # atno 7974 bound_to 7965
  154.4551  140.1964  156.0404 H   0  0  0  0  0  0  0  0  0  0  0  0  # atno 8008 bound_to 7997
  156.0729  140.3282  155.7570 H   0  0  0  0  0  0  0  0  0  0  0  0  # atno 8009 bound_to 7997
  155.5234  140.0572  157.2893 H   0  0  0  0  0  0  0  0  0  0  0  0  # atno 8010 bound_to 7997
  139.7775  144.6900  151.0068 H   0  0  0  0  0  0  0  0  0  0  0  0  # atno 10167 bound_to 10162
  157.3969  130.7838  149.7315 H   0  0  0  0  0  0  0  0  0  0  0  0  # atno 10718 bound_to 10713
  154.6648  135.5308  153.8063 H   0  0  0  0  0  0  0  0  0  0  0  0  # atno 10763 bound_to 10752
  153.0464  135.6514  154.0816 H   0  0  0  0  0  0  0  0  0  0  0  0  # atno 10764 bound_to 10752
  154.0721  135.2953  155.3286 H   0  0  0  0  0  0  0  0  0  0  0  0  # atno 10765 bound_to 10752
  140.0191  134.9405  157.0437 H   0  0  0  0  0  0  0  0  0  0  0  0  # atno 11005 bound_to 11000
  146.2399  140.5483  142.8938 LP  0  0  0  0  0  0  0  0  0  0  0  0  # atno 17320 bound_to 7965
  144.7948  140.6101  143.6518 LP  0  0  0  0  0  0  0  0  0  0  0  0  # atno 17321 bound_to 7965
  140.7817  143.4519  151.0400 LP  0  0  0  0  0  0  0  0  0  0  0  0  # atno 17342 bound_to 10162
  139.8201  143.7832  152.3176 LP  0  0  0  0  0  0  0  0  0  0  0  0  # atno 17343 bound_to 10162
  155.9813  130.4021  150.3481 LP  0  0  0  0  0  0  0  0  0  0  0  0  # atno 17370 bound_to 10713
  157.1604  131.0343  151.2843 LP  0  0  0  0  0  0  0  0  0  0  0  0  # atno 17371 bound_to 10713
  140.4418  134.1673  155.7174 LP  0  0  0  0  0  0  0  0  0  0  0  0  # atno 17394 bound_to 11000
  141.1762  133.8508  157.1412 LP  0  0  0  0  0  0  0  0  0  0  0  0  # atno 17395 bound_to 11000

$$$$
