#       Name:                AV-unprocessed.smi:3181
#       Creating user name   scv26
#       Creation time:       Fri Mar 27 17:58:39 2020


#       File generated by GOLD software.
#

@<TRIPOS>MOLECULE
AV-unprocessed.smi:3181
    44    45     1
SMALL
NO_CHARGES


@<TRIPOS>ATOM
      1 ****        -1.6515  -2.8022   0.5836 C.3            1 S1                 0.0000
      2 ****        -1.2439  -1.5208  -0.1627 C.3            1 S1                 0.0000
      3 ****        -1.6869  -1.5393  -1.6438 C.3            1 S1                 0.0000
      4 ****        -3.1193  -1.7096  -1.8019 N.pl3          1 S1                 0.0000
      5 ****        -3.8267  -2.7339  -2.2822 C.2            1 S1                 0.0000
      6 ****        -5.1360  -2.5267  -2.2793 N.2            1 S1                 0.0000
      7 ****        -5.1674  -1.2646  -1.7562 C.2            1 S1                 0.0000
      8 ****        -3.9846  -0.7284  -1.4542 N.2            1 S1                 0.0000
      9 ****         0.2221  -1.3387  -0.0534 N.4            1 S1                 1.0000
     10 ****         0.7269   0.0442  -0.2196 C.3            1 S1                 0.0000
     11 ****         2.2148   0.0076  -0.6110 C.3            1 S1                 0.0000
     12 ****         2.7969   1.4243  -0.7529 C.3            1 S1                 0.0000
     13 ****         2.6096   2.2652   0.5265 C.3            1 S1                 0.0000
     14 ****         3.5572   1.8056   1.6530 C.3            1 S1                 0.0000
     15 ****         1.1126   2.2944   0.9281 C.3            1 S1                 0.0000
     16 ****         0.8335   3.1500   2.1749 C.3            1 S1                 0.0000
     17 ****         0.5300   0.8730   1.0679 C.3            1 S1                 0.0000
     18 ****        -2.7342  -2.9284   0.6035 H              1 S1                 0.0000
     19 ****        -1.3132  -2.7759   1.6200 H              1 S1                 0.0000
     20 ****        -1.2216  -3.6887   0.1160 H              1 S1                 0.0000
     21 ****        -1.7362  -0.6888   0.3406 H              1 S1                 0.0000
     22 ****        -1.4063  -0.6159  -2.1507 H              1 S1                 0.0000
     23 ****        -1.1855  -2.3488  -2.1763 H              1 S1                 0.0000
     24 ****        -3.3769  -3.6499  -2.6372 H              1 S1                 0.0000
     25 ****        -6.0890  -0.7251  -1.5931 H              1 S1                 0.0000
     26 ****         0.5183  -1.6604   0.8572 H              1 S1                 0.0000
     27 ****         0.1844   0.5257  -1.0334 H              1 S1                 0.0000
     28 ****         2.7837  -0.5522   0.1324 H              1 S1                 0.0000
     29 ****         2.3368  -0.5282  -1.5531 H              1 S1                 0.0000
     30 ****         3.8534   1.3682  -1.0174 H              1 S1                 0.0000
     31 ****         2.3059   1.9275  -1.5869 H              1 S1                 0.0000
     32 ****         2.9017   3.2869   0.2793 H              1 S1                 0.0000
     33 ****         3.3074   0.8117   2.0230 H              1 S1                 0.0000
     34 ****         3.5316   2.4903   2.5005 H              1 S1                 0.0000
     35 ****         4.5895   1.7748   1.3033 H              1 S1                 0.0000
     36 ****         0.5784   2.7746   0.1064 H              1 S1                 0.0000
     37 ****         1.2531   2.7019   3.0758 H              1 S1                 0.0000
     38 ****        -0.2388   3.2623   2.3376 H              1 S1                 0.0000
     39 ****         1.2551   4.1500   2.0691 H              1 S1                 0.0000
     40 ****        -0.5308   0.9495   1.3064 H              1 S1                 0.0000
     41 ****         0.9923   0.3624   1.9135 H              1 S1                 0.0000
     42 ****         0.6555  -1.9256  -0.7518 H              1 S1                 0.0000
     43 ****        -5.8839  -3.1214  -2.5744 LP             1 S1                 0.0000
     44 ****        -3.7865   0.1724  -1.0677 LP             1 S1                 0.0000
@<TRIPOS>BOND
    1    1    2 1     
    2    1   18 1     
    3    1   19 1     
    4    1   20 1     
    5    2    3 1     
    6    2    9 1     
    7    2   21 1     
    8    3    4 1     
    9    3   22 1     
   10    3   23 1     
   11    4    8 1     
   12    4    5 1     
   13    5    6 2     
   14    5   24 1     
   15    6    7 1     
   16    7    8 2     
   17    7   25 1     
   18    9   10 1     
   19    9   26 1     
   20    9   42 1     
   21   10   17 1     
   22   10   11 1     
   23   10   27 1     
   24   11   12 1     
   25   11   28 1     
   26   11   29 1     
   27   12   13 1     
   28   12   30 1     
   29   12   31 1     
   30   13   14 1     
   31   13   15 1     
   32   13   32 1     
   33   14   33 1     
   34   14   34 1     
   35   14   35 1     
   36   15   16 1     
   37   15   17 1     
   38   15   36 1     
   39   16   37 1     
   40   16   38 1     
   41   16   39 1     
   42   17   40 1     
   43   17   41 1     
   44    6   43 1     
   45    8   44 1     
@<TRIPOS>SUBSTRUCTURE
      1 S1             1
@<TRIPOS>SET
LONE_PAIRS      STATIC     ATOMS    <user>   **** ""
2 43 44
DONOR_HYDROGENS      STATIC     ATOMS    <user>   **** ""
2 26 42
ATOM$BLUE        STATIC     ATOMS    COLORGROUP SYSTEM
2 43 44
ATOM$RED        STATIC     ATOMS    COLORGROUP SYSTEM
2 26 42
