#       Name:                AV-unprocessed.smi:3014
#       Creating user name   scv26
#       Creation time:       Fri Mar 27 16:40:29 2020


#       File generated by GOLD software.
#

@<TRIPOS>MOLECULE
AV-unprocessed.smi:3014
    51    52     1
SMALL
NO_CHARGES


@<TRIPOS>ATOM
      1 ****        -4.6809   1.2292   2.6231 C.3            1 S1                 0.0000
      2 ****        -3.3978   1.5938   1.8627 C.3            1 S1                 0.0000
      3 ****        -3.2302   3.1210   1.7418 C.3            1 S1                 0.0000
      4 ****        -1.9515   3.4889   0.9726 C.3            1 S1                 0.0000
      5 ****        -1.9271   2.8239  -0.4117 C.3            1 S1                 0.0000
      6 ****        -2.0727   1.2975  -0.2980 C.3            1 S1                 0.0000
      7 ****        -2.1148   0.7740  -1.6239 O.3            1 S1                 0.0000
      8 ****        -1.7633  -0.5996  -1.7743 C.3            1 S1                 0.0000
      9 ****        -0.2527  -0.8004  -1.6097 C.2            1 S1                 0.0000
     10 ****         0.5261   0.0028  -2.1237 O.2            1 S1                 0.0000
     11 ****         0.1179  -1.8737  -0.8870 N.am           1 S1                 0.0000
     12 ****         1.4325  -2.3004  -0.5637 C.ar           1 S1                 0.0000
     13 ****         1.5253  -3.4804   0.2051 C.ar           1 S1                 0.0000
     14 ****         2.8179  -3.9281   0.5393 C.ar           1 S1                 0.0000
     15 ****         3.9237  -3.2639   0.1461 N.ar           1 S1                 0.0000
     16 ****         3.7481  -2.1524  -0.5790 C.ar           1 S1                 0.0000
     17 ****         4.8912  -1.4601  -0.9887 N.pl3          1 S1                 0.0000
     18 ****         4.7886  -0.2293  -1.7681 C.3            1 S1                 0.0000
     19 ****         6.2282  -1.9450  -0.6586 C.3            1 S1                 0.0000
     20 ****         2.5606  -1.6518  -0.9437 N.ar           1 S1                 0.0000
     21 ****        -3.3602   0.9334   0.4701 C.3            1 S1                 0.0000
     22 ****        -5.5676   1.5928   2.1025 H              1 S1                 0.0000
     23 ****        -4.6811   1.6632   3.6232 H              1 S1                 0.0000
     24 ****        -4.7792   0.1489   2.7332 H              1 S1                 0.0000
     25 ****        -2.5547   1.2083   2.4383 H              1 S1                 0.0000
     26 ****        -4.0951   3.5482   1.2323 H              1 S1                 0.0000
     27 ****        -3.2024   3.5733   2.7338 H              1 S1                 0.0000
     28 ****        -1.8798   4.5717   0.8660 H              1 S1                 0.0000
     29 ****        -1.0770   3.1752   1.5439 H              1 S1                 0.0000
     30 ****        -2.7348   3.2275  -1.0238 H              1 S1                 0.0000
     31 ****        -0.9969   3.0706  -0.9247 H              1 S1                 0.0000
     32 ****        -1.2066   0.9168   0.2453 H              1 S1                 0.0000
     33 ****        -2.3255  -1.2302  -1.0848 H              1 S1                 0.0000
     34 ****        -2.0381  -0.9130  -2.7815 H              1 S1                 0.0000
     35 ****        -0.6285  -2.4496  -0.5263 H              1 S1                 0.0000
     36 ****         0.6478  -4.0224   0.5264 H              1 S1                 0.0000
     37 ****         2.9646  -4.8235   1.1250 H              1 S1                 0.0000
     38 ****         4.2445   0.5312  -1.2069 H              1 S1                 0.0000
     39 ****         4.2565  -0.4132  -2.7021 H              1 S1                 0.0000
     40 ****         5.7678   0.1784  -2.0186 H              1 S1                 0.0000
     41 ****         6.3904  -2.9333  -1.0897 H              1 S1                 0.0000
     42 ****         6.3513  -2.0164   0.4225 H              1 S1                 0.0000
     43 ****         7.0075  -1.2840  -1.0380 H              1 S1                 0.0000
     44 ****        -3.4397  -0.1479   0.5821 H              1 S1                 0.0000
     45 ****        -4.2302   1.2473  -0.1086 H              1 S1                 0.0000
     46 ****        -1.4850   1.3124  -2.1838 LP             1 S1                 0.0000
     47 ****        -3.0471   0.8889  -1.9670 LP             1 S1                 0.0000
     48 ****         0.1718   0.7797  -2.6443 LP             1 S1                 0.0000
     49 ****         1.5129  -0.1216  -2.0206 LP             1 S1                 0.0000
     50 ****         4.8383  -3.5887   0.3866 LP             1 S1                 0.0000
     51 ****         2.5070  -0.8139  -1.4870 LP             1 S1                 0.0000
@<TRIPOS>BOND
    1    1    2 1     
    2    1   22 1     
    3    1   23 1     
    4    1   24 1     
    5    2   21 1     
    6    2    3 1     
    7    2   25 1     
    8    3    4 1     
    9    3   26 1     
   10    3   27 1     
   11    4    5 1     
   12    4   28 1     
   13    4   29 1     
   14    5    6 1     
   15    5   30 1     
   16    5   31 1     
   17    6    7 1     
   18    6   21 1     
   19    6   32 1     
   20    7    8 1     
   21    8    9 1     
   22    8   33 1     
   23    8   34 1     
   24    9   10 2     
   25    9   11 am    
   26   11   12 1     
   27   11   35 1     
   28   12   20 ar    
   29   12   13 ar    
   30   13   14 ar    
   31   13   36 1     
   32   14   15 ar    
   33   14   37 1     
   34   15   16 ar    
   35   16   17 1     
   36   16   20 ar    
   37   17   18 1     
   38   17   19 1     
   39   18   38 1     
   40   18   39 1     
   41   18   40 1     
   42   19   41 1     
   43   19   42 1     
   44   19   43 1     
   45   21   44 1     
   46   21   45 1     
   47    7   46 1     
   48    7   47 1     
   49   10   48 1     
   50   10   49 1     
   51   15   50 1     
   52   20   51 1     
@<TRIPOS>SUBSTRUCTURE
      1 S1             1
@<TRIPOS>SET
LONE_PAIRS      STATIC     ATOMS    <user>   **** ""
6 46 47 48 49 50 51
DONOR_HYDROGENS      STATIC     ATOMS    <user>   **** ""
1 35
ATOM$BLUE        STATIC     ATOMS    COLORGROUP SYSTEM
6 46 47 48 49 50 51
ATOM$RED        STATIC     ATOMS    COLORGROUP SYSTEM
1 35
