AV-unprocessed.smi:13|AV-procd|sdf|69|dock9
  -GOLD-   2262015193D 1   1.00000     0.00000
 Structure written by MMmdl.
 54 58  0  0  0  0  0  0  0  0  1 V2000
  151.6914  139.8312  158.1373 C   0  0  0  0  0  0  0  0  0  0  0  0
  151.5810  138.3011  158.1711 C   0  0  0  0  0  0  0  0  0  0  0  0
  152.9142  137.7540  157.6625 C   0  0  0  0  0  0  0  0  0  0  0  0
  151.0735  137.7004  159.4912 C   0  0  0  0  0  0  0  0  0  0  0  0
  149.7513  137.6693  158.8878 N   0  0  0  0  0  0  0  0  0  0  0  0
  148.9619  136.5354  159.2164 C   0  0  0  0  0  0  0  0  0  0  0  0
  148.7399  135.6451  158.2170 N   0  0  0  0  0  0  0  0  0  0  0  0
  148.0191  134.5396  158.4230 C   0  0  0  0  0  0  0  0  0  0  0  0
  147.4294  134.1272  159.5447 N   0  0  0  0  0  0  0  0  0  0  0  0
  147.6401  135.0105  160.5605 C   0  0  0  0  0  0  0  0  0  0  0  0
  148.3846  136.2229  160.4845 C   0  0  0  0  0  0  0  0  0  0  0  0
  148.3784  136.8513  161.7254 N   0  0  0  0  0  0  0  0  0  0  0  0
  147.6748  136.0591  162.4863 C   0  0  0  0  0  0  0  0  0  0  0  0
  147.1863  134.9328  161.8655 N   0  0  0  0  0  0  0  0  0  0  0  0
  146.3720  133.8895  162.4695 C   0  0  0  0  0  0  0  0  0  0  0  0
  144.8701  134.0113  162.1237 C   0  0  1  0  0  0  0  0  0  0  0  0
  144.2833  132.7220  162.1717 O   0  0  0  0  0  0  0  0  0  0  0  0
  144.0872  134.9343  163.0523 C   0  0  0  0  0  0  0  0  0  0  0  0
  142.9982  135.4834  162.1418 C   0  0  0  0  0  0  0  0  0  0  0  0
  143.6880  135.6869  160.9201 O   0  0  0  0  0  0  0  0  0  0  0  0
  144.6076  134.6154  160.7298 C   0  0  0  0  0  0  0  0  0  0  0  0
  150.3207  137.6660  157.5458 C   0  0  1  0  0  0  0  0  0  0  0  0
  149.4349  138.4271  156.5591 C   0  0  2  0  0  0  0  0  0  0  0  0
  150.1183  138.7525  155.2312 C   0  0  0  0  0  0  0  0  0  0  0  0
  149.3677  139.9779  154.7369 C   0  0  0  0  0  0  0  0  0  0  0  0
  148.6526  140.5031  155.9853 C   0  0  0  0  0  0  0  0  0  0  0  0
  149.1562  139.7237  157.0615 O   0  0  0  0  0  0  0  0  0  0  0  0
  152.5185  140.1856  158.7530 H   0  0  0  0  0  0  0  0  0  0  0  0
  150.7868  140.3100  158.5137 H   0  0  0  0  0  0  0  0  0  0  0  0
  151.8549  140.1987  157.1237 H   0  0  0  0  0  0  0  0  0  0  0  0
  152.9278  136.6636  157.6713 H   0  0  0  0  0  0  0  0  0  0  0  0
  153.7480  138.0910  158.2791 H   0  0  0  0  0  0  0  0  0  0  0  0
  153.1099  138.0702  156.6374 H   0  0  0  0  0  0  0  0  0  0  0  0
  151.4902  136.7170  159.7110 H   0  0  0  0  0  0  0  0  0  0  0  0
  151.1447  138.3719  160.3473 H   0  0  0  0  0  0  0  0  0  0  0  0
  147.8976  133.8938  157.5657 H   0  0  0  0  0  0  0  0  0  0  0  0
  147.4857  136.2792  163.5268 H   0  0  0  0  0  0  0  0  0  0  0  0
  146.7553  132.9232  162.1388 H   0  0  0  0  0  0  0  0  0  0  0  0
  146.5175  133.9209  163.5502 H   0  0  0  0  0  0  0  0  0  0  0  0
  143.9714  132.5682  163.0505 H   0  0  0  0  0  0  0  0  0  0  0  0
  143.6984  134.4391  163.9434 H   0  0  0  0  0  0  0  0  0  0  0  0
  144.7168  135.7622  163.3802 H   0  0  0  0  0  0  0  0  0  0  0  0
  142.1997  134.7537  161.9989 H   0  0  0  0  0  0  0  0  0  0  0  0
  142.5607  136.4087  162.5168 H   0  0  0  0  0  0  0  0  0  0  0  0
  145.5157  135.0107  160.2738 H   0  0  0  0  0  0  0  0  0  0  0  0
  144.1870  133.8855  160.0361 H   0  0  0  0  0  0  0  0  0  0  0  0
  150.5503  136.6579  157.2001 H   0  0  0  0  0  0  0  0  0  0  0  0
  148.4906  137.9089  156.3799 H   0  0  0  0  0  0  0  0  0  0  0  0
  151.1655  139.0088  155.3989 H   0  0  0  0  0  0  0  0  0  0  0  0
  150.0865  137.9217  154.5259 H   0  0  0  0  0  0  0  0  0  0  0  0
  150.0537  140.7153  154.3189 H   0  0  0  0  0  0  0  0  0  0  0  0
  148.6443  139.7147  153.9644 H   0  0  0  0  0  0  0  0  0  0  0  0
  148.8327  141.5648  156.1556 H   0  0  0  0  0  0  0  0  0  0  0  0
  147.5758  140.3491  155.9032 H   0  0  0  0  0  0  0  0  0  0  0  0
  1  2  1  0  0  0  0
  1 28  1  0  0  0  0
  1 29  1  0  0  0  0
  1 30  1  0  0  0  0
  2 22  1  0  0  0  0
  2  3  1  0  0  0  0
  2  4  1  0  0  0  0
  3 31  1  0  0  0  0
  3 32  1  0  0  0  0
  3 33  1  0  0  0  0
  4  5  1  0  0  0  0
  4 34  1  0  0  0  0
  4 35  1  0  0  0  0
  5  6  1  0  0  0  0
  5 22  1  0  0  0  0
  6 11  1  0  0  0  0
  6  7  2  0  0  0  0
  7  8  1  0  0  0  0
  8  9  2  0  0  0  0
  8 36  1  0  0  0  0
  9 10  1  0  0  0  0
 10 14  1  0  0  0  0
 10 11  2  0  0  0  0
 11 12  1  0  0  0  0
 12 13  2  0  0  0  0
 13 14  1  0  0  0  0
 13 37  1  0  0  0  0
 14 15  1  0  0  0  0
 15 16  1  0  0  0  0
 15 38  1  0  0  0  0
 15 39  1  0  0  0  0
 16 21  1  0  0  0  0
 16 17  1  0  0  0  0
 16 18  1  0  0  0  0
 17 40  1  0  0  0  0
 18 19  1  0  0  0  0
 18 41  1  0  0  0  0
 18 42  1  0  0  0  0
 19 20  1  0  0  0  0
 19 43  1  0  0  0  0
 19 44  1  0  0  0  0
 20 21  1  0  0  0  0
 21 45  1  0  0  0  0
 21 46  1  0  0  0  0
 22 23  1  0  0  0  0
 22 47  1  0  0  0  0
 23 27  1  0  0  0  0
 23 24  1  0  0  0  0
 23 48  1  0  0  0  0
 24 25  1  0  0  0  0
 24 49  1  0  0  0  0
 24 50  1  0  0  0  0
 25 26  1  0  0  0  0
 25 51  1  0  0  0  0
 25 52  1  0  0  0  0
 26 27  1  0  0  0  0
 26 53  1  0  0  0  0
 26 54  1  0  0  0  0
M  END
> <s_m_source_file>
AV-unprocessed.smi

> <i_m_source_file_index>
13

> <i_lp_mmshare_version>
43012

> <i_f3d_flags>
0

> <s_epik_input>
TzFbQ0gyXVtDSDJdW0NIMl1bQ0BIXTFbQ0BASF0yTihbQ0gyXUMyKFtDSDNdKVtDSDNdKWMobltjSF1uMyljKGMzNCluW2NIXW40W0NIMl1bQ0BAXTUoW09IXSlbQ0gyXVtDSDJdT1tDSDJdNQ==

> <s_epik_cmdline>
J2VwaWtfcHl0aG9uJywgJy1waCcsICc3LjAnLCAnLXRuJywgJzgnLCAnLW1hJywgJzIwMCcsICctbWV0YWxfYmluZGluZycsICctaW1hZScsICc8aW5maWxlLm1hZT4nLCAnLW9tYWUnLCAnPG91dGZpbGUubWFlPic=

> <r_lp_tautomer_probability>
1

> <r_epik_Ionization_Penalty>
0.00202764

> <r_epik_Ionization_Penalty_Charging>
0

> <r_epik_Ionization_Penalty_Neutral>
0.00202764

> <r_epik_State_Penalty>
0.00134017

> <r_epik_Charging_Adjusted_Penalty>
0.00134017

> <i_epik_Tot_Q>
0

> <i_epik_Tot_abs_Q>
0

> <r_epik_Metal_State_Penalty>
-0

> <b_epik_Metal_Only>
0

> <s_lp_Force_Field>
OPLS_2005

> <r_lp_Energy>
60.4132

> <b_lp_Chiralities_Consistent>
1

> <s_lp_Variant>
AV-unprocessed.smi:13-1

> <Gold.Version>
5.8.1

> <Gold.Id.Protein>
6NUR|6NUR_protein|mol2

> <Gold.PLP.Fitness>
38.8861

> <Gold.PLP.PLP>
-37.3833

> <Gold.PLP.part.hbond>
-2.0626

> <Gold.PLP.part.metal>
0.0000

> <Gold.PLP.part.buried>
-7.5077

> <Gold.PLP.part.nonpolar>
-29.3787

> <Gold.PLP.part.repulsive>
0.0000

> <Gold.PLP.ligand.clash>
0.0000

> <Gold.PLP.ligand.torsion>
0.9749

> <Gold.PLP.Chemscore.Hbond>
1.0000

> <Gold.PLP.Chemscore.CHOScore>
0.0000

> <Gold.PLP.Chemscore.Metal>
0.0000

> <Gold.Chemscore.Hbonds>
donor molecule, donor type, donor heavy atom, donor atom, acceptor molecule, acceptor atom, score
      P1  H  6931  6943       L1    12  1.00

> <Gold.PLP.Chemscore.Internal.Correction>
0.4527

> <Gold.Rescore>
     Score         DG    S(hbond)    S(metal)    S(lipo)     H(rot)  DE(clash)    DE(int)     intcor
      9.13     -11.42       0.99        0.00      72.89       2.30       0.03       2.27       ----

> <Gold.Chemscore.Fitness>
9.1300

> <Gold.Chemscore.DG>
-11.4247

> <Gold.Chemscore.ZeroCoef>
-5.4800

> <Gold.Chemscore.Hbond>
0.9890

> <Gold.Chemscore.Metal>
0.0000

> <Gold.Chemscore.Lipo>
72.8915

> <Gold.Chemscore.Internal_Hbond>
0.0000

> <Gold.Chemscore.DEClash>
0.0270

> <Gold.Chemscore.DEInternal>
2.2678

> <Gold.Chemscore.Rot>
2.2996

> <Gold.Chemscore.Internal.Correction>
   9.000000E+99

> <Gold.Chemscore.Hbonds>
donor molecule, donor type, donor heavy atom, donor atom, acceptor molecule, acceptor atom, score
      P1  H  6931  6943       L1    12  0.94

> <Gold.Chemscore.Hbond.Weighted>
-3.3033

> <Gold.Chemscore.Metal.Weighted>
-0.0000

> <Gold.Chemscore.Lipo.Weighted>
-8.5283

> <Gold.Chemscore.Internal_Hbond.Weighted>
0.0000

> <Gold.Chemscore.DEClash.Weighted>
0.0270

> <Gold.Chemscore.DEInternal.Weighted>
2.2678

> <Gold.Chemscore.Rot.Weighted>
5.8869

> <Gold.Chemscore.Internal.Correction.Weighted>
   9.000000E+99

> <Gold.Protein.RotatedTorsions>
[ 6907 6896 6895 6894 ] final   26.23 input  -60.11 | X-H torsion
[ 7974 7965 7964 7962 ] final   33.45 input  175.53 | X-H torsion
[ 8008 7997 7996 7995 ] final   20.19 input   59.86 | X-H torsion
[ 10167 10162 10161 10158 ] final  -84.93 input  -65.29 | X-H torsion
[ 10718 10713 10712 10709 ] final  165.95 input   66.30 | X-H torsion
[ 10763 10752 10751 10750 ] final   -1.61 input  -60.55 | X-H torsion
[ 11005 11000 10999 10996 ] final  -96.52 input  -57.11 | X-H torsion

> <Gold.Protein.ActiveResidues>
 VAL166  LYS551  ARG553  GLY616  TRP617  ASP618  TYR619  PRO620  LYS621  CYS622 
 ASP623  PHE694  ASN695  SER759  ASP760  ASP761  ALA762  ILE779  LEU786  VAL792 
 PHE793  MET794  SER795  GLU796  ALA797  LYS798  CYS799  TRP800  GLU811  SER814 

> <Gold.Protein.RotatedAtoms>
  151.9843  135.0012  160.0558 H   0  0  0  0  0  0  0  0  0  0  0  0  # atno 6907 bound_to 6896
  152.1667  133.4612  159.4897 H   0  0  0  0  0  0  0  0  0  0  0  0  # atno 6908 bound_to 6896
  150.6895  134.1921  159.4332 H   0  0  0  0  0  0  0  0  0  0  0  0  # atno 6909 bound_to 6896
  146.1420  139.6395  142.9157 H   0  0  0  0  0  0  0  0  0  0  0  0  # atno 7974 bound_to 7965
  154.9320  140.3041  155.5163 H   0  0  0  0  0  0  0  0  0  0  0  0  # atno 8008 bound_to 7997
  156.3003  140.2352  156.4317 H   0  0  0  0  0  0  0  0  0  0  0  0  # atno 8009 bound_to 7997
  154.8229  140.0422  157.1412 H   0  0  0  0  0  0  0  0  0  0  0  0  # atno 8010 bound_to 7997
  140.4086  143.2632  151.9048 H   0  0  0  0  0  0  0  0  0  0  0  0  # atno 10167 bound_to 10162
  157.0729  131.0371  151.2605 H   0  0  0  0  0  0  0  0  0  0  0  0  # atno 10718 bound_to 10713
  153.3471  135.6983  153.6819 H   0  0  0  0  0  0  0  0  0  0  0  0  # atno 10763 bound_to 10752
  153.5561  135.3544  155.2780 H   0  0  0  0  0  0  0  0  0  0  0  0  # atno 10764 bound_to 10752
  154.8647  135.4238  154.2697 H   0  0  0  0  0  0  0  0  0  0  0  0  # atno 10765 bound_to 10752
  141.1408  133.8104  157.0582 H   0  0  0  0  0  0  0  0  0  0  0  0  # atno 11005 bound_to 11000
  145.5026  141.0437  143.2532 LP  0  0  0  0  0  0  0  0  0  0  0  0  # atno 17320 bound_to 7965
  144.7803  139.6541  143.7157 LP  0  0  0  0  0  0  0  0  0  0  0  0  # atno 17321 bound_to 7965
  139.4783  144.5560  151.8312 LP  0  0  0  0  0  0  0  0  0  0  0  0  # atno 17342 bound_to 10162
  140.4663  144.1651  150.5912 LP  0  0  0  0  0  0  0  0  0  0  0  0  # atno 17343 bound_to 10162
  157.4864  130.7795  149.7464 LP  0  0  0  0  0  0  0  0  0  0  0  0  # atno 17370 bound_to 10713
  155.9945  130.3917  150.2855 LP  0  0  0  0  0  0  0  0  0  0  0  0  # atno 17371 bound_to 10713
  140.0588  134.9766  157.1268 LP  0  0  0  0  0  0  0  0  0  0  0  0  # atno 17394 bound_to 11000
  140.3879  134.2216  155.7167 LP  0  0  0  0  0  0  0  0  0  0  0  0  # atno 17395 bound_to 11000

$$$$
