AV-unprocessed.smi:1444|AV-procd|sdf|5883|dock2
  -GOLD-   22720 5563D 1   1.00000     0.00000
 Structure written by MMmdl.
 44 45  0  0  0  0  0  0  0  0  2 V2000
  152.2389  138.5561  154.3401 C   0  0  0  0  0  0  0  0  0  0  0  0
  150.8669  138.2912  154.0687 O   0  0  0  0  0  0  0  0  0  0  0  0
  149.9371  139.2771  154.3402 C   0  0  0  0  0  0  0  0  0  0  0  0
  150.3853  140.4850  154.7643 N   0  0  0  0  0  0  0  0  0  0  0  0
  149.4809  141.4492  155.0295 C   0  0  0  0  0  0  0  0  0  0  0  0
  148.0944  141.2637  154.8841 C   0  0  0  0  0  0  0  0  0  0  0  0
  147.6261  140.0118  154.4446 C   0  0  0  0  0  0  0  0  0  0  0  0
  148.5631  138.9861  154.1644 C   0  0  0  0  0  0  0  0  0  0  0  0
  148.2213  137.6784  153.7150 N   0  0  0  0  0  0  0  0  0  0  0  0
  147.1156  136.9487  153.9404 C   0  0  0  0  0  0  0  0  0  0  0  0
  146.1393  137.3037  154.5990 O   0  0  0  0  0  0  0  0  0  0  0  0
  147.1991  135.7560  153.3328 N   0  0  0  0  0  0  0  0  0  0  0  0
  146.2006  134.6873  153.3856 C   0  0  2  0  0  0  0  0  0  0  0  0
  146.1018  134.1705  154.8272 C   0  0  0  0  0  0  0  0  0  0  0  0
  146.5455  133.5436  152.4041 C   0  0  0  0  0  0  0  0  0  0  0  0
  145.5135  133.3446  151.3551 N   0  3  0  0  0  0  0  0  0  0  0  0
  146.0077  132.5676  150.1946 C   0  0  0  0  0  0  0  0  0  0  0  0
  144.9136  132.4664  149.1179 C   0  0  0  0  0  0  0  0  0  0  0  0
  143.7458  131.8772  149.6766 O   0  0  0  0  0  0  0  0  0  0  0  0
  143.2137  132.6550  150.7424 C   0  0  0  0  0  0  0  0  0  0  0  0
  144.2521  132.7593  151.8712 C   0  0  0  0  0  0  0  0  0  0  0  0
  152.8333  137.6824  154.0733 H   0  0  0  0  0  0  0  0  0  0  0  0
  152.4047  138.7577  155.3996 H   0  0  0  0  0  0  0  0  0  0  0  0
  152.6076  139.3980  153.7523 H   0  0  0  0  0  0  0  0  0  0  0  0
  149.8744  142.3966  155.3668 H   0  0  0  0  0  0  0  0  0  0  0  0
  147.4047  142.0645  155.1059 H   0  0  0  0  0  0  0  0  0  0  0  0
  146.5627  139.8771  154.3350 H   0  0  0  0  0  0  0  0  0  0  0  0
  148.9312  137.2313  153.1530 H   0  0  0  0  0  0  0  0  0  0  0  0
  148.0403  135.5567  152.8111 H   0  0  0  0  0  0  0  0  0  0  0  0
  145.2225  135.0991  153.1326 H   0  0  0  0  0  0  0  0  0  0  0  0
  145.3387  133.3965  154.9145 H   0  0  0  0  0  0  0  0  0  0  0  0
  145.8344  134.9732  155.5155 H   0  0  0  0  0  0  0  0  0  0  0  0
  147.0474  133.7441  155.1640 H   0  0  0  0  0  0  0  0  0  0  0  0
  147.4980  133.7827  151.9283 H   0  0  0  0  0  0  0  0  0  0  0  0
  146.7033  132.6070  152.9412 H   0  0  0  0  0  0  0  0  0  0  0  0
  146.8912  133.0487  149.7734 H   0  0  0  0  0  0  0  0  0  0  0  0
  146.3077  131.5705  150.5209 H   0  0  0  0  0  0  0  0  0  0  0  0
  144.6786  133.4500  148.7075 H   0  0  0  0  0  0  0  0  0  0  0  0
  145.2588  131.8491  148.2881 H   0  0  0  0  0  0  0  0  0  0  0  0
  142.9297  133.6450  150.3818 H   0  0  0  0  0  0  0  0  0  0  0  0
  142.3057  132.1769  151.1105 H   0  0  0  0  0  0  0  0  0  0  0  0
  144.4487  131.7709  152.2893 H   0  0  0  0  0  0  0  0  0  0  0  0
  143.8493  133.3720  152.6771 H   0  0  0  0  0  0  0  0  0  0  0  0
  145.2864  134.2639  151.0024 H   0  0  0  0  0  0  0  0  0  0  0  0
  1  2  1  0  0  0  0
  1 22  1  0  0  0  0
  1 23  1  0  0  0  0
  1 24  1  0  0  0  0
  2  3  1  0  0  0  0
  3  8  1  0  0  0  0
  3  4  2  0  0  0  0
  4  5  1  0  0  0  0
  5  6  2  0  0  0  0
  5 25  1  0  0  0  0
  6  7  1  0  0  0  0
  6 26  1  0  0  0  0
  7  8  2  0  0  0  0
  7 27  1  0  0  0  0
  8  9  1  0  0  0  0
  9 10  1  0  0  0  0
  9 28  1  0  0  0  0
 10 11  2  0  0  0  0
 10 12  1  0  0  0  0
 12 13  1  0  0  0  0
 12 29  1  0  0  0  0
 13 14  1  0  0  0  0
 13 15  1  0  0  0  0
 13 30  1  0  0  0  0
 14 31  1  0  0  0  0
 14 32  1  0  0  0  0
 14 33  1  0  0  0  0
 15 16  1  0  0  0  0
 15 34  1  0  0  0  0
 15 35  1  0  0  0  0
 16 21  1  0  0  0  0
 16 17  1  0  0  0  0
 16 44  1  0  0  0  0
 17 18  1  0  0  0  0
 17 36  1  0  0  0  0
 17 37  1  0  0  0  0
 18 19  1  0  0  0  0
 18 38  1  0  0  0  0
 18 39  1  0  0  0  0
 19 20  1  0  0  0  0
 20 21  1  0  0  0  0
 20 40  1  0  0  0  0
 20 41  1  0  0  0  0
 21 42  1  0  0  0  0
 21 43  1  0  0  0  0
M  CHG  1  16   1
M  END
> <s_m_source_file>
AV-unprocessed.smi

> <i_m_source_file_index>
1444

> <i_lp_mmshare_version>
43012

> <i_f3d_flags>
0

> <s_epik_input>
W0NIM11PYzFuW2NIXVtjSF1bY0hdYzFbTkhdQyg9TylbTkhdW0NASF0oW0NIM10pW0NIMl1OMltDSDJdW0NIMl1PW0NIMl1bQ0gyXTI=

> <s_epik_cmdline>
J2VwaWtfcHl0aG9uJywgJy1waCcsICc3LjAnLCAnLXRuJywgJzgnLCAnLW1hJywgJzIwMCcsICctbWV0YWxfYmluZGluZycsICctaW1hZScsICc8aW5maWxlLm1hZT4nLCAnLW9tYWUnLCAnPG91dGZpbGUubWFlPic=

> <r_lp_tautomer_probability>
1

> <r_epik_Ionization_Penalty>
0.602604

> <r_epik_Ionization_Penalty_Charging>
0.602531

> <r_epik_Ionization_Penalty_Neutral>
7.37688e-05

> <r_epik_State_Penalty>
0.617039

> <r_epik_Charging_Adjusted_Penalty>
1.21957

> <i_epik_Tot_Q>
1

> <i_epik_Tot_abs_Q>
1

> <r_epik_Metal_State_Penalty>
0.617045

> <b_epik_Metal_Only>
0

> <s_lp_Force_Field>
OPLS_2005

> <r_lp_Energy>
24.7121

> <b_lp_Chiralities_Consistent>
1

> <s_lp_Variant>
AV-unprocessed.smi:1444-3

> <Gold.Version>
5.8.1

> <Gold.Id.Protein>
6NUR|6NUR_protein|mol2

> <Gold.PLP.Fitness>
42.4214

> <Gold.PLP.PLP>
-31.6439

> <Gold.PLP.part.hbond>
-3.4672

> <Gold.PLP.part.metal>
0.0000

> <Gold.PLP.part.buried>
-2.5308

> <Gold.PLP.part.nonpolar>
-26.7283

> <Gold.PLP.part.repulsive>
0.6208

> <Gold.PLP.ligand.clash>
0.0000

> <Gold.PLP.ligand.torsion>
1.0992

> <Gold.PLP.Chemscore.Hbond>
3.3120

> <Gold.PLP.Chemscore.CHOScore>
1.0000

> <Gold.PLP.Chemscore.Metal>
0.0000

> <Gold.Chemscore.Hbonds>
donor molecule, donor type, donor heavy atom, donor atom, acceptor molecule, acceptor atom, score
      L1  H     9    28       P1  7948  0.75
      L1  H    12    29       P1  7948  0.68
      P1  H  7989  7998       L1     4  0.99
      P1  H 10785 10796       L1    19  0.87
      L1  C     5    25       P1  8028  0.98

> <Gold.PLP.Chemscore.Internal.Correction>
0.0398

> <Gold.Rescore>
     Score         DG    S(hbond)    S(metal)    S(lipo)     H(rot)  DE(clash)    DE(int)     intcor
     16.70     -18.71       2.62        0.00      77.24       1.78       0.77       1.24       ----

> <Gold.Chemscore.Fitness>
16.6999

> <Gold.Chemscore.DG>
-18.7065

> <Gold.Chemscore.ZeroCoef>
-5.4800

> <Gold.Chemscore.Hbond>
2.6186

> <Gold.Chemscore.Metal>
0.0000

> <Gold.Chemscore.Lipo>
77.2410

> <Gold.Chemscore.Internal_Hbond>
0.0000

> <Gold.Chemscore.DEClash>
0.7712

> <Gold.Chemscore.DEInternal>
1.2354

> <Gold.Chemscore.Rot>
1.7801

> <Gold.Chemscore.Internal.Correction>
   9.000000E+99

> <Gold.Chemscore.Hbonds>
donor molecule, donor type, donor heavy atom, donor atom, acceptor molecule, acceptor atom, score
      L1  H     9    28       P1  7948  0.75
      L1  H    12    29       P1  7948  0.67
      P1  H  7989  7998       L1     4  0.30
      P1  H 10785 10796       L1    19  0.67

> <Gold.Chemscore.Hbond.Weighted>
-8.7463

> <Gold.Chemscore.Metal.Weighted>
-0.0000

> <Gold.Chemscore.Lipo.Weighted>
-9.0372

> <Gold.Chemscore.Internal_Hbond.Weighted>
0.0000

> <Gold.Chemscore.DEClash.Weighted>
0.7712

> <Gold.Chemscore.DEInternal.Weighted>
1.2354

> <Gold.Chemscore.Rot.Weighted>
4.5570

> <Gold.Chemscore.Internal.Correction.Weighted>
   9.000000E+99

> <Gold.Protein.RotatedTorsions>
[ 6907 6896 6895 6894 ] final  128.78 input  -60.11 | X-H torsion
[ 7974 7965 7964 7962 ] final  149.51 input  175.53 | X-H torsion
[ 8008 7997 7996 7995 ] final -148.47 input   59.86 | X-H torsion
[ 10167 10162 10161 10158 ] final  -57.97 input  -65.29 | X-H torsion
[ 10718 10713 10712 10709 ] final  179.49 input   66.30 | X-H torsion
[ 10763 10752 10751 10750 ] final  -84.33 input  -60.55 | X-H torsion
[ 11005 11000 10999 10996 ] final -155.40 input  -57.11 | X-H torsion

> <Gold.Protein.ActiveResidues>
 VAL166  LYS551  ARG553  GLY616  TRP617  ASP618  TYR619  PRO620  LYS621  CYS622 
 ASP623  PHE694  ASN695  SER759  ASP760  ASP761  ALA762  ILE779  LEU786  VAL792 
 PHE793  MET794  SER795  GLU796  ALA797  LYS798  CYS799  TRP800  GLU811  SER814 

> <Gold.Protein.RotatedAtoms>
  152.3687  133.6390  159.6070 H   0  0  0  0  0  0  0  0  0  0  0  0  # atno 6907 bound_to 6896
  150.7653  133.9306  159.3434 H   0  0  0  0  0  0  0  0  0  0  0  0  # atno 6908 bound_to 6896
  151.7132  135.0910  160.0322 H   0  0  0  0  0  0  0  0  0  0  0  0  # atno 6909 bound_to 6896
  144.8432  139.6290  143.6007 H   0  0  0  0  0  0  0  0  0  0  0  0  # atno 7974 bound_to 7965
  155.5921  140.0653  157.2756 H   0  0  0  0  0  0  0  0  0  0  0  0  # atno 8008 bound_to 7997
  154.4302  140.1833  156.1132 H   0  0  0  0  0  0  0  0  0  0  0  0  # atno 8009 bound_to 7997
  156.0224  140.3315  155.7057 H   0  0  0  0  0  0  0  0  0  0  0  0  # atno 8010 bound_to 7997
  140.6226  143.2425  151.5444 H   0  0  0  0  0  0  0  0  0  0  0  0  # atno 10167 bound_to 10162
  156.8750  130.9796  151.3069 H   0  0  0  0  0  0  0  0  0  0  0  0  # atno 10718 bound_to 10713
  154.5982  135.5524  153.7347 H   0  0  0  0  0  0  0  0  0  0  0  0  # atno 10763 bound_to 10752
  153.0144  135.6360  154.1752 H   0  0  0  0  0  0  0  0  0  0  0  0  # atno 10764 bound_to 10752
  154.1692  135.2893  155.3066 H   0  0  0  0  0  0  0  0  0  0  0  0  # atno 10765 bound_to 10752
  140.6868  134.4084  157.5222 H   0  0  0  0  0  0  0  0  0  0  0  0  # atno 11005 bound_to 11000
  146.2721  139.6662  142.9288 LP  0  0  0  0  0  0  0  0  0  0  0  0  # atno 17320 bound_to 7965
  145.4650  141.0434  143.2730 LP  0  0  0  0  0  0  0  0  0  0  0  0  # atno 17321 bound_to 7965
  139.5451  144.2542  152.1427 LP  0  0  0  0  0  0  0  0  0  0  0  0  # atno 17342 bound_to 10162
  140.1765  144.4885  150.6551 LP  0  0  0  0  0  0  0  0  0  0  0  0  # atno 17343 bound_to 10162
  157.6173  130.8628  149.9050 LP  0  0  0  0  0  0  0  0  0  0  0  0  # atno 17370 bound_to 10713
  156.0706  130.3685  150.0783 LP  0  0  0  0  0  0  0  0  0  0  0  0  # atno 17371 bound_to 10713
  139.8935  134.8729  156.2220 LP  0  0  0  0  0  0  0  0  0  0  0  0  # atno 17394 bound_to 11000
  141.0273  133.7008  156.1370 LP  0  0  0  0  0  0  0  0  0  0  0  0  # atno 17395 bound_to 11000

$$$$
