AV-unprocessed.smi:700|AV-procd|sdf|3407|dock6
  -GOLD-   22720 0383D 1   1.00000     0.00000
 Structure written by MMmdl.
 43 44  0  0  0  0  0  0  0  0  1 V2000
  147.2514  145.2627  161.7607 C   0  0  0  0  0  0  0  0  0  0  0  0
  146.8778  144.2231  160.7604 C   0  0  0  0  0  0  0  0  0  0  0  0
  146.7778  144.2358  159.3985 C   0  0  0  0  0  0  0  0  0  0  0  0
  146.3838  142.9071  159.0770 C   0  0  0  0  0  0  0  0  0  0  0  0
  146.1164  142.3147  157.7172 C   0  0  0  0  0  0  0  0  0  0  0  0
  147.2554  141.3984  157.2515 C   0  0  0  0  0  0  0  0  0  0  0  0
  147.2447  140.1909  157.4973 O   0  0  0  0  0  0  0  0  0  0  0  0
  148.2513  141.9989  156.5815 N   0  0  0  0  0  0  0  0  0  0  0  0
  149.4362  141.3287  156.0578 C   0  0  0  0  0  0  0  0  0  0  0  0
  150.7017  142.1816  156.2484 C   0  0  0  0  0  0  0  0  0  0  0  0
  151.0090  142.4598  157.7267 C   0  0  0  0  0  0  0  0  0  0  0  0
  151.9643  143.6495  157.9120 C   0  0  0  0  0  0  0  0  0  0  0  0
  152.5334  143.7599  159.3376 C   0  0  0  0  0  0  0  0  0  0  0  0
  152.6859  142.4075  160.0363 C   0  0  0  0  0  0  0  0  0  0  0  0
  152.8078  142.7515  161.5226 C   0  0  0  0  0  0  0  0  0  0  0  0
  152.0500  144.0734  161.7137 C   0  0  0  0  0  0  0  0  0  0  0  0
  151.6568  144.5565  160.3112 C   0  0  0  0  0  0  0  0  0  0  0  0
  146.2460  142.1615  160.1624 N   0  0  0  0  0  0  0  0  0  0  0  0
  146.5636  142.9931  161.2421 O   0  0  0  0  0  0  0  0  0  0  0  0
  147.1481  146.2626  161.3389 H   0  0  0  0  0  0  0  0  0  0  0  0
  148.2858  145.1358  162.0803 H   0  0  0  0  0  0  0  0  0  0  0  0
  146.6134  145.2014  162.6426 H   0  0  0  0  0  0  0  0  0  0  0  0
  146.9642  145.0651  158.7327 H   0  0  0  0  0  0  0  0  0  0  0  0
  145.1816  141.7521  157.7258 H   0  0  0  0  0  0  0  0  0  0  0  0
  145.9922  143.1102  156.9819 H   0  0  0  0  0  0  0  0  0  0  0  0
  148.1839  142.9939  156.4231 H   0  0  0  0  0  0  0  0  0  0  0  0
  149.5551  140.3537  156.5338 H   0  0  0  0  0  0  0  0  0  0  0  0
  149.2728  141.1381  154.9969 H   0  0  0  0  0  0  0  0  0  0  0  0
  151.5533  141.6758  155.7919 H   0  0  0  0  0  0  0  0  0  0  0  0
  150.5875  143.1297  155.7216 H   0  0  0  0  0  0  0  0  0  0  0  0
  150.0785  142.6570  158.2605 H   0  0  0  0  0  0  0  0  0  0  0  0
  151.4407  141.5656  158.1770 H   0  0  0  0  0  0  0  0  0  0  0  0
  152.7821  143.5814  157.1935 H   0  0  0  0  0  0  0  0  0  0  0  0
  151.4284  144.5694  157.6744 H   0  0  0  0  0  0  0  0  0  0  0  0
  153.5185  144.2280  159.2949 H   0  0  0  0  0  0  0  0  0  0  0  0
  151.7930  141.8014  159.8750 H   0  0  0  0  0  0  0  0  0  0  0  0
  153.5417  141.8404  159.6688 H   0  0  0  0  0  0  0  0  0  0  0  0
  152.4182  141.9548  162.1573 H   0  0  0  0  0  0  0  0  0  0  0  0
  153.8576  142.8922  161.7826 H   0  0  0  0  0  0  0  0  0  0  0  0
  151.1663  143.9405  162.3389 H   0  0  0  0  0  0  0  0  0  0  0  0
  152.6909  144.8045  162.2081 H   0  0  0  0  0  0  0  0  0  0  0  0
  151.7820  145.6337  160.1966 H   0  0  0  0  0  0  0  0  0  0  0  0
  150.6044  144.3294  160.1352 H   0  0  0  0  0  0  0  0  0  0  0  0
  1  2  1  0  0  0  0
  1 20  1  0  0  0  0
  1 21  1  0  0  0  0
  1 22  1  0  0  0  0
  2 19  1  0  0  0  0
  2  3  2  0  0  0  0
  3  4  1  0  0  0  0
  3 23  1  0  0  0  0
  4  5  1  0  0  0  0
  4 18  2  0  0  0  0
  5  6  1  0  0  0  0
  5 24  1  0  0  0  0
  5 25  1  0  0  0  0
  6  7  2  0  0  0  0
  6  8  1  0  0  0  0
  8  9  1  0  0  0  0
  8 26  1  0  0  0  0
  9 10  1  0  0  0  0
  9 27  1  0  0  0  0
  9 28  1  0  0  0  0
 10 11  1  0  0  0  0
 10 29  1  0  0  0  0
 10 30  1  0  0  0  0
 11 12  1  0  0  0  0
 11 31  1  0  0  0  0
 11 32  1  0  0  0  0
 12 13  1  0  0  0  0
 12 33  1  0  0  0  0
 12 34  1  0  0  0  0
 13 17  1  0  0  0  0
 13 14  1  0  0  0  0
 13 35  1  0  0  0  0
 14 15  1  0  0  0  0
 14 36  1  0  0  0  0
 14 37  1  0  0  0  0
 15 16  1  0  0  0  0
 15 38  1  0  0  0  0
 15 39  1  0  0  0  0
 16 17  1  0  0  0  0
 16 40  1  0  0  0  0
 16 41  1  0  0  0  0
 17 42  1  0  0  0  0
 17 43  1  0  0  0  0
 18 19  1  0  0  0  0
M  END
> <s_m_source_file>
AV-unprocessed.smi

> <i_m_source_file_index>
700

> <i_lp_mmshare_version>
43012

> <i_f3d_flags>
0

> <s_epik_input>
W0NIM11jMVtjSF1jKG5vMSlbQ0gyXUMoPU8pW05IXVtDSDJdW0NIMl1bQ0gyXVtDSDJdW0NIXTJbQ0gyXVtDSDJdW0NIMl1bQ0gyXTI=

> <s_epik_cmdline>
J2VwaWtfcHl0aG9uJywgJy1waCcsICc3LjAnLCAnLXRuJywgJzgnLCAnLW1hJywgJzIwMCcsICctbWV0YWxfYmluZGluZycsICctaW1hZScsICc8aW5maWxlLm1hZT4nLCAnLW9tYWUnLCAnPG91dGZpbGUubWFlPic=

> <r_lp_tautomer_probability>
1

> <r_epik_Ionization_Penalty>
7.08657e-08

> <r_epik_Ionization_Penalty_Charging>
0

> <r_epik_Ionization_Penalty_Neutral>
7.08657e-08

> <r_epik_State_Penalty>
-0

> <r_epik_Charging_Adjusted_Penalty>
0

> <i_epik_Tot_Q>
0

> <i_epik_Tot_abs_Q>
0

> <r_epik_Metal_State_Penalty>
-0

> <b_epik_Metal_Only>
0

> <s_lp_Force_Field>
OPLS_2005

> <r_lp_Energy>
19.5762

> <b_lp_Chiralities_Consistent>
1

> <s_lp_Variant>
AV-unprocessed.smi:700-1

> <Gold.Version>
5.8.1

> <Gold.Id.Protein>
6NUR|6NUR_protein|mol2

> <Gold.PLP.Fitness>
46.7839

> <Gold.PLP.PLP>
-40.8380

> <Gold.PLP.part.hbond>
-3.9030

> <Gold.PLP.part.metal>
0.0000

> <Gold.PLP.part.buried>
-1.8937

> <Gold.PLP.part.nonpolar>
-34.7061

> <Gold.PLP.part.repulsive>
0.0226

> <Gold.PLP.ligand.clash>
0.0000

> <Gold.PLP.ligand.torsion>
1.1724

> <Gold.PLP.Chemscore.Hbond>
2.7440

> <Gold.PLP.Chemscore.CHOScore>
0.0000

> <Gold.PLP.Chemscore.Metal>
0.0000

> <Gold.Chemscore.Hbonds>
donor molecule, donor type, donor heavy atom, donor atom, acceptor molecule, acceptor atom, score
      L1  H     8    26       P1  8028  1.00
      P1  H  6933  6944       L1    19  0.59
      P1  H  6934  6946       L1    18  0.85

> <Gold.PLP.Chemscore.Internal.Correction>
0.0588

> <Gold.Rescore>
     Score         DG    S(hbond)    S(metal)    S(lipo)     H(rot)  DE(clash)    DE(int)     intcor
     17.24     -19.73       1.72        0.00     112.91       1.84       1.52       0.97       ----

> <Gold.Chemscore.Fitness>
17.2430

> <Gold.Chemscore.DG>
-19.7334

> <Gold.Chemscore.ZeroCoef>
-5.4800

> <Gold.Chemscore.Hbond>
1.7226

> <Gold.Chemscore.Metal>
0.0000

> <Gold.Chemscore.Lipo>
112.9080

> <Gold.Chemscore.Internal_Hbond>
0.0000

> <Gold.Chemscore.DEClash>
1.5181

> <Gold.Chemscore.DEInternal>
0.9723

> <Gold.Chemscore.Rot>
1.8399

> <Gold.Chemscore.Internal.Correction>
   9.000000E+99

> <Gold.Chemscore.Hbonds>
donor molecule, donor type, donor heavy atom, donor atom, acceptor molecule, acceptor atom, score
      L1  H     8    26       P1  8028  0.51
      P1  H  6933  6944       L1    19  0.01
      P1  H  6934  6946       L1    18  0.14

> <Gold.Chemscore.Hbond.Weighted>
-5.7534

> <Gold.Chemscore.Metal.Weighted>
-0.0000

> <Gold.Chemscore.Lipo.Weighted>
-13.2102

> <Gold.Chemscore.Internal_Hbond.Weighted>
0.0000

> <Gold.Chemscore.DEClash.Weighted>
1.5181

> <Gold.Chemscore.DEInternal.Weighted>
0.9723

> <Gold.Chemscore.Rot.Weighted>
4.7103

> <Gold.Chemscore.Internal.Correction.Weighted>
   9.000000E+99

> <Gold.Protein.RotatedTorsions>
[ 6907 6896 6895 6894 ] final   90.25 input  -60.11 | X-H torsion
[ 7974 7965 7964 7962 ] final   39.70 input  175.53 | X-H torsion
[ 8008 7997 7996 7995 ] final -128.26 input   59.86 | X-H torsion
[ 10167 10162 10161 10158 ] final  -38.91 input  -65.29 | X-H torsion
[ 10718 10713 10712 10709 ] final  102.40 input   66.30 | X-H torsion
[ 10763 10752 10751 10750 ] final   84.20 input  -60.55 | X-H torsion
[ 11005 11000 10999 10996 ] final   76.89 input  -57.11 | X-H torsion

> <Gold.Protein.ActiveResidues>
 VAL166  LYS551  ARG553  GLY616  TRP617  ASP618  TYR619  PRO620  LYS621  CYS622 
 ASP623  PHE694  ASN695  SER759  ASP760  ASP761  ALA762  ILE779  LEU786  VAL792 
 PHE793  MET794  SER795  GLU796  ALA797  LYS798  CYS799  TRP800  GLU811  SER814 

> <Gold.Protein.RotatedAtoms>
  152.5443  134.1841  159.8647 H   0  0  0  0  0  0  0  0  0  0  0  0  # atno 6907 bound_to 6896
  151.1841  133.4700  159.2602 H   0  0  0  0  0  0  0  0  0  0  0  0  # atno 6908 bound_to 6896
  151.1148  135.0059  159.8566 H   0  0  0  0  0  0  0  0  0  0  0  0  # atno 6909 bound_to 6896
  146.0963  139.5620  142.9443 H   0  0  0  0  0  0  0  0  0  0  0  0  # atno 7974 bound_to 7965
  155.2598  140.0435  157.2996 H   0  0  0  0  0  0  0  0  0  0  0  0  # atno 8008 bound_to 7997
  154.5718  140.2376  155.8150 H   0  0  0  0  0  0  0  0  0  0  0  0  # atno 8009 bound_to 7997
  156.2128  140.2994  155.9778 H   0  0  0  0  0  0  0  0  0  0  0  0  # atno 8010 bound_to 7997
  140.7079  143.3247  151.2708 H   0  0  0  0  0  0  0  0  0  0  0  0  # atno 10167 bound_to 10162
  157.6803  131.0752  150.5397 H   0  0  0  0  0  0  0  0  0  0  0  0  # atno 10718 bound_to 10713
  153.1360  135.4663  154.9422 H   0  0  0  0  0  0  0  0  0  0  0  0  # atno 10763 bound_to 10752
  154.7706  135.3157  154.8200 H   0  0  0  0  0  0  0  0  0  0  0  0  # atno 10764 bound_to 10752
  153.8732  135.6901  153.4826 H   0  0  0  0  0  0  0  0  0  0  0  0  # atno 10765 bound_to 10752
  139.9278  134.7638  156.1453 H   0  0  0  0  0  0  0  0  0  0  0  0  # atno 11005 bound_to 11000
  145.5941  141.0365  143.2054 LP  0  0  0  0  0  0  0  0  0  0  0  0  # atno 17320 bound_to 7965
  144.7398  139.7481  143.7315 LP  0  0  0  0  0  0  0  0  0  0  0  0  # atno 17321 bound_to 7965
  139.6712  144.0017  152.2754 LP  0  0  0  0  0  0  0  0  0  0  0  0  # atno 17342 bound_to 10162
  139.9616  144.6554  150.8074 LP  0  0  0  0  0  0  0  0  0  0  0  0  # atno 17343 bound_to 10162
  156.5705  130.4278  149.6022 LP  0  0  0  0  0  0  0  0  0  0  0  0  # atno 17370 bound_to 10713
  156.2745  130.7036  151.1842 LP  0  0  0  0  0  0  0  0  0  0  0  0  # atno 17371 bound_to 10713
  141.0847  133.6739  156.2411 LP  0  0  0  0  0  0  0  0  0  0  0  0  # atno 17394 bound_to 11000
  140.6287  134.5287  157.5557 LP  0  0  0  0  0  0  0  0  0  0  0  0  # atno 17395 bound_to 11000

$$$$
