AV-unprocessed.smi:287|AV-procd|sdf|2193|dock4
  -GOLD-   2262021593D 1   1.00000     0.00000
 Structure written by MMmdl.
 55 58  0  0  0  0  0  0  0  0  1 V2000
  153.9851  140.2348  161.1178 C   0  0  0  0  0  0  0  0  0  0  0  0
  153.0523  141.1638  160.4198 C   0  0  0  0  0  0  0  0  0  0  0  0
  152.4512  141.1543  159.1949 C   0  0  0  0  0  0  0  0  0  0  0  0
  151.6651  142.3414  159.0964 C   0  0  0  0  0  0  0  0  0  0  0  0
  150.8132  142.7565  157.9044 C   0  0  1  0  0  0  0  0  0  0  0  0
  149.3243  142.5712  158.2405 C   0  0  0  0  0  0  0  0  0  0  0  0
  150.9576  144.1249  157.5769 O   0  0  0  0  0  0  0  0  0  0  0  0
  151.1686  141.9748  156.6189 C   0  0  0  0  0  0  0  0  0  0  0  0
  150.1337  142.0625  155.5966 N   0  0  0  0  0  0  0  0  0  0  0  0
  149.6527  140.9514  155.0019 C   0  0  0  0  0  0  0  0  0  0  0  0
  150.5454  139.9460  154.8361 N   0  0  0  0  0  0  0  0  0  0  0  0
  150.1680  138.7983  154.2660 C   0  0  0  0  0  0  0  0  0  0  0  0
  148.9669  138.4552  153.7974 N   0  0  0  0  0  0  0  0  0  0  0  0
  148.0650  139.4663  153.9542 C   0  0  0  0  0  0  0  0  0  0  0  0
  148.3188  140.7379  154.5426 C   0  0  0  0  0  0  0  0  0  0  0  0
  147.1484  141.4910  154.5222 N   0  0  0  0  0  0  0  0  0  0  0  0
  146.2654  140.7081  153.9631 C   0  0  0  0  0  0  0  0  0  0  0  0
  146.7371  139.4687  153.5930 N   0  0  0  0  0  0  0  0  0  0  0  0
  146.0081  138.3344  152.9504 C   0  0  2  0  0  0  0  0  0  0  0  0
  146.4113  137.1467  153.5413 O   0  0  0  0  0  0  0  0  0  0  0  0
  146.0500  136.0925  152.6609 C   0  0  2  0  0  0  0  0  0  0  0  0
  146.9213  134.8614  152.9516 C   0  0  0  0  0  0  0  0  0  0  0  0
  146.6524  133.8390  152.0157 O   0  0  0  0  0  0  0  0  0  0  0  0
  146.2223  136.6786  151.2436 C   0  0  1  0  0  0  0  0  0  0  0  0
  145.0809  136.3772  150.4651 O   0  0  0  0  0  0  0  0  0  0  0  0
  146.3291  138.1897  151.4566 C   0  0  2  0  0  0  0  0  0  0  0  0
  147.6231  138.6563  151.1174 O   0  0  0  0  0  0  0  0  0  0  0  0
  151.8433  142.9802  160.3001 C   0  0  0  0  0  0  0  0  0  0  0  0
  151.3157  144.2464  160.8903 C   0  0  0  0  0  0  0  0  0  0  0  0
  152.6863  142.2755  161.1057 O   0  0  0  0  0  0  0  0  0  0  0  0
  144.9500  138.5127  153.1502 H   0  0  0  0  0  0  0  0  0  0  0  0
  145.0006  135.8643  152.8612 H   0  0  0  0  0  0  0  0  0  0  0  0
  147.1096  136.2831  150.7464 H   0  0  0  0  0  0  0  0  0  0  0  0
  145.5978  138.7589  150.8806 H   0  0  0  0  0  0  0  0  0  0  0  0
  154.3736  139.4839  160.4297 H   0  0  0  0  0  0  0  0  0  0  0  0
  153.4778  139.7176  161.9324 H   0  0  0  0  0  0  0  0  0  0  0  0
  154.8322  140.7786  161.5367 H   0  0  0  0  0  0  0  0  0  0  0  0
  152.5667  140.3837  158.4473 H   0  0  0  0  0  0  0  0  0  0  0  0
  149.0992  141.5301  158.4756 H   0  0  0  0  0  0  0  0  0  0  0  0
  148.6856  142.8628  157.4057 H   0  0  0  0  0  0  0  0  0  0  0  0
  149.0347  143.1719  159.1038 H   0  0  0  0  0  0  0  0  0  0  0  0
  150.1500  144.4265  157.1900 H   0  0  0  0  0  0  0  0  0  0  0  0
  152.0776  142.4030  156.1942 H   0  0  0  0  0  0  0  0  0  0  0  0
  151.3874  140.9316  156.8499 H   0  0  0  0  0  0  0  0  0  0  0  0
  149.8975  142.9971  155.2956 H   0  0  0  0  0  0  0  0  0  0  0  0
  150.9388  138.0471  154.1737 H   0  0  0  0  0  0  0  0  0  0  0  0
  145.2403  141.0142  153.8118 H   0  0  0  0  0  0  0  0  0  0  0  0
  147.9815  135.1154  152.9285 H   0  0  0  0  0  0  0  0  0  0  0  0
  146.7040  134.4755  153.9479 H   0  0  0  0  0  0  0  0  0  0  0  0
  146.3691  133.0688  152.4845 H   0  0  0  0  0  0  0  0  0  0  0  0
  144.3283  136.3472  151.0362 H   0  0  0  0  0  0  0  0  0  0  0  0
  148.2527  138.2048  151.6591 H   0  0  0  0  0  0  0  0  0  0  0  0
  150.2262  144.2591  160.8636 H   0  0  0  0  0  0  0  0  0  0  0  0
  151.6793  145.1116  160.3361 H   0  0  0  0  0  0  0  0  0  0  0  0
  151.6265  144.3586  161.9292 H   0  0  0  0  0  0  0  0  0  0  0  0
  1  2  1  0  0  0  0
  1 35  1  0  0  0  0
  1 36  1  0  0  0  0
  1 37  1  0  0  0  0
  2 30  1  0  0  0  0
  2  3  2  0  0  0  0
  3  4  1  0  0  0  0
  3 38  1  0  0  0  0
  4  5  1  0  0  0  0
  4 28  2  0  0  0  0
  5  6  1  0  0  0  0
  5  7  1  0  0  0  0
  5  8  1  0  0  0  0
  6 39  1  0  0  0  0
  6 40  1  0  0  0  0
  6 41  1  0  0  0  0
  7 42  1  0  0  0  0
  8  9  1  0  0  0  0
  8 43  1  0  0  0  0
  8 44  1  0  0  0  0
  9 10  1  0  0  0  0
  9 45  1  0  0  0  0
 10 15  1  0  0  0  0
 10 11  2  0  0  0  0
 11 12  1  0  0  0  0
 12 13  2  0  0  0  0
 12 46  1  0  0  0  0
 13 14  1  0  0  0  0
 14 18  1  0  0  0  0
 14 15  2  0  0  0  0
 15 16  1  0  0  0  0
 16 17  2  0  0  0  0
 17 18  1  0  0  0  0
 17 47  1  0  0  0  0
 18 19  1  0  0  0  0
 19 31  1  0  0  0  0
 19 26  1  0  0  0  0
 19 20  1  0  0  0  0
 20 21  1  0  0  0  0
 21 32  1  0  0  0  0
 21 22  1  0  0  0  0
 21 24  1  0  0  0  0
 22 23  1  0  0  0  0
 22 48  1  0  0  0  0
 22 49  1  0  0  0  0
 23 50  1  0  0  0  0
 24 33  1  0  0  0  0
 24 25  1  0  0  0  0
 24 26  1  0  0  0  0
 25 51  1  0  0  0  0
 26 34  1  0  0  0  0
 26 27  1  0  0  0  0
 27 52  1  0  0  0  0
 28 29  1  0  0  0  0
 28 30  1  0  0  0  0
 29 53  1  0  0  0  0
 29 54  1  0  0  0  0
 29 55  1  0  0  0  0
M  END
> <s_m_source_file>
AV-unprocessed.smi

> <i_m_source_file_index>
287

> <i_lp_mmshare_version>
43012

> <i_f3d_flags>
0

> <s_epik_input>
W0NIM11jMVtjSF1jKGMobzEpW0NIM10pW0NAQF0oW0NIM10pKFtPSF0pW0NIMl1bTkhdYyhuW2NIXW4yKWMoYzIzKW5bY0hdbjNbQ0BASF00T1tDQEhdKFtDSDJdW09IXSlbQ0BASF0oW09IXSlbQ0BIXTRbT0hd

> <s_epik_cmdline>
J2VwaWtfcHl0aG9uJywgJy1waCcsICc3LjAnLCAnLXRuJywgJzgnLCAnLW1hJywgJzIwMCcsICctbWV0YWxfYmluZGluZycsICctaW1hZScsICc8aW5maWxlLm1hZT4nLCAnLW9tYWUnLCAnPG91dGZpbGUubWFlPic=

> <r_lp_tautomer_probability>
1

> <r_epik_Ionization_Penalty>
0.000992612

> <r_epik_Ionization_Penalty_Charging>
0

> <r_epik_Ionization_Penalty_Neutral>
0.000992612

> <r_epik_State_Penalty>
-0

> <r_epik_Charging_Adjusted_Penalty>
0

> <i_epik_Tot_Q>
0

> <i_epik_Tot_abs_Q>
0

> <r_epik_Metal_State_Penalty>
-0

> <b_epik_Metal_Only>
0

> <s_epik_Chemistry_Notes>
This compound contains an acetal/aminal-like group ( X-CH(R)-Y where X, Y are N, S, or O) that may be acid/base labile, releasing an aldehyde.

> <s_lp_Force_Field>
OPLS_2005

> <r_lp_Energy>
41.001

> <b_lp_Chiralities_Consistent>
1

> <s_lp_Variant>
AV-unprocessed.smi:287-17

> <Gold.Version>
5.8.1

> <Gold.Id.Protein>
6NUR|6NUR_protein|mol2

> <Gold.PLP.Fitness>
59.2946

> <Gold.PLP.PLP>
-47.9407

> <Gold.PLP.part.hbond>
-7.0000

> <Gold.PLP.part.metal>
0.0000

> <Gold.PLP.part.buried>
-2.0644

> <Gold.PLP.part.nonpolar>
-39.0305

> <Gold.PLP.part.repulsive>
0.6858

> <Gold.PLP.ligand.clash>
0.5600

> <Gold.PLP.ligand.torsion>
1.4976

> <Gold.PLP.Chemscore.Hbond>
3.9507

> <Gold.PLP.Chemscore.CHOScore>
0.9654

> <Gold.PLP.Chemscore.Metal>
0.0000

> <Gold.Chemscore.Hbonds>
donor molecule, donor type, donor heavy atom, donor atom, acceptor molecule, acceptor atom, score
      L1  H     7    42       P1  8028  1.00
      L1  H     9    45       P1  8028  0.98
      L1  H    27    52       P1  7948  0.67
      P1  H  7954  7966       L1    27  0.40
      P1  H  7989  7998       L1    11  0.80
      L1  C    17    47       P1 10175  1.00

> <Gold.PLP.Chemscore.Internal.Correction>
0.1608

> <Gold.Rescore>
     Score         DG    S(hbond)    S(metal)    S(lipo)     H(rot)  DE(clash)    DE(int)     intcor
      9.40     -14.01       2.87        0.00     106.32       5.27       0.68       3.93       ----

> <Gold.Chemscore.Fitness>
9.4018

> <Gold.Chemscore.DG>
-14.0137

> <Gold.Chemscore.ZeroCoef>
-5.4800

> <Gold.Chemscore.Hbond>
2.8678

> <Gold.Chemscore.Metal>
0.0000

> <Gold.Chemscore.Lipo>
106.3175

> <Gold.Chemscore.Internal_Hbond>
0.0000

> <Gold.Chemscore.DEClash>
0.6775

> <Gold.Chemscore.DEInternal>
3.9343

> <Gold.Chemscore.Rot>
5.2672

> <Gold.Chemscore.Internal.Correction>
   9.000000E+99

> <Gold.Chemscore.Hbonds>
donor molecule, donor type, donor heavy atom, donor atom, acceptor molecule, acceptor atom, score
      L1  H     7    42       P1  8028  0.58
      L1  H     9    45       P1  8028  0.87
      L1  H    27    52       P1  7948  0.64
      P1  H  7954  7966       L1    27  0.01
      P1  H  7989  7998       L1    11  0.06

> <Gold.Chemscore.Hbond.Weighted>
-9.5784

> <Gold.Chemscore.Metal.Weighted>
-0.0000

> <Gold.Chemscore.Lipo.Weighted>
-12.4391

> <Gold.Chemscore.Internal_Hbond.Weighted>
0.0000

> <Gold.Chemscore.DEClash.Weighted>
0.6775

> <Gold.Chemscore.DEInternal.Weighted>
3.9343

> <Gold.Chemscore.Rot.Weighted>
13.4839

> <Gold.Chemscore.Internal.Correction.Weighted>
   9.000000E+99

> <Gold.Protein.RotatedTorsions>
[ 6907 6896 6895 6894 ] final -137.36 input  -60.11 | X-H torsion
[ 7974 7965 7964 7962 ] final -123.58 input  175.53 | X-H torsion
[ 8008 7997 7996 7995 ] final  127.67 input   59.86 | X-H torsion
[ 10167 10162 10161 10158 ] final  -44.53 input  -65.29 | X-H torsion
[ 10718 10713 10712 10709 ] final   67.79 input   66.30 | X-H torsion
[ 10763 10752 10751 10750 ] final -115.67 input  -60.55 | X-H torsion
[ 11005 11000 10999 10996 ] final  -15.45 input  -57.11 | X-H torsion

> <Gold.Protein.ActiveResidues>
 VAL166  LYS551  ARG553  GLY616  TRP617  ASP618  TYR619  PRO620  LYS621  CYS622 
 ASP623  PHE694  ASN695  SER759  ASP760  ASP761  ALA762  ILE779  LEU786  VAL792 
 PHE793  MET794  SER795  GLU796  ALA797  LYS798  CYS799  TRP800  GLU811  SER814 

> <Gold.Protein.RotatedAtoms>
  151.0215  133.5873  159.2670 H   0  0  0  0  0  0  0  0  0  0  0  0  # atno 6907 bound_to 6896
  151.2988  135.0762  159.9240 H   0  0  0  0  0  0  0  0  0  0  0  0  # atno 6908 bound_to 6896
  152.5324  133.9900  159.7900 H   0  0  0  0  0  0  0  0  0  0  0  0  # atno 6909 bound_to 6896
  145.0172  140.7957  143.4403 H   0  0  0  0  0  0  0  0  0  0  0  0  # atno 7974 bound_to 7965
  156.2896  140.2663  156.2311 H   0  0  0  0  0  0  0  0  0  0  0  0  # atno 8008 bound_to 7997
  155.0071  140.0387  157.2402 H   0  0  0  0  0  0  0  0  0  0  0  0  # atno 8009 bound_to 7997
  154.7550  140.2750  155.6266 H   0  0  0  0  0  0  0  0  0  0  0  0  # atno 8010 bound_to 7997
  140.6893  143.2925  151.3509 H   0  0  0  0  0  0  0  0  0  0  0  0  # atno 10167 bound_to 10162
  157.6251  130.9339  150.0290 H   0  0  0  0  0  0  0  0  0  0  0  0  # atno 10718 bound_to 10713
  154.8490  135.4373  154.1699 H   0  0  0  0  0  0  0  0  0  0  0  0  # atno 10763 bound_to 10752
  153.2815  135.6954  153.7386 H   0  0  0  0  0  0  0  0  0  0  0  0  # atno 10764 bound_to 10752
  153.6588  135.3438  155.3096 H   0  0  0  0  0  0  0  0  0  0  0  0  # atno 10765 bound_to 10752
  140.7967  133.8245  155.9431 H   0  0  0  0  0  0  0  0  0  0  0  0  # atno 11005 bound_to 11000
  145.1944  139.2284  143.5226 LP  0  0  0  0  0  0  0  0  0  0  0  0  # atno 17320 bound_to 7965
  146.3480  140.1747  142.8589 LP  0  0  0  0  0  0  0  0  0  0  0  0  # atno 17321 bound_to 7965
  139.6280  144.0776  152.2451 LP  0  0  0  0  0  0  0  0  0  0  0  0  # atno 17342 bound_to 10162
  140.0241  144.6130  150.7542 LP  0  0  0  0  0  0  0  0  0  0  0  0  # atno 17343 bound_to 10162
  156.1419  130.3642  149.9569 LP  0  0  0  0  0  0  0  0  0  0  0  0  # atno 17370 bound_to 10713
  156.7608  130.9150  151.3641 LP  0  0  0  0  0  0  0  0  0  0  0  0  # atno 17371 bound_to 10713
  140.9335  134.1991  157.4847 LP  0  0  0  0  0  0  0  0  0  0  0  0  # atno 17394 bound_to 11000
  139.8725  134.9843  156.5233 LP  0  0  0  0  0  0  0  0  0  0  0  0  # atno 17395 bound_to 11000

$$$$
