#       Name:                AV-unprocessed.smi:15
#       Creating user name   scv26
#       Creation time:       Thu Mar 26 15:22:18 2020


#       File generated by GOLD software.
#

@<TRIPOS>MOLECULE
AV-unprocessed.smi:15
    62    65     1
SMALL
NO_CHARGES


@<TRIPOS>ATOM
      1 ****        -4.2186  -2.0202   2.1090 C.3            1 S1                 0.0000
      2 ****        -3.0575  -1.4713   1.2697 C.3            1 S1                 0.0000
      3 ****        -2.5196  -0.2176   1.7977 N.pl3          1 S1                 0.0000
      4 ****        -3.3554   0.9839   1.8400 C.3            1 S1                 0.0000
      5 ****        -3.6373   1.5763   0.4461 C.3            1 S1                 0.0000
      6 ****        -4.6507   2.7179   0.4606 C.3            1 S1                 0.0000
      7 ****        -4.3132   3.5083  -0.7946 C.3            1 S1                 0.0000
      8 ****        -2.9114   3.0226  -1.1745 C.3            1 S1                 0.0000
      9 ****        -2.4886   2.2234  -0.0797 O.3            1 S1                 0.0000
     10 ****        -1.2043   0.0277   1.5837 C.ar           1 S1                 0.0000
     11 ****        -0.5152   0.6490   2.5745 N.ar           1 S1                 0.0000
     12 ****         0.7790   0.9388   2.4142 C.ar           1 S1                 0.0000
     13 ****         1.5615   0.7076   1.3585 N.ar           1 S1                 0.0000
     14 ****         0.8718   0.0925   0.3554 C.ar           1 S1                 0.0000
     15 ****        -0.5013  -0.2833   0.3831 C.ar           1 S1                 0.0000
     16 ****        -0.8529  -0.8672  -0.8289 N.2            1 S1                 0.0000
     17 ****         0.2489  -0.8451  -1.5274 C.2            1 S1                 0.0000
     18 ****         1.3358  -0.2902  -0.8911 N.pl3          1 S1                 0.0000
     19 ****         2.6760  -0.1317  -1.4355 C.3            1 S1                 0.0000
     20 ****         3.5638  -1.3921  -1.2662 C.3            1 S1                 0.0000
     21 ****         2.9564  -2.4511  -1.9886 O.3            1 S1                 0.0000
     22 ****         3.7186  -1.8429   0.1831 C.3            1 S1                 0.0000
     23 ****         5.0630  -2.5535   0.1759 C.3            1 S1                 0.0000
     24 ****         5.8428  -1.7283  -0.6716 O.3            1 S1                 0.0000
     25 ****         5.0352  -1.2733  -1.7554 C.3            1 S1                 0.0000
     26 ****         5.5261   0.1335  -2.1334 C.3            1 S1                 0.0000
     27 ****        -4.5402  -2.9898   1.7286 H              1 S1                 0.0000
     28 ****        -5.0849  -1.3593   2.0838 H              1 S1                 0.0000
     29 ****        -3.9231  -2.1536   3.1500 H              1 S1                 0.0000
     30 ****        -2.2669  -2.2228   1.2480 H              1 S1                 0.0000
     31 ****        -3.3823  -1.3313   0.2388 H              1 S1                 0.0000
     32 ****        -4.3001   0.7291   2.3188 H              1 S1                 0.0000
     33 ****        -2.9015   1.7407   2.4810 H              1 S1                 0.0000
     34 ****        -3.9714   0.8057  -0.2505 H              1 S1                 0.0000
     35 ****        -5.6820   2.3646   0.4768 H              1 S1                 0.0000
     36 ****        -4.4963   3.3464   1.3389 H              1 S1                 0.0000
     37 ****        -5.0201   3.3006  -1.5987 H              1 S1                 0.0000
     38 ****        -4.3328   4.5807  -0.5983 H              1 S1                 0.0000
     39 ****        -2.9485   2.4075  -2.0746 H              1 S1                 0.0000
     40 ****        -2.2155   3.8429  -1.3511 H              1 S1                 0.0000
     41 ****         1.2547   1.4303   3.2501 H              1 S1                 0.0000
     42 ****         0.3003  -1.2363  -2.5331 H              1 S1                 0.0000
     43 ****         2.5849   0.1304  -2.4903 H              1 S1                 0.0000
     44 ****         3.1321   0.7271  -0.9429 H              1 S1                 0.0000
     45 ****         3.4833  -3.2279  -1.8791 H              1 S1                 0.0000
     46 ****         3.7858  -0.9752   0.8406 H              1 S1                 0.0000
     47 ****         2.9008  -2.4698   0.5418 H              1 S1                 0.0000
     48 ****         5.5019  -2.6396   1.1699 H              1 S1                 0.0000
     49 ****         4.9791  -3.5521  -0.2553 H              1 S1                 0.0000
     50 ****         5.2103  -1.9374  -2.6039 H              1 S1                 0.0000
     51 ****         4.9570   0.5449  -2.9669 H              1 S1                 0.0000
     52 ****         6.5729   0.1062  -2.4368 H              1 S1                 0.0000
     53 ****         5.4492   0.8233  -1.2928 H              1 S1                 0.0000
     54 ****        -1.8255   1.5424  -0.3903 LP             1 S1                 0.0000
     55 ****        -2.0704   2.7999   0.6223 LP             1 S1                 0.0000
     56 ****        -0.9779   0.8906   3.4275 LP             1 S1                 0.0000
     57 ****         2.5295   0.9538   1.3091 LP             1 S1                 0.0000
     58 ****        -1.7465  -1.2229  -1.1027 LP             1 S1                 0.0000
     59 ****         2.9045  -2.2122  -2.9582 LP             1 S1                 0.0000
     60 ****         2.0352  -2.6155  -1.6360 LP             1 S1                 0.0000
     61 ****         6.6169  -2.2515  -1.0279 LP             1 S1                 0.0000
     62 ****         6.1816  -0.9426  -0.1540 LP             1 S1                 0.0000
@<TRIPOS>BOND
    1    1    2 1     
    2    1   27 1     
    3    1   28 1     
    4    1   29 1     
    5    2    3 1     
    6    2   30 1     
    7    2   31 1     
    8    3    4 1     
    9    3   10 1     
   10    4    5 1     
   11    4   32 1     
   12    4   33 1     
   13    5    9 1     
   14    5    6 1     
   15    5   34 1     
   16    6    7 1     
   17    6   35 1     
   18    6   36 1     
   19    7    8 1     
   20    7   37 1     
   21    7   38 1     
   22    8    9 1     
   23    8   39 1     
   24    8   40 1     
   25   10   15 ar    
   26   10   11 ar    
   27   11   12 ar    
   28   12   13 ar    
   29   12   41 1     
   30   13   14 ar    
   31   14   18 1     
   32   14   15 ar    
   33   15   16 1     
   34   16   17 2     
   35   17   18 1     
   36   17   42 1     
   37   18   19 1     
   38   19   20 1     
   39   19   43 1     
   40   19   44 1     
   41   20   25 1     
   42   20   21 1     
   43   20   22 1     
   44   21   45 1     
   45   22   23 1     
   46   22   46 1     
   47   22   47 1     
   48   23   24 1     
   49   23   48 1     
   50   23   49 1     
   51   24   25 1     
   52   25   26 1     
   53   25   50 1     
   54   26   51 1     
   55   26   52 1     
   56   26   53 1     
   57    9   54 1     
   58    9   55 1     
   59   11   56 1     
   60   13   57 1     
   61   16   58 1     
   62   21   59 1     
   63   21   60 1     
   64   24   61 1     
   65   24   62 1     
@<TRIPOS>SUBSTRUCTURE
      1 S1             1
@<TRIPOS>SET
LONE_PAIRS      STATIC     ATOMS    <user>   **** ""
9 54 55 56 57 58 59 60 61 62
DONOR_HYDROGENS      STATIC     ATOMS    <user>   **** ""
1 45
ATOM$BLUE        STATIC     ATOMS    COLORGROUP SYSTEM
9 54 55 56 57 58 59 60 61 62
ATOM$RED        STATIC     ATOMS    COLORGROUP SYSTEM
1 45
