AV-unprocessed.smi:2988|AV-procd|sdf|11387|dock5
  -GOLD-   2272016313D 1   1.00000     0.00000
 Structure written by MMmdl.
 37 38  0  0  0  0  0  0  0  0  1 V2000
  149.5984  142.0661  158.1513 C   0  0  0  0  0  0  0  0  0  0  0  0
  150.2782  143.4362  158.3287 C   0  0  2  0  0  0  0  0  0  0  0  0
  151.8091  143.2707  158.4214 C   0  0  0  0  0  0  0  0  0  0  0  0
  152.5239  144.6209  158.5831 C   0  0  0  0  0  0  0  0  0  0  0  0
  151.9928  145.3832  159.8045 C   0  0  0  0  0  0  0  0  0  0  0  0
  150.4711  145.5688  159.7173 C   0  0  0  0  0  0  0  0  0  0  0  0
  149.7419  144.2207  159.5547 C   0  0  1  0  0  0  0  0  0  0  0  0
  148.3070  144.4729  159.4288 N   0  0  0  0  0  0  0  0  0  0  0  0
  147.4157  144.4689  160.4322 C   0  0  0  0  0  0  0  0  0  0  0  0
  147.7185  144.2705  161.6096 O   0  0  0  0  0  0  0  0  0  0  0  0
  145.9572  144.7421  160.0381 C   0  0  0  0  0  0  0  0  0  0  0  0
  145.7630  146.0726  159.4433 N   0  0  0  0  0  0  0  0  0  0  0  0
  146.3116  147.1073  160.1805 N   0  0  0  0  0  0  0  0  0  0  0  0
  146.1856  148.3197  159.7629 C   0  0  0  0  0  0  0  0  0  0  0  0
  145.4899  148.6444  158.5373 C   0  0  0  0  0  0  0  0  0  0  0  0
  145.3532  150.2903  158.0277 Cl  0  0  0  0  0  0  0  0  0  0  0  0
  144.9617  147.6220  157.8186 C   0  0  0  0  0  0  0  0  0  0  0  0
  144.1171  147.9313  156.3404 Cl  0  0  0  0  0  0  0  0  0  0  0  0
  145.0852  146.2272  158.2640 C   0  0  0  0  0  0  0  0  0  0  0  0
  144.6218  145.2718  157.6396 O   0  0  0  0  0  0  0  0  0  0  0  0
  149.7223  141.4456  159.0393 H   0  0  0  0  0  0  0  0  0  0  0  0
  150.0226  141.5247  157.3054 H   0  0  0  0  0  0  0  0  0  0  0  0
  148.5297  142.1675  157.9626 H   0  0  0  0  0  0  0  0  0  0  0  0
  150.0658  144.0221  157.4330 H   0  0  0  0  0  0  0  0  0  0  0  0
  152.0584  142.6260  159.2655 H   0  0  0  0  0  0  0  0  0  0  0  0
  152.1850  142.7675  157.5298 H   0  0  0  0  0  0  0  0  0  0  0  0
  153.5984  144.4633  158.6822 H   0  0  0  0  0  0  0  0  0  0  0  0
  152.3809  145.2220  157.6843 H   0  0  0  0  0  0  0  0  0  0  0  0
  152.2439  144.8379  160.7152 H   0  0  0  0  0  0  0  0  0  0  0  0
  152.4828  146.3545  159.8796 H   0  0  0  0  0  0  0  0  0  0  0  0
  150.1144  146.0806  160.6123 H   0  0  0  0  0  0  0  0  0  0  0  0
  150.2358  146.2213  158.8751 H   0  0  0  0  0  0  0  0  0  0  0  0
  149.9395  143.6302  160.4514 H   0  0  0  0  0  0  0  0  0  0  0  0
  147.9620  144.6498  158.4966 H   0  0  0  0  0  0  0  0  0  0  0  0
  145.6459  143.9633  159.3397 H   0  0  0  0  0  0  0  0  0  0  0  0
  145.3096  144.6292  160.9100 H   0  0  0  0  0  0  0  0  0  0  0  0
  146.5976  149.1667  160.3117 H   0  0  0  0  0  0  0  0  0  0  0  0
  1  2  1  0  0  0  0
  1 21  1  0  0  0  0
  1 22  1  0  0  0  0
  1 23  1  0  0  0  0
  2  7  1  0  0  0  0
  2  3  1  0  0  0  0
  2 24  1  0  0  0  0
  3  4  1  0  0  0  0
  3 25  1  0  0  0  0
  3 26  1  0  0  0  0
  4  5  1  0  0  0  0
  4 27  1  0  0  0  0
  4 28  1  0  0  0  0
  5  6  1  0  0  0  0
  5 29  1  0  0  0  0
  5 30  1  0  0  0  0
  6  7  1  0  0  0  0
  6 31  1  0  0  0  0
  6 32  1  0  0  0  0
  7  8  1  0  0  0  0
  7 33  1  0  0  0  0
  8  9  1  0  0  0  0
  8 34  1  0  0  0  0
  9 10  2  0  0  0  0
  9 11  1  0  0  0  0
 11 12  1  0  0  0  0
 11 35  1  0  0  0  0
 11 36  1  0  0  0  0
 12 19  1  0  0  0  0
 12 13  1  0  0  0  0
 13 14  2  0  0  0  0
 14 15  1  0  0  0  0
 14 37  1  0  0  0  0
 15 16  1  0  0  0  0
 15 17  2  0  0  0  0
 17 18  1  0  0  0  0
 17 19  1  0  0  0  0
 19 20  2  0  0  0  0
M  END
> <s_m_source_file>
AV-unprocessed.smi

> <i_m_source_file_index>
2988

> <i_lp_mmshare_version>
43012

> <i_f3d_flags>
0

> <s_epik_input>
W0NIM11bQ0BASF0xW0NIMl1bQ0gyXVtDSDJdW0NIMl1bQ0BIXTFbTkhdQyg9TylbQ0gyXW4ybltjSF1jKENsKWMoQ2wpYzI9Tw==

> <s_epik_cmdline>
J2VwaWtfcHl0aG9uJywgJy1waCcsICc3LjAnLCAnLXRuJywgJzgnLCAnLW1hJywgJzIwMCcsICctbWV0YWxfYmluZGluZycsICctaW1hZScsICc8aW5maWxlLm1hZT4nLCAnLW9tYWUnLCAnPG91dGZpbGUubWFlPic=

> <r_lp_tautomer_probability>
1

> <r_epik_Ionization_Penalty>
1.90782e-08

> <r_epik_Ionization_Penalty_Charging>
3.13143e-11

> <r_epik_Ionization_Penalty_Neutral>
1.90469e-08

> <r_epik_State_Penalty>
-0

> <r_epik_Charging_Adjusted_Penalty>
3.13143e-11

> <i_epik_Tot_Q>
0

> <i_epik_Tot_abs_Q>
0

> <r_epik_Metal_State_Penalty>
-0

> <b_epik_Metal_Only>
0

> <s_lp_Force_Field>
OPLS_2005

> <r_lp_Energy>
24.1537

> <b_lp_Chiralities_Consistent>
1

> <s_lp_Variant>
AV-unprocessed.smi:2988-1

> <Gold.Version>
5.8.1

> <Gold.Id.Protein>
6NUR|6NUR_protein|mol2

> <Gold.PLP.Fitness>
43.4086

> <Gold.PLP.PLP>
-38.7581

> <Gold.PLP.part.hbond>
-2.5060

> <Gold.PLP.part.metal>
0.0000

> <Gold.PLP.part.buried>
-1.5536

> <Gold.PLP.part.nonpolar>
-34.4606

> <Gold.PLP.part.repulsive>
0.5668

> <Gold.PLP.ligand.clash>
0.0000

> <Gold.PLP.ligand.torsion>
0.4491

> <Gold.PLP.Chemscore.Hbond>
1.8480

> <Gold.PLP.Chemscore.CHOScore>
0.0000

> <Gold.PLP.Chemscore.Metal>
0.0000

> <Gold.Chemscore.Hbonds>
donor molecule, donor type, donor heavy atom, donor atom, acceptor molecule, acceptor atom, score
      L1  H     8    34       P1  8029  0.82
      P1  H  6933  6944       L1    10  0.93

> <Gold.PLP.Chemscore.Internal.Correction>
0.0047

> <Gold.Rescore>
     Score         DG    S(hbond)    S(metal)    S(lipo)     H(rot)  DE(clash)    DE(int)     intcor
     16.99     -19.32       1.59        0.00     105.79       1.50       1.74       0.59       ----

> <Gold.Chemscore.Fitness>
16.9899

> <Gold.Chemscore.DG>
-19.3183

> <Gold.Chemscore.ZeroCoef>
-5.4800

> <Gold.Chemscore.Hbond>
1.5852

> <Gold.Chemscore.Metal>
0.0000

> <Gold.Chemscore.Lipo>
105.7927

> <Gold.Chemscore.Internal_Hbond>
0.0000

> <Gold.Chemscore.DEClash>
1.7392

> <Gold.Chemscore.DEInternal>
0.5892

> <Gold.Chemscore.Rot>
1.4977

> <Gold.Chemscore.Internal.Correction>
   9.000000E+99

> <Gold.Chemscore.Hbonds>
donor molecule, donor type, donor heavy atom, donor atom, acceptor molecule, acceptor atom, score
      L1  H     8    34       P1  8029  0.77
      P1  H  6933  6944       L1    10  0.26

> <Gold.Chemscore.Hbond.Weighted>
-5.2946

> <Gold.Chemscore.Metal.Weighted>
-0.0000

> <Gold.Chemscore.Lipo.Weighted>
-12.3777

> <Gold.Chemscore.Internal_Hbond.Weighted>
0.0000

> <Gold.Chemscore.DEClash.Weighted>
1.7392

> <Gold.Chemscore.DEInternal.Weighted>
0.5892

> <Gold.Chemscore.Rot.Weighted>
3.8341

> <Gold.Chemscore.Internal.Correction.Weighted>
   9.000000E+99

> <Gold.Protein.RotatedTorsions>
[ 6907 6896 6895 6894 ] final  -72.31 input  -60.11 | X-H torsion
[ 7974 7965 7964 7962 ] final  -15.14 input  175.53 | X-H torsion
[ 8008 7997 7996 7995 ] final  150.83 input   59.86 | X-H torsion
[ 10167 10162 10161 10158 ] final  -60.32 input  -65.29 | X-H torsion
[ 10718 10713 10712 10709 ] final   -6.89 input   66.30 | X-H torsion
[ 10763 10752 10751 10750 ] final  111.55 input  -60.55 | X-H torsion
[ 11005 11000 10999 10996 ] final   58.04 input  -57.11 | X-H torsion

> <Gold.Protein.ActiveResidues>
 VAL166  LYS551  ARG553  GLY616  TRP617  ASP618  TYR619  PRO620  LYS621  CYS622 
 ASP623  PHE694  ASN695  SER759  ASP760  ASP761  ALA762  ILE779  LEU786  VAL792 
 PHE793  MET794  SER795  GLU796  ALA797  LYS798  CYS799  TRP800  GLU811  SER814 

> <Gold.Protein.RotatedAtoms>
  150.7175  134.5182  159.5640 H   0  0  0  0  0  0  0  0  0  0  0  0  # atno 6907 bound_to 6896
  152.2743  134.7895  160.0417 H   0  0  0  0  0  0  0  0  0  0  0  0  # atno 6908 bound_to 6896
  151.8564  133.3414  159.3726 H   0  0  0  0  0  0  0  0  0  0  0  0  # atno 6909 bound_to 6896
  146.2045  140.3450  142.8412 H   0  0  0  0  0  0  0  0  0  0  0  0  # atno 7974 bound_to 7965
  156.2699  140.2064  156.6080 H   0  0  0  0  0  0  0  0  0  0  0  0  # atno 8008 bound_to 7997
  154.6854  140.0535  157.0333 H   0  0  0  0  0  0  0  0  0  0  0  0  # atno 8009 bound_to 7997
  155.0941  140.3199  155.4568 H   0  0  0  0  0  0  0  0  0  0  0  0  # atno 8010 bound_to 7997
  140.6079  143.2378  151.5779 H   0  0  0  0  0  0  0  0  0  0  0  0  # atno 10167 bound_to 10162
  156.7253  130.5163  149.5858 H   0  0  0  0  0  0  0  0  0  0  0  0  # atno 10718 bound_to 10713
  153.4650  135.3713  155.2359 H   0  0  0  0  0  0  0  0  0  0  0  0  # atno 10763 bound_to 10752
  154.8757  135.3917  154.3880 H   0  0  0  0  0  0  0  0  0  0  0  0  # atno 10764 bound_to 10752
  153.4459  135.7085  153.6204 H   0  0  0  0  0  0  0  0  0  0  0  0  # atno 10765 bound_to 10752
  140.0407  134.5877  155.9385 H   0  0  0  0  0  0  0  0  0  0  0  0  # atno 11005 bound_to 11000
  144.8759  140.7335  143.6017 LP  0  0  0  0  0  0  0  0  0  0  0  0  # atno 17320 bound_to 7965
  145.3369  139.1743  143.4506 LP  0  0  0  0  0  0  0  0  0  0  0  0  # atno 17321 bound_to 7965
  139.5339  144.2838  152.1208 LP  0  0  0  0  0  0  0  0  0  0  0  0  # atno 17342 bound_to 10162
  140.2031  144.4638  150.6422 LP  0  0  0  0  0  0  0  0  0  0  0  0  # atno 17343 bound_to 10162
  156.1566  130.6346  151.0665 LP  0  0  0  0  0  0  0  0  0  0  0  0  # atno 17370 bound_to 10713
  157.6881  131.0818  150.7185 LP  0  0  0  0  0  0  0  0  0  0  0  0  # atno 17371 bound_to 10713
  141.1881  133.6562  156.5312 LP  0  0  0  0  0  0  0  0  0  0  0  0  # atno 17394 bound_to 11000
  140.4073  134.7303  157.4815 LP  0  0  0  0  0  0  0  0  0  0  0  0  # atno 17395 bound_to 11000

$$$$
