AV-unprocessed.smi:610|AV-procd|sdf|3055|dock9
  -GOLD-   2262023573D 1   1.00000     0.00000
 Structure written by MMmdl.
 38 39  0  0  0  0  0  0  0  0  2 V2000
  151.8669  139.6578  155.6163 C   0  0  0  0  0  0  0  0  0  0  0  0
  151.2615  140.9103  156.2672 C   0  0  2  0  0  0  0  0  0  0  0  0
  151.5731  140.9765  157.7747 C   0  0  0  0  0  0  0  0  0  0  0  0
  151.6702  142.3442  158.2517 N   0  0  0  0  0  0  0  0  0  0  0  0
  152.6758  142.8877  159.0400 C   0  0  0  0  0  0  0  0  0  0  0  0
  152.3578  144.2145  159.2229 C   0  0  0  0  0  0  0  0  0  0  0  0
  151.1678  144.5072  158.5603 N   0  0  0  0  0  0  0  0  0  0  0  0
  150.8163  143.3499  158.0156 C   0  0  0  0  0  0  0  0  0  0  0  0
  149.8152  140.9301  156.0619 N   0  0  0  0  0  0  0  0  0  0  0  0
  149.1879  141.0611  154.8819 C   0  0  0  0  0  0  0  0  0  0  0  0
  149.7979  141.1263  153.8141 O   0  0  0  0  0  0  0  0  0  0  0  0
  147.6443  141.1643  154.8808 C   0  0  0  0  0  0  0  0  0  0  0  0
  147.2828  142.2828  155.7718 N   0  3  0  0  0  0  0  0  0  0  0  0
  147.1122  141.3918  153.4555 C   0  0  0  0  0  0  0  0  0  0  0  0
  146.9975  139.9909  152.8374 C   0  0  0  0  0  0  0  0  0  0  0  0
  146.8420  139.0148  154.0147 C   0  0  0  0  0  0  0  0  0  0  0  0
  146.9045  139.8720  155.2870 C   0  0  0  0  0  0  0  0  0  0  0  0
  152.9473  139.6255  155.7598 H   0  0  0  0  0  0  0  0  0  0  0  0
  151.6794  139.6412  154.5421 H   0  0  0  0  0  0  0  0  0  0  0  0
  151.4470  138.7461  156.0423 H   0  0  0  0  0  0  0  0  0  0  0  0
  151.7066  141.7880  155.7945 H   0  0  0  0  0  0  0  0  0  0  0  0
  150.8061  140.4561  158.3507 H   0  0  0  0  0  0  0  0  0  0  0  0
  152.5185  140.4760  157.9875 H   0  0  0  0  0  0  0  0  0  0  0  0
  153.5128  142.3026  159.3921 H   0  0  0  0  0  0  0  0  0  0  0  0
  152.8902  144.9753  159.7747 H   0  0  0  0  0  0  0  0  0  0  0  0
  149.9222  143.2342  157.4204 H   0  0  0  0  0  0  0  0  0  0  0  0
  149.2440  140.8735  156.8928 H   0  0  0  0  0  0  0  0  0  0  0  0
  147.7096  143.1353  155.4388 H   0  0  0  0  0  0  0  0  0  0  0  0
  147.6118  142.0814  156.7055 H   0  0  0  0  0  0  0  0  0  0  0  0
  146.1204  141.8453  153.4968 H   0  0  0  0  0  0  0  0  0  0  0  0
  147.7371  142.0526  152.8526 H   0  0  0  0  0  0  0  0  0  0  0  0
  146.1607  139.9293  152.1409 H   0  0  0  0  0  0  0  0  0  0  0  0
  147.9033  139.7516  152.2788 H   0  0  0  0  0  0  0  0  0  0  0  0
  145.9071  138.4559  153.9593 H   0  0  0  0  0  0  0  0  0  0  0  0
  147.6553  138.2881  154.0035 H   0  0  0  0  0  0  0  0  0  0  0  0
  147.3528  139.3422  156.1289 H   0  0  0  0  0  0  0  0  0  0  0  0
  145.8854  140.1174  155.5908 H   0  0  0  0  0  0  0  0  0  0  0  0
  146.2786  142.3892  155.7877 H   0  0  0  0  0  0  0  0  0  0  0  0
  1  2  1  0  0  0  0
  1 18  1  0  0  0  0
  1 19  1  0  0  0  0
  1 20  1  0  0  0  0
  2  3  1  0  0  0  0
  2  9  1  0  0  0  0
  2 21  1  0  0  0  0
  3  4  1  0  0  0  0
  3 22  1  0  0  0  0
  3 23  1  0  0  0  0
  4  8  1  0  0  0  0
  4  5  1  0  0  0  0
  5  6  2  0  0  0  0
  5 24  1  0  0  0  0
  6  7  1  0  0  0  0
  6 25  1  0  0  0  0
  7  8  2  0  0  0  0
  8 26  1  0  0  0  0
  9 10  1  0  0  0  0
  9 27  1  0  0  0  0
 10 11  2  0  0  0  0
 10 12  1  0  0  0  0
 12 17  1  0  0  0  0
 12 13  1  0  0  0  0
 12 14  1  0  0  0  0
 13 28  1  0  0  0  0
 13 29  1  0  0  0  0
 13 38  1  0  0  0  0
 14 15  1  0  0  0  0
 14 30  1  0  0  0  0
 14 31  1  0  0  0  0
 15 16  1  0  0  0  0
 15 32  1  0  0  0  0
 15 33  1  0  0  0  0
 16 17  1  0  0  0  0
 16 34  1  0  0  0  0
 16 35  1  0  0  0  0
 17 36  1  0  0  0  0
 17 37  1  0  0  0  0
M  CHG  1  13   1
M  END
> <s_m_source_file>
AV-unprocessed.smi

> <i_m_source_file_index>
610

> <i_lp_mmshare_version>
43012

> <i_f3d_flags>
0

> <s_epik_input>
W2NIXTFuW2NIXVtjSF1uMVtDSDJdW0NAQEhdKFtDSDNdKVtOSF1DKD1PKUMyKFtOSDJdKVtDSDJdW0NIMl1bQ0gyXVtDSDJdMg==

> <s_epik_cmdline>
J2VwaWtfcHl0aG9uJywgJy1waCcsICc3LjAnLCAnLXRuJywgJzgnLCAnLW1hJywgJzIwMCcsICctbWV0YWxfYmluZGluZycsICctaW1hZScsICc8aW5maWxlLm1hZT4nLCAnLW9tYWUnLCAnPG91dGZpbGUubWFlPic=

> <r_lp_tautomer_probability>
1

> <r_epik_Ionization_Penalty>
0.661147

> <r_epik_Ionization_Penalty_Charging>
0.661145

> <r_epik_Ionization_Penalty_Neutral>
1.19451e-06

> <r_epik_State_Penalty>
0.679243

> <r_epik_Charging_Adjusted_Penalty>
1.34039

> <i_epik_Tot_Q>
1

> <i_epik_Tot_abs_Q>
1

> <r_epik_Metal_State_Penalty>
0.372892

> <b_epik_Metal_Only>
0

> <s_lp_Force_Field>
OPLS_2005

> <r_lp_Energy>
25.3563

> <b_lp_Chiralities_Consistent>
1

> <s_lp_Variant>
AV-unprocessed.smi:610-3

> <Gold.Version>
5.8.1

> <Gold.Id.Protein>
6NUR|6NUR_protein|mol2

> <Gold.PLP.Fitness>
43.2412

> <Gold.PLP.PLP>
-31.8350

> <Gold.PLP.part.hbond>
-2.7758

> <Gold.PLP.part.metal>
0.0000

> <Gold.PLP.part.buried>
-3.3561

> <Gold.PLP.part.nonpolar>
-27.1515

> <Gold.PLP.part.repulsive>
2.1915

> <Gold.PLP.ligand.clash>
0.0000

> <Gold.PLP.ligand.torsion>
0.6436

> <Gold.PLP.Chemscore.Hbond>
3.2160

> <Gold.PLP.Chemscore.CHOScore>
1.0000

> <Gold.PLP.Chemscore.Metal>
0.0000

> <Gold.Chemscore.Hbonds>
donor molecule, donor type, donor heavy atom, donor atom, acceptor molecule, acceptor atom, score
      L1  H    13    28       P1  8028  2.00
      P1  H  7989  7998       L1    11  0.32
      P1  H  8011  8017       L1    11  0.86
      L1  C     8    26       P1  8028  1.00

> <Gold.PLP.Chemscore.Internal.Correction>
0.0454

> <Gold.Rescore>
     Score         DG    S(hbond)    S(metal)    S(lipo)     H(rot)  DE(clash)    DE(int)     intcor
     13.04     -14.69       1.82        0.00      70.43       2.00       1.41       0.24       ----

> <Gold.Chemscore.Fitness>
13.0381

> <Gold.Chemscore.DG>
-14.6924

> <Gold.Chemscore.ZeroCoef>
-5.4800

> <Gold.Chemscore.Hbond>
1.8219

> <Gold.Chemscore.Metal>
0.0000

> <Gold.Chemscore.Lipo>
70.4278

> <Gold.Chemscore.Internal_Hbond>
0.0000

> <Gold.Chemscore.DEClash>
1.4134

> <Gold.Chemscore.DEInternal>
0.2409

> <Gold.Chemscore.Rot>
1.9972

> <Gold.Chemscore.Internal.Correction>
   9.000000E+99

> <Gold.Chemscore.Hbonds>
donor molecule, donor type, donor heavy atom, donor atom, acceptor molecule, acceptor atom, score
      L1  H    13    28       P1  8028  0.43
      P1  H  7989  7998       L1    11  0.32
      P1  H  8011  8017       L1    11  0.84

> <Gold.Chemscore.Hbond.Weighted>
-6.0851

> <Gold.Chemscore.Metal.Weighted>
-0.0000

> <Gold.Chemscore.Lipo.Weighted>
-8.2401

> <Gold.Chemscore.Internal_Hbond.Weighted>
0.0000

> <Gold.Chemscore.DEClash.Weighted>
1.4134

> <Gold.Chemscore.DEInternal.Weighted>
0.2409

> <Gold.Chemscore.Rot.Weighted>
5.1127

> <Gold.Chemscore.Internal.Correction.Weighted>
   9.000000E+99

> <Gold.Protein.RotatedTorsions>
[ 6907 6896 6895 6894 ] final -109.41 input  -60.11 | X-H torsion
[ 7974 7965 7964 7962 ] final  -57.26 input  175.53 | X-H torsion
[ 8008 7997 7996 7995 ] final   49.33 input   59.86 | X-H torsion
[ 10167 10162 10161 10158 ] final -100.84 input  -65.29 | X-H torsion
[ 10718 10713 10712 10709 ] final   86.66 input   66.30 | X-H torsion
[ 10763 10752 10751 10750 ] final  -86.85 input  -60.55 | X-H torsion
[ 11005 11000 10999 10996 ] final  -10.23 input  -57.11 | X-H torsion

> <Gold.Protein.ActiveResidues>
 VAL166  LYS551  ARG553  GLY616  TRP617  ASP618  TYR619  PRO620  LYS621  CYS622 
 ASP623  PHE694  ASN695  SER759  ASP760  ASP761  ALA762  ILE779  LEU786  VAL792 
 PHE793  MET794  SER795  GLU796  ALA797  LYS798  CYS799  TRP800  GLU811  SER814 

> <Gold.Protein.RotatedAtoms>
  150.7560  133.9533  159.3492 H   0  0  0  0  0  0  0  0  0  0  0  0  # atno 6907 bound_to 6896
  151.7452  135.0843  160.0331 H   0  0  0  0  0  0  0  0  0  0  0  0  # atno 6908 bound_to 6896
  152.3502  133.6133  159.5975 H   0  0  0  0  0  0  0  0  0  0  0  0  # atno 6909 bound_to 6896
  145.8531  140.8338  142.9975 H   0  0  0  0  0  0  0  0  0  0  0  0  # atno 7974 bound_to 7965
  155.4004  140.3437  155.4256 H   0  0  0  0  0  0  0  0  0  0  0  0  # atno 8008 bound_to 7997
  156.1507  140.1570  156.8807 H   0  0  0  0  0  0  0  0  0  0  0  0  # atno 8009 bound_to 7997
  154.5050  140.0805  156.7856 H   0  0  0  0  0  0  0  0  0  0  0  0  # atno 8010 bound_to 7997
  140.2476  143.3495  152.0744 H   0  0  0  0  0  0  0  0  0  0  0  0  # atno 10167 bound_to 10162
  157.6931  131.0224  150.3006 H   0  0  0  0  0  0  0  0  0  0  0  0  # atno 10718 bound_to 10713
  154.6271  135.5434  153.7639 H   0  0  0  0  0  0  0  0  0  0  0  0  # atno 10763 bound_to 10752
  153.0266  135.6427  154.1356 H   0  0  0  0  0  0  0  0  0  0  0  0  # atno 10764 bound_to 10752
  154.1287  135.2915  155.3170 H   0  0  0  0  0  0  0  0  0  0  0  0  # atno 10765 bound_to 10752
  140.7425  133.8658  155.8979 H   0  0  0  0  0  0  0  0  0  0  0  0  # atno 11005 bound_to 11000
  144.6728  140.0983  143.7462 LP  0  0  0  0  0  0  0  0  0  0  0  0  # atno 17320 bound_to 7965
  145.9335  139.2621  143.1311 LP  0  0  0  0  0  0  0  0  0  0  0  0  # atno 17321 bound_to 7965
  139.5057  144.6799  151.6035 LP  0  0  0  0  0  0  0  0  0  0  0  0  # atno 17342 bound_to 10162
  140.6065  143.9514  150.6422 LP  0  0  0  0  0  0  0  0  0  0  0  0  # atno 17343 bound_to 10162
  156.3523  130.3833  149.7319 LP  0  0  0  0  0  0  0  0  0  0  0  0  # atno 17370 bound_to 10713
  156.4793  130.8033  151.3048 LP  0  0  0  0  0  0  0  0  0  0  0  0  # atno 17371 bound_to 10713
  140.9824  134.1388  157.4482 LP  0  0  0  0  0  0  0  0  0  0  0  0  # atno 17394 bound_to 11000
  139.8803  135.0014  156.6069 LP  0  0  0  0  0  0  0  0  0  0  0  0  # atno 17395 bound_to 11000

$$$$
