AV-unprocessed.smi:1005|AV-procd|sdf|4372|dock6
  -GOLD-   22720 2283D 1   1.00000     0.00000
 Structure written by MMmdl.
 57 59  0  0  0  0  0  0  0  0  3 V2000
  152.5886  142.8496  161.4982 C   0  0  0  0  0  0  0  0  0  0  0  0
  152.0788  142.5551  160.0983 C   0  0  0  0  0  0  0  0  0  0  0  0
  152.5218  141.3873  159.4372 C   0  0  0  0  0  0  0  0  0  0  0  0
  152.0745  141.0793  158.1337 C   0  0  0  0  0  0  0  0  0  0  0  0
  152.3793  140.0114  157.3071 N   0  0  0  0  0  0  0  0  0  0  0  0
  151.6540  140.2911  156.2282 C   0  0  0  0  0  0  0  0  0  0  0  0
  150.9158  141.4174  156.2562 N   0  0  0  0  0  0  0  0  0  0  0  0
  150.0561  141.9240  155.2009 C   0  0  0  0  0  0  0  0  0  0  0  0
  149.0799  140.8557  154.6711 C   0  0  2  0  0  0  0  0  0  0  0  0
  149.7887  139.9192  153.8817 O   0  0  0  0  0  0  0  0  0  0  0  0
  147.9644  141.4815  153.8098 C   0  0  0  0  0  0  0  0  0  0  0  0
  146.7643  141.8552  154.6019 N   0  3  2  0  0  0  0  0  0  0  0  0
  145.9138  140.6863  154.9272 C   0  0  0  0  0  0  0  0  0  0  0  0
  144.7284  141.1145  155.8071 C   0  0  0  0  0  0  0  0  0  0  0  0
  143.9891  142.1357  155.1473 O   0  0  0  0  0  0  0  0  0  0  0  0
  144.7681  143.3046  154.9126 C   0  0  2  0  0  0  0  0  0  0  0  0
  143.8567  144.3680  154.2708 C   0  0  0  0  0  0  0  0  0  0  0  0
  142.9016  144.9711  155.2360 N   0  3  0  0  0  0  0  0  0  0  0  0
  143.5630  145.6562  156.3711 C   0  0  0  0  0  0  0  0  0  0  0  0
  141.9223  145.8570  154.5682 C   0  0  0  0  0  0  0  0  0  0  0  0
  145.9463  142.9317  153.9899 C   0  0  0  0  0  0  0  0  0  0  0  0
  151.1611  141.9762  157.5063 C   0  0  0  0  0  0  0  0  0  0  0  0
  150.7108  143.1396  158.1551 C   0  0  0  0  0  0  0  0  0  0  0  0
  151.1723  143.4356  159.4547 C   0  0  0  0  0  0  0  0  0  0  0  0
  150.6887  144.7005  160.1417 C   0  0  0  0  0  0  0  0  0  0  0  0
  153.2470  142.0581  161.8569 H   0  0  0  0  0  0  0  0  0  0  0  0
  151.7575  142.9353  162.1984 H   0  0  0  0  0  0  0  0  0  0  0  0
  153.1506  143.7836  161.5109 H   0  0  0  0  0  0  0  0  0  0  0  0
  153.2136  140.7174  159.9264 H   0  0  0  0  0  0  0  0  0  0  0  0
  151.6617  139.6407  155.3656 H   0  0  0  0  0  0  0  0  0  0  0  0
  149.5013  142.7768  155.5945 H   0  0  0  0  0  0  0  0  0  0  0  0
  150.6834  142.3079  154.3952 H   0  0  0  0  0  0  0  0  0  0  0  0
  148.6519  140.3288  155.5234 H   0  0  0  0  0  0  0  0  0  0  0  0
  149.6369  140.1191  152.9697 H   0  0  0  0  0  0  0  0  0  0  0  0
  148.3364  142.3591  153.2790 H   0  0  0  0  0  0  0  0  0  0  0  0
  147.6776  140.7600  153.0429 H   0  0  0  0  0  0  0  0  0  0  0  0
  145.5506  140.2297  154.0049 H   0  0  0  0  0  0  0  0  0  0  0  0
  146.5024  139.9312  155.4497 H   0  0  0  0  0  0  0  0  0  0  0  0
  144.0714  140.2642  155.9905 H   0  0  0  0  0  0  0  0  0  0  0  0
  145.0721  141.4679  156.7807 H   0  0  0  0  0  0  0  0  0  0  0  0
  145.1671  143.6743  155.8576 H   0  0  0  0  0  0  0  0  0  0  0  0
  144.4533  145.1598  153.8154 H   0  0  0  0  0  0  0  0  0  0  0  0
  143.3024  143.8968  153.4572 H   0  0  0  0  0  0  0  0  0  0  0  0
  144.1931  146.4748  156.0209 H   0  0  0  0  0  0  0  0  0  0  0  0
  144.1819  144.9719  156.9497 H   0  0  0  0  0  0  0  0  0  0  0  0
  142.8202  146.0709  157.0536 H   0  0  0  0  0  0  0  0  0  0  0  0
  142.4191  146.7089  154.1020 H   0  0  0  0  0  0  0  0  0  0  0  0
  141.1930  146.2366  155.2848 H   0  0  0  0  0  0  0  0  0  0  0  0
  141.3722  145.3166  153.7969 H   0  0  0  0  0  0  0  0  0  0  0  0
  146.5559  143.8172  153.8142 H   0  0  0  0  0  0  0  0  0  0  0  0
  145.5765  142.6003  153.0181 H   0  0  0  0  0  0  0  0  0  0  0  0
  150.0197  143.8014  157.6542 H   0  0  0  0  0  0  0  0  0  0  0  0
  150.0409  145.2855  159.4880 H   0  0  0  0  0  0  0  0  0  0  0  0
  151.5331  145.3301  160.4230 H   0  0  0  0  0  0  0  0  0  0  0  0
  150.1244  144.4544  161.0414 H   0  0  0  0  0  0  0  0  0  0  0  0
  142.3635  144.2088  155.6241 H   0  0  0  0  0  0  0  0  0  0  0  0
  147.1117  142.2071  155.4833 H   0  0  0  0  0  0  0  0  0  0  0  0
  1  2  1  0  0  0  0
  1 26  1  0  0  0  0
  1 27  1  0  0  0  0
  1 28  1  0  0  0  0
  2 24  1  0  0  0  0
  2  3  2  0  0  0  0
  3  4  1  0  0  0  0
  3 29  1  0  0  0  0
  4 22  2  0  0  0  0
  4  5  1  0  0  0  0
  5  6  2  0  0  0  0
  6  7  1  0  0  0  0
  6 30  1  0  0  0  0
  7  8  1  0  0  0  0
  7 22  1  0  0  0  0
  8  9  1  0  0  0  0
  8 31  1  0  0  0  0
  8 32  1  0  0  0  0
  9 10  1  0  0  0  0
  9 11  1  0  0  0  0
  9 33  1  0  0  0  0
 10 34  1  0  0  0  0
 11 12  1  0  0  0  0
 11 35  1  0  0  0  0
 11 36  1  0  0  0  0
 12 21  1  0  0  0  0
 12 13  1  0  0  0  0
 12 57  1  0  0  0  0
 13 14  1  0  0  0  0
 13 37  1  0  0  0  0
 13 38  1  0  0  0  0
 14 15  1  0  0  0  0
 14 39  1  0  0  0  0
 14 40  1  0  0  0  0
 15 16  1  0  0  0  0
 16 17  1  0  0  0  0
 16 21  1  0  0  0  0
 16 41  1  0  0  0  0
 17 18  1  0  0  0  0
 17 42  1  0  0  0  0
 17 43  1  0  0  0  0
 18 19  1  0  0  0  0
 18 20  1  0  0  0  0
 18 56  1  0  0  0  0
 19 44  1  0  0  0  0
 19 45  1  0  0  0  0
 19 46  1  0  0  0  0
 20 47  1  0  0  0  0
 20 48  1  0  0  0  0
 20 49  1  0  0  0  0
 21 50  1  0  0  0  0
 21 51  1  0  0  0  0
 22 23  1  0  0  0  0
 23 24  2  0  0  0  0
 23 52  1  0  0  0  0
 24 25  1  0  0  0  0
 25 53  1  0  0  0  0
 25 54  1  0  0  0  0
 25 55  1  0  0  0  0
M  CHG  1  12   1
M  CHG  1  18   1
M  END
> <s_m_source_file>
AV-unprocessed.smi

> <i_m_source_file_index>
1005

> <i_lp_mmshare_version>
43012

> <i_f3d_flags>
0

> <s_epik_input>
W0NIM11jKFtjSF0xKWMoW0NIM10pW2NIXWMoYzEyKW4oW2NIXW4yKVtDSDJdW0NASF0oW09IXSlbQ0gyXU4zW0NIMl1bQ0gyXU9bQ0BIXShbQ0gyXTMpW0NIMl1OKFtDSDNdKVtDSDNd

> <s_epik_cmdline>
J2VwaWtfcHl0aG9uJywgJy1waCcsICc3LjAnLCAnLXRuJywgJzgnLCAnLW1hJywgJzIwMCcsICctbWV0YWxfYmluZGluZycsICctaW1hZScsICc8aW5maWxlLm1hZT4nLCAnLW9tYWUnLCAnPG91dGZpbGUubWFlPic=

> <r_epik_Ionization_Penalty>
1.0968

> <r_epik_Ionization_Penalty_Charging>
1.0096

> <r_epik_Ionization_Penalty_Neutral>
0.0871956

> <r_epik_State_Penalty>
1.31185

> <r_epik_Charging_Adjusted_Penalty>
2.32145

> <i_epik_Tot_Q>
2

> <i_epik_Tot_abs_Q>
2

> <r_epik_Metal_State_Penalty>
1.22442

> <b_epik_Metal_Only>
0

> <s_lp_Force_Field>
OPLS_2005

> <r_lp_Energy>
33.8105

> <b_lp_Chiralities_Consistent>
1

> <s_lp_Variant>
AV-unprocessed.smi:1005-11

> <Gold.Version>
5.8.1

> <Gold.Id.Protein>
6NUR|6NUR_protein|mol2

> <Gold.PLP.Fitness>
55.6529

> <Gold.PLP.PLP>
-50.8870

> <Gold.PLP.part.hbond>
-2.9460

> <Gold.PLP.part.metal>
0.0000

> <Gold.PLP.part.buried>
-5.8662

> <Gold.PLP.part.nonpolar>
-40.9146

> <Gold.PLP.part.repulsive>
0.2691

> <Gold.PLP.ligand.clash>
0.0000

> <Gold.PLP.ligand.torsion>
0.8835

> <Gold.PLP.Chemscore.Hbond>
2.0772

> <Gold.PLP.Chemscore.CHOScore>
0.0000

> <Gold.PLP.Chemscore.Metal>
0.0000

> <Gold.Chemscore.Hbonds>
donor molecule, donor type, donor heavy atom, donor atom, acceptor molecule, acceptor atom, score
      L1  H    10    34       P1  7957  1.00
      P1  H  7989  7998       L1    10  0.04
      P1  H  7997  8008       L1     5  0.83

> <Gold.PLP.Chemscore.Internal.Correction>
0.3013

> <Gold.Rescore>
     Score         DG    S(hbond)    S(metal)    S(lipo)     H(rot)  DE(clash)    DE(int)     intcor
     18.21     -19.64       1.76        0.00     125.14       2.48       0.66       0.77       ----

> <Gold.Chemscore.Fitness>
18.2131

> <Gold.Chemscore.DG>
-19.6430

> <Gold.Chemscore.ZeroCoef>
-5.4800

> <Gold.Chemscore.Hbond>
1.7588

> <Gold.Chemscore.Metal>
0.0000

> <Gold.Chemscore.Lipo>
125.1361

> <Gold.Chemscore.Internal_Hbond>
0.0000

> <Gold.Chemscore.DEClash>
0.6643

> <Gold.Chemscore.DEInternal>
0.7657

> <Gold.Chemscore.Rot>
2.4814

> <Gold.Chemscore.Internal.Correction>
   9.000000E+99

> <Gold.Chemscore.Hbonds>
donor molecule, donor type, donor heavy atom, donor atom, acceptor molecule, acceptor atom, score
      L1  H    10    34       P1  7957  1.00
      P1  H  7997  8008       L1     5  0.34

> <Gold.Chemscore.Hbond.Weighted>
-5.8745

> <Gold.Chemscore.Metal.Weighted>
-0.0000

> <Gold.Chemscore.Lipo.Weighted>
-14.6409

> <Gold.Chemscore.Internal_Hbond.Weighted>
0.0000

> <Gold.Chemscore.DEClash.Weighted>
0.6643

> <Gold.Chemscore.DEInternal.Weighted>
0.7657

> <Gold.Chemscore.Rot.Weighted>
6.3524

> <Gold.Chemscore.Internal.Correction.Weighted>
   9.000000E+99

> <Gold.Protein.RotatedTorsions>
[ 6907 6896 6895 6894 ] final  -30.43 input  -60.11 | X-H torsion
[ 7974 7965 7964 7962 ] final  -66.54 input  175.53 | X-H torsion
[ 8008 7997 7996 7995 ] final  -62.33 input   59.86 | X-H torsion
[ 10167 10162 10161 10158 ] final -106.51 input  -65.29 | X-H torsion
[ 10718 10713 10712 10709 ] final    7.65 input   66.30 | X-H torsion
[ 10763 10752 10751 10750 ] final   93.29 input  -60.55 | X-H torsion
[ 11005 11000 10999 10996 ] final -173.83 input  -57.11 | X-H torsion

> <Gold.Protein.ActiveResidues>
 VAL166  LYS551  ARG553  GLY616  TRP617  ASP618  TYR619  PRO620  LYS621  CYS622 
 ASP623  PHE694  ASN695  SER759  ASP760  ASP761  ALA762  ILE779  LEU786  VAL792 
 PHE793  MET794  SER795  GLU796  ALA797  LYS798  CYS799  TRP800  GLU811  SER814 

> <Gold.Protein.RotatedAtoms>
  151.1056  134.9997  159.8469 H   0  0  0  0  0  0  0  0  0  0  0  0  # atno 6907 bound_to 6896
  152.5440  134.1897  159.8679 H   0  0  0  0  0  0  0  0  0  0  0  0  # atno 6908 bound_to 6896
  151.1943  133.4604  159.2628 H   0  0  0  0  0  0  0  0  0  0  0  0  # atno 6909 bound_to 6896
  145.7404  140.8956  143.0532 H   0  0  0  0  0  0  0  0  0  0  0  0  # atno 7974 bound_to 7965
  154.4494  140.0998  156.6570 H   0  0  0  0  0  0  0  0  0  0  0  0  # atno 8008 bound_to 7997
  155.5335  140.3482  155.4413 H   0  0  0  0  0  0  0  0  0  0  0  0  # atno 8009 bound_to 7997
  156.0647  140.1335  156.9888 H   0  0  0  0  0  0  0  0  0  0  0  0  # atno 8010 bound_to 7997
  140.1870  143.3921  152.1236 H   0  0  0  0  0  0  0  0  0  0  0  0  # atno 10167 bound_to 10162
  156.9401  130.5858  149.5652 H   0  0  0  0  0  0  0  0  0  0  0  0  # atno 10718 bound_to 10713
  153.2287  135.4331  155.0570 H   0  0  0  0  0  0  0  0  0  0  0  0  # atno 10763 bound_to 10752
  154.8286  135.3374  154.6820 H   0  0  0  0  0  0  0  0  0  0  0  0  # atno 10764 bound_to 10752
  153.7248  135.7014  153.5060 H   0  0  0  0  0  0  0  0  0  0  0  0  # atno 10765 bound_to 10752
  140.4813  134.6072  157.4920 H   0  0  0  0  0  0  0  0  0  0  0  0  # atno 11005 bound_to 11000
  144.6872  139.9453  143.7476 LP  0  0  0  0  0  0  0  0  0  0  0  0  # atno 17320 bound_to 7965
  146.0453  139.3459  143.0673 LP  0  0  0  0  0  0  0  0  0  0  0  0  # atno 17321 bound_to 7965
  139.5272  144.7116  151.5187 LP  0  0  0  0  0  0  0  0  0  0  0  0  # atno 17342 bound_to 10162
  140.6481  143.8752  150.6758 LP  0  0  0  0  0  0  0  0  0  0  0  0  # atno 17343 bound_to 10162
  156.0408  130.5491  150.8766 LP  0  0  0  0  0  0  0  0  0  0  0  0  # atno 17370 bound_to 10713
  157.5791  131.0946  150.9300 LP  0  0  0  0  0  0  0  0  0  0  0  0  # atno 17371 bound_to 10713
  139.9825  134.7115  155.9834 LP  0  0  0  0  0  0  0  0  0  0  0  0  # atno 17394 bound_to 11000
  141.1530  133.6546  156.4071 LP  0  0  0  0  0  0  0  0  0  0  0  0  # atno 17395 bound_to 11000

$$$$
