AV-unprocessed.smi:2986|AV-procd|sdf|11383|dock3
  -GOLD-   2272016303D 1   1.00000     0.00000
 Structure written by MMmdl.
 41 43  0  0  0  0  0  0  0  0  2 V2000
  147.9470  141.5443  154.3809 C   0  0  0  0  0  0  0  0  0  0  0  0
  148.2001  141.7253  155.7626 O   0  0  0  0  0  0  0  0  0  0  0  0
  149.3488  141.0184  156.2027 C   0  0  0  0  0  0  0  0  0  0  0  0
  150.5395  141.9803  156.3129 C   0  0  0  0  0  0  0  0  0  0  0  0
  151.2167  141.8650  157.5961 N   0  0  0  0  0  0  0  0  0  0  0  0
  151.7549  140.7571  158.1636 C   0  0  0  0  0  0  0  0  0  0  0  0
  151.6777  139.1630  157.4083 S   0  0  0  0  0  0  0  0  0  0  0  0
  150.5891  138.3155  158.6016 C   0  0  0  0  0  0  0  0  0  0  0  0
  150.1320  136.9253  158.1467 C   0  0  0  0  0  0  0  0  0  0  0  0
  150.2114  136.6280  156.9541 O   0  0  0  0  0  0  0  0  0  0  0  0
  149.7002  136.1715  159.1874 N   0  5  0  0  0  0  0  0  0  0  0  0
  148.6204  136.5528  159.8841 C   0  0  0  0  0  0  0  0  0  0  0  0
  148.1360  135.9510  161.0772 C   0  0  0  0  0  0  0  0  0  0  0  0
  147.0267  136.6918  161.3714 C   0  0  0  0  0  0  0  0  0  0  0  0
  146.0319  136.6301  162.4790 C   0  0  0  0  0  0  0  0  0  0  0  0
  146.8408  137.6576  160.4318 O   0  0  0  0  0  0  0  0  0  0  0  0
  147.8626  137.5583  159.4800 N   0  0  0  0  0  0  0  0  0  0  0  0
  152.3599  140.9442  159.3368 N   0  0  0  0  0  0  0  0  0  0  0  0
  152.1613  142.2896  159.5713 C   0  0  0  0  0  0  0  0  0  0  0  0
  152.5489  143.0974  160.6641 C   0  0  0  0  0  0  0  0  0  0  0  0
  152.2360  144.4724  160.6814 C   0  0  0  0  0  0  0  0  0  0  0  0
  151.5359  145.0585  159.6071 C   0  0  0  0  0  0  0  0  0  0  0  0
  151.1417  144.2714  158.5080 C   0  0  0  0  0  0  0  0  0  0  0  0
  151.4515  142.8979  158.4982 C   0  0  0  0  0  0  0  0  0  0  0  0
  147.0563  142.1039  154.0956 H   0  0  0  0  0  0  0  0  0  0  0  0
  147.7739  140.4935  154.1459 H   0  0  0  0  0  0  0  0  0  0  0  0
  148.7797  141.9059  153.7765 H   0  0  0  0  0  0  0  0  0  0  0  0
  149.1544  140.5597  157.1732 H   0  0  0  0  0  0  0  0  0  0  0  0
  149.5831  140.2138  155.5037 H   0  0  0  0  0  0  0  0  0  0  0  0
  151.2583  141.7772  155.5189 H   0  0  0  0  0  0  0  0  0  0  0  0
  150.2096  143.0068  156.1654 H   0  0  0  0  0  0  0  0  0  0  0  0
  151.0824  138.2711  159.5731 H   0  0  0  0  0  0  0  0  0  0  0  0
  149.7045  138.9357  158.7462 H   0  0  0  0  0  0  0  0  0  0  0  0
  148.5403  135.1157  161.6289 H   0  0  0  0  0  0  0  0  0  0  0  0
  145.1840  136.0044  162.2006 H   0  0  0  0  0  0  0  0  0  0  0  0
  145.6557  137.6243  162.7210 H   0  0  0  0  0  0  0  0  0  0  0  0
  146.4807  136.2114  163.3799 H   0  0  0  0  0  0  0  0  0  0  0  0
  153.0847  142.6558  161.4911 H   0  0  0  0  0  0  0  0  0  0  0  0
  152.5350  145.0794  161.5232 H   0  0  0  0  0  0  0  0  0  0  0  0
  151.3010  146.1124  159.6271 H   0  0  0  0  0  0  0  0  0  0  0  0
  150.6063  144.7169  157.6830 H   0  0  0  0  0  0  0  0  0  0  0  0
  1  2  1  0  0  0  0
  1 25  1  0  0  0  0
  1 26  1  0  0  0  0
  1 27  1  0  0  0  0
  2  3  1  0  0  0  0
  3  4  1  0  0  0  0
  3 28  1  0  0  0  0
  3 29  1  0  0  0  0
  4  5  1  0  0  0  0
  4 30  1  0  0  0  0
  4 31  1  0  0  0  0
  5 24  1  0  0  0  0
  5  6  1  0  0  0  0
  6  7  1  0  0  0  0
  6 18  2  0  0  0  0
  7  8  1  0  0  0  0
  8  9  1  0  0  0  0
  8 32  1  0  0  0  0
  8 33  1  0  0  0  0
  9 10  2  0  0  0  0
  9 11  1  0  0  0  0
 11 12  1  0  0  0  0
 12 17  2  0  0  0  0
 12 13  1  0  0  0  0
 13 14  2  0  0  0  0
 13 34  1  0  0  0  0
 14 15  1  0  0  0  0
 14 16  1  0  0  0  0
 15 35  1  0  0  0  0
 15 36  1  0  0  0  0
 15 37  1  0  0  0  0
 16 17  1  0  0  0  0
 18 19  1  0  0  0  0
 19 24  2  0  0  0  0
 19 20  1  0  0  0  0
 20 21  2  0  0  0  0
 20 38  1  0  0  0  0
 21 22  1  0  0  0  0
 21 39  1  0  0  0  0
 22 23  2  0  0  0  0
 22 40  1  0  0  0  0
 23 24  1  0  0  0  0
 23 41  1  0  0  0  0
M  CHG  1  11  -1
M  END
> <s_m_source_file>
AV-unprocessed.smi

> <i_m_source_file_index>
2986

> <i_lp_mmshare_version>
43012

> <i_f3d_flags>
0

> <s_epik_input>
W2NIXTFbY0hdW2NIXVtjSF1jKGMxMiluKFtDSDJdW0NIMl1PW0NIM10pYyhuMilTW0NIMl1DKD1PKVtOSF1jM1tjSF1jKFtDSDNdKW9uMw==

> <s_epik_cmdline>
J2VwaWtfcHl0aG9uJywgJy1waCcsICc3LjAnLCAnLXRuJywgJzgnLCAnLW1hJywgJzIwMCcsICctbWV0YWxfYmluZGluZycsICctaW1hZScsICc8aW5maWxlLm1hZT4nLCAnLW9tYWUnLCAnPG91dGZpbGUubWFlPic=

> <r_epik_Ionization_Penalty>
4.21562

> <r_epik_Ionization_Penalty_Charging>
4.18608

> <r_epik_Ionization_Penalty_Neutral>
0.0295463

> <r_epik_State_Penalty>
4.20602

> <r_epik_Charging_Adjusted_Penalty>
8.3921

> <i_epik_Tot_Q>
-1

> <i_epik_Tot_abs_Q>
1

> <r_epik_Metal_State_Penalty>
0.721027

> <b_epik_Metal_Only>
1

> <s_lp_Force_Field>
OPLS_2005

> <r_lp_Energy>
2.9865

> <b_lp_Chiralities_Consistent>
1

> <s_lp_Variant>
AV-unprocessed.smi:2986-3

> <Gold.Version>
5.8.1

> <Gold.Id.Protein>
6NUR|6NUR_protein|mol2

> <Gold.PLP.Fitness>
54.2989

> <Gold.PLP.PLP>
-48.1705

> <Gold.PLP.part.hbond>
-2.9057

> <Gold.PLP.part.metal>
0.0000

> <Gold.PLP.part.buried>
-7.1661

> <Gold.PLP.part.nonpolar>
-38.1067

> <Gold.PLP.part.repulsive>
0.5124

> <Gold.PLP.ligand.clash>
0.0000

> <Gold.PLP.ligand.torsion>
1.5908

> <Gold.PLP.Chemscore.Hbond>
3.0000

> <Gold.PLP.Chemscore.CHOScore>
0.0000

> <Gold.PLP.Chemscore.Metal>
0.0000

> <Gold.Chemscore.Hbonds>
donor molecule, donor type, donor heavy atom, donor atom, acceptor molecule, acceptor atom, score
      P1  H  6896  6908       L1    11  2.00
      P1  H  6934  6947       L1    16  0.76

> <Gold.PLP.Chemscore.Internal.Correction>
0.3100

> <Gold.Rescore>
     Score         DG    S(hbond)    S(metal)    S(lipo)     H(rot)  DE(clash)    DE(int)     intcor
     15.45     -18.71       1.45        0.00     120.02       2.21       0.26       3.01       ----

> <Gold.Chemscore.Fitness>
15.4454

> <Gold.Chemscore.DG>
-18.7078

> <Gold.Chemscore.ZeroCoef>
-5.4800

> <Gold.Chemscore.Hbond>
1.4480

> <Gold.Chemscore.Metal>
0.0000

> <Gold.Chemscore.Lipo>
120.0201

> <Gold.Chemscore.Internal_Hbond>
0.0000

> <Gold.Chemscore.DEClash>
0.2563

> <Gold.Chemscore.DEInternal>
3.0061

> <Gold.Chemscore.Rot>
2.2073

> <Gold.Chemscore.Internal.Correction>
   9.000000E+99

> <Gold.Chemscore.Hbonds>
donor molecule, donor type, donor heavy atom, donor atom, acceptor molecule, acceptor atom, score
      P1  H  6896  6908       L1    11  0.81
      P1  H  6934  6947       L1    16  0.11

> <Gold.Chemscore.Hbond.Weighted>
-4.8363

> <Gold.Chemscore.Metal.Weighted>
-0.0000

> <Gold.Chemscore.Lipo.Weighted>
-14.0423

> <Gold.Chemscore.Internal_Hbond.Weighted>
0.0000

> <Gold.Chemscore.DEClash.Weighted>
0.2563

> <Gold.Chemscore.DEInternal.Weighted>
3.0061

> <Gold.Chemscore.Rot.Weighted>
5.6508

> <Gold.Chemscore.Internal.Correction.Weighted>
   9.000000E+99

> <Gold.Protein.RotatedTorsions>
[ 6907 6896 6895 6894 ] final -154.85 input  -60.11 | X-H torsion
[ 7974 7965 7964 7962 ] final   -1.37 input  175.53 | X-H torsion
[ 8008 7997 7996 7995 ] final  -19.05 input   59.86 | X-H torsion
[ 10167 10162 10161 10158 ] final   49.83 input  -65.29 | X-H torsion
[ 10718 10713 10712 10709 ] final -133.31 input   66.30 | X-H torsion
[ 10763 10752 10751 10750 ] final  -43.03 input  -60.55 | X-H torsion
[ 11005 11000 10999 10996 ] final  164.56 input  -57.11 | X-H torsion

> <Gold.Protein.ActiveResidues>
 VAL166  LYS551  ARG553  GLY616  TRP617  ASP618  TYR619  PRO620  LYS621  CYS622 
 ASP623  PHE694  ASN695  SER759  ASP760  ASP761  ALA762  ILE779  LEU786  VAL792 
 PHE793  MET794  SER795  GLU796  ALA797  LYS798  CYS799  TRP800  GLU811  SER814 

> <Gold.Protein.RotatedAtoms>
  151.2637  133.4289  159.2617 H   0  0  0  0  0  0  0  0  0  0  0  0  # atno 6907 bound_to 6896
  151.0508  134.9671  159.8220 H   0  0  0  0  0  0  0  0  0  0  0  0  # atno 6908 bound_to 6896
  152.5382  134.2591  159.8981 H   0  0  0  0  0  0  0  0  0  0  0  0  # atno 6909 bound_to 6896
  146.2418  140.1410  142.8335 H   0  0  0  0  0  0  0  0  0  0  0  0  # atno 7974 bound_to 7965
  154.4863  140.2099  155.9648 H   0  0  0  0  0  0  0  0  0  0  0  0  # atno 8008 bound_to 7997
  156.1241  140.3208  155.8220 H   0  0  0  0  0  0  0  0  0  0  0  0  # atno 8009 bound_to 7997
  155.4415  140.0510  157.3000 H   0  0  0  0  0  0  0  0  0  0  0  0  # atno 8010 bound_to 7997
  140.2788  144.3180  150.6270 H   0  0  0  0  0  0  0  0  0  0  0  0  # atno 10167 bound_to 10162
  156.2436  130.7111  151.0982 H   0  0  0  0  0  0  0  0  0  0  0  0  # atno 10718 bound_to 10713
  153.9889  135.6708  153.4753 H   0  0  0  0  0  0  0  0  0  0  0  0  # atno 10763 bound_to 10752
  153.0714  135.4972  154.8309 H   0  0  0  0  0  0  0  0  0  0  0  0  # atno 10764 bound_to 10752
  154.7121  135.3099  154.9143 H   0  0  0  0  0  0  0  0  0  0  0  0  # atno 10765 bound_to 10752
  140.2471  134.8006  157.3467 H   0  0  0  0  0  0  0  0  0  0  0  0  # atno 11005 bound_to 11000
  145.0247  140.8822  143.5146 LP  0  0  0  0  0  0  0  0  0  0  0  0  # atno 17320 bound_to 7965
  145.1464  139.2541  143.5463 LP  0  0  0  0  0  0  0  0  0  0  0  0  # atno 17321 bound_to 7965
  140.5829  143.2171  151.7396 LP  0  0  0  0  0  0  0  0  0  0  0  0  # atno 17342 bound_to 10162
  139.4968  144.4054  152.0137 LP  0  0  0  0  0  0  0  0  0  0  0  0  # atno 17343 bound_to 10162
  157.7186  131.0695  150.6229 LP  0  0  0  0  0  0  0  0  0  0  0  0  # atno 17370 bound_to 10713
  156.6304  130.4430  149.5789 LP  0  0  0  0  0  0  0  0  0  0  0  0  # atno 17371 bound_to 10713
  140.1595  134.4747  155.7905 LP  0  0  0  0  0  0  0  0  0  0  0  0  # atno 17394 bound_to 11000
  141.2205  133.6895  156.7519 LP  0  0  0  0  0  0  0  0  0  0  0  0  # atno 17395 bound_to 11000

$$$$
