AV-unprocessed.smi:2025|AV-procd|sdf|8198|dock8
  -GOLD-   2272010453D 1   1.00000     0.00000
 Structure written by MMmdl.
 39 40  0  0  0  0  0  0  0  0  1 V2000
  151.0326  140.7380  156.7365 C   0  0  0  0  0  0  0  0  0  0  0  0
  150.9662  142.1224  157.3974 C   0  0  1  0  0  0  0  0  0  0  0  0
  149.5830  142.5944  157.3610 N   0  0  0  0  0  0  0  0  0  0  0  0
  148.4986  141.8895  157.7189 C   0  0  0  0  0  0  0  0  0  0  0  0
  148.5458  140.7227  158.1105 O   0  0  0  0  0  0  0  0  0  0  0  0
  147.1527  142.6137  157.5831 C   0  0  0  0  0  0  0  0  0  0  0  0
  146.5282  142.9086  158.8790 N   0  0  0  0  0  0  0  0  0  0  0  0
  147.0427  143.9156  159.6750 C   0  0  0  0  0  0  0  0  0  0  0  0
  146.5168  144.2623  160.8700 C   0  0  0  0  0  0  0  0  0  0  0  0
  145.3483  143.5720  161.4025 C   0  0  0  0  0  0  0  0  0  0  0  0
  144.8250  143.8696  162.4768 O   0  0  0  0  0  0  0  0  0  0  0  0
  144.8521  142.5355  160.5760 N   0  0  0  0  0  0  0  0  0  0  0  0
  143.6813  141.8038  161.0137 C   0  0  0  0  0  0  0  0  0  0  0  0
  145.3955  142.1903  159.3184 C   0  0  0  0  0  0  0  0  0  0  0  0
  144.9049  141.3018  158.6173 O   0  0  0  0  0  0  0  0  0  0  0  0
  151.4869  142.0934  158.8489 C   0  0  2  0  0  0  0  0  0  0  0  0
  151.7445  143.4677  159.4699 C   0  0  0  0  0  0  0  0  0  0  0  0
  152.7330  143.1287  160.5612 C   0  0  0  0  0  0  0  0  0  0  0  0
  153.5859  142.0559  159.8900 C   0  0  0  0  0  0  0  0  0  0  0  0
  152.7499  141.4353  158.9159 O   0  0  0  0  0  0  0  0  0  0  0  0
  152.0567  140.3649  156.7050 H   0  0  0  0  0  0  0  0  0  0  0  0
  150.6679  140.7765  155.7095 H   0  0  0  0  0  0  0  0  0  0  0  0
  150.4294  140.0082  157.2775 H   0  0  0  0  0  0  0  0  0  0  0  0
  151.6035  142.7926  156.8181 H   0  0  0  0  0  0  0  0  0  0  0  0
  149.4404  143.5424  157.0439 H   0  0  0  0  0  0  0  0  0  0  0  0
  147.2807  143.5345  157.0114 H   0  0  0  0  0  0  0  0  0  0  0  0
  146.4901  141.9867  156.9853 H   0  0  0  0  0  0  0  0  0  0  0  0
  147.9061  144.4607  159.3221 H   0  0  0  0  0  0  0  0  0  0  0  0
  146.9645  145.0639  161.4388 H   0  0  0  0  0  0  0  0  0  0  0  0
  143.8105  140.7512  160.7565 H   0  0  0  0  0  0  0  0  0  0  0  0
  142.8246  142.2395  160.4979 H   0  0  0  0  0  0  0  0  0  0  0  0
  143.5699  141.8760  162.0959 H   0  0  0  0  0  0  0  0  0  0  0  0
  150.7925  141.5426  159.4856 H   0  0  0  0  0  0  0  0  0  0  0  0
  152.2063  144.1381  158.7434 H   0  0  0  0  0  0  0  0  0  0  0  0
  150.8386  143.9428  159.8476 H   0  0  0  0  0  0  0  0  0  0  0  0
  153.3143  143.9873  160.8981 H   0  0  0  0  0  0  0  0  0  0  0  0
  152.2095  142.7102  161.4218 H   0  0  0  0  0  0  0  0  0  0  0  0
  154.4355  142.5079  159.3772 H   0  0  0  0  0  0  0  0  0  0  0  0
  153.9699  141.3281  160.6048 H   0  0  0  0  0  0  0  0  0  0  0  0
  1  2  1  0  0  0  0
  1 21  1  0  0  0  0
  1 22  1  0  0  0  0
  1 23  1  0  0  0  0
  2  3  1  0  0  0  0
  2 16  1  0  0  0  0
  2 24  1  0  0  0  0
  3  4  1  0  0  0  0
  3 25  1  0  0  0  0
  4  5  2  0  0  0  0
  4  6  1  0  0  0  0
  6  7  1  0  0  0  0
  6 26  1  0  0  0  0
  6 27  1  0  0  0  0
  7 14  1  0  0  0  0
  7  8  1  0  0  0  0
  8  9  2  0  0  0  0
  8 28  1  0  0  0  0
  9 10  1  0  0  0  0
  9 29  1  0  0  0  0
 10 11  2  0  0  0  0
 10 12  1  0  0  0  0
 12 13  1  0  0  0  0
 12 14  1  0  0  0  0
 13 30  1  0  0  0  0
 13 31  1  0  0  0  0
 13 32  1  0  0  0  0
 14 15  2  0  0  0  0
 16 20  1  0  0  0  0
 16 17  1  0  0  0  0
 16 33  1  0  0  0  0
 17 18  1  0  0  0  0
 17 34  1  0  0  0  0
 17 35  1  0  0  0  0
 18 19  1  0  0  0  0
 18 36  1  0  0  0  0
 18 37  1  0  0  0  0
 19 20  1  0  0  0  0
 19 38  1  0  0  0  0
 19 39  1  0  0  0  0
M  END
> <s_m_source_file>
AV-unprocessed.smi

> <i_m_source_file_index>
2025

> <i_lp_mmshare_version>
43012

> <i_f3d_flags>
0

> <s_epik_input>
TzFbQ0gyXVtDSDJdW0NIMl1bQ0BIXTFbQ0BIXShbQ0gzXSlbTkhdQyg9TylbQ0gyXW4yW2NIXVtjSF1jKD1PKW4oW0NIM10pYzI9Tw==

> <s_epik_cmdline>
J2VwaWtfcHl0aG9uJywgJy1waCcsICc3LjAnLCAnLXRuJywgJzgnLCAnLW1hJywgJzIwMCcsICctbWV0YWxfYmluZGluZycsICctaW1hZScsICc8aW5maWxlLm1hZT4nLCAnLW9tYWUnLCAnPG91dGZpbGUubWFlPic=

> <r_lp_tautomer_probability>
1

> <r_epik_Ionization_Penalty>
3.54787e-08

> <r_epik_Ionization_Penalty_Charging>
1.24654e-08

> <r_epik_Ionization_Penalty_Neutral>
2.30132e-08

> <r_epik_State_Penalty>
-0

> <r_epik_Charging_Adjusted_Penalty>
1.24654e-08

> <i_epik_Tot_Q>
0

> <i_epik_Tot_abs_Q>
0

> <r_epik_Metal_State_Penalty>
-0

> <b_epik_Metal_Only>
0

> <s_lp_Force_Field>
OPLS_2005

> <r_lp_Energy>
25.7305

> <b_lp_Chiralities_Consistent>
1

> <s_lp_Variant>
AV-unprocessed.smi:2025-2

> <Gold.Version>
5.8.1

> <Gold.Id.Protein>
6NUR|6NUR_protein|mol2

> <Gold.PLP.Fitness>
36.7962

> <Gold.PLP.PLP>
-32.2325

> <Gold.PLP.part.hbond>
-1.3115

> <Gold.PLP.part.metal>
0.0000

> <Gold.PLP.part.buried>
-5.7951

> <Gold.PLP.part.nonpolar>
-25.3188

> <Gold.PLP.part.repulsive>
0.1211

> <Gold.PLP.ligand.clash>
0.0000

> <Gold.PLP.ligand.torsion>
0.5159

> <Gold.PLP.Chemscore.Hbond>
0.9760

> <Gold.PLP.Chemscore.CHOScore>
0.8830

> <Gold.PLP.Chemscore.Metal>
0.0000

> <Gold.Chemscore.Hbonds>
donor molecule, donor type, donor heavy atom, donor atom, acceptor molecule, acceptor atom, score
      L1  H     3    25       P1  8028  0.99
      L1  C     8    28       P1  8029  0.87

> <Gold.PLP.Chemscore.Internal.Correction>
0.0185

> <Gold.Rescore>
     Score         DG    S(hbond)    S(metal)    S(lipo)     H(rot)  DE(clash)    DE(int)     intcor
      9.96     -12.00       0.96        0.00      68.22       1.82       0.04       2.01       ----

> <Gold.Chemscore.Fitness>
9.9557

> <Gold.Chemscore.DG>
-11.9978

> <Gold.Chemscore.ZeroCoef>
-5.4800

> <Gold.Chemscore.Hbond>
0.9587

> <Gold.Chemscore.Metal>
0.0000

> <Gold.Chemscore.Lipo>
68.2226

> <Gold.Chemscore.Internal_Hbond>
0.0000

> <Gold.Chemscore.DEClash>
0.0363

> <Gold.Chemscore.DEInternal>
2.0058

> <Gold.Chemscore.Rot>
1.8228

> <Gold.Chemscore.Internal.Correction>
   9.000000E+99

> <Gold.Chemscore.Hbonds>
donor molecule, donor type, donor heavy atom, donor atom, acceptor molecule, acceptor atom, score
      L1  H     3    25       P1  8028  0.82

> <Gold.Chemscore.Hbond.Weighted>
-3.2022

> <Gold.Chemscore.Metal.Weighted>
-0.0000

> <Gold.Chemscore.Lipo.Weighted>
-7.9820

> <Gold.Chemscore.Internal_Hbond.Weighted>
0.0000

> <Gold.Chemscore.DEClash.Weighted>
0.0363

> <Gold.Chemscore.DEInternal.Weighted>
2.0058

> <Gold.Chemscore.Rot.Weighted>
4.6665

> <Gold.Chemscore.Internal.Correction.Weighted>
   9.000000E+99

> <Gold.Protein.RotatedTorsions>
[ 6907 6896 6895 6894 ] final   76.28 input  -60.11 | X-H torsion
[ 7974 7965 7964 7962 ] final   36.09 input  175.53 | X-H torsion
[ 8008 7997 7996 7995 ] final  -70.79 input   59.86 | X-H torsion
[ 10167 10162 10161 10158 ] final   -5.28 input  -65.29 | X-H torsion
[ 10718 10713 10712 10709 ] final  138.13 input   66.30 | X-H torsion
[ 10763 10752 10751 10750 ] final -123.50 input  -60.55 | X-H torsion
[ 11005 11000 10999 10996 ] final -135.73 input  -57.11 | X-H torsion

> <Gold.Protein.ActiveResidues>
 VAL166  LYS551  ARG553  GLY616  TRP617  ASP618  TYR619  PRO620  LYS621  CYS622 
 ASP623  PHE694  ASN695  SER759  ASP760  ASP761  ALA762  ILE779  LEU786  VAL792 
 PHE793  MET794  SER795  GLU796  ALA797  LYS798  CYS799  TRP800  GLU811  SER814 

> <Gold.Protein.RotatedAtoms>
  152.5065  134.3993  159.9410 H   0  0  0  0  0  0  0  0  0  0  0  0  # atno 6907 bound_to 6896
  151.3956  133.3768  159.2734 H   0  0  0  0  0  0  0  0  0  0  0  0  # atno 6908 bound_to 6896
  150.9399  134.8830  159.7665 H   0  0  0  0  0  0  0  0  0  0  0  0  # atno 6909 bound_to 6896
  146.1236  139.6061  142.9273 H   0  0  0  0  0  0  0  0  0  0  0  0  # atno 7974 bound_to 7965
  154.5039  140.0827  156.7853 H   0  0  0  0  0  0  0  0  0  0  0  0  # atno 8008 bound_to 7997
  155.3940  140.3434  155.4235 H   0  0  0  0  0  0  0  0  0  0  0  0  # atno 8009 bound_to 7997
  156.1491  140.1552  156.8787 H   0  0  0  0  0  0  0  0  0  0  0  0  # atno 8010 bound_to 7997
  140.6958  143.6326  150.8509 H   0  0  0  0  0  0  0  0  0  0  0  0  # atno 10167 bound_to 10162
  157.4286  131.1046  151.0275 H   0  0  0  0  0  0  0  0  0  0  0  0  # atno 10718 bound_to 10713
  154.8709  135.4096  154.2954 H   0  0  0  0  0  0  0  0  0  0  0  0  # atno 10763 bound_to 10752
  153.3823  135.7012  153.6562 H   0  0  0  0  0  0  0  0  0  0  0  0  # atno 10764 bound_to 10752
  153.5379  135.3654  155.2677 H   0  0  0  0  0  0  0  0  0  0  0  0  # atno 10765 bound_to 10752
  140.8871  134.1859  157.4553 H   0  0  0  0  0  0  0  0  0  0  0  0  # atno 11005 bound_to 11000
  145.5413  141.0420  143.2329 LP  0  0  0  0  0  0  0  0  0  0  0  0  # atno 17320 bound_to 7965
  144.7621  139.6932  143.7230 LP  0  0  0  0  0  0  0  0  0  0  0  0  # atno 17321 bound_to 7965
  140.0043  143.5710  152.2863 LP  0  0  0  0  0  0  0  0  0  0  0  0  # atno 17342 bound_to 10162
  139.6411  144.7654  151.2337 LP  0  0  0  0  0  0  0  0  0  0  0  0  # atno 17343 bound_to 10162
  157.1179  130.6049  149.5498 LP  0  0  0  0  0  0  0  0  0  0  0  0  # atno 17370 bound_to 10713
  155.9905  130.4957  150.7260 LP  0  0  0  0  0  0  0  0  0  0  0  0  # atno 17371 bound_to 10713
  139.8725  134.9842  156.5231 LP  0  0  0  0  0  0  0  0  0  0  0  0  # atno 17394 bound_to 11000
  140.8392  133.8218  155.9058 LP  0  0  0  0  0  0  0  0  0  0  0  0  # atno 17395 bound_to 11000

$$$$
