AV-unprocessed.smi:76|AV-procd|sdf|767|dock10
  -GOLD-   2262017113D 1   1.00000     0.00000
 Structure written by MMmdl.
 55 58  0  0  0  0  0  0  0  0  1 V2000
  149.9528  139.2331  158.2196 C   0  0  0  0  0  0  0  0  0  0  0  0
  150.6866  140.2853  157.3641 C   0  0  2  0  0  0  0  0  0  0  0  0
  151.9398  140.8474  158.0683 C   0  0  0  0  0  0  0  0  0  0  0  0
  151.5923  141.8219  159.2150 C   0  0  1  0  0  0  0  0  0  0  0  0
  152.8522  142.3960  159.8940 C   0  0  0  0  0  0  0  0  0  0  0  0
  153.7401  141.4331  160.1431 F   0  0  0  0  0  0  0  0  0  0  0  0
  153.4178  143.3098  159.1056 F   0  0  0  0  0  0  0  0  0  0  0  0
  152.5213  142.9850  161.0432 F   0  0  0  0  0  0  0  0  0  0  0  0
  150.6681  142.9306  158.6739 C   0  0  0  0  0  0  0  0  0  0  0  0
  149.4244  142.3424  157.9898 C   0  0  0  0  0  0  0  0  0  0  0  0
  149.8048  141.3832  156.9502 N   0  0  0  0  0  0  0  0  0  0  0  0
  148.8732  141.0749  156.0105 C   0  0  0  0  0  0  0  0  0  0  0  0
  149.0808  141.4324  154.7147 N   0  0  0  0  0  0  0  0  0  0  0  0
  148.1714  141.1447  153.7797 C   0  0  0  0  0  0  0  0  0  0  0  0
  147.0041  140.5150  153.9189 N   0  0  0  0  0  0  0  0  0  0  0  0
  146.7880  140.1516  155.2151 C   0  0  0  0  0  0  0  0  0  0  0  0
  147.6639  140.3863  156.3128 C   0  0  0  0  0  0  0  0  0  0  0  0
  147.1184  139.8486  157.4725 N   0  0  0  0  0  0  0  0  0  0  0  0
  145.9851  139.3323  157.0837 C   0  0  0  0  0  0  0  0  0  0  0  0
  145.6968  139.4844  155.7458 N   0  0  0  0  0  0  0  0  0  0  0  0
  144.5152  139.0004  155.0456 C   0  0  0  0  0  0  0  0  0  0  0  0
  144.6878  137.6254  154.3249 C   0  0  0  0  0  0  0  0  0  0  0  0
  145.9964  137.5958  153.4913 C   0  0  0  0  0  0  0  0  0  0  0  0
  146.1529  136.3847  152.7798 O   0  0  0  0  0  0  0  0  0  0  0  0
  144.7162  136.4795  155.3672 C   0  0  0  0  0  0  0  0  0  0  0  0
  143.3418  136.2263  156.0147 C   0  0  0  0  0  0  0  0  0  0  0  0
  142.3693  135.9603  155.0117 O   0  0  0  0  0  0  0  0  0  0  0  0
  142.1930  137.0436  154.1076 C   0  0  0  0  0  0  0  0  0  0  0  0
  143.5114  137.3199  153.3633 C   0  0  0  0  0  0  0  0  0  0  0  0
  150.6272  138.4251  158.5038 H   0  0  0  0  0  0  0  0  0  0  0  0
  149.1257  138.7845  157.6686 H   0  0  0  0  0  0  0  0  0  0  0  0
  149.5443  139.6576  159.1363 H   0  0  0  0  0  0  0  0  0  0  0  0
  151.0446  139.7681  156.4753 H   0  0  0  0  0  0  0  0  0  0  0  0
  152.5548  140.0272  158.4397 H   0  0  0  0  0  0  0  0  0  0  0  0
  152.5498  141.3692  157.3299 H   0  0  0  0  0  0  0  0  0  0  0  0
  151.0408  141.2689  159.9762 H   0  0  0  0  0  0  0  0  0  0  0  0
  150.3585  143.5937  159.4819 H   0  0  0  0  0  0  0  0  0  0  0  0
  151.2129  143.5489  157.9595 H   0  0  0  0  0  0  0  0  0  0  0  0
  148.7861  141.8529  158.7262 H   0  0  0  0  0  0  0  0  0  0  0  0
  148.8423  143.1553  157.5530 H   0  0  0  0  0  0  0  0  0  0  0  0
  148.4141  141.4648  152.7771 H   0  0  0  0  0  0  0  0  0  0  0  0
  145.3230  138.8234  157.7689 H   0  0  0  0  0  0  0  0  0  0  0  0
  143.6996  138.9416  155.7672 H   0  0  0  0  0  0  0  0  0  0  0  0
  144.2155  139.7779  154.3447 H   0  0  0  0  0  0  0  0  0  0  0  0
  146.0044  138.4084  152.7640 H   0  0  0  0  0  0  0  0  0  0  0  0
  146.8710  137.7459  154.1246 H   0  0  0  0  0  0  0  0  0  0  0  0
  147.0705  136.2717  152.5804 H   0  0  0  0  0  0  0  0  0  0  0  0
  145.0393  135.5558  154.8847 H   0  0  0  0  0  0  0  0  0  0  0  0
  145.4534  136.6855  156.1440 H   0  0  0  0  0  0  0  0  0  0  0  0
  143.4003  135.3631  156.6778 H   0  0  0  0  0  0  0  0  0  0  0  0
  143.0262  137.0677  156.6319 H   0  0  0  0  0  0  0  0  0  0  0  0
  141.4146  136.7742  153.3935 H   0  0  0  0  0  0  0  0  0  0  0  0
  141.8361  137.9266  154.6382 H   0  0  0  0  0  0  0  0  0  0  0  0
  143.3750  138.1199  152.6368 H   0  0  0  0  0  0  0  0  0  0  0  0
  143.7486  136.4333  152.7735 H   0  0  0  0  0  0  0  0  0  0  0  0
  1  2  1  0  0  0  0
  1 30  1  0  0  0  0
  1 31  1  0  0  0  0
  1 32  1  0  0  0  0
  2 11  1  0  0  0  0
  2  3  1  0  0  0  0
  2 33  1  0  0  0  0
  3  4  1  0  0  0  0
  3 34  1  0  0  0  0
  3 35  1  0  0  0  0
  4  5  1  0  0  0  0
  4  9  1  0  0  0  0
  4 36  1  0  0  0  0
  5  6  1  0  0  0  0
  5  7  1  0  0  0  0
  5  8  1  0  0  0  0
  9 10  1  0  0  0  0
  9 37  1  0  0  0  0
  9 38  1  0  0  0  0
 10 11  1  0  0  0  0
 10 39  1  0  0  0  0
 10 40  1  0  0  0  0
 11 12  1  0  0  0  0
 12 17  1  0  0  0  0
 12 13  2  0  0  0  0
 13 14  1  0  0  0  0
 14 15  2  0  0  0  0
 14 41  1  0  0  0  0
 15 16  1  0  0  0  0
 16 20  1  0  0  0  0
 16 17  2  0  0  0  0
 17 18  1  0  0  0  0
 18 19  2  0  0  0  0
 19 20  1  0  0  0  0
 19 42  1  0  0  0  0
 20 21  1  0  0  0  0
 21 22  1  0  0  0  0
 21 43  1  0  0  0  0
 21 44  1  0  0  0  0
 22 29  1  0  0  0  0
 22 23  1  0  0  0  0
 22 25  1  0  0  0  0
 23 24  1  0  0  0  0
 23 45  1  0  0  0  0
 23 46  1  0  0  0  0
 24 47  1  0  0  0  0
 25 26  1  0  0  0  0
 25 48  1  0  0  0  0
 25 49  1  0  0  0  0
 26 27  1  0  0  0  0
 26 50  1  0  0  0  0
 26 51  1  0  0  0  0
 27 28  1  0  0  0  0
 28 29  1  0  0  0  0
 28 52  1  0  0  0  0
 28 53  1  0  0  0  0
 29 54  1  0  0  0  0
 29 55  1  0  0  0  0
M  END
> <s_m_source_file>
AV-unprocessed.smi

> <i_m_source_file_index>
76

> <i_lp_mmshare_version>
43012

> <i_f3d_flags>
0

> <s_epik_input>
W0NIM11bQ0BASF0xW0NIMl1bQ0BASF0oQyhGKShGKUYpW0NIMl1bQ0gyXU4xYyhuW2NIXW4yKWMoYzIzKW5bY0hdbjNbQ0gyXUM0KFtDSDJdW09IXSlbQ0gyXVtDSDJdT1tDSDJdW0NIMl00

> <s_epik_cmdline>
J2VwaWtfcHl0aG9uJywgJy1waCcsICc3LjAnLCAnLXRuJywgJzgnLCAnLW1hJywgJzIwMCcsICctbWV0YWxfYmluZGluZycsICctaW1hZScsICc8aW5maWxlLm1hZT4nLCAnLW9tYWUnLCAnPG91dGZpbGUubWFlPic=

> <r_lp_tautomer_probability>
1

> <r_epik_Ionization_Penalty>
0.00244097

> <r_epik_Ionization_Penalty_Charging>
0

> <r_epik_Ionization_Penalty_Neutral>
0.00244097

> <r_epik_State_Penalty>
0.00151846

> <r_epik_Charging_Adjusted_Penalty>
0.00151846

> <i_epik_Tot_Q>
0

> <i_epik_Tot_abs_Q>
0

> <r_epik_Metal_State_Penalty>
-0

> <b_epik_Metal_Only>
0

> <s_lp_Force_Field>
OPLS_2005

> <r_lp_Energy>
36.8654

> <b_lp_Chiralities_Consistent>
1

> <s_lp_Variant>
AV-unprocessed.smi:76-1

> <Gold.Version>
5.8.1

> <Gold.Id.Protein>
6NUR|6NUR_protein|mol2

> <Gold.PLP.Fitness>
41.1587

> <Gold.PLP.PLP>
-37.1528

> <Gold.PLP.part.hbond>
-1.1214

> <Gold.PLP.part.metal>
0.0000

> <Gold.PLP.part.buried>
-6.6188

> <Gold.PLP.part.nonpolar>
-29.3463

> <Gold.PLP.part.repulsive>
0.4078

> <Gold.PLP.ligand.clash>
0.0000

> <Gold.PLP.ligand.torsion>
0.9755

> <Gold.PLP.Chemscore.Hbond>
1.0000

> <Gold.PLP.Chemscore.CHOScore>
0.7999

> <Gold.PLP.Chemscore.Metal>
0.0000

> <Gold.Chemscore.Hbonds>
donor molecule, donor type, donor heavy atom, donor atom, acceptor molecule, acceptor atom, score
      L1  H    24    47       P1  7948  1.00
      L1  C    14    41       P1  7957  0.88

> <Gold.PLP.Chemscore.Internal.Correction>
0.5572

> <Gold.Rescore>
     Score         DG    S(hbond)    S(metal)    S(lipo)     H(rot)  DE(clash)    DE(int)     intcor
      7.52      -9.58       1.00        0.00      60.47       2.47       0.00       2.06       ----

> <Gold.Chemscore.Fitness>
7.5236

> <Gold.Chemscore.DG>
-9.5808

> <Gold.Chemscore.ZeroCoef>
-5.4800

> <Gold.Chemscore.Hbond>
0.9999

> <Gold.Chemscore.Metal>
0.0000

> <Gold.Chemscore.Lipo>
60.4717

> <Gold.Chemscore.Internal_Hbond>
0.0000

> <Gold.Chemscore.DEClash>
0.0000

> <Gold.Chemscore.DEInternal>
2.0572

> <Gold.Chemscore.Rot>
2.4665

> <Gold.Chemscore.Internal.Correction>
   9.000000E+99

> <Gold.Chemscore.Hbonds>
donor molecule, donor type, donor heavy atom, donor atom, acceptor molecule, acceptor atom, score
      L1  H    24    47       P1  7948  0.96

> <Gold.Chemscore.Hbond.Weighted>
-3.3398

> <Gold.Chemscore.Metal.Weighted>
-0.0000

> <Gold.Chemscore.Lipo.Weighted>
-7.0752

> <Gold.Chemscore.Internal_Hbond.Weighted>
0.0000

> <Gold.Chemscore.DEClash.Weighted>
0.0000

> <Gold.Chemscore.DEInternal.Weighted>
2.0572

> <Gold.Chemscore.Rot.Weighted>
6.3142

> <Gold.Chemscore.Internal.Correction.Weighted>
   9.000000E+99

> <Gold.Protein.RotatedTorsions>
[ 6907 6896 6895 6894 ] final   39.35 input  -60.11 | X-H torsion
[ 7974 7965 7964 7962 ] final   35.77 input  175.53 | X-H torsion
[ 8008 7997 7996 7995 ] final   63.73 input   59.86 | X-H torsion
[ 10167 10162 10161 10158 ] final   68.91 input  -65.29 | X-H torsion
[ 10718 10713 10712 10709 ] final -156.27 input   66.30 | X-H torsion
[ 10763 10752 10751 10750 ] final   -7.16 input  -60.55 | X-H torsion
[ 11005 11000 10999 10996 ] final  -13.07 input  -57.11 | X-H torsion

> <Gold.Protein.ActiveResidues>
 VAL166  LYS551  ARG553  GLY616  TRP617  ASP618  TYR619  PRO620  LYS621  CYS622 
 ASP623  PHE694  ASN695  SER759  ASP760  ASP761  ALA762  ILE779  LEU786  VAL792 
 PHE793  MET794  SER795  GLU796  ALA797  LYS798  CYS799  TRP800  GLU811  SER814 

> <Gold.Protein.RotatedAtoms>
  152.1684  134.8854  160.0536 H   0  0  0  0  0  0  0  0  0  0  0  0  # atno 6907 bound_to 6896
  151.9824  133.3757  159.4120 H   0  0  0  0  0  0  0  0  0  0  0  0  # atno 6908 bound_to 6896
  150.6898  134.3948  159.5136 H   0  0  0  0  0  0  0  0  0  0  0  0  # atno 6909 bound_to 6896
  146.1259  139.6101  142.9258 H   0  0  0  0  0  0  0  0  0  0  0  0  # atno 7974 bound_to 7965
  155.6348  140.3496  155.4695 H   0  0  0  0  0  0  0  0  0  0  0  0  # atno 8008 bound_to 7997
  155.9974  140.1206  157.0604 H   0  0  0  0  0  0  0  0  0  0  0  0  # atno 8009 bound_to 7997
  154.4238  140.1107  156.5635 H   0  0  0  0  0  0  0  0  0  0  0  0  # atno 8010 bound_to 7997
  140.0736  144.5132  150.7210 H   0  0  0  0  0  0  0  0  0  0  0  0  # atno 10167 bound_to 10162
  156.5242  130.8492  151.2693 H   0  0  0  0  0  0  0  0  0  0  0  0  # atno 10718 bound_to 10713
  153.4225  135.7010  153.6285 H   0  0  0  0  0  0  0  0  0  0  0  0  # atno 10763 bound_to 10752
  153.4733  135.3710  155.2403 H   0  0  0  0  0  0  0  0  0  0  0  0  # atno 10764 bound_to 10752
  154.8722  135.4048  154.3595 H   0  0  0  0  0  0  0  0  0  0  0  0  # atno 10765 bound_to 10752
  140.7723  133.8429  155.9218 H   0  0  0  0  0  0  0  0  0  0  0  0  # atno 11005 bound_to 11000
  145.5365  141.0424  143.2354 LP  0  0  0  0  0  0  0  0  0  0  0  0  # atno 17320 bound_to 7965
  144.7642  139.6884  143.7221 LP  0  0  0  0  0  0  0  0  0  0  0  0  # atno 17321 bound_to 7965
  140.7113  143.2507  151.4571 LP  0  0  0  0  0  0  0  0  0  0  0  0  # atno 17342 bound_to 10162
  139.5821  144.1686  152.1982 LP  0  0  0  0  0  0  0  0  0  0  0  0  # atno 17343 bound_to 10162
  157.7432  130.9907  150.2574 LP  0  0  0  0  0  0  0  0  0  0  0  0  # atno 17370 bound_to 10713
  156.3120  130.3773  149.7653 LP  0  0  0  0  0  0  0  0  0  0  0  0  # atno 17371 bound_to 10713
  140.9562  134.1715  157.4690 LP  0  0  0  0  0  0  0  0  0  0  0  0  # atno 17394 bound_to 11000
  139.8754  134.9928  156.5613 LP  0  0  0  0  0  0  0  0  0  0  0  0  # atno 17395 bound_to 11000

$$$$
