#       Name:                AV-unprocessed.smi:3125
#       Creating user name   scv26
#       Creation time:       Fri Mar 27 17:29:02 2020


#       File generated by GOLD software.
#

@<TRIPOS>MOLECULE
AV-unprocessed.smi:3125
    29    30     1
SMALL
NO_CHARGES


@<TRIPOS>ATOM
      1 ****        -1.9835   2.3314  -0.0024 C.3            1 S1                 0.0000
      2 ****        -0.5196   2.3630  -0.0065 N.pl3          1 S1                 0.0000
      3 ****         0.2645   3.4882  -0.0194 C.2            1 S1                 0.0000
      4 ****         1.5659   3.0611  -0.0147 C.2            1 S1                 0.0000
      5 ****         1.5229   1.6939  -0.0008 N.pl3          1 S1                 1.0000
      6 ****         0.2545   1.2628   0.0030 C.2            1 S1                 0.0000
      7 ****        -0.1739  -0.1793   0.0147 C.3            1 S1                 0.0000
      8 ****         0.3154  -0.9113   1.2788 C.3            1 S1                 0.0000
      9 ****        -0.1282  -2.3823   1.2526 C.3            1 S1                 0.0000
     10 ****         0.3342  -3.0741  -0.0405 C.3            1 S1                 0.0000
     11 ****        -0.1525  -2.3399  -1.2288 N.4            1 S1                 1.0000
     12 ****         0.2851  -0.9261  -1.2556 C.3            1 S1                 0.0000
     13 ****        -2.3710   3.3509  -0.0063 H              1 S1                 0.0000
     14 ****        -2.3315   1.8188   0.8950 H              1 S1                 0.0000
     15 ****        -2.3367   1.8088  -0.8918 H              1 S1                 0.0000
     16 ****        -0.1506   4.4861  -0.0294 H              1 S1                 0.0000
     17 ****         2.4946   3.6132  -0.0194 H              1 S1                 0.0000
     18 ****        -1.2636  -0.1825   0.0285 H              1 S1                 0.0000
     19 ****         1.4031  -0.8620   1.3455 H              1 S1                 0.0000
     20 ****        -0.0744  -0.4226   2.1728 H              1 S1                 0.0000
     21 ****         0.2709  -2.9080   2.1208 H              1 S1                 0.0000
     22 ****        -1.2149  -2.4389   1.3298 H              1 S1                 0.0000
     23 ****         1.4232  -3.1303  -0.0733 H              1 S1                 0.0000
     24 ****        -0.0389  -4.0979  -0.0768 H              1 S1                 0.0000
     25 ****         0.1841  -2.8045  -2.0606 H              1 S1                 0.0000
     26 ****        -0.1265  -0.4491  -2.1458 H              1 S1                 0.0000
     27 ****         1.3716  -0.8944  -1.3504 H              1 S1                 0.0000
     28 ****        -1.1624  -2.3662  -1.2292 H              1 S1                 0.0000
     29 ****         2.3368   1.0919   0.0090 H              1 S1                 0.0000
@<TRIPOS>BOND
    1    1    2 1     
    2    1   13 1     
    3    1   14 1     
    4    1   15 1     
    5    2    6 1     
    6    2    3 1     
    7    3    4 2     
    8    3   16 1     
    9    4    5 1     
   10    4   17 1     
   11    5    6 2     
   12    5   29 1     
   13    6    7 1     
   14    7   12 1     
   15    7    8 1     
   16    7   18 1     
   17    8    9 1     
   18    8   19 1     
   19    8   20 1     
   20    9   10 1     
   21    9   21 1     
   22    9   22 1     
   23   10   11 1     
   24   10   23 1     
   25   10   24 1     
   26   11   12 1     
   27   11   25 1     
   28   11   28 1     
   29   12   26 1     
   30   12   27 1     
@<TRIPOS>SUBSTRUCTURE
      1 S1             1
@<TRIPOS>SET
DONOR_HYDROGENS      STATIC     ATOMS    <user>   **** ""
3 29 25 28
ATOM$RED        STATIC     ATOMS    COLORGROUP SYSTEM
3 29 25 28
