AV-unprocessed.smi:2892|AV-procd|sdf|11121|dock4
  -GOLD-   2272015593D 1   1.00000     0.00000
 Structure written by MMmdl.
 42 42  0  0  0  0  0  0  0  0  2 V2000
  146.3288  132.1353  161.7842 C   0  0  0  0  0  0  0  0  0  0  0  0
  145.2232  133.0744  161.2803 C   0  0  0  0  0  0  0  0  0  0  0  0
  145.5571  134.5852  161.4017 C   0  0  1  0  0  0  0  0  0  0  0  0
  145.4806  135.0351  162.8792 C   0  0  0  0  0  0  0  0  0  0  0  0
  146.9385  134.9201  160.7581 C   0  0  1  0  0  0  0  0  0  0  0  0
  146.8788  134.6597  159.3207 N   0  0  0  0  0  0  0  0  0  0  0  0
  147.8962  134.7654  158.4505 C   0  0  0  0  0  0  0  0  0  0  0  0
  149.0254  135.1420  158.7633 O   0  0  0  0  0  0  0  0  0  0  0  0
  147.5932  134.3799  157.0000 C   0  0  0  0  0  0  0  0  0  0  0  0
  148.7116  134.8192  156.0900 C   0  0  0  0  0  0  0  0  0  0  0  0
  149.5037  134.0142  155.2221 C   0  0  0  0  0  0  0  0  0  0  0  0
  150.3820  134.8970  154.6630 C   0  0  0  0  0  0  0  0  0  0  0  0
  150.0978  136.1440  155.1781 N   0  0  0  0  0  0  0  0  0  0  0  0
  150.7710  137.4051  154.9063 C   0  0  0  0  0  0  0  0  0  0  0  0
  149.8412  138.3750  154.1598 C   0  0  0  0  0  0  0  0  0  0  0  0
  152.0941  137.1833  154.1550 C   0  0  0  0  0  0  0  0  0  0  0  0
  149.0672  136.0955  156.0509 N   0  0  0  0  0  0  0  0  0  0  0  0
  147.3099  136.4019  160.9409 C   0  0  0  0  0  0  0  0  0  0  0  0
  146.5352  137.2477  160.4432 O   0  0  0  0  0  0  0  0  0  0  0  0
  148.3591  136.6652  161.5712 O   0  5  0  0  0  0  0  0  0  0  0  0
  145.9914  131.0993  161.7591 H   0  0  0  0  0  0  0  0  0  0  0  0
  146.6046  132.3676  162.8130 H   0  0  0  0  0  0  0  0  0  0  0  0
  147.2266  132.1936  161.1702 H   0  0  0  0  0  0  0  0  0  0  0  0
  144.9809  132.8321  160.2449 H   0  0  0  0  0  0  0  0  0  0  0  0
  144.3284  132.8366  161.8552 H   0  0  0  0  0  0  0  0  0  0  0  0
  144.7895  135.1334  160.8527 H   0  0  0  0  0  0  0  0  0  0  0  0
  146.2297  134.5244  163.4849 H   0  0  0  0  0  0  0  0  0  0  0  0
  144.5044  134.8298  163.3159 H   0  0  0  0  0  0  0  0  0  0  0  0
  145.6396  136.1071  162.9928 H   0  0  0  0  0  0  0  0  0  0  0  0
  147.7057  134.3034  161.2304 H   0  0  0  0  0  0  0  0  0  0  0  0
  145.9825  134.3656  158.9613 H   0  0  0  0  0  0  0  0  0  0  0  0
  147.4571  133.2994  156.9449 H   0  0  0  0  0  0  0  0  0  0  0  0
  146.6486  134.8296  156.6909 H   0  0  0  0  0  0  0  0  0  0  0  0
  149.4442  132.9499  155.0490 H   0  0  0  0  0  0  0  0  0  0  0  0
  151.1797  134.7412  153.9516 H   0  0  0  0  0  0  0  0  0  0  0  0
  151.0114  137.8538  155.8713 H   0  0  0  0  0  0  0  0  0  0  0  0
  150.3207  139.3430  154.0131 H   0  0  0  0  0  0  0  0  0  0  0  0
  148.9220  138.5441  154.7210 H   0  0  0  0  0  0  0  0  0  0  0  0
  149.5648  137.9900  153.1776 H   0  0  0  0  0  0  0  0  0  0  0  0
  152.6317  138.1231  154.0264 H   0  0  0  0  0  0  0  0  0  0  0  0
  151.9282  136.7605  153.1635 H   0  0  0  0  0  0  0  0  0  0  0  0
  152.7465  136.5033  154.7035 H   0  0  0  0  0  0  0  0  0  0  0  0
  1  2  1  0  0  0  0
  1 21  1  0  0  0  0
  1 22  1  0  0  0  0
  1 23  1  0  0  0  0
  2  3  1  0  0  0  0
  2 24  1  0  0  0  0
  2 25  1  0  0  0  0
  3  4  1  0  0  0  0
  3  5  1  0  0  0  0
  3 26  1  0  0  0  0
  4 27  1  0  0  0  0
  4 28  1  0  0  0  0
  4 29  1  0  0  0  0
  5  6  1  0  0  0  0
  5 18  1  0  0  0  0
  5 30  1  0  0  0  0
  6  7  1  0  0  0  0
  6 31  1  0  0  0  0
  7  8  2  0  0  0  0
  7  9  1  0  0  0  0
  9 10  1  0  0  0  0
  9 32  1  0  0  0  0
  9 33  1  0  0  0  0
 10 17  2  0  0  0  0
 10 11  1  0  0  0  0
 11 12  2  0  0  0  0
 11 34  1  0  0  0  0
 12 13  1  0  0  0  0
 12 35  1  0  0  0  0
 13 14  1  0  0  0  0
 13 17  1  0  0  0  0
 14 15  1  0  0  0  0
 14 16  1  0  0  0  0
 14 36  1  0  0  0  0
 15 37  1  0  0  0  0
 15 38  1  0  0  0  0
 15 39  1  0  0  0  0
 16 40  1  0  0  0  0
 16 41  1  0  0  0  0
 16 42  1  0  0  0  0
 18 19  2  0  0  0  0
 18 20  1  0  0  0  0
M  CHG  1  20  -1
M  END
> <s_m_source_file>
AV-unprocessed.smi

> <i_m_source_file_index>
2892

> <i_lp_mmshare_version>
43012

> <i_f3d_flags>
0

> <s_epik_input>
W0NIM11bQ0gyXVtDQEhdKFtDSDNdKVtDQEBIXShDKD1PKVtPSF0pW05IXUMoPU8pW0NIMl1jMVtjSF1bY0hdbihuMSlbQ0hdKFtDSDNdKVtDSDNd

> <s_epik_cmdline>
J2VwaWtfcHl0aG9uJywgJy1waCcsICc3LjAnLCAnLXRuJywgJzgnLCAnLW1hJywgJzIwMCcsICctbWV0YWxfYmluZGluZycsICctaW1hZScsICc8aW5maWxlLm1hZT4nLCAnLW9tYWUnLCAnPG91dGZpbGUubWFlPic=

> <r_lp_tautomer_probability>
1

> <r_epik_Ionization_Penalty>
0.000286846

> <r_epik_Ionization_Penalty_Charging>
0.000224481

> <r_epik_Ionization_Penalty_Neutral>
6.23655e-05

> <r_epik_State_Penalty>
-0

> <r_epik_Charging_Adjusted_Penalty>
0.000224481

> <i_epik_Tot_Q>
-1

> <i_epik_Tot_abs_Q>
1

> <r_epik_Metal_State_Penalty>
-0

> <b_epik_Metal_Only>
0

> <s_lp_Force_Field>
OPLS_2005

> <r_lp_Energy>
13.265

> <b_lp_Chiralities_Consistent>
1

> <s_lp_Variant>
AV-unprocessed.smi:2892-4

> <Gold.Version>
5.8.1

> <Gold.Id.Protein>
6NUR|6NUR_protein|mol2

> <Gold.PLP.Fitness>
43.6255

> <Gold.PLP.PLP>
-26.6678

> <Gold.PLP.part.hbond>
-3.0000

> <Gold.PLP.part.metal>
0.0000

> <Gold.PLP.part.buried>
-3.9956

> <Gold.PLP.part.nonpolar>
-20.3634

> <Gold.PLP.part.repulsive>
0.0600

> <Gold.PLP.ligand.clash>
0.0000

> <Gold.PLP.ligand.torsion>
0.4463

> <Gold.PLP.Chemscore.Hbond>
5.0000

> <Gold.PLP.Chemscore.CHOScore>
0.9040

> <Gold.PLP.Chemscore.Metal>
0.0000

> <Gold.Chemscore.Hbonds>
donor molecule, donor type, donor heavy atom, donor atom, acceptor molecule, acceptor atom, score
      P1  H  6896  6907       L1     8  1.00
      P1  H  6931  6943       L1    20  2.00
      P1  H  6934  6947       L1    19  2.00
      L1  C    12    35       P1  7949  0.37

> <Gold.PLP.Chemscore.Internal.Correction>
0.1383

> <Gold.Rescore>
     Score         DG    S(hbond)    S(metal)    S(lipo)     H(rot)  DE(clash)    DE(int)     intcor
     14.61     -16.79       2.91        0.00      65.72       2.39       0.02       2.16       ----

> <Gold.Chemscore.Fitness>
14.6083

> <Gold.Chemscore.DG>
-16.7902

> <Gold.Chemscore.ZeroCoef>
-5.4800

> <Gold.Chemscore.Hbond>
2.9133

> <Gold.Chemscore.Metal>
0.0000

> <Gold.Chemscore.Lipo>
65.7204

> <Gold.Chemscore.Internal_Hbond>
0.0000

> <Gold.Chemscore.DEClash>
0.0186

> <Gold.Chemscore.DEInternal>
2.1633

> <Gold.Chemscore.Rot>
2.3865

> <Gold.Chemscore.Internal.Correction>
   9.000000E+99

> <Gold.Chemscore.Hbonds>
donor molecule, donor type, donor heavy atom, donor atom, acceptor molecule, acceptor atom, score
      P1  H  6896  6907       L1     8  1.00
      P1  H  6931  6943       L1    20  1.00
      P1  H  6934  6947       L1    19  0.69

> <Gold.Chemscore.Hbond.Weighted>
-9.7303

> <Gold.Chemscore.Metal.Weighted>
-0.0000

> <Gold.Chemscore.Lipo.Weighted>
-7.6893

> <Gold.Chemscore.Internal_Hbond.Weighted>
0.0000

> <Gold.Chemscore.DEClash.Weighted>
0.0186

> <Gold.Chemscore.DEInternal.Weighted>
2.1633

> <Gold.Chemscore.Rot.Weighted>
6.1093

> <Gold.Chemscore.Internal.Correction.Weighted>
   9.000000E+99

> <Gold.Protein.RotatedTorsions>
[ 6907 6896 6895 6894 ] final  -82.28 input  -60.11 | X-H torsion
[ 7974 7965 7964 7962 ] final   25.53 input  175.53 | X-H torsion
[ 8008 7997 7996 7995 ] final -104.97 input   59.86 | X-H torsion
[ 10167 10162 10161 10158 ] final  -76.63 input  -65.29 | X-H torsion
[ 10718 10713 10712 10709 ] final   -0.41 input   66.30 | X-H torsion
[ 10763 10752 10751 10750 ] final   24.00 input  -60.55 | X-H torsion
[ 11005 11000 10999 10996 ] final  145.44 input  -57.11 | X-H torsion

> <Gold.Protein.ActiveResidues>
 VAL166  LYS551  ARG553  GLY616  TRP617  ASP618  TYR619  PRO620  LYS621  CYS622 
 ASP623  PHE694  ASN695  SER759  ASP760  ASP761  ALA762  ILE779  LEU786  VAL792 
 PHE793  MET794  SER795  GLU796  ALA797  LYS798  CYS799  TRP800  GLU811  SER814 

> <Gold.Protein.RotatedAtoms>
  150.6899  134.3690  159.4983 H   0  0  0  0  0  0  0  0  0  0  0  0  # atno 6907 bound_to 6896
  152.1508  134.8987  160.0557 H   0  0  0  0  0  0  0  0  0  0  0  0  # atno 6908 bound_to 6896
  152.0085  133.3817  159.4247 H   0  0  0  0  0  0  0  0  0  0  0  0  # atno 6909 bound_to 6896
  146.1884  139.7453  142.8850 H   0  0  0  0  0  0  0  0  0  0  0  0  # atno 7974 bound_to 7965
  154.8930  140.0415  157.1849 H   0  0  0  0  0  0  0  0  0  0  0  0  # atno 8008 bound_to 7997
  154.8521  140.2931  155.5570 H   0  0  0  0  0  0  0  0  0  0  0  0  # atno 8009 bound_to 7997
  156.2996  140.2463  156.3482 H   0  0  0  0  0  0  0  0  0  0  0  0  # atno 8010 bound_to 7997
  140.4840  143.2395  151.8013 H   0  0  0  0  0  0  0  0  0  0  0  0  # atno 10167 bound_to 10162
  156.8208  130.5455  149.5697 H   0  0  0  0  0  0  0  0  0  0  0  0  # atno 10718 bound_to 10713
  153.0796  135.6615  154.0072 H   0  0  0  0  0  0  0  0  0  0  0  0  # atno 10763 bound_to 10752
  153.9697  135.2966  155.3429 H   0  0  0  0  0  0  0  0  0  0  0  0  # atno 10764 bound_to 10752
  154.7193  135.5172  153.8857 H   0  0  0  0  0  0  0  0  0  0  0  0  # atno 10765 bound_to 10752
  140.0712  134.9150  157.1348 H   0  0  0  0  0  0  0  0  0  0  0  0  # atno 11005 bound_to 11000
  145.3869  141.0367  143.3146 LP  0  0  0  0  0  0  0  0  0  0  0  0  # atno 17320 bound_to 7965
  144.8439  139.5427  143.6887 LP  0  0  0  0  0  0  0  0  0  0  0  0  # atno 17321 bound_to 7965
  139.4838  144.4736  151.9395 LP  0  0  0  0  0  0  0  0  0  0  0  0  # atno 17342 bound_to 10162
  140.3822  144.2722  150.5907 LP  0  0  0  0  0  0  0  0  0  0  0  0  # atno 17343 bound_to 10162
  156.0990  130.5954  150.9862 LP  0  0  0  0  0  0  0  0  0  0  0  0  # atno 17370 bound_to 10713
  157.6458  131.0904  150.8157 LP  0  0  0  0  0  0  0  0  0  0  0  0  # atno 17371 bound_to 10713
  140.3624  134.2479  155.7186 LP  0  0  0  0  0  0  0  0  0  0  0  0  # atno 17394 bound_to 11000
  141.2012  133.7967  157.0450 LP  0  0  0  0  0  0  0  0  0  0  0  0  # atno 17395 bound_to 11000

$$$$
