AV-unprocessed.smi:35|AV-procd|sdf|264|dock1
  -GOLD-   2262016 33D 1   1.00000     0.00000
 Structure written by MMmdl.
 28 29  0  0  0  0  0  0  0  0  2 V2000
  151.0270  136.7380  159.0290 O   0  0  0  0  0  0  0  0  0  0  0  0
  150.1160  137.1608  158.3192 C   0  0  0  0  0  0  0  0  0  0  0  0
  148.8118  137.1788  158.7202 N   0  5  0  0  0  0  0  0  0  0  0  0
  147.8033  137.6497  157.9288 C   0  0  0  0  0  0  0  0  0  0  0  0
  146.6206  137.6399  158.2702 O   0  0  0  0  0  0  0  0  0  0  0  0
  148.1227  138.1610  156.6406 N   0  0  0  0  0  0  0  0  0  0  0  0
  147.0210  138.6900  155.7460 C   0  0  1  0  0  0  0  0  0  0  0  0
  147.3158  140.0121  155.4030 O   0  0  0  0  0  0  0  0  0  0  0  0
  147.0486  140.2235  154.0201 C   0  0  1  0  0  0  0  0  0  0  0  0
  147.8423  141.4247  153.4763 C   0  0  0  0  0  0  0  0  0  0  0  0
  149.2289  141.1729  153.5632 O   0  0  0  0  0  0  0  0  0  0  0  0
  147.3822  138.8675  153.3837 C   0  0  1  0  0  0  0  0  0  0  0  0
  148.7773  138.7446  153.1603 O   0  0  0  0  0  0  0  0  0  0  0  0
  146.8737  137.8881  154.4353 C   0  0  1  0  0  0  0  0  0  0  0  0
  147.5351  136.6344  154.3922 O   0  0  0  0  0  0  0  0  0  0  0  0
  149.4351  138.1428  156.2011 C   0  0  0  0  0  0  0  0  0  0  0  0
  150.4241  137.6676  156.9843 C   0  0  0  0  0  0  0  0  0  0  0  0
  152.2537  137.6994  156.2240 Br  0  0  0  0  0  0  0  0  0  0  0  0
  146.1102  138.6936  156.3462 H   0  0  0  0  0  0  0  0  0  0  0  0
  145.9772  140.3968  153.9008 H   0  0  0  0  0  0  0  0  0  0  0  0
  147.5624  141.6531  152.4473 H   0  0  0  0  0  0  0  0  0  0  0  0
  147.6359  142.3123  154.0750 H   0  0  0  0  0  0  0  0  0  0  0  0
  149.4413  140.4607  152.9796 H   0  0  0  0  0  0  0  0  0  0  0  0
  146.8726  138.7307  152.4294 H   0  0  0  0  0  0  0  0  0  0  0  0
  148.9396  137.8979  152.7726 H   0  0  0  0  0  0  0  0  0  0  0  0
  145.8066  137.7217  154.2823 H   0  0  0  0  0  0  0  0  0  0  0  0
  148.0743  136.6112  153.6156 H   0  0  0  0  0  0  0  0  0  0  0  0
  149.6786  138.5085  155.2148 H   0  0  0  0  0  0  0  0  0  0  0  0
  1  2  2  0  0  0  0
  2 17  1  0  0  0  0
  2  3  1  0  0  0  0
  3  4  1  0  0  0  0
  4  5  2  0  0  0  0
  4  6  1  0  0  0  0
  6  7  1  0  0  0  0
  6 16  1  0  0  0  0
  7 14  1  0  0  0  0
  7  8  1  0  0  0  0
  7 19  1  0  0  0  0
  8  9  1  0  0  0  0
  9 10  1  0  0  0  0
  9 12  1  0  0  0  0
  9 20  1  0  0  0  0
 10 11  1  0  0  0  0
 10 21  1  0  0  0  0
 10 22  1  0  0  0  0
 11 23  1  0  0  0  0
 12 13  1  0  0  0  0
 12 14  1  0  0  0  0
 12 24  1  0  0  0  0
 13 25  1  0  0  0  0
 14 15  1  0  0  0  0
 14 26  1  0  0  0  0
 15 27  1  0  0  0  0
 16 17  2  0  0  0  0
 16 28  1  0  0  0  0
 17 18  1  0  0  0  0
M  CHG  1   3  -1
M  END
> <s_m_source_file>
AV-unprocessed.smi

> <i_m_source_file_index>
35

> <i_lp_mmshare_version>
43012

> <i_f3d_flags>
0

> <s_epik_input>
Tz1jMVtuSF1jKD1PKW4oW2NIXWMxQnIpW0NAQEhdMk9bQ0BASF0oW0NIMl1bT0hdKVtDQEBIXShbT0hdKVtDQEhdMltPSF0=

> <s_epik_cmdline>
J2VwaWtfcHl0aG9uJywgJy1waCcsICc3LjAnLCAnLXRuJywgJzgnLCAnLW1hJywgJzIwMCcsICctbWV0YWxfYmluZGluZycsICctaW1hZScsICc8aW5maWxlLm1hZT4nLCAnLW9tYWUnLCAnPG91dGZpbGUubWFlPic=

> <r_epik_Ionization_Penalty>
1.06112

> <r_epik_Ionization_Penalty_Charging>
2.1796e-09

> <r_epik_Ionization_Penalty_Neutral>
1.06112

> <r_epik_State_Penalty>
1.11484

> <r_epik_Charging_Adjusted_Penalty>
1.11484

> <i_epik_Tot_Q>
-1

> <i_epik_Tot_abs_Q>
1

> <r_epik_Metal_State_Penalty>
0.0032876

> <b_epik_Metal_Only>
0

> <s_epik_Chemistry_Notes>
This compound contains an acetal/aminal-like group ( X-CH(R)-Y where X, Y are N, S, or O) that may be acid/base labile, releasing an aldehyde.

> <s_lp_Force_Field>
OPLS_2005

> <r_lp_Energy>
48.9456

> <b_lp_Chiralities_Consistent>
1

> <s_lp_Variant>
AV-unprocessed.smi:35-18

> <Gold.Version>
5.8.1

> <Gold.Id.Protein>
6NUR|6NUR_protein|mol2

> <Gold.PLP.Fitness>
31.6356

> <Gold.PLP.PLP>
-18.3431

> <Gold.PLP.part.hbond>
-6.9816

> <Gold.PLP.part.metal>
0.0000

> <Gold.PLP.part.buried>
-4.1515

> <Gold.PLP.part.nonpolar>
-7.2650

> <Gold.PLP.part.repulsive>
0.0138

> <Gold.PLP.ligand.clash>
0.0000

> <Gold.PLP.ligand.torsion>
0.0221

> <Gold.PLP.Chemscore.Hbond>
4.4432

> <Gold.PLP.Chemscore.CHOScore>
0.0000

> <Gold.PLP.Chemscore.Metal>
0.0000

> <Gold.Chemscore.Hbonds>
donor molecule, donor type, donor heavy atom, donor atom, acceptor molecule, acceptor atom, score
      L1  H    11    23       P1  7957  0.83
      L1  H    13    25       P1  7948  1.00
      L1  H    15    27       P1  7948  1.00
      P1  H  6896  6909       L1     1  1.00
      P1  H  8011  8017       L1    11  0.49

> <Gold.PLP.Chemscore.Internal.Correction>
0.0072

> <Gold.Rescore>
     Score         DG    S(hbond)    S(metal)    S(lipo)     H(rot)  DE(clash)    DE(int)     intcor
     12.98     -13.13       3.93        0.00      32.55       3.63       0.05       0.10       ----

> <Gold.Chemscore.Fitness>
12.9831

> <Gold.Chemscore.DG>
-13.1311

> <Gold.Chemscore.ZeroCoef>
-5.4800

> <Gold.Chemscore.Hbond>
3.9299

> <Gold.Chemscore.Metal>
0.0000

> <Gold.Chemscore.Lipo>
32.5455

> <Gold.Chemscore.Internal_Hbond>
0.0000

> <Gold.Chemscore.DEClash>
0.0456

> <Gold.Chemscore.DEInternal>
0.1024

> <Gold.Chemscore.Rot>
3.6261

> <Gold.Chemscore.Internal.Correction>
   9.000000E+99

> <Gold.Chemscore.Hbonds>
donor molecule, donor type, donor heavy atom, donor atom, acceptor molecule, acceptor atom, score
      L1  H    11    23       P1  7957  0.83
      L1  H    13    25       P1  7948  1.00
      L1  H    15    27       P1  7948  0.97
      P1  H  6896  6909       L1     1  0.98
      P1  H  8011  8017       L1    11  0.01

> <Gold.Chemscore.Hbond.Weighted>
-13.1260

> <Gold.Chemscore.Metal.Weighted>
-0.0000

> <Gold.Chemscore.Lipo.Weighted>
-3.8078

> <Gold.Chemscore.Internal_Hbond.Weighted>
0.0000

> <Gold.Chemscore.DEClash.Weighted>
0.0456

> <Gold.Chemscore.DEInternal.Weighted>
0.1024

> <Gold.Chemscore.Rot.Weighted>
9.2828

> <Gold.Chemscore.Internal.Correction.Weighted>
   9.000000E+99

> <Gold.Protein.RotatedTorsions>
[ 6907 6896 6895 6894 ] final   99.73 input  -60.11 | X-H torsion
[ 7974 7965 7964 7962 ] final -149.39 input  175.53 | X-H torsion
[ 8008 7997 7996 7995 ] final   34.59 input   59.86 | X-H torsion
[ 10167 10162 10161 10158 ] final   75.03 input  -65.29 | X-H torsion
[ 10718 10713 10712 10709 ] final -161.07 input   66.30 | X-H torsion
[ 10763 10752 10751 10750 ] final -166.46 input  -60.55 | X-H torsion
[ 11005 11000 10999 10996 ] final   -7.66 input  -57.11 | X-H torsion

> <Gold.Protein.ActiveResidues>
 VAL166  LYS551  ARG553  GLY616  TRP617  ASP618  TYR619  PRO620  LYS621  CYS622 
 ASP623  PHE694  ASN695  SER759  ASP760  ASP761  ALA762  ILE779  LEU786  VAL792 
 PHE793  MET794  SER795  GLU796  ALA797  LYS798  CYS799  TRP800  GLU811  SER814 

> <Gold.Protein.RotatedAtoms>
  152.5386  134.0384  159.8056 H   0  0  0  0  0  0  0  0  0  0  0  0  # atno 6907 bound_to 6896
  151.0544  133.5589  159.2647 H   0  0  0  0  0  0  0  0  0  0  0  0  # atno 6908 bound_to 6896
  151.2511  135.0630  159.9116 H   0  0  0  0  0  0  0  0  0  0  0  0  # atno 6909 bound_to 6896
  144.7971  140.5071  143.5733 H   0  0  0  0  0  0  0  0  0  0  0  0  # atno 7974 bound_to 7965
  155.1573  140.3280  155.4418 H   0  0  0  0  0  0  0  0  0  0  0  0  # atno 8008 bound_to 7997
  156.2554  140.1966  156.6632 H   0  0  0  0  0  0  0  0  0  0  0  0  # atno 8009 bound_to 7997
  154.6430  140.0568  156.9854 H   0  0  0  0  0  0  0  0  0  0  0  0  # atno 8010 bound_to 7997
  140.0074  144.5640  150.7687 H   0  0  0  0  0  0  0  0  0  0  0  0  # atno 10167 bound_to 10162
  156.5911  130.8770  151.2890 H   0  0  0  0  0  0  0  0  0  0  0  0  # atno 10718 bound_to 10713
  154.6830  135.2958  154.9586 H   0  0  0  0  0  0  0  0  0  0  0  0  # atno 10763 bound_to 10752
  154.0575  135.6636  153.4811 H   0  0  0  0  0  0  0  0  0  0  0  0  # atno 10764 bound_to 10752
  153.0560  135.5144  154.7883 H   0  0  0  0  0  0  0  0  0  0  0  0  # atno 10765 bound_to 10752
  140.7152  133.8875  155.8780 H   0  0  0  0  0  0  0  0  0  0  0  0  # atno 11005 bound_to 11000
  145.5647  139.1481  143.3322 LP  0  0  0  0  0  0  0  0  0  0  0  0  # atno 17320 bound_to 7965
  146.2242  140.5782  142.9004 LP  0  0  0  0  0  0  0  0  0  0  0  0  # atno 17321 bound_to 7965
  140.7395  143.2792  151.3650 LP  0  0  0  0  0  0  0  0  0  0  0  0  # atno 17342 bound_to 10162
  139.6229  144.0871  152.2408 LP  0  0  0  0  0  0  0  0  0  0  0  0  # atno 17343 bound_to 10162
  157.7303  130.9684  150.1828 LP  0  0  0  0  0  0  0  0  0  0  0  0  # atno 17370 bound_to 10713
  156.2549  130.3704  149.8192 LP  0  0  0  0  0  0  0  0  0  0  0  0  # atno 17371 bound_to 10713
  141.0051  134.1097  157.4279 LP  0  0  0  0  0  0  0  0  0  0  0  0  # atno 17394 bound_to 11000
  139.8862  135.0079  156.6481 LP  0  0  0  0  0  0  0  0  0  0  0  0  # atno 17395 bound_to 11000

$$$$
