#       Name:                AV-unprocessed.smi:2200
#       Creating user name   scv26
#       Creation time:       Fri Mar 27 12:14:16 2020


#       File generated by GOLD software.
#

@<TRIPOS>MOLECULE
AV-unprocessed.smi:2200
    37    37     1
SMALL
NO_CHARGES


@<TRIPOS>ATOM
      1 ****        -2.0944  -0.9486  -3.7244 C.3            1 S1                 0.0000
      2 ****        -1.6271  -0.1686  -2.4869 C.3            1 S1                 0.0000
      3 ****        -2.2009   1.2592  -2.4958 C.3            1 S1                 0.0000
      4 ****        -0.0868  -0.1861  -2.3798 C.3            1 S1                 0.0000
      5 ****         0.4048   0.5024  -1.1908 N.am           1 S1                 0.0000
      6 ****         0.4096  -0.0039   0.0514 C.2            1 S1                 0.0000
      7 ****        -0.0170  -1.1270   0.3242 O.2            1 S1                 0.0000
      8 ****         0.9542   0.9221   1.1477 C.3            1 S1                 0.0000
      9 ****         1.4297   0.2023   2.3404 N.am           1 S1                 0.0000
     10 ****         0.5595   0.1159   3.4414 C.2            1 S1                 0.0000
     11 ****         0.9120  -0.5148   4.5778 C.2            1 S1                 0.0000
     12 ****         2.2366  -1.1189   4.6497 C.2            1 S1                 0.0000
     13 ****         2.5787  -1.6910   5.6829 O.2            1 S1                 0.0000
     14 ****         3.0413  -1.0159   3.5517 N.pl3          1 S1                -1.0000
     15 ****         2.6688  -0.3727   2.4017 C.2            1 S1                 0.0000
     16 ****         3.4109  -0.2915   1.4222 O.2            1 S1                 0.0000
     17 ****        -1.7243  -0.4935  -4.6437 H              1 S1                 0.0000
     18 ****        -3.1828  -0.9791  -3.7823 H              1 S1                 0.0000
     19 ****        -1.7392  -1.9792  -3.6964 H              1 S1                 0.0000
     20 ****        -2.0337  -0.6798  -1.6133 H              1 S1                 0.0000
     21 ****        -1.8123   1.8363  -3.3352 H              1 S1                 0.0000
     22 ****        -1.9562   1.7963  -1.5793 H              1 S1                 0.0000
     23 ****        -3.2881   1.2435  -2.5785 H              1 S1                 0.0000
     24 ****         0.2834  -1.2128  -2.3844 H              1 S1                 0.0000
     25 ****         0.3513   0.2992  -3.2525 H              1 S1                 0.0000
     26 ****         0.7714   1.4339  -1.3221 H              1 S1                 0.0000
     27 ****         1.7578   1.5379   0.7394 H              1 S1                 0.0000
     28 ****         0.1652   1.6253   1.4177 H              1 S1                 0.0000
     29 ****        -0.4039   0.5845   3.3045 H              1 S1                 0.0000
     30 ****         0.2311  -0.5743   5.4141 H              1 S1                 0.0000
     31 ****        -0.3902  -1.7092  -0.3982 LP             1 S1                 0.0000
     32 ****         0.0100  -1.4565   1.2679 LP             1 S1                 0.0000
     33 ****         1.9511  -1.7375   6.4600 LP             1 S1                 0.0000
     34 ****         3.4846  -2.1099   5.7460 LP             1 S1                 0.0000
     35 ****         3.9500  -1.4318   3.5892 LP             1 S1                 0.0000
     36 ****         3.1037   0.1887   0.6006 LP             1 S1                 0.0000
     37 ****         4.3207  -0.7058   1.4484 LP             1 S1                 0.0000
@<TRIPOS>BOND
    1    1    2 1     
    2    1   17 1     
    3    1   18 1     
    4    1   19 1     
    5    2    3 1     
    6    2    4 1     
    7    2   20 1     
    8    3   21 1     
    9    3   22 1     
   10    3   23 1     
   11    4    5 1     
   12    4   24 1     
   13    4   25 1     
   14    5    6 am    
   15    5   26 1     
   16    6    7 2     
   17    6    8 1     
   18    8    9 1     
   19    8   27 1     
   20    8   28 1     
   21    9   15 am    
   22    9   10 1     
   23   10   11 2     
   24   10   29 1     
   25   11   12 1     
   26   11   30 1     
   27   12   13 2     
   28   12   14 1     
   29   14   15 1     
   30   15   16 2     
   31    7   31 1     
   32    7   32 1     
   33   13   33 1     
   34   13   34 1     
   35   14   35 1     
   36   16   36 1     
   37   16   37 1     
@<TRIPOS>SUBSTRUCTURE
      1 S1             1
@<TRIPOS>SET
LONE_PAIRS      STATIC     ATOMS    <user>   **** ""
7 31 32 33 34 35 36 37
DONOR_HYDROGENS      STATIC     ATOMS    <user>   **** ""
1 26
ATOM$BLUE        STATIC     ATOMS    COLORGROUP SYSTEM
7 31 32 33 34 35 36 37
ATOM$RED        STATIC     ATOMS    COLORGROUP SYSTEM
1 26
