AV-unprocessed.smi:2406|AV-procd|sdf|9516|dock5
  -GOLD-   2272013143D 1   1.00000     0.00000
 Structure written by MMmdl.
 36 37  0  0  0  0  0  0  0  0  1 V2000
  150.5075  138.3580  154.7738 C   0  0  0  0  0  0  0  0  0  0  0  0
  150.3941  139.7766  154.7613 O   0  0  0  0  0  0  0  0  0  0  0  0
  149.2721  140.3350  154.1849 C   0  0  0  0  0  0  0  0  0  0  0  0
  148.3507  139.5019  153.5178 C   0  0  0  0  0  0  0  0  0  0  0  0
  147.2122  140.1131  152.9463 C   0  0  0  0  0  0  0  0  0  0  0  0
  146.3056  139.2375  152.2921 N   0  0  0  0  0  0  0  0  0  0  0  0
  146.0475  137.9485  152.5743 C   0  0  0  0  0  0  0  0  0  0  0  0
  146.5560  137.3067  153.4940 O   0  0  0  0  0  0  0  0  0  0  0  0
  145.1473  137.4378  151.7200 N   0  0  0  0  0  0  0  0  0  0  0  0
  144.6460  136.0639  151.7225 C   0  0  2  0  0  0  0  0  0  0  0  0
  144.1126  135.7280  153.1219 C   0  0  0  0  0  0  0  0  0  0  0  0
  145.7438  135.0738  151.2845 C   0  0  0  0  0  0  0  0  0  0  0  0
  145.4369  133.6285  151.6356 C   0  0  0  0  0  0  0  0  0  0  0  0
  145.5875  132.5319  150.6090 C   0  0  0  0  0  0  0  0  0  0  0  0
  144.2117  132.9403  151.0830 C   0  0  0  0  0  0  0  0  0  0  0  0
  147.0415  141.4545  153.0484 N   0  0  0  0  0  0  0  0  0  0  0  0
  147.9722  142.1555  153.6988 C   0  0  0  0  0  0  0  0  0  0  0  0
  149.0749  141.6727  154.2724 N   0  0  0  0  0  0  0  0  0  0  0  0
  151.4428  138.0750  155.2563 H   0  0  0  0  0  0  0  0  0  0  0  0
  150.5209  137.9510  153.7617 H   0  0  0  0  0  0  0  0  0  0  0  0
  149.6933  137.8965  155.3344 H   0  0  0  0  0  0  0  0  0  0  0  0
  148.5144  138.4360  153.4534 H   0  0  0  0  0  0  0  0  0  0  0  0
  145.8056  139.6349  151.5109 H   0  0  0  0  0  0  0  0  0  0  0  0
  144.7835  138.0456  151.0009 H   0  0  0  0  0  0  0  0  0  0  0  0
  143.8086  135.9712  151.0285 H   0  0  0  0  0  0  0  0  0  0  0  0
  143.7078  134.7162  153.1543 H   0  0  0  0  0  0  0  0  0  0  0  0
  143.3127  136.4103  153.4114 H   0  0  0  0  0  0  0  0  0  0  0  0
  144.8987  135.7961  153.8746 H   0  0  0  0  0  0  0  0  0  0  0  0
  145.9045  135.1407  150.2079 H   0  0  0  0  0  0  0  0  0  0  0  0
  146.6883  135.3525  151.7537 H   0  0  0  0  0  0  0  0  0  0  0  0
  145.7022  133.3588  152.6561 H   0  0  0  0  0  0  0  0  0  0  0  0
  145.8779  132.8191  149.6001 H   0  0  0  0  0  0  0  0  0  0  0  0
  145.9783  131.5764  150.9527 H   0  0  0  0  0  0  0  0  0  0  0  0
  143.6818  132.2537  151.7400 H   0  0  0  0  0  0  0  0  0  0  0  0
  143.5862  133.4951  150.3864 H   0  0  0  0  0  0  0  0  0  0  0  0
  147.8158  143.2216  153.7693 H   0  0  0  0  0  0  0  0  0  0  0  0
  1  2  1  0  0  0  0
  1 19  1  0  0  0  0
  1 20  1  0  0  0  0
  1 21  1  0  0  0  0
  2  3  1  0  0  0  0
  3 18  1  0  0  0  0
  3  4  2  0  0  0  0
  4  5  1  0  0  0  0
  4 22  1  0  0  0  0
  5  6  1  0  0  0  0
  5 16  2  0  0  0  0
  6  7  1  0  0  0  0
  6 23  1  0  0  0  0
  7  8  2  0  0  0  0
  7  9  1  0  0  0  0
  9 10  1  0  0  0  0
  9 24  1  0  0  0  0
 10 11  1  0  0  0  0
 10 12  1  0  0  0  0
 10 25  1  0  0  0  0
 11 26  1  0  0  0  0
 11 27  1  0  0  0  0
 11 28  1  0  0  0  0
 12 13  1  0  0  0  0
 12 29  1  0  0  0  0
 12 30  1  0  0  0  0
 13 15  1  0  0  0  0
 13 14  1  0  0  0  0
 13 31  1  0  0  0  0
 14 15  1  0  0  0  0
 14 32  1  0  0  0  0
 14 33  1  0  0  0  0
 15 34  1  0  0  0  0
 15 35  1  0  0  0  0
 16 17  1  0  0  0  0
 17 18  2  0  0  0  0
 17 36  1  0  0  0  0
M  END
> <s_m_source_file>
AV-unprocessed.smi

> <i_m_source_file_index>
2406

> <i_lp_mmshare_version>
43012

> <i_f3d_flags>
0

> <s_epik_input>
W0NIM11PYzFbY0hdYyhuW2NIXW4xKVtOSF1DKD1PKVtOSF1bQ0BIXShbQ0gzXSlbQ0gyXVtDSF0yW0NIMl1bQ0gyXTI=

> <s_epik_cmdline>
J2VwaWtfcHl0aG9uJywgJy1waCcsICc3LjAnLCAnLXRuJywgJzgnLCAnLW1hJywgJzIwMCcsICctbWV0YWxfYmluZGluZycsICctaW1hZScsICc8aW5maWxlLm1hZT4nLCAnLW9tYWUnLCAnPG91dGZpbGUubWFlPic=

> <r_lp_tautomer_probability>
1

> <r_epik_Ionization_Penalty>
2.82876e-05

> <r_epik_Ionization_Penalty_Charging>
0

> <r_epik_Ionization_Penalty_Neutral>
2.82876e-05

> <r_epik_State_Penalty>
-0

> <r_epik_Charging_Adjusted_Penalty>
0

> <i_epik_Tot_Q>
0

> <i_epik_Tot_abs_Q>
0

> <r_epik_Metal_State_Penalty>
-0

> <b_epik_Metal_Only>
0

> <s_lp_Force_Field>
OPLS_2005

> <r_lp_Energy>
11.282

> <b_lp_Chiralities_Consistent>
1

> <s_lp_Variant>
AV-unprocessed.smi:2406-1

> <Gold.Version>
5.8.1

> <Gold.Id.Protein>
6NUR|6NUR_protein|mol2

> <Gold.PLP.Fitness>
40.3544

> <Gold.PLP.PLP>
-30.8513

> <Gold.PLP.part.hbond>
-3.2277

> <Gold.PLP.part.metal>
0.0000

> <Gold.PLP.part.buried>
-4.0058

> <Gold.PLP.part.nonpolar>
-25.3558

> <Gold.PLP.part.repulsive>
1.4353

> <Gold.PLP.ligand.clash>
0.1636

> <Gold.PLP.ligand.torsion>
0.7821

> <Gold.PLP.Chemscore.Hbond>
2.5520

> <Gold.PLP.Chemscore.CHOScore>
1.0000

> <Gold.PLP.Chemscore.Metal>
0.0000

> <Gold.Chemscore.Hbonds>
donor molecule, donor type, donor heavy atom, donor atom, acceptor molecule, acceptor atom, score
      L1  H     9    24       P1 10171  1.00
      P1  H  7989  7998       L1     2  0.48
      L1  C    17    36       P1  8028  0.77

> <Gold.PLP.Chemscore.Internal.Correction>
0.5749

> <Gold.Rescore>
     Score         DG    S(hbond)    S(metal)    S(lipo)     H(rot)  DE(clash)    DE(int)     intcor
      9.63     -12.88       1.74        0.00      54.06       1.85       0.06       3.19       ----

> <Gold.Chemscore.Fitness>
9.6330

> <Gold.Chemscore.DG>
-12.8811

> <Gold.Chemscore.ZeroCoef>
-5.4800

> <Gold.Chemscore.Hbond>
1.7370

> <Gold.Chemscore.Metal>
0.0000

> <Gold.Chemscore.Lipo>
54.0581

> <Gold.Chemscore.Internal_Hbond>
0.0000

> <Gold.Chemscore.DEClash>
0.0601

> <Gold.Chemscore.DEInternal>
3.1880

> <Gold.Chemscore.Rot>
1.8458

> <Gold.Chemscore.Internal.Correction>
   9.000000E+99

> <Gold.Chemscore.Hbonds>
donor molecule, donor type, donor heavy atom, donor atom, acceptor molecule, acceptor atom, score
      L1  H     9    24       P1 10171  0.98
      P1  H  7989  7998       L1     2  0.03

> <Gold.Chemscore.Hbond.Weighted>
-5.8017

> <Gold.Chemscore.Metal.Weighted>
-0.0000

> <Gold.Chemscore.Lipo.Weighted>
-6.3248

> <Gold.Chemscore.Internal_Hbond.Weighted>
0.0000

> <Gold.Chemscore.DEClash.Weighted>
0.0601

> <Gold.Chemscore.DEInternal.Weighted>
3.1880

> <Gold.Chemscore.Rot.Weighted>
4.7254

> <Gold.Chemscore.Internal.Correction.Weighted>
   9.000000E+99

> <Gold.Protein.RotatedTorsions>
[ 6907 6896 6895 6894 ] final  175.80 input  -60.11 | X-H torsion
[ 7974 7965 7964 7962 ] final  122.22 input  175.53 | X-H torsion
[ 8008 7997 7996 7995 ] final -120.14 input   59.86 | X-H torsion
[ 10167 10162 10161 10158 ] final  128.04 input  -65.29 | X-H torsion
[ 10718 10713 10712 10709 ] final  -84.74 input   66.30 | X-H torsion
[ 10763 10752 10751 10750 ] final  -95.79 input  -60.55 | X-H torsion
[ 11005 11000 10999 10996 ] final  117.42 input  -57.11 | X-H torsion

> <Gold.Protein.ActiveResidues>
 VAL166  LYS551  ARG553  GLY616  TRP617  ASP618  TYR619  PRO620  LYS621  CYS622 
 ASP623  PHE694  ASN695  SER759  ASP760  ASP761  ALA762  ILE779  LEU786  VAL792 
 PHE793  MET794  SER795  GLU796  ALA797  LYS798  CYS799  TRP800  GLU811  SER814 

> <Gold.Protein.RotatedAtoms>
  151.7303  133.3317  159.3338 H   0  0  0  0  0  0  0  0  0  0  0  0  # atno 6907 bound_to 6896
  150.7615  134.6369  159.6225 H   0  0  0  0  0  0  0  0  0  0  0  0  # atno 6908 bound_to 6896
  152.3596  134.6894  160.0263 H   0  0  0  0  0  0  0  0  0  0  0  0  # atno 6909 bound_to 6896
  145.1100  139.3459  143.4768 H   0  0  0  0  0  0  0  0  0  0  0  0  # atno 7974 bound_to 7965
  155.1270  140.0399  157.2765 H   0  0  0  0  0  0  0  0  0  0  0  0  # atno 8008 bound_to 7997
  154.6571  140.2582  155.7124 H   0  0  0  0  0  0  0  0  0  0  0  0  # atno 8009 bound_to 7997
  156.2603  140.2824  156.1028 H   0  0  0  0  0  0  0  0  0  0  0  0  # atno 8010 bound_to 7997
  139.5547  144.6840  151.4217 H   0  0  0  0  0  0  0  0  0  0  0  0  # atno 10167 bound_to 10162
  156.0003  130.4708  150.4455 H   0  0  0  0  0  0  0  0  0  0  0  0  # atno 10718 bound_to 10713
  154.7180  135.5107  153.8768 H   0  0  0  0  0  0  0  0  0  0  0  0  # atno 10763 bound_to 10752
  153.0838  135.6639  154.0000 H   0  0  0  0  0  0  0  0  0  0  0  0  # atno 10764 bound_to 10752
  153.9829  135.3027  155.3398 H   0  0  0  0  0  0  0  0  0  0  0  0  # atno 10765 bound_to 10752
  139.9074  134.9610  156.7348 H   0  0  0  0  0  0  0  0  0  0  0  0  # atno 11005 bound_to 11000
  146.3526  140.1015  142.8608 LP  0  0  0  0  0  0  0  0  0  0  0  0  # atno 17320 bound_to 7965
  145.0857  140.9251  143.4799 LP  0  0  0  0  0  0  0  0  0  0  0  0  # atno 17321 bound_to 7965
  140.6818  143.8065  150.7131 LP  0  0  0  0  0  0  0  0  0  0  0  0  # atno 17342 bound_to 10162
  140.1521  143.4349  152.2124 LP  0  0  0  0  0  0  0  0  0  0  0  0  # atno 17343 bound_to 10162
  157.2493  131.0543  151.2389 LP  0  0  0  0  0  0  0  0  0  0  0  0  # atno 17370 bound_to 10713
  157.3544  130.7099  149.6461 LP  0  0  0  0  0  0  0  0  0  0  0  0  # atno 17371 bound_to 10713
  140.6896  133.9402  155.7958 LP  0  0  0  0  0  0  0  0  0  0  0  0  # atno 17394 bound_to 11000
  141.0451  134.0566  157.3854 LP  0  0  0  0  0  0  0  0  0  0  0  0  # atno 17395 bound_to 11000

$$$$
