AV-unprocessed.smi:707|AV-procd|sdf|3456|dock1
  -GOLD-   22720 0443D 1   1.00000     0.00000
 Structure written by MMmdl.
 44 45  0  0  0  0  0  0  0  0  1 V2000
  144.7546  141.5229  160.3176 C   0  0  0  0  0  0  0  0  0  0  0  0
  144.4747  142.2586  161.5879 C   0  0  0  0  0  0  0  0  0  0  0  0
  143.3471  142.1204  162.2956 N   0  0  0  0  0  0  0  0  0  0  0  0
  143.4848  142.9633  163.3810 N   0  0  0  0  0  0  0  0  0  0  0  0
  144.6822  143.5254  163.2195 C   0  0  0  0  0  0  0  0  0  0  0  0
  145.3510  143.1314  162.1251 N   0  0  0  0  0  0  0  0  0  0  0  0
  146.6611  143.5533  161.6665 C   0  0  0  0  0  0  0  0  0  0  0  0
  146.6004  144.1290  160.2419 C   0  0  0  0  0  0  0  0  0  0  0  0
  147.9298  144.2623  159.6586 N   0  0  0  0  0  0  0  0  0  0  0  0
  148.6353  143.2605  159.1116 C   0  0  0  0  0  0  0  0  0  0  0  0
  148.2261  142.1019  159.0390 O   0  0  0  0  0  0  0  0  0  0  0  0
  150.0086  143.6241  158.5541 C   0  0  0  0  0  0  0  0  0  0  0  0
  150.9812  142.8057  159.1880 O   0  0  0  0  0  0  0  0  0  0  0  0
  152.2942  143.3550  159.2281 C   0  0  1  0  0  0  0  0  0  0  0  0
  152.3786  144.2656  160.4658 C   0  0  0  0  0  0  0  0  0  0  0  0
  152.3039  143.4594  161.7735 C   0  0  0  0  0  0  0  0  0  0  0  0
  153.3811  142.3638  161.8193 C   0  0  0  0  0  0  0  0  0  0  0  0
  153.2969  141.4351  160.5928 C   0  0  2  0  0  0  0  0  0  0  0  0
  154.3784  140.3462  160.6372 C   0  0  0  0  0  0  0  0  0  0  0  0
  153.3791  142.2571  159.2913 C   0  0  0  0  0  0  0  0  0  0  0  0
  143.8981  140.9104  160.0344 H   0  0  0  0  0  0  0  0  0  0  0  0
  145.6186  140.8705  160.4441 H   0  0  0  0  0  0  0  0  0  0  0  0
  144.9582  142.2270  159.5107 H   0  0  0  0  0  0  0  0  0  0  0  0
  145.0821  144.2460  163.9181 H   0  0  0  0  0  0  0  0  0  0  0  0
  147.0429  144.2973  162.3668 H   0  0  0  0  0  0  0  0  0  0  0  0
  147.3433  142.7038  161.7099 H   0  0  0  0  0  0  0  0  0  0  0  0
  146.0140  143.4722  159.5984 H   0  0  0  0  0  0  0  0  0  0  0  0
  146.0949  145.0963  160.2396 H   0  0  0  0  0  0  0  0  0  0  0  0
  148.3492  145.1807  159.6776 H   0  0  0  0  0  0  0  0  0  0  0  0
  150.0084  143.4757  157.4745 H   0  0  0  0  0  0  0  0  0  0  0  0
  150.2072  144.6793  158.7469 H   0  0  0  0  0  0  0  0  0  0  0  0
  152.4489  143.9717  158.3412 H   0  0  0  0  0  0  0  0  0  0  0  0
  153.3162  144.8224  160.4409 H   0  0  0  0  0  0  0  0  0  0  0  0
  151.5806  145.0082  160.4393 H   0  0  0  0  0  0  0  0  0  0  0  0
  152.4177  144.1273  162.6275 H   0  0  0  0  0  0  0  0  0  0  0  0
  151.3170  143.0051  161.8687 H   0  0  0  0  0  0  0  0  0  0  0  0
  154.3678  142.8272  161.8637 H   0  0  0  0  0  0  0  0  0  0  0  0
  153.2720  141.7830  162.7360 H   0  0  0  0  0  0  0  0  0  0  0  0
  152.3283  140.9335  160.6151 H   0  0  0  0  0  0  0  0  0  0  0  0
  155.3788  140.7793  160.6168 H   0  0  0  0  0  0  0  0  0  0  0  0
  154.2898  139.6714  159.7852 H   0  0  0  0  0  0  0  0  0  0  0  0
  154.2936  139.7450  161.5429 H   0  0  0  0  0  0  0  0  0  0  0  0
  153.3165  141.5993  158.4252 H   0  0  0  0  0  0  0  0  0  0  0  0
  154.3605  142.7294  159.2288 H   0  0  0  0  0  0  0  0  0  0  0  0
  1  2  1  0  0  0  0
  1 21  1  0  0  0  0
  1 22  1  0  0  0  0
  1 23  1  0  0  0  0
  2  6  1  0  0  0  0
  2  3  2  0  0  0  0
  3  4  1  0  0  0  0
  4  5  2  0  0  0  0
  5  6  1  0  0  0  0
  5 24  1  0  0  0  0
  6  7  1  0  0  0  0
  7  8  1  0  0  0  0
  7 25  1  0  0  0  0
  7 26  1  0  0  0  0
  8  9  1  0  0  0  0
  8 27  1  0  0  0  0
  8 28  1  0  0  0  0
  9 10  1  0  0  0  0
  9 29  1  0  0  0  0
 10 11  2  0  0  0  0
 10 12  1  0  0  0  0
 12 13  1  0  0  0  0
 12 30  1  0  0  0  0
 12 31  1  0  0  0  0
 13 14  1  0  0  0  0
 14 20  1  0  0  0  0
 14 15  1  0  0  0  0
 14 32  1  0  0  0  0
 15 16  1  0  0  0  0
 15 33  1  0  0  0  0
 15 34  1  0  0  0  0
 16 17  1  0  0  0  0
 16 35  1  0  0  0  0
 16 36  1  0  0  0  0
 17 18  1  0  0  0  0
 17 37  1  0  0  0  0
 17 38  1  0  0  0  0
 18 19  1  0  0  0  0
 18 20  1  0  0  0  0
 18 39  1  0  0  0  0
 19 40  1  0  0  0  0
 19 41  1  0  0  0  0
 19 42  1  0  0  0  0
 20 43  1  0  0  0  0
 20 44  1  0  0  0  0
M  END
> <s_m_source_file>
AV-unprocessed.smi

> <i_m_source_file_index>
707

> <i_lp_mmshare_version>
43012

> <i_f3d_flags>
0

> <s_epik_input>
W0NIM11jMW5uW2NIXW4xW0NIMl1bQ0gyXVtOSF1DKD1PKVtDSDJdT1tDQEBIXTJbQ0gyXVtDSDJdW0NIMl1bQ0BASF0oW0NIM10pW0NIMl0y

> <s_epik_cmdline>
J2VwaWtfcHl0aG9uJywgJy1waCcsICc3LjAnLCAnLXRuJywgJzgnLCAnLW1hJywgJzIwMCcsICctbWV0YWxfYmluZGluZycsICctaW1hZScsICc8aW5maWxlLm1hZT4nLCAnLW9tYWUnLCAnPG91dGZpbGUubWFlPic=

> <r_lp_tautomer_probability>
1

> <r_epik_Ionization_Penalty>
0.000271783

> <r_epik_Ionization_Penalty_Charging>
0

> <r_epik_Ionization_Penalty_Neutral>
0.000271783

> <r_epik_State_Penalty>
-0

> <r_epik_Charging_Adjusted_Penalty>
0

> <i_epik_Tot_Q>
0

> <i_epik_Tot_abs_Q>
0

> <r_epik_Metal_State_Penalty>
-0

> <b_epik_Metal_Only>
0

> <s_lp_Force_Field>
OPLS_2005

> <r_lp_Energy>
13.3948

> <b_lp_Chiralities_Consistent>
1

> <s_lp_Variant>
AV-unprocessed.smi:707-4

> <Gold.Version>
5.8.1

> <Gold.Id.Protein>
6NUR|6NUR_protein|mol2

> <Gold.PLP.Fitness>
45.0666

> <Gold.PLP.PLP>
-45.6578

> <Gold.PLP.part.hbond>
-4.3065

> <Gold.PLP.part.metal>
0.0000

> <Gold.PLP.part.buried>
-4.3023

> <Gold.PLP.part.nonpolar>
-37.3442

> <Gold.PLP.part.repulsive>
0.2680

> <Gold.PLP.ligand.clash>
0.0000

> <Gold.PLP.ligand.torsion>
0.6432

> <Gold.PLP.Chemscore.Hbond>
0.1994

> <Gold.PLP.Chemscore.CHOScore>
0.0000

> <Gold.PLP.Chemscore.Metal>
0.0000

> <Gold.PLP.Chemscore.Internal.Correction>
0.0970

> <Gold.Rescore>
     Score         DG    S(hbond)    S(metal)    S(lipo)     H(rot)  DE(clash)    DE(int)     intcor
     10.89     -11.65       0.40        0.00      94.18       2.42       0.14       0.62       ----

> <Gold.Chemscore.Fitness>
10.8938

> <Gold.Chemscore.DG>
-11.6486

> <Gold.Chemscore.ZeroCoef>
-5.4800

> <Gold.Chemscore.Hbond>
0.4019

> <Gold.Chemscore.Metal>
0.0000

> <Gold.Chemscore.Lipo>
94.1811

> <Gold.Chemscore.Internal_Hbond>
0.0000

> <Gold.Chemscore.DEClash>
0.1387

> <Gold.Chemscore.DEInternal>
0.6161

> <Gold.Chemscore.Rot>
2.4191

> <Gold.Chemscore.Internal.Correction>
   9.000000E+99

> <Gold.Chemscore.Hbonds>
donor molecule, donor type, donor heavy atom, donor atom, acceptor molecule, acceptor atom, score
      P1  H  6934  6946       L1    11  0.01

> <Gold.Chemscore.Hbond.Weighted>
-1.3423

> <Gold.Chemscore.Metal.Weighted>
-0.0000

> <Gold.Chemscore.Lipo.Weighted>
-11.0192

> <Gold.Chemscore.Internal_Hbond.Weighted>
0.0000

> <Gold.Chemscore.DEClash.Weighted>
0.1387

> <Gold.Chemscore.DEInternal.Weighted>
0.6161

> <Gold.Chemscore.Rot.Weighted>
6.1929

> <Gold.Chemscore.Internal.Correction.Weighted>
   9.000000E+99

> <Gold.Protein.RotatedTorsions>
[ 6907 6896 6895 6894 ] final  110.28 input  -60.11 | X-H torsion
[ 7974 7965 7964 7962 ] final  -79.13 input  175.53 | X-H torsion
[ 8008 7997 7996 7995 ] final   57.13 input   59.86 | X-H torsion
[ 10167 10162 10161 10158 ] final   71.75 input  -65.29 | X-H torsion
[ 10718 10713 10712 10709 ] final  -42.02 input   66.30 | X-H torsion
[ 10763 10752 10751 10750 ] final  -54.32 input  -60.55 | X-H torsion
[ 11005 11000 10999 10996 ] final -167.32 input  -57.11 | X-H torsion

> <Gold.Protein.ActiveResidues>
 VAL166  LYS551  ARG553  GLY616  TRP617  ASP618  TYR619  PRO620  LYS621  CYS622 
 ASP623  PHE694  ASN695  SER759  ASP760  ASP761  ALA762  ILE779  LEU786  VAL792 
 PHE793  MET794  SER795  GLU796  ALA797  LYS798  CYS799  TRP800  GLU811  SER814 

> <Gold.Protein.RotatedAtoms>
  152.5027  133.8822  159.7351 H   0  0  0  0  0  0  0  0  0  0  0  0  # atno 6907 bound_to 6896
  150.9282  133.6790  159.2823 H   0  0  0  0  0  0  0  0  0  0  0  0  # atno 6908 bound_to 6896
  151.4143  135.0994  159.9647 H   0  0  0  0  0  0  0  0  0  0  0  0  # atno 6909 bound_to 6896
  145.5773  140.9455  143.1363 H   0  0  0  0  0  0  0  0  0  0  0  0  # atno 7974 bound_to 7965
  155.5288  140.3481  155.4422 H   0  0  0  0  0  0  0  0  0  0  0  0  # atno 8008 bound_to 7997
  156.0733  140.1368  156.9829 H   0  0  0  0  0  0  0  0  0  0  0  0  # atno 8009 bound_to 7997
  154.4539  140.0961  156.6676 H   0  0  0  0  0  0  0  0  0  0  0  0  # atno 8010 bound_to 7997
  140.0427  144.5376  150.7422 H   0  0  0  0  0  0  0  0  0  0  0  0  # atno 10167 bound_to 10162
  156.2641  130.4200  149.8510 H   0  0  0  0  0  0  0  0  0  0  0  0  # atno 10718 bound_to 10713
  154.1729  135.6456  153.5014 H   0  0  0  0  0  0  0  0  0  0  0  0  # atno 10763 bound_to 10752
  153.0079  135.5387  154.6594 H   0  0  0  0  0  0  0  0  0  0  0  0  # atno 10764 bound_to 10752
  154.5938  135.2937  155.0580 H   0  0  0  0  0  0  0  0  0  0  0  0  # atno 10765 bound_to 10752
  140.5545  134.5395  157.5130 H   0  0  0  0  0  0  0  0  0  0  0  0  # atno 11005 bound_to 11000
  144.7410  139.7449  143.7311 LP  0  0  0  0  0  0  0  0  0  0  0  0  # atno 17320 bound_to 7965
  146.1741  139.4905  142.9908 LP  0  0  0  0  0  0  0  0  0  0  0  0  # atno 17321 bound_to 7965
  140.7253  143.2629  151.4142 LP  0  0  0  0  0  0  0  0  0  0  0  0  # atno 17342 bound_to 10162
  139.6003  144.1309  152.2191 LP  0  0  0  0  0  0  0  0  0  0  0  0  # atno 17343 bound_to 10162
  156.6015  130.8548  151.3433 LP  0  0  0  0  0  0  0  0  0  0  0  0  # atno 17370 bound_to 10713
  157.7261  130.9625  150.1642 LP  0  0  0  0  0  0  0  0  0  0  0  0  # atno 17371 bound_to 10713
  139.9438  134.7738  156.0612 LP  0  0  0  0  0  0  0  0  0  0  0  0  # atno 17394 bound_to 11000
  141.1151  133.6630  156.3075 LP  0  0  0  0  0  0  0  0  0  0  0  0  # atno 17395 bound_to 11000

$$$$
