AV-unprocessed.smi:3331|AV-procd|sdf|12821|dock10
  -GOLD-   2272019193D 1   1.00000     0.00000
 Structure written by MMmdl.
 47 48  0  0  0  0  0  0  0  0  2 V2000
  151.6450  145.4732  160.1139 C   0  0  0  0  0  0  0  0  0  0  0  0
  151.7388  143.9473  159.9772 C   0  0  2  0  0  0  0  0  0  0  0  0
  152.8004  143.3570  160.9318 C   0  0  0  0  0  0  0  0  0  0  0  0
  153.0011  141.8391  160.7231 C   0  0  2  0  0  0  0  0  0  0  0  0
  154.1453  141.2974  161.5912 C   0  0  0  0  0  0  0  0  0  0  0  0
  153.2254  141.5295  159.2276 C   0  0  0  0  0  0  0  0  0  0  0  0
  152.0883  142.0578  158.4627 N   0  0  0  0  0  0  0  0  0  0  0  0
  151.1506  141.2520  157.9035 C   0  0  0  0  0  0  0  0  0  0  0  0
  151.2635  140.0246  157.9014 O   0  0  0  0  0  0  0  0  0  0  0  0
  149.8958  141.8648  157.2440 C   0  0  1  0  0  0  0  0  0  0  0  0
  149.5802  141.1372  155.9265 C   0  0  0  0  0  0  0  0  0  0  0  0
  148.7139  141.7936  158.1355 N   0  3  0  0  0  0  0  0  0  0  0  0
  147.4994  142.4679  157.6278 C   0  0  0  0  0  0  0  0  0  0  0  0
  146.3278  142.2890  158.6026 C   0  0  0  0  0  0  0  0  0  0  0  0
  146.3594  143.2739  159.6658 N   0  0  0  0  0  0  0  0  0  0  0  0
  146.2422  144.6445  159.5704 C   0  0  0  0  0  0  0  0  0  0  0  0
  146.3363  145.1486  160.8358 C   0  0  0  0  0  0  0  0  0  0  0  0
  146.5132  143.9936  161.6478 C   0  0  0  0  0  0  0  0  0  0  0  0
  146.5256  142.8726  160.9443 N   0  0  0  0  0  0  0  0  0  0  0  0
  152.0456  143.5243  158.5267 C   0  0  0  0  0  0  0  0  0  0  0  0
  152.5859  145.9545  159.8453 H   0  0  0  0  0  0  0  0  0  0  0  0
  151.4048  145.7610  161.1378 H   0  0  0  0  0  0  0  0  0  0  0  0
  150.8670  145.8788  159.4666 H   0  0  0  0  0  0  0  0  0  0  0  0
  150.7679  143.5318  160.2522 H   0  0  0  0  0  0  0  0  0  0  0  0
  153.7506  143.8675  160.7679 H   0  0  0  0  0  0  0  0  0  0  0  0
  152.5214  143.5565  161.9672 H   0  0  0  0  0  0  0  0  0  0  0  0
  152.0858  141.3344  161.0364 H   0  0  0  0  0  0  0  0  0  0  0  0
  155.0977  141.7564  161.3238 H   0  0  0  0  0  0  0  0  0  0  0  0
  154.2507  140.2186  161.4733 H   0  0  0  0  0  0  0  0  0  0  0  0
  153.9642  141.4966  162.6477 H   0  0  0  0  0  0  0  0  0  0  0  0
  154.1479  141.9953  158.8776 H   0  0  0  0  0  0  0  0  0  0  0  0
  153.3676  140.4572  159.0863 H   0  0  0  0  0  0  0  0  0  0  0  0
  150.0551  142.9226  157.0362 H   0  0  0  0  0  0  0  0  0  0  0  0
  150.4186  141.1761  155.2305 H   0  0  0  0  0  0  0  0  0  0  0  0
  148.7236  141.5900  155.4262 H   0  0  0  0  0  0  0  0  0  0  0  0
  149.3442  140.0860  156.0979 H   0  0  0  0  0  0  0  0  0  0  0  0
  148.4851  140.8194  158.2718 H   0  0  0  0  0  0  0  0  0  0  0  0
  147.6971  143.5308  157.4845 H   0  0  0  0  0  0  0  0  0  0  0  0
  147.2421  142.0549  156.6513 H   0  0  0  0  0  0  0  0  0  0  0  0
  145.3747  142.3744  158.0781 H   0  0  0  0  0  0  0  0  0  0  0  0
  146.3559  141.2949  159.0508 H   0  0  0  0  0  0  0  0  0  0  0  0
  146.1033  145.1419  158.6219 H   0  0  0  0  0  0  0  0  0  0  0  0
  146.2880  146.1849  161.1357 H   0  0  0  0  0  0  0  0  0  0  0  0
  146.6319  143.9374  162.7199 H   0  0  0  0  0  0  0  0  0  0  0  0
  151.3337  143.9734  157.8372 H   0  0  0  0  0  0  0  0  0  0  0  0
  153.0151  143.9213  158.2211 H   0  0  0  0  0  0  0  0  0  0  0  0
  148.9649  142.1941  159.0284 H   0  0  0  0  0  0  0  0  0  0  0  0
  1  2  1  0  0  0  0
  1 21  1  0  0  0  0
  1 22  1  0  0  0  0
  1 23  1  0  0  0  0
  2 20  1  0  0  0  0
  2  3  1  0  0  0  0
  2 24  1  0  0  0  0
  3  4  1  0  0  0  0
  3 25  1  0  0  0  0
  3 26  1  0  0  0  0
  4  5  1  0  0  0  0
  4  6  1  0  0  0  0
  4 27  1  0  0  0  0
  5 28  1  0  0  0  0
  5 29  1  0  0  0  0
  5 30  1  0  0  0  0
  6  7  1  0  0  0  0
  6 31  1  0  0  0  0
  6 32  1  0  0  0  0
  7  8  1  0  0  0  0
  7 20  1  0  0  0  0
  8  9  2  0  0  0  0
  8 10  1  0  0  0  0
 10 11  1  0  0  0  0
 10 12  1  0  0  0  0
 10 33  1  0  0  0  0
 11 34  1  0  0  0  0
 11 35  1  0  0  0  0
 11 36  1  0  0  0  0
 12 13  1  0  0  0  0
 12 37  1  0  0  0  0
 12 47  1  0  0  0  0
 13 14  1  0  0  0  0
 13 38  1  0  0  0  0
 13 39  1  0  0  0  0
 14 15  1  0  0  0  0
 14 40  1  0  0  0  0
 14 41  1  0  0  0  0
 15 19  1  0  0  0  0
 15 16  1  0  0  0  0
 16 17  2  0  0  0  0
 16 42  1  0  0  0  0
 17 18  1  0  0  0  0
 17 43  1  0  0  0  0
 18 19  2  0  0  0  0
 18 44  1  0  0  0  0
 20 45  1  0  0  0  0
 20 46  1  0  0  0  0
M  CHG  1  12   1
M  END
> <s_m_source_file>
AV-unprocessed.smi

> <i_m_source_file_index>
3331

> <i_lp_mmshare_version>
43012

> <i_f3d_flags>
0

> <s_epik_input>
W0NIM11bQ0BASF0xW0NIMl1bQ0BASF0oW0NIM10pW0NIMl1OKFtDSDJdMSlDKD1PKVtDQEhdKFtDSDNdKVtOSF1bQ0gyXVtDSDJdbjJbY0hdW2NIXVtjSF1uMg==

> <s_epik_cmdline>
J2VwaWtfcHl0aG9uJywgJy1waCcsICc3LjAnLCAnLXRuJywgJzgnLCAnLW1hJywgJzIwMCcsICctbWV0YWxfYmluZGluZycsICctaW1hZScsICc8aW5maWxlLm1hZT4nLCAnLW9tYWUnLCAnPG91dGZpbGUubWFlPic=

> <r_lp_tautomer_probability>
1

> <r_epik_Ionization_Penalty>
0.189706

> <r_epik_Ionization_Penalty_Charging>
0.189703

> <r_epik_Ionization_Penalty_Neutral>
2.45875e-06

> <r_epik_State_Penalty>
0.179341

> <r_epik_Charging_Adjusted_Penalty>
0.369044

> <i_epik_Tot_Q>
1

> <i_epik_Tot_abs_Q>
1

> <r_epik_Metal_State_Penalty>
0.179578

> <b_epik_Metal_Only>
0

> <s_lp_Force_Field>
OPLS_2005

> <r_lp_Energy>
26.0913

> <b_lp_Chiralities_Consistent>
1

> <s_lp_Variant>
AV-unprocessed.smi:3331-5

> <Gold.Version>
5.8.1

> <Gold.Id.Protein>
6NUR|6NUR_protein|mol2

> <Gold.PLP.Fitness>
49.3978

> <Gold.PLP.PLP>
-43.5941

> <Gold.PLP.part.hbond>
-2.0000

> <Gold.PLP.part.metal>
0.0000

> <Gold.PLP.part.buried>
-5.3597

> <Gold.PLP.part.nonpolar>
-36.2779

> <Gold.PLP.part.repulsive>
0.1656

> <Gold.PLP.ligand.clash>
0.0000

> <Gold.PLP.ligand.torsion>
0.6773

> <Gold.PLP.Chemscore.Hbond>
1.4697

> <Gold.PLP.Chemscore.CHOScore>
0.9045

> <Gold.PLP.Chemscore.Metal>
0.0000

> <Gold.Chemscore.Hbonds>
donor molecule, donor type, donor heavy atom, donor atom, acceptor molecule, acceptor atom, score
      P1  H  6933  6944       L1    19  0.60
      P1  H  6934  6946       L1    19  0.86
      L1  C    16    42       P1  8029  0.90

> <Gold.PLP.Chemscore.Internal.Correction>
0.0357

> <Gold.Rescore>
     Score         DG    S(hbond)    S(metal)    S(lipo)     H(rot)  DE(clash)    DE(int)     intcor
     16.32     -16.93       0.94        0.00     108.90       1.73       0.06       0.56       ----

> <Gold.Chemscore.Fitness>
16.3171

> <Gold.Chemscore.DG>
-16.9294

> <Gold.Chemscore.ZeroCoef>
-5.4800

> <Gold.Chemscore.Hbond>
0.9356

> <Gold.Chemscore.Metal>
0.0000

> <Gold.Chemscore.Lipo>
108.9025

> <Gold.Chemscore.Internal_Hbond>
0.0000

> <Gold.Chemscore.DEClash>
0.0563

> <Gold.Chemscore.DEInternal>
0.5560

> <Gold.Chemscore.Rot>
1.7254

> <Gold.Chemscore.Internal.Correction>
   9.000000E+99

> <Gold.Chemscore.Hbonds>
donor molecule, donor type, donor heavy atom, donor atom, acceptor molecule, acceptor atom, score
      P1  H  6933  6944       L1    19  0.08
      P1  H  6934  6946       L1    19  0.31

> <Gold.Chemscore.Hbond.Weighted>
-3.1249

> <Gold.Chemscore.Metal.Weighted>
-0.0000

> <Gold.Chemscore.Lipo.Weighted>
-12.7416

> <Gold.Chemscore.Internal_Hbond.Weighted>
0.0000

> <Gold.Chemscore.DEClash.Weighted>
0.0563

> <Gold.Chemscore.DEInternal.Weighted>
0.5560

> <Gold.Chemscore.Rot.Weighted>
4.4170

> <Gold.Chemscore.Internal.Correction.Weighted>
   9.000000E+99

> <Gold.Protein.RotatedTorsions>
[ 6907 6896 6895 6894 ] final  140.87 input  -60.11 | X-H torsion
[ 7974 7965 7964 7962 ] final   87.76 input  175.53 | X-H torsion
[ 8008 7997 7996 7995 ] final  129.63 input   59.86 | X-H torsion
[ 10167 10162 10161 10158 ] final  -87.12 input  -65.29 | X-H torsion
[ 10718 10713 10712 10709 ] final  135.25 input   66.30 | X-H torsion
[ 10763 10752 10751 10750 ] final -140.64 input  -60.55 | X-H torsion
[ 11005 11000 10999 10996 ] final -122.04 input  -57.11 | X-H torsion

> <Gold.Protein.ActiveResidues>
 VAL166  LYS551  ARG553  GLY616  TRP617  ASP618  TYR619  PRO620  LYS621  CYS622 
 ASP623  PHE694  ASN695  SER759  ASP760  ASP761  ALA762  ILE779  LEU786  VAL792 
 PHE793  MET794  SER795  GLU796  ALA797  LYS798  CYS799  TRP800  GLU811  SER814 

> <Gold.Protein.RotatedAtoms>
  152.2378  133.5110  159.5252 H   0  0  0  0  0  0  0  0  0  0  0  0  # atno 6907 bound_to 6896
  150.7055  134.1130  159.4016 H   0  0  0  0  0  0  0  0  0  0  0  0  # atno 6908 bound_to 6896
  151.9051  135.0362  160.0560 H   0  0  0  0  0  0  0  0  0  0  0  0  # atno 6909 bound_to 6896
  145.5546  139.2298  143.2493 H   0  0  0  0  0  0  0  0  0  0  0  0  # atno 7974 bound_to 7965
  156.2940  140.2616  156.2630 H   0  0  0  0  0  0  0  0  0  0  0  0  # atno 8008 bound_to 7997
  154.9770  140.0390  157.2279 H   0  0  0  0  0  0  0  0  0  0  0  0  # atno 8009 bound_to 7997
  154.7806  140.2794  155.6071 H   0  0  0  0  0  0  0  0  0  0  0  0  # atno 8010 bound_to 7997
  140.3875  143.2720  151.9306 H   0  0  0  0  0  0  0  0  0  0  0  0  # atno 10167 bound_to 10162
  157.4590  131.1072  150.9943 H   0  0  0  0  0  0  0  0  0  0  0  0  # atno 10718 bound_to 10713
  154.8572  135.3547  154.5740 H   0  0  0  0  0  0  0  0  0  0  0  0  # atno 10763 bound_to 10752
  153.6353  135.7000  153.5265 H   0  0  0  0  0  0  0  0  0  0  0  0  # atno 10764 bound_to 10752
  153.3016  135.4205  155.1216 H   0  0  0  0  0  0  0  0  0  0  0  0  # atno 10765 bound_to 10752
  141.0025  134.0382  157.3519 H   0  0  0  0  0  0  0  0  0  0  0  0  # atno 11005 bound_to 11000
  146.1893  140.6370  142.9153 LP  0  0  0  0  0  0  0  0  0  0  0  0  # atno 17320 bound_to 7965
  144.7512  140.5196  143.6800 LP  0  0  0  0  0  0  0  0  0  0  0  0  # atno 17321 bound_to 7965
  139.4791  144.5759  151.8012 LP  0  0  0  0  0  0  0  0  0  0  0  0  # atno 17342 bound_to 10162
  140.4874  144.1361  150.5943 LP  0  0  0  0  0  0  0  0  0  0  0  0  # atno 17343 bound_to 10162
  157.0747  130.5878  149.5409 LP  0  0  0  0  0  0  0  0  0  0  0  0  # atno 17370 bound_to 10713
  156.0020  130.5101  150.7697 LP  0  0  0  0  0  0  0  0  0  0  0  0  # atno 17371 bound_to 10713
  139.9046  135.0176  156.7428 LP  0  0  0  0  0  0  0  0  0  0  0  0  # atno 17394 bound_to 11000
  140.6866  133.9427  155.7941 LP  0  0  0  0  0  0  0  0  0  0  0  0  # atno 17395 bound_to 11000

$$$$
