AV-unprocessed.smi:2554|AV-procd|sdf|10019|dock4
  -GOLD-   2272014 63D 1   1.00000     0.00000
 Structure written by MMmdl.
 21 21  0  0  0  0  0  0  0  0  2 V2000
  151.3615  145.6461  159.9332 C   0  0  0  0  0  0  0  0  0  0  0  0
  151.9785  144.4545  160.5870 C   0  0  0  0  0  0  0  0  0  0  0  0
  152.1276  144.3464  161.9596 N   0  0  0  0  0  0  0  0  0  0  0  0
  152.7067  143.1689  162.2063 C   0  0  0  0  0  0  0  0  0  0  0  0
  152.9597  142.4702  161.1066 N   0  0  0  0  0  0  0  0  0  0  0  0
  152.5009  143.2864  160.0690 C   0  0  0  0  0  0  0  0  0  0  0  0
  152.6047  142.8449  158.6400 C   0  0  0  0  0  0  0  0  0  0  0  0
  151.2397  142.8397  157.9389 C   0  0  0  0  0  0  0  0  0  0  0  0
  151.2660  143.6429  156.7053 N   0  3  0  0  0  0  0  0  0  0  0  0
  151.8503  145.0308  162.6490 H   0  0  0  0  0  0  0  0  0  0  0  0
  151.2584  145.5014  158.8580 H   0  0  0  0  0  0  0  0  0  0  0  0
  151.9724  146.5345  160.0953 H   0  0  0  0  0  0  0  0  0  0  0  0
  150.3688  145.8402  160.3402 H   0  0  0  0  0  0  0  0  0  0  0  0
  152.9441  142.8197  163.2005 H   0  0  0  0  0  0  0  0  0  0  0  0
  153.2941  143.4914  158.0962 H   0  0  0  0  0  0  0  0  0  0  0  0
  153.0389  141.8452  158.5965 H   0  0  0  0  0  0  0  0  0  0  0  0
  150.9472  141.8204  157.6844 H   0  0  0  0  0  0  0  0  0  0  0  0
  150.4718  143.2403  158.6015 H   0  0  0  0  0  0  0  0  0  0  0  0
  151.8380  144.4628  156.8497 H   0  0  0  0  0  0  0  0  0  0  0  0
  150.3259  143.9268  156.4690 H   0  0  0  0  0  0  0  0  0  0  0  0
  151.6514  143.0927  155.9512 H   0  0  0  0  0  0  0  0  0  0  0  0
  1  2  1  0  0  0  0
  1 11  1  0  0  0  0
  1 12  1  0  0  0  0
  1 13  1  0  0  0  0
  2  6  2  0  0  0  0
  2  3  1  0  0  0  0
  3 10  1  0  0  0  0
  3  4  1  0  0  0  0
  4  5  2  0  0  0  0
  4 14  1  0  0  0  0
  5  6  1  0  0  0  0
  6  7  1  0  0  0  0
  7  8  1  0  0  0  0
  7 15  1  0  0  0  0
  7 16  1  0  0  0  0
  8  9  1  0  0  0  0
  8 17  1  0  0  0  0
  8 18  1  0  0  0  0
  9 19  1  0  0  0  0
  9 20  1  0  0  0  0
  9 21  1  0  0  0  0
M  CHG  1   9   1
M  END
> <s_m_source_file>
AV-unprocessed.smi

> <i_m_source_file_index>
2554

> <i_lp_mmshare_version>
43012

> <i_f3d_flags>
0

> <s_epik_input>
W0NIM11jMVtuSF1bY0hdbmMxW0NIMl1bQ0gyXVtOSDJd

> <s_epik_cmdline>
J2VwaWtfcHl0aG9uJywgJy1waCcsICc3LjAnLCAnLXRuJywgJzgnLCAnLW1hJywgJzIwMCcsICctbWV0YWxfYmluZGluZycsICctaW1hZScsICc8aW5maWxlLm1hZT4nLCAnLW9tYWUnLCAnPG91dGZpbGUubWFlPic=

> <r_lp_tautomer_probability>
0.5

> <r_epik_Ionization_Penalty>
0.151655

> <r_epik_Ionization_Penalty_Charging>
0.151655

> <r_epik_Ionization_Penalty_Neutral>
1.31637e-07

> <r_epik_State_Penalty>
0.545826

> <r_epik_Charging_Adjusted_Penalty>
0.697481

> <i_epik_Tot_Q>
1

> <i_epik_Tot_abs_Q>
1

> <r_epik_Metal_State_Penalty>
0.436539

> <b_epik_Metal_Only>
0

> <s_lp_Force_Field>
OPLS_2005

> <r_lp_Energy>
1.06437

> <b_lp_Chiralities_Consistent>
1

> <s_lp_Variant>
AV-unprocessed.smi:2554-1

> <Gold.Version>
5.8.1

> <Gold.Id.Protein>
6NUR|6NUR_protein|mol2

> <Gold.PLP.Fitness>
32.6708

> <Gold.PLP.PLP>
-27.4307

> <Gold.PLP.part.hbond>
-2.3639

> <Gold.PLP.part.metal>
0.0000

> <Gold.PLP.part.buried>
-5.1803

> <Gold.PLP.part.nonpolar>
-19.6931

> <Gold.PLP.part.repulsive>
0.1078

> <Gold.PLP.ligand.clash>
0.0000

> <Gold.PLP.ligand.torsion>
0.3801

> <Gold.PLP.Chemscore.Hbond>
2.0000

> <Gold.PLP.Chemscore.CHOScore>
0.0000

> <Gold.PLP.Chemscore.Metal>
0.0000

> <Gold.Chemscore.Hbonds>
donor molecule, donor type, donor heavy atom, donor atom, acceptor molecule, acceptor atom, score
      L1  H     9    20       P1  8028  2.00

> <Gold.PLP.Chemscore.Internal.Correction>
0.0002

> <Gold.Rescore>
     Score         DG    S(hbond)    S(metal)    S(lipo)     H(rot)  DE(clash)    DE(int)     intcor
     11.63     -11.94       1.00        0.00      58.31       1.45       0.00       0.31       ----

> <Gold.Chemscore.Fitness>
11.6314

> <Gold.Chemscore.DG>
-11.9380

> <Gold.Chemscore.ZeroCoef>
-5.4800

> <Gold.Chemscore.Hbond>
0.9992

> <Gold.Chemscore.Metal>
0.0000

> <Gold.Chemscore.Lipo>
58.3052

> <Gold.Chemscore.Internal_Hbond>
0.0000

> <Gold.Chemscore.DEClash>
0.0009

> <Gold.Chemscore.DEInternal>
0.3056

> <Gold.Chemscore.Rot>
1.4458

> <Gold.Chemscore.Internal.Correction>
   9.000000E+99

> <Gold.Chemscore.Hbonds>
donor molecule, donor type, donor heavy atom, donor atom, acceptor molecule, acceptor atom, score
      L1  H     9    20       P1  8028  1.00

> <Gold.Chemscore.Hbond.Weighted>
-3.3374

> <Gold.Chemscore.Metal.Weighted>
-0.0000

> <Gold.Chemscore.Lipo.Weighted>
-6.8217

> <Gold.Chemscore.Internal_Hbond.Weighted>
0.0000

> <Gold.Chemscore.DEClash.Weighted>
0.0009

> <Gold.Chemscore.DEInternal.Weighted>
0.3056

> <Gold.Chemscore.Rot.Weighted>
3.7012

> <Gold.Chemscore.Internal.Correction.Weighted>
   9.000000E+99

> <Gold.Protein.RotatedTorsions>
[ 6907 6896 6895 6894 ] final   82.65 input  -60.11 | X-H torsion
[ 7974 7965 7964 7962 ] final    0.49 input  175.53 | X-H torsion
[ 8008 7997 7996 7995 ] final  143.94 input   59.86 | X-H torsion
[ 10167 10162 10161 10158 ] final -160.68 input  -65.29 | X-H torsion
[ 10718 10713 10712 10709 ] final  -19.40 input   66.30 | X-H torsion
[ 10763 10752 10751 10750 ] final   39.09 input  -60.55 | X-H torsion
[ 11005 11000 10999 10996 ] final   65.43 input  -57.11 | X-H torsion

> <Gold.Protein.ActiveResidues>
 VAL166  LYS551  ARG553  GLY616  TRP617  ASP618  TYR619  PRO620  LYS621  CYS622 
 ASP623  PHE694  ASN695  SER759  ASP760  ASP761  ALA762  ILE779  LEU786  VAL792 
 PHE793  MET794  SER795  GLU796  ALA797  LYS798  CYS799  TRP800  GLU811  SER814 

> <Gold.Protein.RotatedAtoms>
  152.5305  134.3017  159.9080 H   0  0  0  0  0  0  0  0  0  0  0  0  # atno 6907 bound_to 6896
  151.2967  133.4134  159.2644 H   0  0  0  0  0  0  0  0  0  0  0  0  # atno 6908 bound_to 6896
  151.0154  134.9445  159.8087 H   0  0  0  0  0  0  0  0  0  0  0  0  # atno 6909 bound_to 6896
  146.2434  140.1131  142.8343 H   0  0  0  0  0  0  0  0  0  0  0  0  # atno 7974 bound_to 7965
  156.2919  140.2249  156.4972 H   0  0  0  0  0  0  0  0  0  0  0  0  # atno 8008 bound_to 7997
  154.7720  140.0466  157.1080 H   0  0  0  0  0  0  0  0  0  0  0  0  # atno 8009 bound_to 7997
  154.9862  140.3084  155.4929 H   0  0  0  0  0  0  0  0  0  0  0  0  # atno 8010 bound_to 7997
  139.6521  144.0064  152.2169 H   0  0  0  0  0  0  0  0  0  0  0  0  # atno 10167 bound_to 10162
  156.5462  130.4690  149.6474 H   0  0  0  0  0  0  0  0  0  0  0  0  # atno 10718 bound_to 10713
  152.9979  135.6230  154.2410 H   0  0  0  0  0  0  0  0  0  0  0  0  # atno 10763 bound_to 10752
  154.2150  135.2798  155.2946 H   0  0  0  0  0  0  0  0  0  0  0  0  # atno 10764 bound_to 10752
  154.5575  135.5715  153.7036 H   0  0  0  0  0  0  0  0  0  0  0  0  # atno 10765 bound_to 10752
  139.9895  134.6614  156.0116 H   0  0  0  0  0  0  0  0  0  0  0  0  # atno 11005 bound_to 11000
  145.0470  140.8989  143.5018 LP  0  0  0  0  0  0  0  0  0  0  0  0  # atno 17320 bound_to 7965
  145.1221  139.2686  143.5583 LP  0  0  0  0  0  0  0  0  0  0  0  0  # atno 17321 bound_to 7965
  139.9781  144.6447  150.7926 LP  0  0  0  0  0  0  0  0  0  0  0  0  # atno 17342 bound_to 10162
  140.7542  143.3024  151.3048 LP  0  0  0  0  0  0  0  0  0  0  0  0  # atno 17343 bound_to 10162
  156.2926  130.7133  151.1985 LP  0  0  0  0  0  0  0  0  0  0  0  0  # atno 17370 bound_to 10713
  157.7396  131.0527  150.5220 LP  0  0  0  0  0  0  0  0  0  0  0  0  # atno 17371 bound_to 10713
  141.1553  133.6543  156.4143 LP  0  0  0  0  0  0  0  0  0  0  0  0  # atno 17394 bound_to 11000
  140.4936  134.6552  157.5221 LP  0  0  0  0  0  0  0  0  0  0  0  0  # atno 17395 bound_to 11000

$$$$
