AV-unprocessed.smi:1295|AV-procd|sdf|5402|dock1
  -GOLD-   22720 4563D 1   1.00000     0.00000
 Structure written by MMmdl.
 43 44  0  0  0  0  0  0  0  0  1 V2000
  151.8146  145.1958  158.5339 C   0  0  0  0  0  0  0  0  0  0  0  0
  151.9717  143.7142  158.8011 C   0  0  0  0  0  0  0  0  0  0  0  0
  152.7544  143.2243  159.7053 N   0  0  0  0  0  0  0  0  0  0  0  0
  152.8190  141.8324  159.8581 C   0  0  0  0  0  0  0  0  0  0  0  0
  153.7665  141.3341  160.9364 C   0  0  0  0  0  0  0  0  0  0  0  0
  152.0755  140.9917  159.0803 C   0  0  0  0  0  0  0  0  0  0  0  0
  152.1306  139.4716  159.2190 C   0  0  0  0  0  0  0  0  0  0  0  0
  152.5943  138.7133  157.9733 C   0  0  0  0  0  0  0  0  0  0  0  0
  153.7351  138.8741  157.5401 O   0  0  0  0  0  0  0  0  0  0  0  0
  151.6963  137.8869  157.4153 N   0  0  0  0  0  0  0  0  0  0  0  0
  151.9138  137.0331  156.2460 C   0  0  1  0  0  0  0  0  0  0  0  0
  151.6875  135.5571  156.6307 C   0  0  0  0  0  0  0  0  0  0  0  0
  150.2063  135.2504  156.9136 C   0  0  0  0  0  0  0  0  0  0  0  0
  149.3182  135.6554  155.7275 C   0  0  0  0  0  0  0  0  0  0  0  0
  149.5241  137.1315  155.3500 C   0  0  0  0  0  0  0  0  0  0  0  0
  151.0069  137.4414  155.0574 C   0  0  1  0  0  0  0  0  0  0  0  0
  151.2056  138.9035  154.6227 C   0  0  0  0  0  0  0  0  0  0  0  0
  151.1827  141.5623  158.0530 C   0  0  0  0  0  0  0  0  0  0  0  0
  150.4723  140.8994  157.2989 O   0  0  0  0  0  0  0  0  0  0  0  0
  151.1870  142.9118  157.9746 N   0  0  0  0  0  0  0  0  0  0  0  0
  150.5952  143.3503  157.2841 H   0  0  0  0  0  0  0  0  0  0  0  0
  152.7741  145.6297  158.2517 H   0  0  0  0  0  0  0  0  0  0  0  0
  151.4591  145.7029  159.4310 H   0  0  0  0  0  0  0  0  0  0  0  0
  151.1034  145.3872  157.7289 H   0  0  0  0  0  0  0  0  0  0  0  0
  153.2168  140.8047  161.7149 H   0  0  0  0  0  0  0  0  0  0  0  0
  154.2995  142.1609  161.4077 H   0  0  0  0  0  0  0  0  0  0  0  0
  154.5103  140.6579  160.5146 H   0  0  0  0  0  0  0  0  0  0  0  0
  152.7911  139.2275  160.0519 H   0  0  0  0  0  0  0  0  0  0  0  0
  151.1583  139.0756  159.5131 H   0  0  0  0  0  0  0  0  0  0  0  0
  150.7847  137.8310  157.8456 H   0  0  0  0  0  0  0  0  0  0  0  0
  152.9523  137.1240  155.9226 H   0  0  0  0  0  0  0  0  0  0  0  0
  152.0329  134.9193  155.8159 H   0  0  0  0  0  0  0  0  0  0  0  0
  152.2960  135.2952  157.4973 H   0  0  0  0  0  0  0  0  0  0  0  0
  150.0821  134.1878  157.1240 H   0  0  0  0  0  0  0  0  0  0  0  0
  149.8833  135.7799  157.8108 H   0  0  0  0  0  0  0  0  0  0  0  0
  149.5477  135.0245  154.8680 H   0  0  0  0  0  0  0  0  0  0  0  0
  148.2704  135.4767  155.9702 H   0  0  0  0  0  0  0  0  0  0  0  0
  148.9154  137.3694  154.4770 H   0  0  0  0  0  0  0  0  0  0  0  0
  149.1624  137.7690  156.1577 H   0  0  0  0  0  0  0  0  0  0  0  0
  151.3017  136.8233  154.2080 H   0  0  0  0  0  0  0  0  0  0  0  0
  150.8758  139.6030  155.3912 H   0  0  0  0  0  0  0  0  0  0  0  0
  150.6400  139.1212  153.7166 H   0  0  0  0  0  0  0  0  0  0  0  0
  152.2555  139.1099  154.4129 H   0  0  0  0  0  0  0  0  0  0  0  0
  1  2  1  0  0  0  0
  1 22  1  0  0  0  0
  1 23  1  0  0  0  0
  1 24  1  0  0  0  0
  2 20  1  0  0  0  0
  2  3  2  0  0  0  0
  3  4  1  0  0  0  0
  4  5  1  0  0  0  0
  4  6  2  0  0  0  0
  5 25  1  0  0  0  0
  5 26  1  0  0  0  0
  5 27  1  0  0  0  0
  6  7  1  0  0  0  0
  6 18  1  0  0  0  0
  7  8  1  0  0  0  0
  7 28  1  0  0  0  0
  7 29  1  0  0  0  0
  8  9  2  0  0  0  0
  8 10  1  0  0  0  0
 10 11  1  0  0  0  0
 10 30  1  0  0  0  0
 11 16  1  0  0  0  0
 11 12  1  0  0  0  0
 11 31  1  0  0  0  0
 12 13  1  0  0  0  0
 12 32  1  0  0  0  0
 12 33  1  0  0  0  0
 13 14  1  0  0  0  0
 13 34  1  0  0  0  0
 13 35  1  0  0  0  0
 14 15  1  0  0  0  0
 14 36  1  0  0  0  0
 14 37  1  0  0  0  0
 15 16  1  0  0  0  0
 15 38  1  0  0  0  0
 15 39  1  0  0  0  0
 16 17  1  0  0  0  0
 16 40  1  0  0  0  0
 17 41  1  0  0  0  0
 17 42  1  0  0  0  0
 17 43  1  0  0  0  0
 18 19  2  0  0  0  0
 18 20  1  0  0  0  0
 20 21  1  0  0  0  0
M  END
> <s_m_source_file>
AV-unprocessed.smi

> <i_m_source_file_index>
1295

> <i_lp_mmshare_version>
43012

> <i_f3d_flags>
0

> <s_epik_input>
W0NIM11jMW5jKFtDSDNdKWMoYyg9TylbbkhdMSlbQ0gyXUMoPU8pW05IXVtDQEBIXTJbQ0gyXVtDSDJdW0NIMl1bQ0gyXVtDQEhdMltDSDNd

> <s_epik_cmdline>
J2VwaWtfcHl0aG9uJywgJy1waCcsICc3LjAnLCAnLXRuJywgJzgnLCAnLW1hJywgJzIwMCcsICctbWV0YWxfYmluZGluZycsICctaW1hZScsICc8aW5maWxlLm1hZT4nLCAnLW9tYWUnLCAnPG91dGZpbGUubWFlPic=

> <r_lp_tautomer_probability>
0.839158

> <r_epik_Ionization_Penalty>
0.00037085

> <r_epik_Ionization_Penalty_Charging>
0.000336002

> <r_epik_Ionization_Penalty_Neutral>
3.48485e-05

> <r_epik_State_Penalty>
0.09125

> <r_epik_Charging_Adjusted_Penalty>
0.091586

> <i_epik_Tot_Q>
0

> <i_epik_Tot_abs_Q>
0

> <r_epik_Metal_State_Penalty>
0.251445

> <b_epik_Metal_Only>
0

> <s_lp_Force_Field>
OPLS_2005

> <r_lp_Energy>
11.7893

> <b_lp_Chiralities_Consistent>
1

> <s_lp_Variant>
AV-unprocessed.smi:1295-2

> <Gold.Version>
5.8.1

> <Gold.Id.Protein>
6NUR|6NUR_protein|mol2

> <Gold.PLP.Fitness>
36.9333

> <Gold.PLP.PLP>
-33.9675

> <Gold.PLP.part.hbond>
-0.9511

> <Gold.PLP.part.metal>
0.0000

> <Gold.PLP.part.buried>
-4.3425

> <Gold.PLP.part.nonpolar>
-28.1773

> <Gold.PLP.part.repulsive>
0.1195

> <Gold.PLP.ligand.clash>
0.0000

> <Gold.PLP.ligand.torsion>
0.0227

> <Gold.PLP.Chemscore.Hbond>
1.0000

> <Gold.PLP.Chemscore.CHOScore>
0.0000

> <Gold.PLP.Chemscore.Metal>
0.0000

> <Gold.Chemscore.Hbonds>
donor molecule, donor type, donor heavy atom, donor atom, acceptor molecule, acceptor atom, score
      P1  H  7997  8010       L1     9  1.00

> <Gold.PLP.Chemscore.Internal.Correction>
0.0112

> <Gold.Rescore>
     Score         DG    S(hbond)    S(metal)    S(lipo)     H(rot)  DE(clash)    DE(int)     intcor
     14.36     -14.39       0.99        0.00      80.23       1.48       0.02       0.01       ----

> <Gold.Chemscore.Fitness>
14.3599

> <Gold.Chemscore.DG>
-14.3893

> <Gold.Chemscore.ZeroCoef>
-5.4800

> <Gold.Chemscore.Hbond>
0.9913

> <Gold.Chemscore.Metal>
0.0000

> <Gold.Chemscore.Lipo>
80.2347

> <Gold.Chemscore.Internal_Hbond>
0.0000

> <Gold.Chemscore.DEClash>
0.0215

> <Gold.Chemscore.DEInternal>
0.0079

> <Gold.Chemscore.Rot>
1.4801

> <Gold.Chemscore.Internal.Correction>
   9.000000E+99

> <Gold.Chemscore.Hbonds>
donor molecule, donor type, donor heavy atom, donor atom, acceptor molecule, acceptor atom, score
      P1  H  7997  8010       L1     9  0.92

> <Gold.Chemscore.Hbond.Weighted>
-3.3110

> <Gold.Chemscore.Metal.Weighted>
-0.0000

> <Gold.Chemscore.Lipo.Weighted>
-9.3875

> <Gold.Chemscore.Internal_Hbond.Weighted>
0.0000

> <Gold.Chemscore.DEClash.Weighted>
0.0215

> <Gold.Chemscore.DEInternal.Weighted>
0.0079

> <Gold.Chemscore.Rot.Weighted>
3.7891

> <Gold.Chemscore.Internal.Correction.Weighted>
   9.000000E+99

> <Gold.Protein.RotatedTorsions>
[ 6907 6896 6895 6894 ] final   18.28 input  -60.11 | X-H torsion
[ 7974 7965 7964 7962 ] final  -17.58 input  175.53 | X-H torsion
[ 8008 7997 7996 7995 ] final   45.19 input   59.86 | X-H torsion
[ 10167 10162 10161 10158 ] final -109.69 input  -65.29 | X-H torsion
[ 10718 10713 10712 10709 ] final   44.81 input   66.30 | X-H torsion
[ 10763 10752 10751 10750 ] final -148.02 input  -60.55 | X-H torsion
[ 11005 11000 10999 10996 ] final  139.18 input  -57.11 | X-H torsion

> <Gold.Protein.ActiveResidues>
 VAL166  LYS551  ARG553  GLY616  TRP617  ASP618  TYR619  PRO620  LYS621  CYS622 
 ASP623  PHE694  ASN695  SER759  ASP760  ASP761  ALA762  ILE779  LEU786  VAL792 
 PHE793  MET794  SER795  GLU796  ALA797  LYS798  CYS799  TRP800  GLU811  SER814 

> <Gold.Protein.RotatedAtoms>
  151.8629  135.0517  160.0470 H   0  0  0  0  0  0  0  0  0  0  0  0  # atno 6907 bound_to 6896
  152.2649  133.5325  159.5412 H   0  0  0  0  0  0  0  0  0  0  0  0  # atno 6908 bound_to 6896
  150.7130  134.0695  159.3901 H   0  0  0  0  0  0  0  0  0  0  0  0  # atno 6909 bound_to 6896
  146.1934  140.3799  142.8449 H   0  0  0  0  0  0  0  0  0  0  0  0  # atno 7974 bound_to 7965
  155.3318  140.3403  155.4239 H   0  0  0  0  0  0  0  0  0  0  0  0  # atno 8008 bound_to 7997
  156.1857  140.1680  156.8225 H   0  0  0  0  0  0  0  0  0  0  0  0  # atno 8009 bound_to 7997
  154.5384  140.0730  156.8451 H   0  0  0  0  0  0  0  0  0  0  0  0  # atno 8010 bound_to 7997
  140.1526  143.4186  152.1484 H   0  0  0  0  0  0  0  0  0  0  0  0  # atno 10167 bound_to 10162
  157.4308  130.8024  149.7601 H   0  0  0  0  0  0  0  0  0  0  0  0  # atno 10718 bound_to 10713
  154.8255  135.3345  154.6908 H   0  0  0  0  0  0  0  0  0  0  0  0  # atno 10763 bound_to 10752
  153.7535  135.6937  153.4945 H   0  0  0  0  0  0  0  0  0  0  0  0  # atno 10764 bound_to 10752
  153.2160  135.4465  155.0385 H   0  0  0  0  0  0  0  0  0  0  0  0  # atno 10765 bound_to 10752
  140.0236  134.9385  157.0524 H   0  0  0  0  0  0  0  0  0  0  0  0  # atno 11005 bound_to 11000
  144.8532  140.7031  143.6155 LP  0  0  0  0  0  0  0  0  0  0  0  0  # atno 17320 bound_to 7965
  145.3720  139.1656  143.4326 LP  0  0  0  0  0  0  0  0  0  0  0  0  # atno 17321 bound_to 7965
  139.5418  144.7264  151.4708 LP  0  0  0  0  0  0  0  0  0  0  0  0  # atno 17342 bound_to 10162
  140.6693  143.8329  150.6979 LP  0  0  0  0  0  0  0  0  0  0  0  0  # atno 17343 bound_to 10162
  155.9912  130.3939  150.2992 LP  0  0  0  0  0  0  0  0  0  0  0  0  # atno 17370 bound_to 10713
  157.1149  131.0231  151.3033 LP  0  0  0  0  0  0  0  0  0  0  0  0  # atno 17371 bound_to 10713
  140.4345  134.1746  155.7170 LP  0  0  0  0  0  0  0  0  0  0  0  0  # atno 17394 bound_to 11000
  141.1789  133.8456  157.1327 LP  0  0  0  0  0  0  0  0  0  0  0  0  # atno 17395 bound_to 11000

$$$$
