AV-unprocessed.smi:1187|AV-procd|sdf|4976|dock1
  -GOLD-   22720 3573D 1   1.00000     0.00000
 Structure written by MMmdl.
 38 39  0  0  0  0  0  0  0  0  1 V2000
  146.8857  128.7664  152.8061 C   0  0  0  0  0  0  0  0  0  0  0  0
  147.9464  129.1240  153.6856 O   0  0  0  0  0  0  0  0  0  0  0  0
  148.2823  130.4576  153.7981 C   0  0  0  0  0  0  0  0  0  0  0  0
  149.3640  130.8138  154.6280 C   0  0  0  0  0  0  0  0  0  0  0  0
  149.7112  132.1730  154.7506 C   0  0  0  0  0  0  0  0  0  0  0  0
  148.9561  133.1376  154.0416 C   0  0  0  0  0  0  0  0  0  0  0  0
  149.2126  134.5350  154.0682 N   0  0  0  0  0  0  0  0  0  0  0  0
  149.7528  135.2703  155.0550 C   0  0  0  0  0  0  0  0  0  0  0  0
  150.1331  134.8372  156.1426 O   0  0  0  0  0  0  0  0  0  0  0  0
  149.8144  136.5660  154.7138 N   0  0  0  0  0  0  0  0  0  0  0  0
  150.3479  137.6350  155.5560 C   0  0  0  0  0  0  0  0  0  0  0  0
  150.3464  139.0138  154.8701 C   0  0  0  0  0  0  0  0  0  0  0  0
  151.4106  139.6019  154.6680 O   0  0  0  0  0  0  0  0  0  0  0  0
  149.1599  139.5339  154.4935 N   0  0  0  0  0  0  0  0  0  0  0  0
  148.9634  140.8267  153.8385 C   0  0  0  0  0  0  0  0  0  0  0  0
  147.4546  141.0742  153.8571 C   0  0  0  0  0  0  0  0  0  0  0  0
  146.8484  139.6796  153.9250 C   0  0  0  0  0  0  0  0  0  0  0  0
  147.8790  138.8620  154.7043 C   0  0  0  0  0  0  0  0  0  0  0  0
  147.9029  132.6760  153.2255 C   0  0  0  0  0  0  0  0  0  0  0  0
  147.5645  131.3753  153.1045 N   0  0  0  0  0  0  0  0  0  0  0  0
  146.7459  127.6857  152.8294 H   0  0  0  0  0  0  0  0  0  0  0  0
  147.1077  129.0486  151.7760 H   0  0  0  0  0  0  0  0  0  0  0  0
  145.9448  129.2281  153.1093 H   0  0  0  0  0  0  0  0  0  0  0  0
  149.9203  130.0562  155.1601 H   0  0  0  0  0  0  0  0  0  0  0  0
  150.5515  132.4426  155.3712 H   0  0  0  0  0  0  0  0  0  0  0  0
  148.8855  135.0482  153.2628 H   0  0  0  0  0  0  0  0  0  0  0  0
  149.4807  136.8337  153.7998 H   0  0  0  0  0  0  0  0  0  0  0  0
  149.7332  137.6911  156.4545 H   0  0  0  0  0  0  0  0  0  0  0  0
  151.3577  137.3775  155.8795 H   0  0  0  0  0  0  0  0  0  0  0  0
  149.4972  141.6336  154.3422 H   0  0  0  0  0  0  0  0  0  0  0  0
  149.3261  140.7647  152.8114 H   0  0  0  0  0  0  0  0  0  0  0  0
  147.1876  141.6309  154.7564 H   0  0  0  0  0  0  0  0  0  0  0  0
  147.1084  141.6456  152.9953 H   0  0  0  0  0  0  0  0  0  0  0  0
  145.8618  139.6692  154.3891 H   0  0  0  0  0  0  0  0  0  0  0  0
  146.7484  139.2758  152.9167 H   0  0  0  0  0  0  0  0  0  0  0  0
  147.8983  137.8239  154.3682 H   0  0  0  0  0  0  0  0  0  0  0  0
  147.6463  138.8698  155.7703 H   0  0  0  0  0  0  0  0  0  0  0  0
  147.3063  133.3723  152.6539 H   0  0  0  0  0  0  0  0  0  0  0  0
  1  2  1  0  0  0  0
  1 21  1  0  0  0  0
  1 22  1  0  0  0  0
  1 23  1  0  0  0  0
  2  3  1  0  0  0  0
  3 20  1  0  0  0  0
  3  4  2  0  0  0  0
  4  5  1  0  0  0  0
  4 24  1  0  0  0  0
  5  6  2  0  0  0  0
  5 25  1  0  0  0  0
  6  7  1  0  0  0  0
  6 19  1  0  0  0  0
  7  8  1  0  0  0  0
  7 26  1  0  0  0  0
  8  9  2  0  0  0  0
  8 10  1  0  0  0  0
 10 11  1  0  0  0  0
 10 27  1  0  0  0  0
 11 12  1  0  0  0  0
 11 28  1  0  0  0  0
 11 29  1  0  0  0  0
 12 13  2  0  0  0  0
 12 14  1  0  0  0  0
 14 18  1  0  0  0  0
 14 15  1  0  0  0  0
 15 16  1  0  0  0  0
 15 30  1  0  0  0  0
 15 31  1  0  0  0  0
 16 17  1  0  0  0  0
 16 32  1  0  0  0  0
 16 33  1  0  0  0  0
 17 18  1  0  0  0  0
 17 34  1  0  0  0  0
 17 35  1  0  0  0  0
 18 36  1  0  0  0  0
 18 37  1  0  0  0  0
 19 20  2  0  0  0  0
 19 38  1  0  0  0  0
M  END
> <s_m_source_file>
AV-unprocessed.smi

> <i_m_source_file_index>
1187

> <i_lp_mmshare_version>
43012

> <i_f3d_flags>
0

> <s_epik_input>
W0NIM11PYzFbY0hdW2NIXWMoW2NIXW4xKVtOSF1DKD1PKVtOSF1bQ0gyXUMoPU8pTjJbQ0gyXVtDSDJdW0NIMl1bQ0gyXTI=

> <s_epik_cmdline>
J2VwaWtfcHl0aG9uJywgJy1waCcsICc3LjAnLCAnLXRuJywgJzgnLCAnLW1hJywgJzIwMCcsICctbWV0YWxfYmluZGluZycsICctaW1hZScsICc8aW5maWxlLm1hZT4nLCAnLW9tYWUnLCAnPG91dGZpbGUubWFlPic=

> <r_lp_tautomer_probability>
1

> <r_epik_Ionization_Penalty>
0.000141675

> <r_epik_Ionization_Penalty_Charging>
0

> <r_epik_Ionization_Penalty_Neutral>
0.000141675

> <r_epik_State_Penalty>
-0

> <r_epik_Charging_Adjusted_Penalty>
0

> <i_epik_Tot_Q>
0

> <i_epik_Tot_abs_Q>
0

> <r_epik_Metal_State_Penalty>
-0

> <b_epik_Metal_Only>
0

> <s_lp_Force_Field>
OPLS_2005

> <r_lp_Energy>
27.0256

> <b_lp_Chiralities_Consistent>
1

> <s_lp_Variant>
AV-unprocessed.smi:1187-1

> <Gold.Version>
5.8.1

> <Gold.Id.Protein>
6NUR|6NUR_protein|mol2

> <Gold.PLP.Fitness>
39.8682

> <Gold.PLP.PLP>
-31.4184

> <Gold.PLP.part.hbond>
-3.0000

> <Gold.PLP.part.metal>
0.0000

> <Gold.PLP.part.buried>
-2.1616

> <Gold.PLP.part.nonpolar>
-27.5247

> <Gold.PLP.part.repulsive>
1.1792

> <Gold.PLP.ligand.clash>
0.0000

> <Gold.PLP.ligand.torsion>
0.1824

> <Gold.PLP.Chemscore.Hbond>
2.9357

> <Gold.PLP.Chemscore.CHOScore>
0.0000

> <Gold.PLP.Chemscore.Metal>
0.0000

> <Gold.Chemscore.Hbonds>
donor molecule, donor type, donor heavy atom, donor atom, acceptor molecule, acceptor atom, score
      L1  H     7    26       P1  7948  1.00
      L1  H    10    27       P1  7948  0.84
      P1  H  7989  7998       L1    13  1.00

> <Gold.PLP.Chemscore.Internal.Correction>
0.0074

> <Gold.Rescore>
     Score         DG    S(hbond)    S(metal)    S(lipo)     H(rot)  DE(clash)    DE(int)     intcor
     14.83     -15.90       2.47        0.00      53.01       1.58       0.14       0.92       ----

> <Gold.Chemscore.Fitness>
14.8305

> <Gold.Chemscore.DG>
-15.8953

> <Gold.Chemscore.ZeroCoef>
-5.4800

> <Gold.Chemscore.Hbond>
2.4726

> <Gold.Chemscore.Metal>
0.0000

> <Gold.Chemscore.Lipo>
53.0134

> <Gold.Chemscore.Internal_Hbond>
0.0000

> <Gold.Chemscore.DEClash>
0.1416

> <Gold.Chemscore.DEInternal>
0.9231

> <Gold.Chemscore.Rot>
1.5804

> <Gold.Chemscore.Internal.Correction>
   9.000000E+99

> <Gold.Chemscore.Hbonds>
donor molecule, donor type, donor heavy atom, donor atom, acceptor molecule, acceptor atom, score
      L1  H     7    26       P1  7948  0.39
      L1  H    10    27       P1  7948  0.70
      P1  H  7989  7998       L1    13  1.00

> <Gold.Chemscore.Hbond.Weighted>
-8.2586

> <Gold.Chemscore.Metal.Weighted>
-0.0000

> <Gold.Chemscore.Lipo.Weighted>
-6.2026

> <Gold.Chemscore.Internal_Hbond.Weighted>
0.0000

> <Gold.Chemscore.DEClash.Weighted>
0.1416

> <Gold.Chemscore.DEInternal.Weighted>
0.9231

> <Gold.Chemscore.Rot.Weighted>
4.0459

> <Gold.Chemscore.Internal.Correction.Weighted>
   9.000000E+99

> <Gold.Protein.RotatedTorsions>
[ 6907 6896 6895 6894 ] final  171.16 input  -60.11 | X-H torsion
[ 7974 7965 7964 7962 ] final    6.31 input  175.53 | X-H torsion
[ 8008 7997 7996 7995 ] final   37.00 input   59.86 | X-H torsion
[ 10167 10162 10161 10158 ] final   30.16 input  -65.29 | X-H torsion
[ 10718 10713 10712 10709 ] final  123.63 input   66.30 | X-H torsion
[ 10763 10752 10751 10750 ] final   -5.10 input  -60.55 | X-H torsion
[ 11005 11000 10999 10996 ] final -143.30 input  -57.11 | X-H torsion

> <Gold.Protein.ActiveResidues>
 VAL166  LYS551  ARG553  GLY616  TRP617  ASP618  TYR619  PRO620  LYS621  CYS622 
 ASP623  PHE694  ASN695  SER759  ASP760  ASP761  ALA762  ILE779  LEU786  VAL792 
 PHE793  MET794  SER795  GLU796  ALA797  LYS798  CYS799  TRP800  GLU811  SER814 

> <Gold.Protein.RotatedAtoms>
  151.8047  133.3374  159.3537 H   0  0  0  0  0  0  0  0  0  0  0  0  # atno 6907 bound_to 6896
  150.7346  134.5720  159.5905 H   0  0  0  0  0  0  0  0  0  0  0  0  # atno 6908 bound_to 6896
  152.3118  134.7489  160.0386 H   0  0  0  0  0  0  0  0  0  0  0  0  # atno 6909 bound_to 6896
  146.2435  140.0253  142.8394 H   0  0  0  0  0  0  0  0  0  0  0  0  # atno 7974 bound_to 7965
  155.1966  140.3312  155.4350 H   0  0  0  0  0  0  0  0  0  0  0  0  # atno 8008 bound_to 7997
  156.2422  140.1901  156.7005 H   0  0  0  0  0  0  0  0  0  0  0  0  # atno 8009 bound_to 7997
  154.6170  140.0601  156.9552 H   0  0  0  0  0  0  0  0  0  0  0  0  # atno 8010 bound_to 7997
  140.4702  144.0774  150.6235 H   0  0  0  0  0  0  0  0  0  0  0  0  # atno 10167 bound_to 10162
  157.5649  131.1087  150.8472 H   0  0  0  0  0  0  0  0  0  0  0  0  # atno 10718 bound_to 10713
  153.3939  135.7003  153.6475 H   0  0  0  0  0  0  0  0  0  0  0  0  # atno 10763 bound_to 10752
  153.5036  135.3647  155.2552 H   0  0  0  0  0  0  0  0  0  0  0  0  # atno 10764 bound_to 10752
  154.8705  135.4118  154.3261 H   0  0  0  0  0  0  0  0  0  0  0  0  # atno 10765 bound_to 10752
  140.8139  134.2712  157.4929 H   0  0  0  0  0  0  0  0  0  0  0  0  # atno 11005 bound_to 11000
  145.1204  140.9459  143.4603 LP  0  0  0  0  0  0  0  0  0  0  0  0  # atno 17320 bound_to 7965
  145.0487  139.3200  143.5940 LP  0  0  0  0  0  0  0  0  0  0  0  0  # atno 17321 bound_to 7965
  140.3986  143.2715  151.9975 LP  0  0  0  0  0  0  0  0  0  0  0  0  # atno 17342 bound_to 10162
  139.4817  144.6017  151.7594 LP  0  0  0  0  0  0  0  0  0  0  0  0  # atno 17343 bound_to 10162
  156.8960  130.5229  149.5284 LP  0  0  0  0  0  0  0  0  0  0  0  0  # atno 17370 bound_to 10713
  156.0698  130.5733  150.9361 LP  0  0  0  0  0  0  0  0  0  0  0  0  # atno 17371 bound_to 10713
  139.8712  134.9498  156.4036 LP  0  0  0  0  0  0  0  0  0  0  0  0  # atno 17394 bound_to 11000
  140.9170  133.7672  155.9860 LP  0  0  0  0  0  0  0  0  0  0  0  0  # atno 17395 bound_to 11000

$$$$
