AV-unprocessed.smi:767|AV-procd|sdf|3665|dock1
  -GOLD-   22720 1 73D 1   1.00000     0.00000
 Structure written by MMmdl.
 48 50  0  0  0  0  0  0  0  0  2 V2000
  151.4797  143.5588  158.4784 C   0  0  0  0  0  0  0  0  0  0  0  0
  151.2694  142.4388  157.4813 C   0  0  0  0  0  0  0  0  0  0  0  0
  151.8740  141.1723  157.6314 C   0  0  0  0  0  0  0  0  0  0  0  0
  151.6277  140.1735  156.6668 C   0  0  0  0  0  0  0  0  0  0  0  0
  150.7797  140.4588  155.5739 C   0  0  0  0  0  0  0  0  0  0  0  0
  150.4780  139.3958  154.5313 C   0  0  0  0  0  0  0  0  0  0  0  0
  151.1184  138.0263  154.8400 C   0  0  0  0  0  0  0  0  0  0  0  0
  150.2925  136.8940  154.4284 N   0  0  0  0  0  0  0  0  0  0  0  0
  150.0583  135.8003  155.1665 C   0  0  0  0  0  0  0  0  0  0  0  0
  150.5152  135.6189  156.2948 O   0  0  0  0  0  0  0  0  0  0  0  0
  149.2521  134.9374  154.5351 N   0  0  0  0  0  0  0  0  0  0  0  0
  148.7889  133.6784  155.1060 C   0  0  2  0  0  0  0  0  0  0  0  0
  149.7561  132.5239  154.8424 C   0  0  1  0  0  0  0  0  0  0  0  0
  150.6259  131.6722  155.6966 C   0  0  0  0  0  0  0  0  0  0  0  0
  150.2442  130.2976  155.0842 C   0  0  0  0  0  0  0  0  0  0  0  0
  149.0943  130.5445  154.2381 O   0  0  0  0  0  0  0  0  0  0  0  0
  148.4926  131.6858  154.8136 C   0  0  2  0  0  0  0  0  0  0  0  0
  147.7818  132.8979  154.1793 C   0  0  0  0  0  0  0  0  0  0  0  0
  146.3047  133.0505  154.5434 C   0  0  0  0  0  0  0  0  0  0  0  0
  147.8688  133.0561  152.6477 C   0  0  0  0  0  0  0  0  0  0  0  0
  150.2077  141.7450  155.4728 C   0  0  0  0  0  0  0  0  0  0  0  0
  150.4690  142.6751  156.4174 N   0  3  0  0  0  0  0  0  0  0  0  0
  152.2041  143.2737  159.2421 H   0  0  0  0  0  0  0  0  0  0  0  0
  150.5407  143.8053  158.9749 H   0  0  0  0  0  0  0  0  0  0  0  0
  151.8497  144.4529  157.9760 H   0  0  0  0  0  0  0  0  0  0  0  0
  152.5156  140.9636  158.4753 H   0  0  0  0  0  0  0  0  0  0  0  0
  152.0780  139.1969  156.7726 H   0  0  0  0  0  0  0  0  0  0  0  0
  149.3968  139.2832  154.4454 H   0  0  0  0  0  0  0  0  0  0  0  0
  150.8177  139.7483  153.5566 H   0  0  0  0  0  0  0  0  0  0  0  0
  152.0642  137.9426  154.3043 H   0  0  0  0  0  0  0  0  0  0  0  0
  151.3597  137.9496  155.9013 H   0  0  0  0  0  0  0  0  0  0  0  0
  149.8723  136.9467  153.5119 H   0  0  0  0  0  0  0  0  0  0  0  0
  148.9277  135.1681  153.6073 H   0  0  0  0  0  0  0  0  0  0  0  0
  148.4778  133.7472  156.1529 H   0  0  0  0  0  0  0  0  0  0  0  0
  150.2198  132.6333  153.8590 H   0  0  0  0  0  0  0  0  0  0  0  0
  151.6861  131.9012  155.5852 H   0  0  0  0  0  0  0  0  0  0  0  0
  150.3545  131.7397  156.7511 H   0  0  0  0  0  0  0  0  0  0  0  0
  151.0535  129.8796  154.4848 H   0  0  0  0  0  0  0  0  0  0  0  0
  149.9956  129.5793  155.8664 H   0  0  0  0  0  0  0  0  0  0  0  0
  148.0933  131.4517  155.8074 H   0  0  0  0  0  0  0  0  0  0  0  0
  145.6945  132.2805  154.0706 H   0  0  0  0  0  0  0  0  0  0  0  0
  145.9130  134.0200  154.2343 H   0  0  0  0  0  0  0  0  0  0  0  0
  146.1473  132.9713  155.6195 H   0  0  0  0  0  0  0  0  0  0  0  0
  147.3344  132.2520  152.1406 H   0  0  0  0  0  0  0  0  0  0  0  0
  148.8862  133.0477  152.2609 H   0  0  0  0  0  0  0  0  0  0  0  0
  147.4220  133.9946  152.3219 H   0  0  0  0  0  0  0  0  0  0  0  0
  149.5485  142.0537  154.6744 H   0  0  0  0  0  0  0  0  0  0  0  0
  150.0411  143.5969  156.3251 H   0  0  0  0  0  0  0  0  0  0  0  0
  1  2  1  0  0  0  0
  1 23  1  0  0  0  0
  1 24  1  0  0  0  0
  1 25  1  0  0  0  0
  2 22  1  0  0  0  0
  2  3  2  0  0  0  0
  3  4  1  0  0  0  0
  3 26  1  0  0  0  0
  4  5  2  0  0  0  0
  4 27  1  0  0  0  0
  5  6  1  0  0  0  0
  5 21  1  0  0  0  0
  6  7  1  0  0  0  0
  6 28  1  0  0  0  0
  6 29  1  0  0  0  0
  7  8  1  0  0  0  0
  7 30  1  0  0  0  0
  7 31  1  0  0  0  0
  8  9  1  0  0  0  0
  8 32  1  0  0  0  0
  9 10  2  0  0  0  0
  9 11  1  0  0  0  0
 11 12  1  0  0  0  0
 11 33  1  0  0  0  0
 12 18  1  0  0  0  0
 12 13  1  0  0  0  0
 12 34  1  0  0  0  0
 13 17  1  0  0  0  0
 13 14  1  0  0  0  0
 13 35  1  0  0  0  0
 14 15  1  0  0  0  0
 14 36  1  0  0  0  0
 14 37  1  0  0  0  0
 15 16  1  0  0  0  0
 15 38  1  0  0  0  0
 15 39  1  0  0  0  0
 16 17  1  0  0  0  0
 17 18  1  0  0  0  0
 17 40  1  0  0  0  0
 18 19  1  0  0  0  0
 18 20  1  0  0  0  0
 19 41  1  0  0  0  0
 19 42  1  0  0  0  0
 19 43  1  0  0  0  0
 20 44  1  0  0  0  0
 20 45  1  0  0  0  0
 20 46  1  0  0  0  0
 21 22  2  0  0  0  0
 21 47  1  0  0  0  0
 22 48  1  0  0  0  0
M  CHG  1  22   1
M  END
> <s_m_source_file>
AV-unprocessed.smi

> <i_m_source_file_index>
767

> <i_lp_mmshare_version>
43012

> <i_f3d_flags>
0

> <s_epik_input>
W0NIM11jMVtjSF1bY0hdYyhbY0hdbjEpW0NIMl1bQ0gyXVtOSF1DKD1PKVtOSF1bQ0BIXTJDKFtDSDNdKShbQ0gzXSlbQ0BIXShbQ0BASF0yMylPW0NIMl1bQ0gyXTM=

> <s_epik_cmdline>
J2VwaWtfcHl0aG9uJywgJy1waCcsICc3LjAnLCAnLXRuJywgJzgnLCAnLW1hJywgJzIwMCcsICctbWV0YWxfYmluZGluZycsICctaW1hZScsICc8aW5maWxlLm1hZT4nLCAnLW9tYWUnLCAnPG91dGZpbGUubWFlPic=

> <r_epik_Ionization_Penalty>
1.41853

> <r_epik_Ionization_Penalty_Charging>
1.41848

> <r_epik_Ionization_Penalty_Neutral>
5.17407e-05

> <r_epik_State_Penalty>
1.50205

> <r_epik_Charging_Adjusted_Penalty>
2.92053

> <i_epik_Tot_Q>
1

> <i_epik_Tot_abs_Q>
1

> <r_epik_Metal_State_Penalty>
1.5544

> <b_epik_Metal_Only>
0

> <s_lp_Force_Field>
OPLS_2005

> <r_lp_Energy>
63.3353

> <b_lp_Chiralities_Consistent>
1

> <s_lp_Variant>
AV-unprocessed.smi:767-9

> <Gold.Version>
5.8.1

> <Gold.Id.Protein>
6NUR|6NUR_protein|mol2

> <Gold.PLP.Fitness>
52.4628

> <Gold.PLP.PLP>
-41.2237

> <Gold.PLP.part.hbond>
-3.6450

> <Gold.PLP.part.metal>
0.0000

> <Gold.PLP.part.buried>
-4.8362

> <Gold.PLP.part.nonpolar>
-32.7016

> <Gold.PLP.part.repulsive>
0.2697

> <Gold.PLP.ligand.clash>
0.0000

> <Gold.PLP.ligand.torsion>
0.5343

> <Gold.PLP.Chemscore.Hbond>
4.0000

> <Gold.PLP.Chemscore.CHOScore>
0.0000

> <Gold.PLP.Chemscore.Metal>
0.0000

> <Gold.Chemscore.Hbonds>
donor molecule, donor type, donor heavy atom, donor atom, acceptor molecule, acceptor atom, score
      L1  H     8    32       P1  7948  1.00
      L1  H    11    33       P1  7948  1.00
      L1  H    22    48       P1  8028  2.00

> <Gold.PLP.Chemscore.Internal.Correction>
0.3076

> <Gold.Rescore>
     Score         DG    S(hbond)    S(metal)    S(lipo)     H(rot)  DE(clash)    DE(int)     intcor
     20.96     -21.53       2.43        0.00     101.25       1.52       0.04       0.53       ----

> <Gold.Chemscore.Fitness>
20.9621

> <Gold.Chemscore.DG>
-21.5266

> <Gold.Chemscore.ZeroCoef>
-5.4800

> <Gold.Chemscore.Hbond>
2.4251

> <Gold.Chemscore.Metal>
0.0000

> <Gold.Chemscore.Lipo>
101.2493

> <Gold.Chemscore.Internal_Hbond>
0.0000

> <Gold.Chemscore.DEClash>
0.0377

> <Gold.Chemscore.DEInternal>
0.5268

> <Gold.Chemscore.Rot>
1.5233

> <Gold.Chemscore.Internal.Correction>
   9.000000E+99

> <Gold.Chemscore.Hbonds>
donor molecule, donor type, donor heavy atom, donor atom, acceptor molecule, acceptor atom, score
      L1  H     8    32       P1  7948  0.38
      L1  H    11    33       P1  7948  0.56
      L1  H    22    48       P1  8028  0.98

> <Gold.Chemscore.Hbond.Weighted>
-8.1000

> <Gold.Chemscore.Metal.Weighted>
-0.0000

> <Gold.Chemscore.Lipo.Weighted>
-11.8462

> <Gold.Chemscore.Internal_Hbond.Weighted>
0.0000

> <Gold.Chemscore.DEClash.Weighted>
0.0377

> <Gold.Chemscore.DEInternal.Weighted>
0.5268

> <Gold.Chemscore.Rot.Weighted>
3.8995

> <Gold.Chemscore.Internal.Correction.Weighted>
   9.000000E+99

> <Gold.Protein.RotatedTorsions>
[ 6907 6896 6895 6894 ] final   94.43 input  -60.11 | X-H torsion
[ 7974 7965 7964 7962 ] final -104.00 input  175.53 | X-H torsion
[ 8008 7997 7996 7995 ] final  -75.05 input   59.86 | X-H torsion
[ 10167 10162 10161 10158 ] final -152.22 input  -65.29 | X-H torsion
[ 10718 10713 10712 10709 ] final -109.98 input   66.30 | X-H torsion
[ 10763 10752 10751 10750 ] final  -81.13 input  -60.55 | X-H torsion
[ 11005 11000 10999 10996 ] final  -27.39 input  -57.11 | X-H torsion

> <Gold.Protein.ActiveResidues>
 VAL166  LYS551  ARG553  GLY616  TRP617  ASP618  TYR619  PRO620  LYS621  CYS622 
 ASP623  PHE694  ASN695  SER759  ASP760  ASP761  ALA762  ILE779  LEU786  VAL792 
 PHE793  MET794  SER795  GLU796  ALA797  LYS798  CYS799  TRP800  GLU811  SER814 

> <Gold.Protein.RotatedAtoms>
  152.5449  134.1195  159.8392 H   0  0  0  0  0  0  0  0  0  0  0  0  # atno 6907 bound_to 6896
  151.1253  133.5068  159.2608 H   0  0  0  0  0  0  0  0  0  0  0  0  # atno 6908 bound_to 6896
  151.1734  135.0338  159.8816 H   0  0  0  0  0  0  0  0  0  0  0  0  # atno 6909 bound_to 6896
  145.2487  140.9230  143.3108 H   0  0  0  0  0  0  0  0  0  0  0  0  # atno 7974 bound_to 7965
  154.5384  140.0750  156.8467 H   0  0  0  0  0  0  0  0  0  0  0  0  # atno 8008 bound_to 7997
  155.3232  140.3397  155.4222 H   0  0  0  0  0  0  0  0  0  0  0  0  # atno 8009 bound_to 7997
  156.1850  140.1665  156.8189 H   0  0  0  0  0  0  0  0  0  0  0  0  # atno 8010 bound_to 7997
  139.7200  143.8972  152.2500 H   0  0  0  0  0  0  0  0  0  0  0  0  # atno 10167 bound_to 10162
  156.0566  130.5792  150.8175 H   0  0  0  0  0  0  0  0  0  0  0  0  # atno 10718 bound_to 10713
  154.5598  135.5637  153.6997 H   0  0  0  0  0  0  0  0  0  0  0  0  # atno 10763 bound_to 10752
  153.0014  135.6271  154.2260 H   0  0  0  0  0  0  0  0  0  0  0  0  # atno 10764 bound_to 10752
  154.2198  135.2870  155.2909 H   0  0  0  0  0  0  0  0  0  0  0  0  # atno 10765 bound_to 10752
  140.9115  133.7458  156.0676 H   0  0  0  0  0  0  0  0  0  0  0  0  # atno 11005 bound_to 11000
  144.9523  139.4069  143.6396 LP  0  0  0  0  0  0  0  0  0  0  0  0  # atno 17320 bound_to 7965
  146.3308  139.8536  142.8868 LP  0  0  0  0  0  0  0  0  0  0  0  0  # atno 17321 bound_to 7965
  139.8865  144.6989  150.8818 LP  0  0  0  0  0  0  0  0  0  0  0  0  # atno 17342 bound_to 10162
  140.7752  143.3619  151.1811 LP  0  0  0  0  0  0  0  0  0  0  0  0  # atno 17343 bound_to 10162
  157.5541  131.0944  150.9654 LP  0  0  0  0  0  0  0  0  0  0  0  0  # atno 17370 bound_to 10713
  156.9906  130.5562  149.5303 LP  0  0  0  0  0  0  0  0  0  0  0  0  # atno 17371 bound_to 10713
  140.8104  134.3405  157.5413 LP  0  0  0  0  0  0  0  0  0  0  0  0  # atno 17394 bound_to 11000
  139.8758  134.9251  156.3366 LP  0  0  0  0  0  0  0  0  0  0  0  0  # atno 17395 bound_to 11000

$$$$
