AV-unprocessed.smi:863|AV-procd|sdf|3985|dock8
  -GOLD-   22720 1463D 1   1.00000     0.00000
 Structure written by MMmdl.
 42 44  0  0  0  0  0  0  0  0  1 V2000
  146.6491  139.2502  153.8762 O   0  0  0  0  0  0  0  0  0  0  0  0
  147.2913  138.6695  153.0009 C   0  0  0  0  0  0  0  0  0  0  0  0
  146.5998  138.2303  151.7099 C   0  0  0  0  0  0  0  0  0  0  0  0
  145.7082  137.0476  151.9766 C   0  0  0  0  0  0  0  0  0  0  0  0
  145.7029  135.7815  151.3272 C   0  0  0  0  0  0  0  0  0  0  0  0
  144.7038  135.1013  151.9616 C   0  0  0  0  0  0  0  0  0  0  0  0
  144.1386  135.8745  152.9229 O   0  0  0  0  0  0  0  0  0  0  0  0
  144.7878  137.1144  152.9271 N   0  0  0  0  0  0  0  0  0  0  0  0
  148.5987  138.3839  153.1071 N   0  0  0  0  0  0  0  0  0  0  0  0
  149.4388  138.6975  154.2588 C   0  0  1  0  0  0  0  0  0  0  0  0
  150.9157  138.4192  153.9455 C   0  0  0  0  0  0  0  0  0  0  0  0
  151.8096  138.8807  155.1042 C   0  0  0  0  0  0  0  0  0  0  0  0
  151.5751  140.2558  155.4018 O   0  0  0  0  0  0  0  0  0  0  0  0
  150.2365  140.6127  155.7715 C   0  0  0  0  0  0  0  0  0  0  0  0
  149.8346  139.9995  157.1409 C   0  0  0  0  0  0  0  0  0  0  0  0
  150.7216  140.5020  158.2917 C   0  0  0  0  0  0  0  0  0  0  0  0
  150.6985  142.0337  158.3821 C   0  0  0  0  0  0  0  0  0  0  0  0
  151.1061  142.6672  157.0450 C   0  0  0  0  0  0  0  0  0  0  0  0
  150.2275  142.1549  155.8900 C   0  0  0  0  0  0  0  0  0  0  0  0
  149.2764  140.1782  154.6367 C   0  0  0  0  0  0  0  0  0  0  0  0
  146.0161  139.0622  151.3143 H   0  0  0  0  0  0  0  0  0  0  0  0
  147.3501  137.9937  150.9538 H   0  0  0  0  0  0  0  0  0  0  0  0
  146.3316  135.4304  150.5224 H   0  0  0  0  0  0  0  0  0  0  0  0
  144.2951  134.1080  151.8496 H   0  0  0  0  0  0  0  0  0  0  0  0
  149.0414  137.9010  152.3383 H   0  0  0  0  0  0  0  0  0  0  0  0
  149.1259  138.0810  155.1029 H   0  0  0  0  0  0  0  0  0  0  0  0
  151.0738  137.3571  153.7550 H   0  0  0  0  0  0  0  0  0  0  0  0
  151.2069  138.9465  153.0360 H   0  0  0  0  0  0  0  0  0  0  0  0
  151.6577  138.2596  155.9864 H   0  0  0  0  0  0  0  0  0  0  0  0
  152.8577  138.7644  154.8281 H   0  0  0  0  0  0  0  0  0  0  0  0
  148.7984  140.2622  157.3584 H   0  0  0  0  0  0  0  0  0  0  0  0
  149.8573  138.9112  157.1192 H   0  0  0  0  0  0  0  0  0  0  0  0
  150.3840  140.0707  159.2344 H   0  0  0  0  0  0  0  0  0  0  0  0
  151.7457  140.1570  158.1445 H   0  0  0  0  0  0  0  0  0  0  0  0
  149.6978  142.3695  158.6568 H   0  0  0  0  0  0  0  0  0  0  0  0
  151.3675  142.3709  159.1742 H   0  0  0  0  0  0  0  0  0  0  0  0
  151.0327  143.7530  157.1126 H   0  0  0  0  0  0  0  0  0  0  0  0
  152.1534  142.4431  156.8385 H   0  0  0  0  0  0  0  0  0  0  0  0
  150.5635  142.6048  154.9549 H   0  0  0  0  0  0  0  0  0  0  0  0
  149.2048  142.5026  156.0433 H   0  0  0  0  0  0  0  0  0  0  0  0
  149.4738  140.7873  153.7528 H   0  0  0  0  0  0  0  0  0  0  0  0
  148.2429  140.3831  154.9193 H   0  0  0  0  0  0  0  0  0  0  0  0
  1  2  2  0  0  0  0
  2  3  1  0  0  0  0
  2  9  1  0  0  0  0
  3  4  1  0  0  0  0
  3 21  1  0  0  0  0
  3 22  1  0  0  0  0
  4  8  2  0  0  0  0
  4  5  1  0  0  0  0
  5  6  2  0  0  0  0
  5 23  1  0  0  0  0
  6  7  1  0  0  0  0
  6 24  1  0  0  0  0
  7  8  1  0  0  0  0
  9 10  1  0  0  0  0
  9 25  1  0  0  0  0
 10 20  1  0  0  0  0
 10 11  1  0  0  0  0
 10 26  1  0  0  0  0
 11 12  1  0  0  0  0
 11 27  1  0  0  0  0
 11 28  1  0  0  0  0
 12 13  1  0  0  0  0
 12 29  1  0  0  0  0
 12 30  1  0  0  0  0
 13 14  1  0  0  0  0
 14 19  1  0  0  0  0
 14 15  1  0  0  0  0
 14 20  1  0  0  0  0
 15 16  1  0  0  0  0
 15 31  1  0  0  0  0
 15 32  1  0  0  0  0
 16 17  1  0  0  0  0
 16 33  1  0  0  0  0
 16 34  1  0  0  0  0
 17 18  1  0  0  0  0
 17 35  1  0  0  0  0
 17 36  1  0  0  0  0
 18 19  1  0  0  0  0
 18 37  1  0  0  0  0
 18 38  1  0  0  0  0
 19 39  1  0  0  0  0
 19 40  1  0  0  0  0
 20 41  1  0  0  0  0
 20 42  1  0  0  0  0
M  END
> <s_m_source_file>
AV-unprocessed.smi

> <i_m_source_file_index>
863

> <i_lp_mmshare_version>
43012

> <i_f3d_flags>
0

> <s_epik_input>
bjFvW2NIXVtjSF1jMVtDSDJdQyg9TylbTkhdW0NAQEhdKFtDSDJdMilbQ0gyXVtDSDJdT0MyM1tDSDJdW0NIMl1bQ0gyXVtDSDJdW0NIMl0z

> <s_epik_cmdline>
J2VwaWtfcHl0aG9uJywgJy1waCcsICc3LjAnLCAnLXRuJywgJzgnLCAnLW1hJywgJzIwMCcsICctbWV0YWxfYmluZGluZycsICctaW1hZScsICc8aW5maWxlLm1hZT4nLCAnLW9tYWUnLCAnPG91dGZpbGUubWFlPic=

> <r_lp_tautomer_probability>
1

> <r_epik_Ionization_Penalty>
1.10177e-07

> <r_epik_Ionization_Penalty_Charging>
0

> <r_epik_Ionization_Penalty_Neutral>
1.10177e-07

> <r_epik_State_Penalty>
-0

> <r_epik_Charging_Adjusted_Penalty>
0

> <i_epik_Tot_Q>
0

> <i_epik_Tot_abs_Q>
0

> <r_epik_Metal_State_Penalty>
-0

> <b_epik_Metal_Only>
0

> <s_lp_Force_Field>
OPLS_2005

> <r_lp_Energy>
15.5582

> <b_lp_Chiralities_Consistent>
1

> <s_lp_Variant>
AV-unprocessed.smi:863-2

> <Gold.Version>
5.8.1

> <Gold.Id.Protein>
6NUR|6NUR_protein|mol2

> <Gold.PLP.Fitness>
39.5965

> <Gold.PLP.PLP>
-35.1715

> <Gold.PLP.part.hbond>
-3.0000

> <Gold.PLP.part.metal>
0.0000

> <Gold.PLP.part.buried>
-3.1925

> <Gold.PLP.part.nonpolar>
-30.7059

> <Gold.PLP.part.repulsive>
0.5301

> <Gold.PLP.ligand.clash>
0.0000

> <Gold.PLP.ligand.torsion>
0.2623

> <Gold.PLP.Chemscore.Hbond>
1.6496

> <Gold.PLP.Chemscore.CHOScore>
0.0000

> <Gold.PLP.Chemscore.Metal>
0.0000

> <Gold.Chemscore.Hbonds>
donor molecule, donor type, donor heavy atom, donor atom, acceptor molecule, acceptor atom, score
      L1  H     9    25       P1  7948  0.64
      P1  H  7989  7998       L1    13  0.73

> <Gold.PLP.Chemscore.Internal.Correction>
0.0007

> <Gold.Rescore>
     Score         DG    S(hbond)    S(metal)    S(lipo)     H(rot)  DE(clash)    DE(int)     intcor
     12.89     -14.83       0.81        0.00      87.83       1.42       0.19       1.76       ----

> <Gold.Chemscore.Fitness>
12.8889

> <Gold.Chemscore.DG>
-14.8338

> <Gold.Chemscore.ZeroCoef>
-5.4800

> <Gold.Chemscore.Hbond>
0.8095

> <Gold.Chemscore.Metal>
0.0000

> <Gold.Chemscore.Lipo>
87.8294

> <Gold.Chemscore.Internal_Hbond>
0.0000

> <Gold.Chemscore.DEClash>
0.1881

> <Gold.Chemscore.DEInternal>
1.7568

> <Gold.Chemscore.Rot>
1.4164

> <Gold.Chemscore.Internal.Correction>
   9.000000E+99

> <Gold.Chemscore.Hbonds>
donor molecule, donor type, donor heavy atom, donor atom, acceptor molecule, acceptor atom, score
      L1  H     9    25       P1  7948  0.62
      P1  H  7989  7998       L1    13  0.04

> <Gold.Chemscore.Hbond.Weighted>
-2.7037

> <Gold.Chemscore.Metal.Weighted>
-0.0000

> <Gold.Chemscore.Lipo.Weighted>
-10.2760

> <Gold.Chemscore.Internal_Hbond.Weighted>
0.0000

> <Gold.Chemscore.DEClash.Weighted>
0.1881

> <Gold.Chemscore.DEInternal.Weighted>
1.7568

> <Gold.Chemscore.Rot.Weighted>
3.6259

> <Gold.Chemscore.Internal.Correction.Weighted>
   9.000000E+99

> <Gold.Protein.RotatedTorsions>
[ 6907 6896 6895 6894 ] final  -56.49 input  -60.11 | X-H torsion
[ 7974 7965 7964 7962 ] final  -29.66 input  175.53 | X-H torsion
[ 8008 7997 7996 7995 ] final    5.89 input   59.86 | X-H torsion
[ 10167 10162 10161 10158 ] final   56.53 input  -65.29 | X-H torsion
[ 10718 10713 10712 10709 ] final  -42.35 input   66.30 | X-H torsion
[ 10763 10752 10751 10750 ] final  -62.84 input  -60.55 | X-H torsion
[ 11005 11000 10999 10996 ] final   25.59 input  -57.11 | X-H torsion

> <Gold.Protein.ActiveResidues>
 VAL166  LYS551  ARG553  GLY616  TRP617  ASP618  TYR619  PRO620  LYS621  CYS622 
 ASP623  PHE694  ASN695  SER759  ASP760  ASP761  ALA762  ILE779  LEU786  VAL792 
 PHE793  MET794  SER795  GLU796  ALA797  LYS798  CYS799  TRP800  GLU811  SER814 

> <Gold.Protein.RotatedAtoms>
  150.8163  134.7346  159.6732 H   0  0  0  0  0  0  0  0  0  0  0  0  # atno 6907 bound_to 6896
  152.4281  134.5826  159.9962 H   0  0  0  0  0  0  0  0  0  0  0  0  # atno 6908 bound_to 6896
  151.6022  133.3318  159.3086 H   0  0  0  0  0  0  0  0  0  0  0  0  # atno 6909 bound_to 6896
  146.1200  140.5441  142.8740 H   0  0  0  0  0  0  0  0  0  0  0  0  # atno 7974 bound_to 7965
  154.7340  140.2736  155.6431 H   0  0  0  0  0  0  0  0  0  0  0  0  # atno 8008 bound_to 7997
  156.2857  140.2710  156.1974 H   0  0  0  0  0  0  0  0  0  0  0  0  # atno 8009 bound_to 7997
  155.0344  140.0371  157.2476 H   0  0  0  0  0  0  0  0  0  0  0  0  # atno 8010 bound_to 7997
  140.2077  144.3922  150.6502 H   0  0  0  0  0  0  0  0  0  0  0  0  # atno 10167 bound_to 10162
  156.2605  130.4196  149.8548 H   0  0  0  0  0  0  0  0  0  0  0  0  # atno 10718 bound_to 10713
  154.3060  135.6225  153.5445 H   0  0  0  0  0  0  0  0  0  0  0  0  # atno 10763 bound_to 10752
  152.9835  135.5690  154.5231 H   0  0  0  0  0  0  0  0  0  0  0  0  # atno 10764 bound_to 10752
  154.4871  135.2865  155.1502 H   0  0  0  0  0  0  0  0  0  0  0  0  # atno 10765 bound_to 10752
  140.3462  134.2279  155.7684 H   0  0  0  0  0  0  0  0  0  0  0  0  # atno 11005 bound_to 11000
  144.7588  140.5372  143.6750 LP  0  0  0  0  0  0  0  0  0  0  0  0  # atno 17320 bound_to 7965
  145.5486  139.1476  143.3407 LP  0  0  0  0  0  0  0  0  0  0  0  0  # atno 17321 bound_to 7965
  140.6346  143.2193  151.6423 LP  0  0  0  0  0  0  0  0  0  0  0  0  # atno 17342 bound_to 10162
  139.5192  144.3261  152.0868 LP  0  0  0  0  0  0  0  0  0  0  0  0  # atno 17343 bound_to 10162
  156.6065  130.8568  151.3444 LP  0  0  0  0  0  0  0  0  0  0  0  0  # atno 17370 bound_to 10713
  157.7249  130.9608  150.1591 LP  0  0  0  0  0  0  0  0  0  0  0  0  # atno 17371 bound_to 10713
  141.2025  133.7936  157.0388 LP  0  0  0  0  0  0  0  0  0  0  0  0  # atno 17394 bound_to 11000
  140.0740  134.9686  157.1515 LP  0  0  0  0  0  0  0  0  0  0  0  0  # atno 17395 bound_to 11000

$$$$
