AV-unprocessed.smi:2752|AV-procd|sdf|10607|dock7
  -GOLD-   2272015 63D 1   1.00000     0.00000
 Structure written by MMmdl.
 34 35  0  0  0  0  0  0  0  0  1 V2000
  146.1342  143.2313  153.9080 C   0  0  0  0  0  0  0  0  0  0  0  0
  146.7461  142.0319  154.3538 O   0  0  0  0  0  0  0  0  0  0  0  0
  147.6555  141.4665  153.4131 C   0  0  2  0  0  0  0  0  0  0  0  0
  147.1057  140.1169  152.9383 C   0  0  0  0  0  0  0  0  0  0  0  0
  147.5063  139.1422  154.0420 C   0  0  0  0  0  0  0  0  0  0  0  0
  148.8865  139.6197  154.5016 C   0  0  0  0  0  0  0  0  0  0  0  0
  148.9872  141.1078  154.1121 C   0  0  2  0  0  0  0  0  0  0  0  0
  149.2656  141.9436  155.2783 N   0  0  0  0  0  0  0  0  0  0  0  0
  150.1134  141.6207  156.2651 C   0  0  0  0  0  0  0  0  0  0  0  0
  150.7398  140.5610  156.3008 O   0  0  0  0  0  0  0  0  0  0  0  0
  150.1843  142.5989  157.1849 N   0  0  0  0  0  0  0  0  0  0  0  0
  150.9725  142.6384  158.3657 C   0  0  0  0  0  0  0  0  0  0  0  0
  150.8798  143.8388  159.1065 C   0  0  0  0  0  0  0  0  0  0  0  0
  151.6227  143.9790  160.2950 C   0  0  0  0  0  0  0  0  0  0  0  0
  152.4397  142.9127  160.7108 C   0  0  0  0  0  0  0  0  0  0  0  0
  153.1723  143.0009  161.8463 F   0  0  0  0  0  0  0  0  0  0  0  0
  152.4763  141.7520  159.9163 C   0  0  0  0  0  0  0  0  0  0  0  0
  151.7644  141.6164  158.7773 N   0  0  0  0  0  0  0  0  0  0  0  0
  145.4412  143.5904  154.6686 H   0  0  0  0  0  0  0  0  0  0  0  0
  145.5720  143.0820  152.9862 H   0  0  0  0  0  0  0  0  0  0  0  0
  146.8789  144.0103  153.7406 H   0  0  0  0  0  0  0  0  0  0  0  0
  147.8326  142.1554  152.5852 H   0  0  0  0  0  0  0  0  0  0  0  0
  146.0317  140.1217  152.7533 H   0  0  0  0  0  0  0  0  0  0  0  0
  147.5970  139.8317  152.0071 H   0  0  0  0  0  0  0  0  0  0  0  0
  146.7984  139.2175  154.8685 H   0  0  0  0  0  0  0  0  0  0  0  0
  147.5126  138.1056  153.7042 H   0  0  0  0  0  0  0  0  0  0  0  0
  149.0234  139.4476  155.5702 H   0  0  0  0  0  0  0  0  0  0  0  0
  149.6645  139.0555  153.9858 H   0  0  0  0  0  0  0  0  0  0  0  0
  149.8042  141.2109  153.3950 H   0  0  0  0  0  0  0  0  0  0  0  0
  148.7956  142.8357  155.3220 H   0  0  0  0  0  0  0  0  0  0  0  0
  149.6114  143.4126  157.0175 H   0  0  0  0  0  0  0  0  0  0  0  0
  150.2466  144.6474  158.7711 H   0  0  0  0  0  0  0  0  0  0  0  0
  151.5657  144.8879  160.8754 H   0  0  0  0  0  0  0  0  0  0  0  0
  153.0916  140.9114  160.2010 H   0  0  0  0  0  0  0  0  0  0  0  0
  1  2  1  0  0  0  0
  1 19  1  0  0  0  0
  1 20  1  0  0  0  0
  1 21  1  0  0  0  0
  2  3  1  0  0  0  0
  3  7  1  0  0  0  0
  3  4  1  0  0  0  0
  3 22  1  0  0  0  0
  4  5  1  0  0  0  0
  4 23  1  0  0  0  0
  4 24  1  0  0  0  0
  5  6  1  0  0  0  0
  5 25  1  0  0  0  0
  5 26  1  0  0  0  0
  6  7  1  0  0  0  0
  6 27  1  0  0  0  0
  6 28  1  0  0  0  0
  7  8  1  0  0  0  0
  7 29  1  0  0  0  0
  8  9  1  0  0  0  0
  8 30  1  0  0  0  0
  9 10  2  0  0  0  0
  9 11  1  0  0  0  0
 11 12  1  0  0  0  0
 11 31  1  0  0  0  0
 12 18  1  0  0  0  0
 12 13  2  0  0  0  0
 13 14  1  0  0  0  0
 13 32  1  0  0  0  0
 14 15  2  0  0  0  0
 14 33  1  0  0  0  0
 15 16  1  0  0  0  0
 15 17  1  0  0  0  0
 17 18  2  0  0  0  0
 17 34  1  0  0  0  0
M  END
> <s_m_source_file>
AV-unprocessed.smi

> <i_m_source_file_index>
2752

> <i_lp_mmshare_version>
43012

> <i_f3d_flags>
0

> <s_epik_input>
W0NIM11PW0NAQEhdMVtDSDJdW0NIMl1bQ0gyXVtDQEhdMVtOSF1DKD1PKVtOSF1jMltjSF1bY0hdYyhGKVtjSF1uMg==

> <s_epik_cmdline>
J2VwaWtfcHl0aG9uJywgJy1waCcsICc3LjAnLCAnLXRuJywgJzgnLCAnLW1hJywgJzIwMCcsICctbWV0YWxfYmluZGluZycsICctaW1hZScsICc8aW5maWxlLm1hZT4nLCAnLW9tYWUnLCAnPG91dGZpbGUubWFlPic=

> <r_lp_tautomer_probability>
1

> <r_epik_Ionization_Penalty>
3.49853e-05

> <r_epik_Ionization_Penalty_Charging>
0

> <r_epik_Ionization_Penalty_Neutral>
3.49853e-05

> <r_epik_State_Penalty>
-0

> <r_epik_Charging_Adjusted_Penalty>
0

> <i_epik_Tot_Q>
0

> <i_epik_Tot_abs_Q>
0

> <r_epik_Metal_State_Penalty>
-0

> <b_epik_Metal_Only>
0

> <s_lp_Force_Field>
OPLS_2005

> <r_lp_Energy>
23.7965

> <b_lp_Chiralities_Consistent>
1

> <s_lp_Variant>
AV-unprocessed.smi:2752-3

> <Gold.Version>
5.8.1

> <Gold.Id.Protein>
6NUR|6NUR_protein|mol2

> <Gold.PLP.Fitness>
40.9638

> <Gold.PLP.PLP>
-37.3466

> <Gold.PLP.part.hbond>
-2.0000

> <Gold.PLP.part.metal>
0.0000

> <Gold.PLP.part.buried>
-4.9064

> <Gold.PLP.part.nonpolar>
-29.8707

> <Gold.PLP.part.repulsive>
0.3654

> <Gold.PLP.ligand.clash>
0.0302

> <Gold.PLP.ligand.torsion>
0.9901

> <Gold.PLP.Chemscore.Hbond>
1.8720

> <Gold.PLP.Chemscore.CHOScore>
0.0000

> <Gold.PLP.Chemscore.Metal>
0.0000

> <Gold.Chemscore.Hbonds>
donor molecule, donor type, donor heavy atom, donor atom, acceptor molecule, acceptor atom, score
      L1  H     8    30       P1  8028  0.99
      L1  H    11    31       P1  8028  0.96

> <Gold.PLP.Chemscore.Internal.Correction>
0.0115

> <Gold.Rescore>
     Score         DG    S(hbond)    S(metal)    S(lipo)     H(rot)  DE(clash)    DE(int)     intcor
     13.87     -18.03       1.88        0.00      81.52       1.28       0.23       3.93       ----

> <Gold.Chemscore.Fitness>
13.8720

> <Gold.Chemscore.DG>
-18.0307

> <Gold.Chemscore.ZeroCoef>
-5.4800

> <Gold.Chemscore.Hbond>
1.8848

> <Gold.Chemscore.Metal>
0.0000

> <Gold.Chemscore.Lipo>
81.5175

> <Gold.Chemscore.Internal_Hbond>
0.0000

> <Gold.Chemscore.DEClash>
0.2332

> <Gold.Chemscore.DEInternal>
3.9255

> <Gold.Chemscore.Rot>
1.2821

> <Gold.Chemscore.Internal.Correction>
   9.000000E+99

> <Gold.Chemscore.Hbonds>
donor molecule, donor type, donor heavy atom, donor atom, acceptor molecule, acceptor atom, score
      L1  H     8    30       P1  8028  0.94
      L1  H    11    31       P1  8028  0.85

> <Gold.Chemscore.Hbond.Weighted>
-6.2954

> <Gold.Chemscore.Metal.Weighted>
-0.0000

> <Gold.Chemscore.Lipo.Weighted>
-9.5375

> <Gold.Chemscore.Internal_Hbond.Weighted>
0.0000

> <Gold.Chemscore.DEClash.Weighted>
0.2332

> <Gold.Chemscore.DEInternal.Weighted>
3.9255

> <Gold.Chemscore.Rot.Weighted>
3.2822

> <Gold.Chemscore.Internal.Correction.Weighted>
   9.000000E+99

> <Gold.Protein.RotatedTorsions>
[ 6907 6896 6895 6894 ] final   95.96 input  -60.11 | X-H torsion
[ 7974 7965 7964 7962 ] final    2.23 input  175.53 | X-H torsion
[ 8008 7997 7996 7995 ] final -157.49 input   59.86 | X-H torsion
[ 10167 10162 10161 10158 ] final -177.98 input  -65.29 | X-H torsion
[ 10718 10713 10712 10709 ] final -156.22 input   66.30 | X-H torsion
[ 10763 10752 10751 10750 ] final  -43.14 input  -60.55 | X-H torsion
[ 11005 11000 10999 10996 ] final  -35.67 input  -57.11 | X-H torsion

> <Gold.Protein.ActiveResidues>
 VAL166  LYS551  ARG553  GLY616  TRP617  ASP618  TYR619  PRO620  LYS621  CYS622 
 ASP623  PHE694  ASN695  SER759  ASP760  ASP761  ALA762  ILE779  LEU786  VAL792 
 PHE793  MET794  SER795  GLU796  ALA797  LYS798  CYS799  TRP800  GLU811  SER814 

> <Gold.Protein.RotatedAtoms>
  152.5439  134.0959  159.8296 H   0  0  0  0  0  0  0  0  0  0  0  0  # atno 6907 bound_to 6896
  151.1043  133.5213  159.2616 H   0  0  0  0  0  0  0  0  0  0  0  0  # atno 6908 bound_to 6896
  151.1956  135.0430  159.8905 H   0  0  0  0  0  0  0  0  0  0  0  0  # atno 6909 bound_to 6896
  146.2443  140.0868  142.8354 H   0  0  0  0  0  0  0  0  0  0  0  0  # atno 7974 bound_to 7965
  155.7333  140.0805  157.2279 H   0  0  0  0  0  0  0  0  0  0  0  0  # atno 8008 bound_to 7997
  154.4030  140.1591  156.2588 H   0  0  0  0  0  0  0  0  0  0  0  0  # atno 8009 bound_to 7997
  155.9089  140.3405  155.6086 H   0  0  0  0  0  0  0  0  0  0  0  0  # atno 8010 bound_to 7997
  139.5454  144.2249  152.0978 H   0  0  0  0  0  0  0  0  0  0  0  0  # atno 10167 bound_to 10162
  156.5236  130.8489  151.2691 H   0  0  0  0  0  0  0  0  0  0  0  0  # atno 10718 bound_to 10713
  153.9906  135.6706  153.4754 H   0  0  0  0  0  0  0  0  0  0  0  0  # atno 10763 bound_to 10752
  153.0707  135.4976  154.8294 H   0  0  0  0  0  0  0  0  0  0  0  0  # atno 10764 bound_to 10752
  154.7111  135.3097  154.9157 H   0  0  0  0  0  0  0  0  0  0  0  0  # atno 10765 bound_to 10752
  140.9814  133.7054  156.1691 H   0  0  0  0  0  0  0  0  0  0  0  0  # atno 11005 bound_to 11000
  145.0685  140.9139  143.4896 LP  0  0  0  0  0  0  0  0  0  0  0  0  # atno 17320 bound_to 7965
  145.0997  139.2831  143.5692 LP  0  0  0  0  0  0  0  0  0  0  0  0  # atno 17321 bound_to 7965
  140.1735  144.4913  150.6566 LP  0  0  0  0  0  0  0  0  0  0  0  0  # atno 17342 bound_to 10162
  140.6700  143.2282  151.5648 LP  0  0  0  0  0  0  0  0  0  0  0  0  # atno 17343 bound_to 10162
  157.7433  130.9909  150.2581 LP  0  0  0  0  0  0  0  0  0  0  0  0  # atno 17370 bound_to 10713
  156.3126  130.3774  149.7647 LP  0  0  0  0  0  0  0  0  0  0  0  0  # atno 17371 bound_to 10713
  140.7180  134.4389  157.5577 LP  0  0  0  0  0  0  0  0  0  0  0  0  # atno 17394 bound_to 11000
  139.8952  134.8688  156.2143 LP  0  0  0  0  0  0  0  0  0  0  0  0  # atno 17395 bound_to 11000

$$$$
