AV-unprocessed.smi:1039|AV-procd|sdf|4522|dock6
  -GOLD-   22720 2543D 1   1.00000     0.00000
 Structure written by MMmdl.
 40 41  0  0  0  0  0  0  0  0  1 V2000
  152.7906  143.2688  161.7769 C   0  0  0  0  0  0  0  0  0  0  0  0
  152.3509  143.4089  160.3133 C   0  0  0  0  0  0  0  0  0  0  0  0
  151.0777  144.2724  160.1795 C   0  0  0  0  0  0  0  0  0  0  0  0
  150.5850  144.3182  158.7218 C   0  0  0  0  0  0  0  0  0  0  0  0
  150.3573  142.9397  158.2545 N   0  0  0  0  0  0  0  0  0  0  0  0
  149.1508  142.3325  158.1249 C   0  0  0  0  0  0  0  0  0  0  0  0
  149.0136  141.1133  158.0149 O   0  0  0  0  0  0  0  0  0  0  0  0
  148.1068  143.1738  158.0771 N   0  0  0  0  0  0  0  0  0  0  0  0
  146.7089  142.7747  157.9738 C   0  0  0  0  0  0  0  0  0  0  0  0
  146.4586  141.8935  156.7370 C   0  0  0  0  0  0  0  0  0  0  0  0
  146.0061  142.6623  155.5295 C   0  0  0  0  0  0  0  0  0  0  0  0
  145.0815  143.6165  155.5770 N   0  0  0  0  0  0  0  0  0  0  0  0
  144.9814  144.0811  154.2710 C   0  0  0  0  0  0  0  0  0  0  0  0
  145.8527  143.3825  153.4718 C   0  0  0  0  0  0  0  0  0  0  0  0
  146.5014  142.4644  154.2903 N   0  0  0  0  0  0  0  0  0  0  0  0
  147.5089  141.5014  153.8733 C   0  0  0  0  0  0  0  0  0  0  0  0
  148.6331  141.6633  154.5720 F   0  0  0  0  0  0  0  0  0  0  0  0
  147.0560  140.2598  154.0417 F   0  0  0  0  0  0  0  0  0  0  0  0
  151.6138  142.1822  158.2096 C   0  0  0  0  0  0  0  0  0  0  0  0
  152.1583  142.0320  159.6419 C   0  0  0  0  0  0  0  0  0  0  0  0
  152.0307  142.7614  162.3721 H   0  0  0  0  0  0  0  0  0  0  0  0
  152.9698  144.2451  162.2280 H   0  0  0  0  0  0  0  0  0  0  0  0
  153.7138  142.6941  161.8557 H   0  0  0  0  0  0  0  0  0  0  0  0
  153.1507  143.9232  159.7786 H   0  0  0  0  0  0  0  0  0  0  0  0
  150.2873  143.8691  160.8143 H   0  0  0  0  0  0  0  0  0  0  0  0
  151.2729  145.2844  160.5357 H   0  0  0  0  0  0  0  0  0  0  0  0
  149.7071  144.9605  158.6556 H   0  0  0  0  0  0  0  0  0  0  0  0
  151.3372  144.7919  158.0891 H   0  0  0  0  0  0  0  0  0  0  0  0
  148.2946  144.1632  158.1505 H   0  0  0  0  0  0  0  0  0  0  0  0
  146.3942  142.2485  158.8763 H   0  0  0  0  0  0  0  0  0  0  0  0
  146.1040  143.6800  157.9054 H   0  0  0  0  0  0  0  0  0  0  0  0
  147.3652  141.3375  156.5014 H   0  0  0  0  0  0  0  0  0  0  0  0
  145.7029  141.1432  156.9718 H   0  0  0  0  0  0  0  0  0  0  0  0
  144.2981  144.8755  154.0098 H   0  0  0  0  0  0  0  0  0  0  0  0
  146.0548  143.4607  152.4136 H   0  0  0  0  0  0  0  0  0  0  0  0
  147.7541  141.6435  152.8207 H   0  0  0  0  0  0  0  0  0  0  0  0
  151.4950  141.2008  157.7486 H   0  0  0  0  0  0  0  0  0  0  0  0
  152.3351  142.7142  157.5878 H   0  0  0  0  0  0  0  0  0  0  0  0
  153.1044  141.4901  159.6227 H   0  0  0  0  0  0  0  0  0  0  0  0
  151.4668  141.4264  160.2295 H   0  0  0  0  0  0  0  0  0  0  0  0
  1  2  1  0  0  0  0
  1 21  1  0  0  0  0
  1 22  1  0  0  0  0
  1 23  1  0  0  0  0
  2 20  1  0  0  0  0
  2  3  1  0  0  0  0
  2 24  1  0  0  0  0
  3  4  1  0  0  0  0
  3 25  1  0  0  0  0
  3 26  1  0  0  0  0
  4  5  1  0  0  0  0
  4 27  1  0  0  0  0
  4 28  1  0  0  0  0
  5  6  1  0  0  0  0
  5 19  1  0  0  0  0
  6  7  2  0  0  0  0
  6  8  1  0  0  0  0
  8  9  1  0  0  0  0
  8 29  1  0  0  0  0
  9 10  1  0  0  0  0
  9 30  1  0  0  0  0
  9 31  1  0  0  0  0
 10 11  1  0  0  0  0
 10 32  1  0  0  0  0
 10 33  1  0  0  0  0
 11 15  1  0  0  0  0
 11 12  2  0  0  0  0
 12 13  1  0  0  0  0
 13 14  2  0  0  0  0
 13 34  1  0  0  0  0
 14 15  1  0  0  0  0
 14 35  1  0  0  0  0
 15 16  1  0  0  0  0
 16 17  1  0  0  0  0
 16 18  1  0  0  0  0
 16 36  1  0  0  0  0
 19 20  1  0  0  0  0
 19 37  1  0  0  0  0
 19 38  1  0  0  0  0
 20 39  1  0  0  0  0
 20 40  1  0  0  0  0
M  END
> <s_m_source_file>
AV-unprocessed.smi

> <i_m_source_file_index>
1039

> <i_lp_mmshare_version>
43012

> <i_f3d_flags>
0

> <s_epik_input>
W0NIM11bQ0hdMVtDSDJdW0NIMl1OKFtDSDJdW0NIMl0xKUMoPU8pW05IXVtDSDJdW0NIMl1jMm5bY0hdW2NIXW4yW0NIXShGKUY=

> <s_epik_cmdline>
J2VwaWtfcHl0aG9uJywgJy1waCcsICc3LjAnLCAnLXRuJywgJzgnLCAnLW1hJywgJzIwMCcsICctbWV0YWxfYmluZGluZycsICctaW1hZScsICc8aW5maWxlLm1hZT4nLCAnLW9tYWUnLCAnPG91dGZpbGUubWFlPic=

> <r_lp_tautomer_probability>
1

> <r_epik_Ionization_Penalty>
0.101783

> <r_epik_Ionization_Penalty_Charging>
0.101715

> <r_epik_Ionization_Penalty_Neutral>
6.87123e-05

> <r_epik_State_Penalty>
0.091697

> <r_epik_Charging_Adjusted_Penalty>
0.193412

> <i_epik_Tot_Q>
0

> <i_epik_Tot_abs_Q>
0

> <r_epik_Metal_State_Penalty>
0.0781553

> <b_epik_Metal_Only>
0

> <s_lp_Force_Field>
OPLS_2005

> <r_lp_Energy>
33.8957

> <b_lp_Chiralities_Consistent>
1

> <s_lp_Variant>
AV-unprocessed.smi:1039-1

> <Gold.Version>
5.8.1

> <Gold.Id.Protein>
6NUR|6NUR_protein|mol2

> <Gold.PLP.Fitness>
44.7692

> <Gold.PLP.PLP>
-43.2647

> <Gold.PLP.part.hbond>
-2.0000

> <Gold.PLP.part.metal>
0.0000

> <Gold.PLP.part.buried>
-6.2225

> <Gold.PLP.part.nonpolar>
-34.4860

> <Gold.PLP.part.repulsive>
0.2798

> <Gold.PLP.ligand.clash>
0.0000

> <Gold.PLP.ligand.torsion>
0.5286

> <Gold.PLP.Chemscore.Hbond>
0.8320

> <Gold.PLP.Chemscore.CHOScore>
0.0000

> <Gold.PLP.Chemscore.Metal>
0.0000

> <Gold.Chemscore.Hbonds>
donor molecule, donor type, donor heavy atom, donor atom, acceptor molecule, acceptor atom, score
      L1  H     8    29       P1  8029  0.83

> <Gold.PLP.Chemscore.Internal.Correction>
0.0657

> <Gold.Rescore>
     Score         DG    S(hbond)    S(metal)    S(lipo)     H(rot)  DE(clash)    DE(int)     intcor
     11.04     -12.63       0.37        0.00      84.80       1.56       0.08       1.52       ----

> <Gold.Chemscore.Fitness>
11.0375

> <Gold.Chemscore.DG>
-12.6292

> <Gold.Chemscore.ZeroCoef>
-5.4800

> <Gold.Chemscore.Hbond>
0.3675

> <Gold.Chemscore.Metal>
0.0000

> <Gold.Chemscore.Lipo>
84.8048

> <Gold.Chemscore.Internal_Hbond>
0.0000

> <Gold.Chemscore.DEClash>
0.0760

> <Gold.Chemscore.DEInternal>
1.5158

> <Gold.Chemscore.Rot>
1.5626

> <Gold.Chemscore.Internal.Correction>
   9.000000E+99

> <Gold.Chemscore.Hbonds>
donor molecule, donor type, donor heavy atom, donor atom, acceptor molecule, acceptor atom, score
      L1  H     8    29       P1  8029  0.20

> <Gold.Chemscore.Hbond.Weighted>
-1.2274

> <Gold.Chemscore.Metal.Weighted>
-0.0000

> <Gold.Chemscore.Lipo.Weighted>
-9.9222

> <Gold.Chemscore.Internal_Hbond.Weighted>
0.0000

> <Gold.Chemscore.DEClash.Weighted>
0.0760

> <Gold.Chemscore.DEInternal.Weighted>
1.5158

> <Gold.Chemscore.Rot.Weighted>
4.0004

> <Gold.Chemscore.Internal.Correction.Weighted>
   9.000000E+99

> <Gold.Protein.RotatedTorsions>
[ 6907 6896 6895 6894 ] final  128.38 input  -60.11 | X-H torsion
[ 7974 7965 7964 7962 ] final  -34.47 input  175.53 | X-H torsion
[ 8008 7997 7996 7995 ] final  173.78 input   59.86 | X-H torsion
[ 10167 10162 10161 10158 ] final   90.62 input  -65.29 | X-H torsion
[ 10718 10713 10712 10709 ] final -128.78 input   66.30 | X-H torsion
[ 10763 10752 10751 10750 ] final   47.31 input  -60.55 | X-H torsion
[ 11005 11000 10999 10996 ] final -103.33 input  -57.11 | X-H torsion

> <Gold.Protein.ActiveResidues>
 VAL166  LYS551  ARG553  GLY616  TRP617  ASP618  TYR619  PRO620  LYS621  CYS622 
 ASP623  PHE694  ASN695  SER759  ASP760  ASP761  ALA762  ILE779  LEU786  VAL792 
 PHE793  MET794  SER795  GLU796  ALA797  LYS798  CYS799  TRP800  GLU811  SER814 

> <Gold.Protein.RotatedAtoms>
  152.3725  133.6437  159.6097 H   0  0  0  0  0  0  0  0  0  0  0  0  # atno 6907 bound_to 6896
  150.7679  133.9247  159.3417 H   0  0  0  0  0  0  0  0  0  0  0  0  # atno 6908 bound_to 6896
  151.7068  135.0921  160.0312 H   0  0  0  0  0  0  0  0  0  0  0  0  # atno 6909 bound_to 6896
  146.0826  140.6043  142.8901 H   0  0  0  0  0  0  0  0  0  0  0  0  # atno 7974 bound_to 7965
  156.1041  140.1451  156.9428 H   0  0  0  0  0  0  0  0  0  0  0  0  # atno 8008 bound_to 7997
  154.4722  140.0906  156.7217 H   0  0  0  0  0  0  0  0  0  0  0  0  # atno 8009 bound_to 7997
  155.4710  140.3441  155.4328 H   0  0  0  0  0  0  0  0  0  0  0  0  # atno 8010 bound_to 7997
  139.8455  144.6620  150.9231 H   0  0  0  0  0  0  0  0  0  0  0  0  # atno 10167 bound_to 10162
  156.1984  130.6841  151.0509 H   0  0  0  0  0  0  0  0  0  0  0  0  # atno 10718 bound_to 10713
  152.9801  135.5980  154.3743 H   0  0  0  0  0  0  0  0  0  0  0  0  # atno 10763 bound_to 10752
  154.3413  135.2767  155.2423 H   0  0  0  0  0  0  0  0  0  0  0  0  # atno 10764 bound_to 10752
  154.4503  135.5991  153.6242 H   0  0  0  0  0  0  0  0  0  0  0  0  # atno 10765 bound_to 10752
  141.1150  133.8631  157.1472 H   0  0  0  0  0  0  0  0  0  0  0  0  # atno 11005 bound_to 11000
  144.7304  140.4653  143.6942 LP  0  0  0  0  0  0  0  0  0  0  0  0  # atno 17320 bound_to 7965
  145.6189  139.1522  143.3034 LP  0  0  0  0  0  0  0  0  0  0  0  0  # atno 17321 bound_to 7965
  140.7793  143.3874  151.1370 LP  0  0  0  0  0  0  0  0  0  0  0  0  # atno 17342 bound_to 10162
  139.7516  143.8770  152.3078 LP  0  0  0  0  0  0  0  0  0  0  0  0  # atno 17343 bound_to 10162
  157.6971  131.0790  150.6935 LP  0  0  0  0  0  0  0  0  0  0  0  0  # atno 17370 bound_to 10713
  156.6993  130.4618  149.5577 LP  0  0  0  0  0  0  0  0  0  0  0  0  # atno 17371 bound_to 10713
  140.0067  135.0005  157.0308 LP  0  0  0  0  0  0  0  0  0  0  0  0  # atno 17394 bound_to 11000
  140.4670  134.1425  155.7198 LP  0  0  0  0  0  0  0  0  0  0  0  0  # atno 17395 bound_to 11000

$$$$
