AV-unprocessed.smi:2124|AV-procd|sdf|8672|dock7
  -GOLD-   2272011423D 1   1.00000     0.00000
 Structure written by MMmdl.
 46 48  0  0  0  0  0  0  0  0  2 V2000
  150.9105  133.5092  156.6847 C   0  0  0  0  0  0  0  0  0  0  0  0
  150.9381  135.0209  156.7561 C   0  0  0  0  0  0  0  0  0  0  0  0
  150.5478  135.5987  157.8273 N   0  0  0  0  0  0  0  0  0  0  0  0
  150.5830  137.0007  157.9094 C   0  0  0  0  0  0  0  0  0  0  0  0
  150.1245  137.5982  159.2283 C   0  0  0  0  0  0  0  0  0  0  0  0
  151.0224  137.7584  156.8637 C   0  0  0  0  0  0  0  0  0  0  0  0
  151.1246  139.2841  156.9207 C   0  0  0  0  0  0  0  0  0  0  0  0
  152.1353  139.8126  157.9394 C   0  0  0  0  0  0  0  0  0  0  0  0
  153.2195  139.2495  158.0897 O   0  0  0  0  0  0  0  0  0  0  0  0
  151.7755  140.9245  158.5975 N   0  0  0  0  0  0  0  0  0  0  0  0
  152.6567  141.7698  159.3943 C   0  0  2  0  0  0  0  0  0  0  0  0
  153.4638  140.9026  160.3729 C   0  0  0  0  0  0  0  0  0  0  0  0
  151.8081  142.8417  160.1190 C   0  0  1  0  0  0  0  0  0  0  0  0
  152.6210  143.9915  160.7541 C   0  0  0  0  0  0  0  0  0  0  0  0
  151.9060  145.2515  160.2291 C   0  0  1  0  0  0  0  0  0  0  0  0
  152.2471  145.4425  158.7395 C   0  0  0  0  0  0  0  0  0  0  0  0
  151.4415  144.3196  158.0610 C   0  0  0  0  0  0  0  0  0  0  0  0
  150.7731  143.6109  159.2565 C   0  0  2  0  0  0  0  0  0  0  0  0
  150.4531  144.7947  160.1624 C   0  0  0  0  0  0  0  0  0  0  0  0
  151.4614  137.0534  155.6459 C   0  0  0  0  0  0  0  0  0  0  0  0
  151.8805  137.6876  154.6786 O   0  0  0  0  0  0  0  0  0  0  0  0
  151.3979  135.6917  155.6452 N   0  5  0  0  0  0  0  0  0  0  0  0
  150.1241  133.1058  157.3237 H   0  0  0  0  0  0  0  0  0  0  0  0
  151.8662  133.1018  157.0145 H   0  0  0  0  0  0  0  0  0  0  0  0
  150.7239  133.1709  155.6647 H   0  0  0  0  0  0  0  0  0  0  0  0
  150.9249  138.1788  159.6866 H   0  0  0  0  0  0  0  0  0  0  0  0
  149.8323  136.8195  159.9341 H   0  0  0  0  0  0  0  0  0  0  0  0
  149.2648  138.2503  159.0749 H   0  0  0  0  0  0  0  0  0  0  0  0
  151.3655  139.6998  155.9419 H   0  0  0  0  0  0  0  0  0  0  0  0
  150.1426  139.6911  157.1623 H   0  0  0  0  0  0  0  0  0  0  0  0
  150.8511  141.2895  158.4151 H   0  0  0  0  0  0  0  0  0  0  0  0
  153.3629  142.2759  158.7341 H   0  0  0  0  0  0  0  0  0  0  0  0
  154.1451  141.5097  160.9692 H   0  0  0  0  0  0  0  0  0  0  0  0
  154.0647  140.1654  159.8394 H   0  0  0  0  0  0  0  0  0  0  0  0
  152.8097  140.3643  161.0596 H   0  0  0  0  0  0  0  0  0  0  0  0
  151.2503  142.3407  160.9128 H   0  0  0  0  0  0  0  0  0  0  0  0
  152.5707  143.9373  161.8422 H   0  0  0  0  0  0  0  0  0  0  0  0
  153.6743  143.9782  160.4716 H   0  0  0  0  0  0  0  0  0  0  0  0
  152.0842  146.1403  160.8351 H   0  0  0  0  0  0  0  0  0  0  0  0
  151.9154  146.4189  158.3847 H   0  0  0  0  0  0  0  0  0  0  0  0
  153.3173  145.3614  158.5461 H   0  0  0  0  0  0  0  0  0  0  0  0
  150.6841  144.7412  157.3988 H   0  0  0  0  0  0  0  0  0  0  0  0
  152.0628  143.6584  157.4584 H   0  0  0  0  0  0  0  0  0  0  0  0
  149.9044  143.0136  158.9766 H   0  0  0  0  0  0  0  0  0  0  0  0
  150.0446  144.5029  161.1315 H   0  0  0  0  0  0  0  0  0  0  0  0
  149.7882  145.5266  159.7001 H   0  0  0  0  0  0  0  0  0  0  0  0
  1  2  1  0  0  0  0
  1 23  1  0  0  0  0
  1 24  1  0  0  0  0
  1 25  1  0  0  0  0
  2 22  1  0  0  0  0
  2  3  2  0  0  0  0
  3  4  1  0  0  0  0
  4  5  1  0  0  0  0
  4  6  2  0  0  0  0
  5 26  1  0  0  0  0
  5 27  1  0  0  0  0
  5 28  1  0  0  0  0
  6  7  1  0  0  0  0
  6 20  1  0  0  0  0
  7  8  1  0  0  0  0
  7 29  1  0  0  0  0
  7 30  1  0  0  0  0
  8  9  2  0  0  0  0
  8 10  1  0  0  0  0
 10 11  1  0  0  0  0
 10 31  1  0  0  0  0
 11 12  1  0  0  0  0
 11 13  1  0  0  0  0
 11 32  1  0  0  0  0
 12 33  1  0  0  0  0
 12 34  1  0  0  0  0
 12 35  1  0  0  0  0
 13 18  1  0  0  0  0
 13 14  1  0  0  0  0
 13 36  1  0  0  0  0
 14 15  1  0  0  0  0
 14 37  1  0  0  0  0
 14 38  1  0  0  0  0
 15 19  1  0  0  0  0
 15 16  1  0  0  0  0
 15 39  1  0  0  0  0
 16 17  1  0  0  0  0
 16 40  1  0  0  0  0
 16 41  1  0  0  0  0
 17 18  1  0  0  0  0
 17 42  1  0  0  0  0
 17 43  1  0  0  0  0
 18 19  1  0  0  0  0
 18 44  1  0  0  0  0
 19 45  1  0  0  0  0
 19 46  1  0  0  0  0
 20 21  2  0  0  0  0
 20 22  1  0  0  0  0
M  CHG  1  22  -1
M  END
> <s_m_source_file>
AV-unprocessed.smi

> <i_m_source_file_index>
2124

> <i_lp_mmshare_version>
43012

> <i_f3d_flags>
0

> <s_epik_input>
W0NIM11jMW5jKFtDSDNdKWMoYyg9TylbbkhdMSlbQ0gyXUMoPU8pW05IXVtDQEhdKFtDSDNdKVtDQEhdKFtDSDJdW0NASF0yMylbQ0BIXShbQ0gyXTMpW0NIMl1bQ0gyXTI=

> <s_epik_cmdline>
J2VwaWtfcHl0aG9uJywgJy1waCcsICc3LjAnLCAnLXRuJywgJzgnLCAnLW1hJywgJzIwMCcsICctbWV0YWxfYmluZGluZycsICctaW1hZScsICc8aW5maWxlLm1hZT4nLCAnLW9tYWUnLCAnPG91dGZpbGUubWFlPic=

> <r_lp_tautomer_probability>
0.839158

> <r_epik_Ionization_Penalty>
6.63797

> <r_epik_Ionization_Penalty_Charging>
7.48558e-08

> <r_epik_Ionization_Penalty_Neutral>
6.63797

> <r_epik_State_Penalty>
4.49496

> <r_epik_Charging_Adjusted_Penalty>
4.49496

> <i_epik_Tot_Q>
-1

> <i_epik_Tot_abs_Q>
1

> <r_epik_Metal_State_Penalty>
0.841241

> <b_epik_Metal_Only>
1

> <s_lp_Force_Field>
OPLS_2005

> <r_lp_Energy>
53.1649

> <b_lp_Chiralities_Consistent>
1

> <s_lp_Variant>
AV-unprocessed.smi:2124-23

> <Gold.Version>
5.8.1

> <Gold.Id.Protein>
6NUR|6NUR_protein|mol2

> <Gold.PLP.Fitness>
48.5853

> <Gold.PLP.PLP>
-39.7450

> <Gold.PLP.part.hbond>
-3.1816

> <Gold.PLP.part.metal>
0.0000

> <Gold.PLP.part.buried>
-6.5747

> <Gold.PLP.part.nonpolar>
-30.7506

> <Gold.PLP.part.repulsive>
0.3286

> <Gold.PLP.ligand.clash>
0.0000

> <Gold.PLP.ligand.torsion>
0.5290

> <Gold.PLP.Chemscore.Hbond>
3.2902

> <Gold.PLP.Chemscore.CHOScore>
0.0000

> <Gold.PLP.Chemscore.Metal>
0.0000

> <Gold.Chemscore.Hbonds>
donor molecule, donor type, donor heavy atom, donor atom, acceptor molecule, acceptor atom, score
      P1  H  6896  6909       L1     3  0.58
      P1  H  7997  8010       L1     9  1.00
      P1  H 10752 10764       L1    22  1.20

> <Gold.PLP.Chemscore.Internal.Correction>
0.0278

> <Gold.Rescore>
     Score         DG    S(hbond)    S(metal)    S(lipo)     H(rot)  DE(clash)    DE(int)     intcor
     18.79     -21.00       1.79        0.00     116.62       1.61       0.25       1.96       ----

> <Gold.Chemscore.Fitness>
18.7944

> <Gold.Chemscore.DG>
-21.0018

> <Gold.Chemscore.ZeroCoef>
-5.4800

> <Gold.Chemscore.Hbond>
1.7923

> <Gold.Chemscore.Metal>
0.0000

> <Gold.Chemscore.Lipo>
116.6206

> <Gold.Chemscore.Internal_Hbond>
0.0000

> <Gold.Chemscore.DEClash>
0.2462

> <Gold.Chemscore.DEInternal>
1.9612

> <Gold.Chemscore.Rot>
1.6051

> <Gold.Chemscore.Internal.Correction>
   9.000000E+99

> <Gold.Chemscore.Hbonds>
donor molecule, donor type, donor heavy atom, donor atom, acceptor molecule, acceptor atom, score
      P1  H  6896  6909       L1     3  0.50
      P1  H  7997  8010       L1     9  0.70
      P1  H 10752 10764       L1    22  0.04

> <Gold.Chemscore.Hbond.Weighted>
-5.9862

> <Gold.Chemscore.Metal.Weighted>
-0.0000

> <Gold.Chemscore.Lipo.Weighted>
-13.6446

> <Gold.Chemscore.Internal_Hbond.Weighted>
0.0000

> <Gold.Chemscore.DEClash.Weighted>
0.2462

> <Gold.Chemscore.DEInternal.Weighted>
1.9612

> <Gold.Chemscore.Rot.Weighted>
4.1090

> <Gold.Chemscore.Internal.Correction.Weighted>
   9.000000E+99

> <Gold.Protein.RotatedTorsions>
[ 6907 6896 6895 6894 ] final   52.48 input  -60.11 | X-H torsion
[ 7974 7965 7964 7962 ] final   49.60 input  175.53 | X-H torsion
[ 8008 7997 7996 7995 ] final   44.77 input   59.86 | X-H torsion
[ 10167 10162 10161 10158 ] final   39.75 input  -65.29 | X-H torsion
[ 10718 10713 10712 10709 ] final   22.32 input   66.30 | X-H torsion
[ 10763 10752 10751 10750 ] final  -54.59 input  -60.55 | X-H torsion
[ 11005 11000 10999 10996 ] final   98.75 input  -57.11 | X-H torsion

> <Gold.Protein.ActiveResidues>
 VAL166  LYS551  ARG553  GLY616  TRP617  ASP618  TYR619  PRO620  LYS621  CYS622 
 ASP623  PHE694  ASN695  SER759  ASP760  ASP761  ALA762  ILE779  LEU786  VAL792 
 PHE793  MET794  SER795  GLU796  ALA797  LYS798  CYS799  TRP800  GLU811  SER814 

> <Gold.Protein.RotatedAtoms>
  152.3237  134.7348  160.0307 H   0  0  0  0  0  0  0  0  0  0  0  0  # atno 6907 bound_to 6896
  151.7788  133.3342  159.3473 H   0  0  0  0  0  0  0  0  0  0  0  0  # atno 6908 bound_to 6896
  150.7384  134.5882  159.6018 H   0  0  0  0  0  0  0  0  0  0  0  0  # atno 6909 bound_to 6896
  146.0093  139.4525  142.9966 H   0  0  0  0  0  0  0  0  0  0  0  0  # atno 7974 bound_to 7965
  155.3248  140.3399  155.4240 H   0  0  0  0  0  0  0  0  0  0  0  0  # atno 8008 bound_to 7997
  156.1891  140.1691  156.8164 H   0  0  0  0  0  0  0  0  0  0  0  0  # atno 8009 bound_to 7997
  154.5421  140.0723  156.8510 H   0  0  0  0  0  0  0  0  0  0  0  0  # atno 8010 bound_to 7997
  140.3809  144.1980  150.6131 H   0  0  0  0  0  0  0  0  0  0  0  0  # atno 10167 bound_to 10162
  157.1507  130.6673  149.6011 H   0  0  0  0  0  0  0  0  0  0  0  0  # atno 10718 bound_to 10713
  154.1773  135.6449  153.5025 H   0  0  0  0  0  0  0  0  0  0  0  0  # atno 10763 bound_to 10752
  153.0068  135.5397  154.6551 H   0  0  0  0  0  0  0  0  0  0  0  0  # atno 10764 bound_to 10752
  154.5906  135.2934  155.0612 H   0  0  0  0  0  0  0  0  0  0  0  0  # atno 10765 bound_to 10752
  139.8772  134.9064  156.4503 H   0  0  0  0  0  0  0  0  0  0  0  0  # atno 11005 bound_to 11000
  145.7367  141.0023  143.1323 LP  0  0  0  0  0  0  0  0  0  0  0  0  # atno 17320 bound_to 7965
  144.6947  139.9050  143.7460 LP  0  0  0  0  0  0  0  0  0  0  0  0  # atno 17321 bound_to 7965
  140.4938  143.2339  151.8779 LP  0  0  0  0  0  0  0  0  0  0  0  0  # atno 17342 bound_to 10162
  139.4795  144.5136  151.8898 LP  0  0  0  0  0  0  0  0  0  0  0  0  # atno 17343 bound_to 10162
  155.9771  130.4745  150.6572 LP  0  0  0  0  0  0  0  0  0  0  0  0  # atno 17370 bound_to 10713
  157.4223  131.0838  151.1119 LP  0  0  0  0  0  0  0  0  0  0  0  0  # atno 17371 bound_to 10713
  140.8936  133.7830  155.9600 LP  0  0  0  0  0  0  0  0  0  0  0  0  # atno 17394 bound_to 11000
  140.8726  134.2707  157.5183 LP  0  0  0  0  0  0  0  0  0  0  0  0  # atno 17395 bound_to 11000

$$$$
