AV-unprocessed.smi:99|AV-procd|sdf|869|dock10
  -GOLD-   2262017323D 1   1.00000     0.00000
 Structure written by MMmdl.
 53 56  0  0  0  0  0  0  0  0  1 V2000
  149.5809  137.4176  159.7103 O   0  0  0  0  0  0  0  0  0  0  0  0
  148.8558  136.4758  159.3829 C   0  0  0  0  0  0  0  0  0  0  0  0
  148.6802  136.0798  158.1068 O   0  0  0  0  0  0  0  0  0  0  0  0
  149.6316  136.4371  157.1180 C   0  0  0  0  0  0  0  0  0  0  0  0
  149.7153  137.9683  157.0181 C   0  0  2  0  0  0  0  0  0  0  0  0
  148.5270  138.4636  156.4128 O   0  0  0  0  0  0  0  0  0  0  0  0
  148.6806  138.5156  155.0292 C   0  0  1  0  0  0  0  0  0  0  0  0
  147.9808  139.7725  154.5504 N   0  0  0  0  0  0  0  0  0  0  0  0
  148.3528  141.0266  155.0214 C   0  0  0  0  0  0  0  0  0  0  0  0
  147.7050  142.1691  154.6929 C   0  0  0  0  0  0  0  0  0  0  0  0
  146.5344  142.1310  153.8243 C   0  0  0  0  0  0  0  0  0  0  0  0
  145.8900  143.1115  153.4581 O   0  0  0  0  0  0  0  0  0  0  0  0
  146.1589  140.8481  153.4173 N   0  0  0  0  0  0  0  0  0  0  0  0
  146.8111  139.6627  153.7618 C   0  0  0  0  0  0  0  0  0  0  0  0
  146.3592  138.5871  153.3710 O   0  0  0  0  0  0  0  0  0  0  0  0
  150.1877  138.4877  154.7040 C   0  0  2  0  0  0  0  0  0  0  0  0
  150.5571  137.3392  153.9666 O   0  0  0  0  0  0  0  0  0  0  0  0
  150.8393  138.4309  156.0851 C   0  0  1  0  0  0  0  0  0  0  0  0
  151.2832  139.7165  156.5015 O   0  0  0  0  0  0  0  0  0  0  0  0
  151.7870  139.9122  157.7386 C   0  0  0  0  0  0  0  0  0  0  0  0
  152.1246  138.9972  158.4921 O   0  0  0  0  0  0  0  0  0  0  0  0
  151.9014  141.3560  158.0919 C   0  0  0  0  0  0  0  0  0  0  0  0
  152.7029  141.7395  159.1924 C   0  0  0  0  0  0  0  0  0  0  0  0
  152.8319  143.0965  159.5469 C   0  0  0  0  0  0  0  0  0  0  0  0
  152.1621  144.0867  158.8047 C   0  0  0  0  0  0  0  0  0  0  0  0
  151.3632  143.7182  157.7067 C   0  0  0  0  0  0  0  0  0  0  0  0
  151.2324  142.3617  157.3507 C   0  0  0  0  0  0  0  0  0  0  0  0
  148.0809  135.6561  160.3585 C   0  0  0  0  0  0  0  0  0  0  0  0
  147.6294  134.3706  159.9785 C   0  0  0  0  0  0  0  0  0  0  0  0
  146.8956  133.5728  160.8779 C   0  0  0  0  0  0  0  0  0  0  0  0
  146.6047  134.0507  162.1688 C   0  0  0  0  0  0  0  0  0  0  0  0
  147.0476  135.3279  162.5590 C   0  0  0  0  0  0  0  0  0  0  0  0
  147.7814  136.1274  161.6607 C   0  0  0  0  0  0  0  0  0  0  0  0
  145.3376  140.7709  152.8350 H   0  0  0  0  0  0  0  0  0  0  0  0
  150.6031  136.0334  157.4064 H   0  0  0  0  0  0  0  0  0  0  0  0
  149.3670  135.9969  156.1558 H   0  0  0  0  0  0  0  0  0  0  0  0
  149.8381  138.3882  158.0177 H   0  0  0  0  0  0  0  0  0  0  0  0
  148.1703  137.6624  154.5799 H   0  0  0  0  0  0  0  0  0  0  0  0
  149.1920  141.1186  155.6916 H   0  0  0  0  0  0  0  0  0  0  0  0
  148.0498  143.1160  155.0829 H   0  0  0  0  0  0  0  0  0  0  0  0
  150.4972  139.3563  154.1229 H   0  0  0  0  0  0  0  0  0  0  0  0
  149.9157  137.1965  153.2875 H   0  0  0  0  0  0  0  0  0  0  0  0
  151.6780  137.7332  156.1200 H   0  0  0  0  0  0  0  0  0  0  0  0
  153.2268  140.9971  159.7774 H   0  0  0  0  0  0  0  0  0  0  0  0
  153.4457  143.3776  160.3900 H   0  0  0  0  0  0  0  0  0  0  0  0
  152.2609  145.1271  159.0770 H   0  0  0  0  0  0  0  0  0  0  0  0
  150.8493  144.4774  157.1353 H   0  0  0  0  0  0  0  0  0  0  0  0
  150.6127  142.1144  156.5009 H   0  0  0  0  0  0  0  0  0  0  0  0
  147.8412  133.9819  158.9927 H   0  0  0  0  0  0  0  0  0  0  0  0
  146.5563  132.5928  160.5765 H   0  0  0  0  0  0  0  0  0  0  0  0
  146.0430  133.4380  162.8587 H   0  0  0  0  0  0  0  0  0  0  0  0
  146.8247  135.6960  163.5497 H   0  0  0  0  0  0  0  0  0  0  0  0
  148.1064  137.1027  161.9923 H   0  0  0  0  0  0  0  0  0  0  0  0
  1  2  2  0  0  0  0
  2  3  1  0  0  0  0
  2 28  1  0  0  0  0
  3  4  1  0  0  0  0
  4  5  1  0  0  0  0
  4 35  1  0  0  0  0
  4 36  1  0  0  0  0
  5 18  1  0  0  0  0
  5  6  1  0  0  0  0
  5 37  1  0  0  0  0
  6  7  1  0  0  0  0
  7  8  1  0  0  0  0
  7 16  1  0  0  0  0
  7 38  1  0  0  0  0
  8 14  1  0  0  0  0
  8  9  1  0  0  0  0
  9 10  2  0  0  0  0
  9 39  1  0  0  0  0
 10 11  1  0  0  0  0
 10 40  1  0  0  0  0
 11 12  2  0  0  0  0
 11 13  1  0  0  0  0
 13 34  1  0  0  0  0
 13 14  1  0  0  0  0
 14 15  2  0  0  0  0
 16 17  1  0  0  0  0
 16 18  1  0  0  0  0
 16 41  1  0  0  0  0
 17 42  1  0  0  0  0
 18 19  1  0  0  0  0
 18 43  1  0  0  0  0
 19 20  1  0  0  0  0
 20 21  2  0  0  0  0
 20 22  1  0  0  0  0
 22 27  1  0  0  0  0
 22 23  2  0  0  0  0
 23 24  1  0  0  0  0
 23 44  1  0  0  0  0
 24 25  2  0  0  0  0
 24 45  1  0  0  0  0
 25 26  1  0  0  0  0
 25 46  1  0  0  0  0
 26 27  2  0  0  0  0
 26 47  1  0  0  0  0
 27 48  1  0  0  0  0
 28 33  1  0  0  0  0
 28 29  2  0  0  0  0
 29 30  1  0  0  0  0
 29 49  1  0  0  0  0
 30 31  2  0  0  0  0
 30 50  1  0  0  0  0
 31 32  1  0  0  0  0
 31 51  1  0  0  0  0
 32 33  2  0  0  0  0
 32 52  1  0  0  0  0
 33 53  1  0  0  0  0
M  END
> <s_m_source_file>
AV-unprocessed.smi

> <i_m_source_file_index>
99

> <i_lp_mmshare_version>
43012

> <i_f3d_flags>
0

> <s_epik_input>
W2NIXTFbY0hdW2NIXVtjSF1bY0hdYzFDKD1PKU9bQ0gyXVtDQEBIXTJPW0NAQEhdKG4zW2NIXVtjSF1jKD1PKVtuSF1jMz1PKVtDQEBIXShbT0hdKVtDQEhdMk9DKD1PKWM0W2NIXVtjSF1bY0hdW2NIXVtjSF00

> <s_epik_cmdline>
J2VwaWtfcHl0aG9uJywgJy1waCcsICc3LjAnLCAnLXRuJywgJzgnLCAnLW1hJywgJzIwMCcsICctbWV0YWxfYmluZGluZycsICctaW1hZScsICc8aW5maWxlLm1hZT4nLCAnLW9tYWUnLCAnPG91dGZpbGUubWFlPic=

> <r_lp_tautomer_probability>
1

> <r_epik_Ionization_Penalty>
0.00454555

> <r_epik_Ionization_Penalty_Charging>
0.0045191

> <r_epik_Ionization_Penalty_Neutral>
2.64449e-05

> <r_epik_State_Penalty>
-0

> <r_epik_Charging_Adjusted_Penalty>
0.0045191

> <i_epik_Tot_Q>
0

> <i_epik_Tot_abs_Q>
0

> <r_epik_Metal_State_Penalty>
1.27877

> <b_epik_Metal_Only>
0

> <s_epik_Chemistry_Notes>
This compound has an ester and may undergo hydrolysis at high or low pH. This compound contains an acetal/aminal-like group ( X-CH(R)-Y where X, Y are N, S, or O) that may be acid/base labile, releasing an aldehyde.

> <s_lp_Force_Field>
OPLS_2005

> <r_lp_Energy>
32.4523

> <b_lp_Chiralities_Consistent>
1

> <s_lp_Variant>
AV-unprocessed.smi:99-5

> <Gold.Version>
5.8.1

> <Gold.Id.Protein>
6NUR|6NUR_protein|mol2

> <Gold.PLP.Fitness>
62.8976

> <Gold.PLP.PLP>
-58.3593

> <Gold.PLP.part.hbond>
-4.0000

> <Gold.PLP.part.metal>
0.0000

> <Gold.PLP.part.buried>
-6.5409

> <Gold.PLP.part.nonpolar>
-49.0816

> <Gold.PLP.part.repulsive>
0.4276

> <Gold.PLP.ligand.clash>
0.0000

> <Gold.PLP.ligand.torsion>
0.8309

> <Gold.PLP.Chemscore.Hbond>
1.9573

> <Gold.PLP.Chemscore.CHOScore>
0.0000

> <Gold.PLP.Chemscore.Metal>
0.0000

> <Gold.Chemscore.Hbonds>
donor molecule, donor type, donor heavy atom, donor atom, acceptor molecule, acceptor atom, score
      L1  H    13    34       P1 10175  1.00
      L1  H    17    42       P1  7948  1.00
      P1  H  6931  6943       L1     1  0.03

> <Gold.PLP.Chemscore.Internal.Correction>
0.3281

> <Gold.Rescore>
     Score         DG    S(hbond)    S(metal)    S(lipo)     H(rot)  DE(clash)    DE(int)     intcor
     16.93     -19.13       1.67        0.00     138.70       3.19       0.05       2.14       ----

> <Gold.Chemscore.Fitness>
16.9308

> <Gold.Chemscore.DG>
-19.1276

> <Gold.Chemscore.ZeroCoef>
-5.4800

> <Gold.Chemscore.Hbond>
1.6728

> <Gold.Chemscore.Metal>
0.0000

> <Gold.Chemscore.Lipo>
138.6966

> <Gold.Chemscore.Internal_Hbond>
0.0000

> <Gold.Chemscore.DEClash>
0.0546

> <Gold.Chemscore.DEInternal>
2.1422

> <Gold.Chemscore.Rot>
3.1903

> <Gold.Chemscore.Internal.Correction>
   9.000000E+99

> <Gold.Chemscore.Hbonds>
donor molecule, donor type, donor heavy atom, donor atom, acceptor molecule, acceptor atom, score
      L1  H    13    34       P1 10175  0.44
      L1  H    17    42       P1  7948  0.34
      P1  H  6931  6943       L1     1  0.03

> <Gold.Chemscore.Hbond.Weighted>
-5.5872

> <Gold.Chemscore.Metal.Weighted>
-0.0000

> <Gold.Chemscore.Lipo.Weighted>
-16.2275

> <Gold.Chemscore.Internal_Hbond.Weighted>
0.0000

> <Gold.Chemscore.DEClash.Weighted>
0.0546

> <Gold.Chemscore.DEInternal.Weighted>
2.1422

> <Gold.Chemscore.Rot.Weighted>
8.1671

> <Gold.Chemscore.Internal.Correction.Weighted>
   9.000000E+99

> <Gold.Protein.RotatedTorsions>
[ 6907 6896 6895 6894 ] final   12.51 input  -60.11 | X-H torsion
[ 7974 7965 7964 7962 ] final -169.43 input  175.53 | X-H torsion
[ 8008 7997 7996 7995 ] final -126.26 input   59.86 | X-H torsion
[ 10167 10162 10161 10158 ] final  156.18 input  -65.29 | X-H torsion
[ 10718 10713 10712 10709 ] final -117.46 input   66.30 | X-H torsion
[ 10763 10752 10751 10750 ] final  -22.45 input  -60.55 | X-H torsion
[ 11005 11000 10999 10996 ] final  157.85 input  -57.11 | X-H torsion

> <Gold.Protein.ActiveResidues>
 VAL166  LYS551  ARG553  GLY616  TRP617  ASP618  TYR619  PRO620  LYS621  CYS622 
 ASP623  PHE694  ASN695  SER759  ASP760  ASP761  ALA762  ILE779  LEU786  VAL792 
 PHE793  MET794  SER795  GLU796  ALA797  LYS798  CYS799  TRP800  GLU811  SER814 

> <Gold.Protein.RotatedAtoms>
  151.7715  135.0785  160.0360 H   0  0  0  0  0  0  0  0  0  0  0  0  # atno 6907 bound_to 6896
  152.3285  133.5927  159.5801 H   0  0  0  0  0  0  0  0  0  0  0  0  # atno 6908 bound_to 6896
  150.7409  133.9820  159.3621 H   0  0  0  0  0  0  0  0  0  0  0  0  # atno 6909 bound_to 6896
  144.7185  140.2222  143.6314 H   0  0  0  0  0  0  0  0  0  0  0  0  # atno 7974 bound_to 7965
  155.2267  140.0424  157.2956 H   0  0  0  0  0  0  0  0  0  0  0  0  # atno 8008 bound_to 7997
  154.5914  140.2428  155.7886 H   0  0  0  0  0  0  0  0  0  0  0  0  # atno 8009 bound_to 7997
  156.2262  140.2954  156.0081 H   0  0  0  0  0  0  0  0  0  0  0  0  # atno 8010 bound_to 7997
  139.4821  144.5032  151.8137 H   0  0  0  0  0  0  0  0  0  0  0  0  # atno 10167 bound_to 10162
  156.1035  130.6192  150.9167 H   0  0  0  0  0  0  0  0  0  0  0  0  # atno 10718 bound_to 10713
  153.6521  135.6980  153.5205 H   0  0  0  0  0  0  0  0  0  0  0  0  # atno 10763 bound_to 10752
  153.2698  135.4218  155.0976 H   0  0  0  0  0  0  0  0  0  0  0  0  # atno 10764 bound_to 10752
  154.8474  135.3575  154.6066 H   0  0  0  0  0  0  0  0  0  0  0  0  # atno 10765 bound_to 10752
  140.1809  134.8476  157.2801 H   0  0  0  0  0  0  0  0  0  0  0  0  # atno 11005 bound_to 11000
  145.8490  139.2166  143.1783 LP  0  0  0  0  0  0  0  0  0  0  0  0  # atno 17320 bound_to 7965
  146.0278  140.8287  142.9891 LP  0  0  0  0  0  0  0  0  0  0  0  0  # atno 17321 bound_to 7965
  140.4527  144.1832  150.5899 LP  0  0  0  0  0  0  0  0  0  0  0  0  # atno 17342 bound_to 10162
  140.4567  143.2465  151.9275 LP  0  0  0  0  0  0  0  0  0  0  0  0  # atno 17343 bound_to 10162
  157.6209  131.0929  150.8624 LP  0  0  0  0  0  0  0  0  0  0  0  0  # atno 17370 bound_to 10713
  156.8747  130.5158  149.5294 LP  0  0  0  0  0  0  0  0  0  0  0  0  # atno 17371 bound_to 10713
  140.2269  134.3956  155.7540 LP  0  0  0  0  0  0  0  0  0  0  0  0  # atno 17394 bound_to 11000
  141.2223  133.7194  156.8578 LP  0  0  0  0  0  0  0  0  0  0  0  0  # atno 17395 bound_to 11000

$$$$
