AV-unprocessed.smi:2068|AV-procd|sdf|8427|dock7
  -GOLD-   2272011123D 1   1.00000     0.00000
 Structure written by MMmdl.
 33 34  0  0  0  0  0  0  0  0  1 V2000
  145.0682  137.9716  152.3241 N   0  0  0  0  0  0  0  0  0  0  0  0
  146.3469  138.3531  152.2578 C   0  0  0  0  0  0  0  0  0  0  0  0
  146.8824  138.6763  151.1994 O   0  0  0  0  0  0  0  0  0  0  0  0
  147.1374  138.3814  153.5674 C   0  0  0  0  0  0  0  0  0  0  0  0
  147.2318  139.7852  154.0909 C   0  0  0  0  0  0  0  0  0  0  0  0
  146.2286  140.7239  154.1215 C   0  0  0  0  0  0  0  0  0  0  0  0
  146.7630  142.2317  154.8144 S   0  0  0  0  0  0  0  0  0  0  0  0
  148.3517  141.5184  155.0433 C   0  0  0  0  0  0  0  0  0  0  0  0
  149.4236  142.2428  155.6271 N   0  0  0  0  0  0  0  0  0  0  0  0
  150.5969  141.7701  156.0882 C   0  0  0  0  0  0  0  0  0  0  0  0
  150.9388  140.5879  156.0476 O   0  0  0  0  0  0  0  0  0  0  0  0
  151.5466  142.8147  156.6868 C   0  0  0  0  0  0  0  0  0  0  0  0
  151.3698  143.0198  158.2078 C   0  0  2  0  0  0  0  0  0  0  0  0
  152.3235  144.0299  158.7998 C   0  0  0  0  0  0  0  0  0  0  0  0
  153.0089  143.5464  159.8331 C   0  0  0  0  0  0  0  0  0  0  0  0
  152.6550  142.1182  160.1411 C   0  0  0  0  0  0  0  0  0  0  0  0
  151.6493  141.7366  159.0319 C   0  0  0  0  0  0  0  0  0  0  0  0
  148.4381  140.2507  154.6251 N   0  0  0  0  0  0  0  0  0  0  0  0
  144.5129  137.9300  151.4819 H   0  0  0  0  0  0  0  0  0  0  0  0
  144.6642  137.7175  153.2142 H   0  0  0  0  0  0  0  0  0  0  0  0
  146.6480  137.7344  154.2966 H   0  0  0  0  0  0  0  0  0  0  0  0
  148.1290  137.9584  153.3998 H   0  0  0  0  0  0  0  0  0  0  0  0
  145.2108  140.6193  153.7753 H   0  0  0  0  0  0  0  0  0  0  0  0
  149.2799  143.2385  155.7099 H   0  0  0  0  0  0  0  0  0  0  0  0
  152.5686  142.4964  156.4785 H   0  0  0  0  0  0  0  0  0  0  0  0
  151.4110  143.7676  156.1722 H   0  0  0  0  0  0  0  0  0  0  0  0
  150.3566  143.3662  158.4178 H   0  0  0  0  0  0  0  0  0  0  0  0
  152.4088  145.0373  158.4190 H   0  0  0  0  0  0  0  0  0  0  0  0
  153.7340  144.0982  160.4127 H   0  0  0  0  0  0  0  0  0  0  0  0
  153.5445  141.4882  160.1172 H   0  0  0  0  0  0  0  0  0  0  0  0
  152.2063  142.0525  161.1326 H   0  0  0  0  0  0  0  0  0  0  0  0
  150.7290  141.3335  159.4560 H   0  0  0  0  0  0  0  0  0  0  0  0
  152.0773  140.9543  158.4038 H   0  0  0  0  0  0  0  0  0  0  0  0
  1  2  1  0  0  0  0
  1 19  1  0  0  0  0
  1 20  1  0  0  0  0
  2  3  2  0  0  0  0
  2  4  1  0  0  0  0
  4  5  1  0  0  0  0
  4 21  1  0  0  0  0
  4 22  1  0  0  0  0
  5 18  1  0  0  0  0
  5  6  2  0  0  0  0
  6  7  1  0  0  0  0
  6 23  1  0  0  0  0
  7  8  1  0  0  0  0
  8  9  1  0  0  0  0
  8 18  2  0  0  0  0
  9 10  1  0  0  0  0
  9 24  1  0  0  0  0
 10 11  2  0  0  0  0
 10 12  1  0  0  0  0
 12 13  1  0  0  0  0
 12 25  1  0  0  0  0
 12 26  1  0  0  0  0
 13 17  1  0  0  0  0
 13 14  1  0  0  0  0
 13 27  1  0  0  0  0
 14 15  2  0  0  0  0
 14 28  1  0  0  0  0
 15 16  1  0  0  0  0
 15 29  1  0  0  0  0
 16 17  1  0  0  0  0
 16 30  1  0  0  0  0
 16 31  1  0  0  0  0
 17 32  1  0  0  0  0
 17 33  1  0  0  0  0
M  END
> <s_m_source_file>
AV-unprocessed.smi

> <i_m_source_file_index>
2068

> <i_lp_mmshare_version>
43012

> <i_f3d_flags>
0

> <s_epik_input>
W05IMl1DKD1PKVtDSDJdYzFbY0hdc2MobjEpW05IXUMoPU8pW0NIMl1bQ0BASF0yW0NIXT1bQ0hdW0NIMl1bQ0gyXTI=

> <s_epik_cmdline>
J2VwaWtfcHl0aG9uJywgJy1waCcsICc3LjAnLCAnLXRuJywgJzgnLCAnLW1hJywgJzIwMCcsICctbWV0YWxfYmluZGluZycsICctaW1hZScsICc8aW5maWxlLm1hZT4nLCAnLW9tYWUnLCAnPG91dGZpbGUubWFlPic=

> <r_lp_tautomer_probability>
1

> <r_epik_Ionization_Penalty>
0.000253249

> <r_epik_Ionization_Penalty_Charging>
0

> <r_epik_Ionization_Penalty_Neutral>
0.000253249

> <r_epik_State_Penalty>
-0

> <r_epik_Charging_Adjusted_Penalty>
0

> <i_epik_Tot_Q>
0

> <i_epik_Tot_abs_Q>
0

> <r_epik_Metal_State_Penalty>
0.148671

> <b_epik_Metal_Only>
0

> <s_lp_Force_Field>
OPLS_2005

> <r_lp_Energy>
16.3977

> <b_lp_Chiralities_Consistent>
1

> <s_lp_Variant>
AV-unprocessed.smi:2068-1

> <Gold.Version>
5.8.1

> <Gold.Id.Protein>
6NUR|6NUR_protein|mol2

> <Gold.PLP.Fitness>
44.4733

> <Gold.PLP.PLP>
-34.3870

> <Gold.PLP.part.hbond>
-4.0000

> <Gold.PLP.part.metal>
0.0000

> <Gold.PLP.part.buried>
-5.7245

> <Gold.PLP.part.nonpolar>
-27.0871

> <Gold.PLP.part.repulsive>
1.5784

> <Gold.PLP.ligand.clash>
0.0000

> <Gold.PLP.ligand.torsion>
0.9310

> <Gold.PLP.Chemscore.Hbond>
2.9760

> <Gold.PLP.Chemscore.CHOScore>
1.0000

> <Gold.PLP.Chemscore.Metal>
0.0000

> <Gold.Chemscore.Hbonds>
donor molecule, donor type, donor heavy atom, donor atom, acceptor molecule, acceptor atom, score
      L1  H     1    19       P1 10171  1.00
      L1  H     9    24       P1  8028  1.00
      P1  H  7954  7966       L1     3  1.00
      L1  C     6    23       P1 10175  0.94

> <Gold.PLP.Chemscore.Internal.Correction>
0.0203

> <Gold.Rescore>
     Score         DG    S(hbond)    S(metal)    S(lipo)     H(rot)  DE(clash)    DE(int)     intcor
     15.35     -19.27       2.87        0.00      84.28       2.21       1.79       2.13       ----

> <Gold.Chemscore.Fitness>
15.3523

> <Gold.Chemscore.DG>
-19.2660

> <Gold.Chemscore.ZeroCoef>
-5.4800

> <Gold.Chemscore.Hbond>
2.8656

> <Gold.Chemscore.Metal>
0.0000

> <Gold.Chemscore.Lipo>
84.2773

> <Gold.Chemscore.Internal_Hbond>
0.0000

> <Gold.Chemscore.DEClash>
1.7881

> <Gold.Chemscore.DEInternal>
2.1256

> <Gold.Chemscore.Rot>
2.2053

> <Gold.Chemscore.Internal.Correction>
   9.000000E+99

> <Gold.Chemscore.Hbonds>
donor molecule, donor type, donor heavy atom, donor atom, acceptor molecule, acceptor atom, score
      L1  H     1    19       P1 10171  0.97
      L1  H     9    24       P1  8028  0.93
      P1  H  7954  7966       L1     3  0.92

> <Gold.Chemscore.Hbond.Weighted>
-9.5712

> <Gold.Chemscore.Metal.Weighted>
-0.0000

> <Gold.Chemscore.Lipo.Weighted>
-9.8604

> <Gold.Chemscore.Internal_Hbond.Weighted>
0.0000

> <Gold.Chemscore.DEClash.Weighted>
1.7881

> <Gold.Chemscore.DEInternal.Weighted>
2.1256

> <Gold.Chemscore.Rot.Weighted>
5.6456

> <Gold.Chemscore.Internal.Correction.Weighted>
   9.000000E+99

> <Gold.Protein.RotatedTorsions>
[ 6907 6896 6895 6894 ] final  -24.08 input  -60.11 | X-H torsion
[ 7974 7965 7964 7962 ] final -131.63 input  175.53 | X-H torsion
[ 8008 7997 7996 7995 ] final  -59.53 input   59.86 | X-H torsion
[ 10167 10162 10161 10158 ] final   85.76 input  -65.29 | X-H torsion
[ 10718 10713 10712 10709 ] final   38.52 input   66.30 | X-H torsion
[ 10763 10752 10751 10750 ] final  -55.70 input  -60.55 | X-H torsion
[ 11005 11000 10999 10996 ] final -133.37 input  -57.11 | X-H torsion

> <Gold.Protein.ActiveResidues>
 VAL166  LYS551  ARG553  GLY616  TRP617  ASP618  TYR619  PRO620  LYS621  CYS622 
 ASP623  PHE694  ASN695  SER759  ASP760  ASP761  ALA762  ILE779  LEU786  VAL792 
 PHE793  MET794  SER795  GLU796  ALA797  LYS798  CYS799  TRP800  GLU811  SER814 

> <Gold.Protein.RotatedAtoms>
  151.1947  135.0417  159.8846 H   0  0  0  0  0  0  0  0  0  0  0  0  # atno 6907 bound_to 6896
  152.5437  134.0917  159.8290 H   0  0  0  0  0  0  0  0  0  0  0  0  # atno 6908 bound_to 6896
  151.1050  133.5168  159.2640 H   0  0  0  0  0  0  0  0  0  0  0  0  # atno 6909 bound_to 6896
  144.9361  140.7185  143.4875 H   0  0  0  0  0  0  0  0  0  0  0  0  # atno 7974 bound_to 7965
  154.4357  140.1059  156.6131 H   0  0  0  0  0  0  0  0  0  0  0  0  # atno 8008 bound_to 7997
  155.5788  140.3490  155.4516 H   0  0  0  0  0  0  0  0  0  0  0  0  # atno 8009 bound_to 7997
  156.0334  140.1265  157.0223 H   0  0  0  0  0  0  0  0  0  0  0  0  # atno 8010 bound_to 7997
  139.8945  144.6366  150.8703 H   0  0  0  0  0  0  0  0  0  0  0  0  # atno 10167 bound_to 10162
  157.3598  130.7643  149.7039 H   0  0  0  0  0  0  0  0  0  0  0  0  # atno 10718 bound_to 10713
  154.1950  135.6421  153.5071 H   0  0  0  0  0  0  0  0  0  0  0  0  # atno 10763 bound_to 10752
  153.0026  135.5438  154.6375 H   0  0  0  0  0  0  0  0  0  0  0  0  # atno 10764 bound_to 10752
  154.5774  135.2922  155.0740 H   0  0  0  0  0  0  0  0  0  0  0  0  # atno 10765 bound_to 10752
  140.9086  134.1597  157.4406 H   0  0  0  0  0  0  0  0  0  0  0  0  # atno 11005 bound_to 11000
  145.3064  139.1833  143.4662 LP  0  0  0  0  0  0  0  0  0  0  0  0  # atno 17320 bound_to 7965
  146.3267  140.3063  142.8624 LP  0  0  0  0  0  0  0  0  0  0  0  0  # atno 17321 bound_to 7965
  140.7720  143.3484  151.2063 LP  0  0  0  0  0  0  0  0  0  0  0  0  # atno 17342 bound_to 10162
  139.7080  143.9423  152.2935 LP  0  0  0  0  0  0  0  0  0  0  0  0  # atno 17343 bound_to 10162
  155.9735  130.4117  150.3994 LP  0  0  0  0  0  0  0  0  0  0  0  0  # atno 17370 bound_to 10713
  157.2069  131.0451  151.2620 LP  0  0  0  0  0  0  0  0  0  0  0  0  # atno 17371 bound_to 10713
  139.8753  134.9927  156.5608 LP  0  0  0  0  0  0  0  0  0  0  0  0  # atno 17394 bound_to 11000
  140.8139  133.8407  155.8834 LP  0  0  0  0  0  0  0  0  0  0  0  0  # atno 17395 bound_to 11000

$$$$
