AV-unprocessed.smi:246|AV-procd|sdf|1880|dock8
  -GOLD-   2262020523D 1   1.00000     0.00000
 Structure written by MMmdl.
 57 60  0  0  0  0  0  0  0  0  1 V2000
  152.0177  144.7726  160.5084 C   0  0  0  0  0  0  0  0  0  0  0  0
  152.3370  145.4310  159.1593 C   0  0  0  0  0  0  0  0  0  0  0  0
  152.7579  144.4791  158.1923 O   0  0  0  0  0  0  0  0  0  0  0  0
  151.7044  143.9248  157.4174 C   0  0  0  0  0  0  0  0  0  0  0  0
  151.5639  142.4411  157.7690 C   0  0  0  0  0  0  0  0  0  0  0  0
  150.3244  141.9609  157.2698 O   0  0  0  0  0  0  0  0  0  0  0  0
  150.3972  141.4701  155.9390 C   0  0  1  0  0  0  0  0  0  0  0  0
  151.2787  140.2296  155.8083 C   0  0  0  0  0  0  0  0  0  0  0  0
  150.7192  139.5572  154.5574 C   0  0  0  0  0  0  0  0  0  0  0  0
  149.2934  139.8738  154.5280 N   0  0  0  0  0  0  0  0  0  0  0  0
  148.4321  138.8383  154.6524 C   0  0  0  0  0  0  0  0  0  0  0  0
  148.3647  138.1377  155.8158 N   0  0  0  0  0  0  0  0  0  0  0  0
  147.4960  137.1295  155.9392 C   0  0  0  0  0  0  0  0  0  0  0  0
  146.6224  136.6656  155.0425 N   0  0  0  0  0  0  0  0  0  0  0  0
  146.6871  137.3708  153.8764 C   0  0  0  0  0  0  0  0  0  0  0  0
  147.5517  138.4669  153.6027 C   0  0  0  0  0  0  0  0  0  0  0  0
  147.3313  138.9393  152.3153 N   0  0  0  0  0  0  0  0  0  0  0  0
  146.3934  138.1598  151.8495 C   0  0  0  0  0  0  0  0  0  0  0  0
  145.9607  137.1787  152.7141 N   0  0  0  0  0  0  0  0  0  0  0  0
  144.9336  136.1847  152.4560 C   0  0  0  0  0  0  0  0  0  0  0  0
  145.2774  135.2149  151.3017 C   0  0  2  0  0  0  0  0  0  0  0  0
  145.0860  135.9579  150.1146 O   0  0  0  0  0  0  0  0  0  0  0  0
  144.3831  133.9568  151.2012 C   0  0  2  0  0  0  0  0  0  0  0  0
  144.7264  132.8063  152.1548 C   0  0  0  0  0  0  0  0  0  0  0  0
  144.2906  131.5515  151.4127 C   0  0  0  0  0  0  0  0  0  0  0  0
  143.9868  132.0467  150.0002 C   0  0  0  0  0  0  0  0  0  0  0  0
  144.5904  133.3292  149.9433 O   0  0  0  0  0  0  0  0  0  0  0  0
  149.0314  140.9560  155.4738 C   0  0  0  0  0  0  0  0  0  0  0  0
  150.7377  142.2472  155.2520 H   0  0  0  0  0  0  0  0  0  0  0  0
  151.7910  145.5285  161.2603 H   0  0  0  0  0  0  0  0  0  0  0  0
  152.8655  144.1897  160.8686 H   0  0  0  0  0  0  0  0  0  0  0  0
  151.1556  144.1093  160.4439 H   0  0  0  0  0  0  0  0  0  0  0  0
  151.4885  146.0108  158.7934 H   0  0  0  0  0  0  0  0  0  0  0  0
  153.1557  146.1374  159.2992 H   0  0  0  0  0  0  0  0  0  0  0  0
  150.7607  144.4441  157.5852 H   0  0  0  0  0  0  0  0  0  0  0  0
  151.9497  144.0222  156.3589 H   0  0  0  0  0  0  0  0  0  0  0  0
  152.3755  141.8769  157.3072 H   0  0  0  0  0  0  0  0  0  0  0  0
  151.6437  142.3050  158.8480 H   0  0  0  0  0  0  0  0  0  0  0  0
  152.3410  140.4597  155.7243 H   0  0  0  0  0  0  0  0  0  0  0  0
  151.1372  139.5778  156.6716 H   0  0  0  0  0  0  0  0  0  0  0  0
  151.1753  139.9884  153.6658 H   0  0  0  0  0  0  0  0  0  0  0  0
  150.9330  138.4876  154.5418 H   0  0  0  0  0  0  0  0  0  0  0  0
  147.5021  136.6219  156.8925 H   0  0  0  0  0  0  0  0  0  0  0  0
  145.9939  138.2751  150.8523 H   0  0  0  0  0  0  0  0  0  0  0  0
  144.7338  135.6278  153.3723 H   0  0  0  0  0  0  0  0  0  0  0  0
  144.0178  136.7298  152.2223 H   0  0  0  0  0  0  0  0  0  0  0  0
  146.3276  134.9268  151.3562 H   0  0  0  0  0  0  0  0  0  0  0  0
  145.2837  135.4016  149.3766 H   0  0  0  0  0  0  0  0  0  0  0  0
  143.3286  134.2203  151.3078 H   0  0  0  0  0  0  0  0  0  0  0  0
  145.8022  132.7632  152.3283 H   0  0  0  0  0  0  0  0  0  0  0  0
  144.2306  132.9029  153.1201 H   0  0  0  0  0  0  0  0  0  0  0  0
  145.0924  130.8122  151.4098 H   0  0  0  0  0  0  0  0  0  0  0  0
  143.4110  131.0926  151.8653 H   0  0  0  0  0  0  0  0  0  0  0  0
  144.3801  131.3859  149.2276 H   0  0  0  0  0  0  0  0  0  0  0  0
  142.9107  132.1473  149.8502 H   0  0  0  0  0  0  0  0  0  0  0  0
  148.4615  140.5869  156.3290 H   0  0  0  0  0  0  0  0  0  0  0  0
  148.4459  141.7483  155.0069 H   0  0  0  0  0  0  0  0  0  0  0  0
  1  2  1  0  0  0  0
  1 30  1  0  0  0  0
  1 31  1  0  0  0  0
  1 32  1  0  0  0  0
  2  3  1  0  0  0  0
  2 33  1  0  0  0  0
  2 34  1  0  0  0  0
  3  4  1  0  0  0  0
  4  5  1  0  0  0  0
  4 35  1  0  0  0  0
  4 36  1  0  0  0  0
  5  6  1  0  0  0  0
  5 37  1  0  0  0  0
  5 38  1  0  0  0  0
  6  7  1  0  0  0  0
  7 29  1  0  0  0  0
  7 28  1  0  0  0  0
  7  8  1  0  0  0  0
  8  9  1  0  0  0  0
  8 39  1  0  0  0  0
  8 40  1  0  0  0  0
  9 10  1  0  0  0  0
  9 41  1  0  0  0  0
  9 42  1  0  0  0  0
 10 11  1  0  0  0  0
 10 28  1  0  0  0  0
 11 16  1  0  0  0  0
 11 12  2  0  0  0  0
 12 13  1  0  0  0  0
 13 14  2  0  0  0  0
 13 43  1  0  0  0  0
 14 15  1  0  0  0  0
 15 19  1  0  0  0  0
 15 16  2  0  0  0  0
 16 17  1  0  0  0  0
 17 18  2  0  0  0  0
 18 19  1  0  0  0  0
 18 44  1  0  0  0  0
 19 20  1  0  0  0  0
 20 21  1  0  0  0  0
 20 45  1  0  0  0  0
 20 46  1  0  0  0  0
 21 22  1  0  0  0  0
 21 23  1  0  0  0  0
 21 47  1  0  0  0  0
 22 48  1  0  0  0  0
 23 27  1  0  0  0  0
 23 24  1  0  0  0  0
 23 49  1  0  0  0  0
 24 25  1  0  0  0  0
 24 50  1  0  0  0  0
 24 51  1  0  0  0  0
 25 26  1  0  0  0  0
 25 52  1  0  0  0  0
 25 53  1  0  0  0  0
 26 27  1  0  0  0  0
 26 54  1  0  0  0  0
 26 55  1  0  0  0  0
 28 56  1  0  0  0  0
 28 57  1  0  0  0  0
M  END
> <s_m_source_file>
AV-unprocessed.smi

> <i_m_source_file_index>
246

> <i_lp_mmshare_version>
43012

> <i_f3d_flags>
0

> <s_epik_input>
W0NIM11bQ0gyXU9bQ0gyXVtDSDJdT1tDQEhdMVtDSDJdW0NIMl1OKFtDSDJdMSljKG5bY0hdbjIpYyhjMjMpbltjSF1uM1tDSDJdW0NASF0oW09IXSlbQ0BASF00W0NIMl1bQ0gyXVtDSDJdTzQ=

> <s_epik_cmdline>
J2VwaWtfcHl0aG9uJywgJy1waCcsICc3LjAnLCAnLXRuJywgJzgnLCAnLW1hJywgJzIwMCcsICctbWV0YWxfYmluZGluZycsICctaW1hZScsICc8aW5maWxlLm1hZT4nLCAnLW9tYWUnLCAnPG91dGZpbGUubWFlPic=

> <r_lp_tautomer_probability>
1

> <r_epik_Ionization_Penalty>
0.0024631

> <r_epik_Ionization_Penalty_Charging>
0

> <r_epik_Ionization_Penalty_Neutral>
0.0024631

> <r_epik_State_Penalty>
0.00162428

> <r_epik_Charging_Adjusted_Penalty>
0.00162428

> <i_epik_Tot_Q>
0

> <i_epik_Tot_abs_Q>
0

> <r_epik_Metal_State_Penalty>
-0

> <b_epik_Metal_Only>
0

> <s_lp_Force_Field>
OPLS_2005

> <r_lp_Energy>
54.9549

> <b_lp_Chiralities_Consistent>
1

> <s_lp_Variant>
AV-unprocessed.smi:246-1

> <Gold.Version>
5.8.1

> <Gold.Id.Protein>
6NUR|6NUR_protein|mol2

> <Gold.PLP.Fitness>
53.5330

> <Gold.PLP.PLP>
-49.2756

> <Gold.PLP.part.hbond>
-1.9078

> <Gold.PLP.part.metal>
0.0000

> <Gold.PLP.part.buried>
-7.3201

> <Gold.PLP.part.nonpolar>
-45.1945

> <Gold.PLP.part.repulsive>
4.7877

> <Gold.PLP.ligand.clash>
0.0000

> <Gold.PLP.ligand.torsion>
1.1811

> <Gold.PLP.Chemscore.Hbond>
1.0000

> <Gold.PLP.Chemscore.CHOScore>
1.0000

> <Gold.PLP.Chemscore.Metal>
0.0000

> <Gold.Chemscore.Hbonds>
donor molecule, donor type, donor heavy atom, donor atom, acceptor molecule, acceptor atom, score
      L1  H    22    48       P1  7921  1.00
      L1  C    18    44       P1 10171  1.00

> <Gold.PLP.Chemscore.Internal.Correction>
0.6197

> <Gold.Rescore>
     Score         DG    S(hbond)    S(metal)    S(lipo)     H(rot)  DE(clash)    DE(int)     intcor
     10.20     -13.69       0.98        0.00     116.02       3.37       1.43       2.05       ----

> <Gold.Chemscore.Fitness>
10.2025

> <Gold.Chemscore.DG>
-13.6894

> <Gold.Chemscore.ZeroCoef>
-5.4800

> <Gold.Chemscore.Hbond>
0.9795

> <Gold.Chemscore.Metal>
0.0000

> <Gold.Chemscore.Lipo>
116.0245

> <Gold.Chemscore.Internal_Hbond>
0.0000

> <Gold.Chemscore.DEClash>
1.4332

> <Gold.Chemscore.DEInternal>
2.0537

> <Gold.Chemscore.Rot>
3.3739

> <Gold.Chemscore.Internal.Correction>
   9.000000E+99

> <Gold.Chemscore.Hbonds>
donor molecule, donor type, donor heavy atom, donor atom, acceptor molecule, acceptor atom, score
      L1  H    22    48       P1  7921  0.94

> <Gold.Chemscore.Hbond.Weighted>
-3.2717

> <Gold.Chemscore.Metal.Weighted>
-0.0000

> <Gold.Chemscore.Lipo.Weighted>
-13.5749

> <Gold.Chemscore.Internal_Hbond.Weighted>
0.0000

> <Gold.Chemscore.DEClash.Weighted>
1.4332

> <Gold.Chemscore.DEInternal.Weighted>
2.0537

> <Gold.Chemscore.Rot.Weighted>
8.6371

> <Gold.Chemscore.Internal.Correction.Weighted>
   9.000000E+99

> <Gold.Protein.RotatedTorsions>
[ 6907 6896 6895 6894 ] final  -76.59 input  -60.11 | X-H torsion
[ 7974 7965 7964 7962 ] final   95.18 input  175.53 | X-H torsion
[ 8008 7997 7996 7995 ] final   30.30 input   59.86 | X-H torsion
[ 10167 10162 10161 10158 ] final -109.77 input  -65.29 | X-H torsion
[ 10718 10713 10712 10709 ] final   57.44 input   66.30 | X-H torsion
[ 10763 10752 10751 10750 ] final  -53.26 input  -60.55 | X-H torsion
[ 11005 11000 10999 10996 ] final  116.97 input  -57.11 | X-H torsion

> <Gold.Protein.ActiveResidues>
 VAL166  LYS551  ARG553  GLY616  TRP617  ASP618  TYR619  PRO620  LYS621  CYS622 
 ASP623  PHE694  ASN695  SER759  ASP760  ASP761  ALA762  ILE779  LEU786  VAL792 
 PHE793  MET794  SER795  GLU796  ALA797  LYS798  CYS799  TRP800  GLU811  SER814 

> <Gold.Protein.RotatedAtoms>
  150.7023  134.4549  159.5353 H   0  0  0  0  0  0  0  0  0  0  0  0  # atno 6907 bound_to 6896
  152.2235  134.8388  160.0492 H   0  0  0  0  0  0  0  0  0  0  0  0  # atno 6908 bound_to 6896
  151.9230  133.3555  159.3940 H   0  0  0  0  0  0  0  0  0  0  0  0  # atno 6909 bound_to 6896
  145.4556  139.2290  143.3015 H   0  0  0  0  0  0  0  0  0  0  0  0  # atno 7974 bound_to 7965
  155.0882  140.3217  155.4581 H   0  0  0  0  0  0  0  0  0  0  0  0  # atno 8008 bound_to 7997
  156.2749  140.2082  156.5955 H   0  0  0  0  0  0  0  0  0  0  0  0  # atno 8009 bound_to 7997
  154.6925  140.0515  157.0364 H   0  0  0  0  0  0  0  0  0  0  0  0  # atno 8010 bound_to 7997
  140.1516  143.4194  152.1490 H   0  0  0  0  0  0  0  0  0  0  0  0  # atno 10167 bound_to 10162
  157.5515  130.8769  149.8970 H   0  0  0  0  0  0  0  0  0  0  0  0  # atno 10718 bound_to 10713
  154.1560  135.6482  153.4974 H   0  0  0  0  0  0  0  0  0  0  0  0  # atno 10763 bound_to 10752
  153.0124  135.5349  154.6759 H   0  0  0  0  0  0  0  0  0  0  0  0  # atno 10764 bound_to 10752
  154.6060  135.2949  155.0456 H   0  0  0  0  0  0  0  0  0  0  0  0  # atno 10765 bound_to 10752
  139.9059  134.9604  156.7279 H   0  0  0  0  0  0  0  0  0  0  0  0  # atno 11005 bound_to 11000
  146.2480  140.5320  142.8905 LP  0  0  0  0  0  0  0  0  0  0  0  0  # atno 17320 bound_to 7965
  144.8034  140.6255  143.6463 LP  0  0  0  0  0  0  0  0  0  0  0  0  # atno 17321 bound_to 7965
  139.5423  144.7267  151.4695 LP  0  0  0  0  0  0  0  0  0  0  0  0  # atno 17342 bound_to 10162
  140.6698  143.8318  150.6986 LP  0  0  0  0  0  0  0  0  0  0  0  0  # atno 17343 bound_to 10162
  156.0581  130.3705  150.1045 LP  0  0  0  0  0  0  0  0  0  0  0  0  # atno 17370 bound_to 10713
  156.9218  130.9685  151.3547 LP  0  0  0  0  0  0  0  0  0  0  0  0  # atno 17371 bound_to 10713
  140.6948  133.9358  155.7988 LP  0  0  0  0  0  0  0  0  0  0  0  0  # atno 17394 bound_to 11000
  141.0415  134.0615  157.3896 LP  0  0  0  0  0  0  0  0  0  0  0  0  # atno 17395 bound_to 11000

$$$$
