AV-unprocessed.smi:2106|AV-procd|sdf|8599|dock2
  -GOLD-   2272011333D 1   1.00000     0.00000
 Structure written by MMmdl.
 48 49  0  0  0  0  0  0  0  0  2 V2000
  147.9775  137.4979  162.9663 C   0  0  0  0  0  0  0  0  0  0  0  0
  148.0228  136.1544  162.2988 C   0  0  0  0  0  0  0  0  0  0  0  0
  148.3238  134.8941  162.8855 C   0  0  0  0  0  0  0  0  0  0  0  0
  148.2321  134.0072  161.8500 C   0  0  0  0  0  0  0  0  0  0  0  0
  148.4371  132.5280  161.8345 C   0  0  0  0  0  0  0  0  0  0  0  0
  147.8966  134.7385  160.7232 N   0  0  0  0  0  0  0  0  0  0  0  0
  147.6982  134.2864  159.3532 C   0  0  0  0  0  0  0  0  0  0  0  0
  148.6519  135.0044  158.3963 C   0  0  0  0  0  0  0  0  0  0  0  0
  149.7843  135.3112  158.7666 O   0  0  0  0  0  0  0  0  0  0  0  0
  148.1933  135.2393  157.1573 N   0  0  0  0  0  0  0  0  0  0  0  0
  148.9801  135.8043  156.0659 C   0  0  0  0  0  0  0  0  0  0  0  0
  148.5518  137.2410  155.7063 C   0  0  0  0  0  0  0  0  0  0  0  0
  149.0379  137.6415  154.3575 N   0  3  1  0  0  0  0  0  0  0  0  0
  148.5790  138.9795  153.9149 C   0  0  0  0  0  0  0  0  0  0  0  0
  149.4044  140.1010  154.5789 C   0  0  2  0  0  0  0  0  0  0  0  0
  149.0136  141.4883  154.0584 C   0  0  0  0  0  0  0  0  0  0  0  0
  150.7836  139.8923  154.2923 O   0  0  0  0  0  0  0  0  0  0  0  0
  151.2745  138.6620  154.8143 C   0  0  2  0  0  0  0  0  0  0  0  0
  152.7769  138.5801  154.5235 C   0  0  0  0  0  0  0  0  0  0  0  0
  150.5012  137.4957  154.1674 C   0  0  0  0  0  0  0  0  0  0  0  0
  147.7671  136.0539  161.0048 N   0  0  0  0  0  0  0  0  0  0  0  0
  147.2719  137.4959  163.7972 H   0  0  0  0  0  0  0  0  0  0  0  0
  147.6720  138.2839  162.2749 H   0  0  0  0  0  0  0  0  0  0  0  0
  148.9561  137.7677  163.3631 H   0  0  0  0  0  0  0  0  0  0  0  0
  148.5697  134.6747  163.9140 H   0  0  0  0  0  0  0  0  0  0  0  0
  148.7181  132.1651  162.8231 H   0  0  0  0  0  0  0  0  0  0  0  0
  149.2291  132.2482  161.1406 H   0  0  0  0  0  0  0  0  0  0  0  0
  147.5243  132.0122  161.5363 H   0  0  0  0  0  0  0  0  0  0  0  0
  147.8495  133.2080  159.2965 H   0  0  0  0  0  0  0  0  0  0  0  0
  146.6640  134.4770  159.0616 H   0  0  0  0  0  0  0  0  0  0  0  0
  147.2434  134.9691  156.9461 H   0  0  0  0  0  0  0  0  0  0  0  0
  150.0251  135.8039  156.3777 H   0  0  0  0  0  0  0  0  0  0  0  0
  148.9208  135.1590  155.1879 H   0  0  0  0  0  0  0  0  0  0  0  0
  147.4646  137.3078  155.7608 H   0  0  0  0  0  0  0  0  0  0  0  0
  148.9219  137.9311  156.4655 H   0  0  0  0  0  0  0  0  0  0  0  0
  148.6934  139.0356  152.8315 H   0  0  0  0  0  0  0  0  0  0  0  0
  147.5140  139.0998  154.1178 H   0  0  0  0  0  0  0  0  0  0  0  0
  149.2565  140.0861  155.6601 H   0  0  0  0  0  0  0  0  0  0  0  0
  147.9645  141.7032  154.2625 H   0  0  0  0  0  0  0  0  0  0  0  0
  149.1680  141.5649  152.9816 H   0  0  0  0  0  0  0  0  0  0  0  0
  149.6103  142.2657  154.5361 H   0  0  0  0  0  0  0  0  0  0  0  0
  151.1340  138.6519  155.8961 H   0  0  0  0  0  0  0  0  0  0  0  0
  153.2007  137.6524  154.9094 H   0  0  0  0  0  0  0  0  0  0  0  0
  153.3104  139.4086  154.9898 H   0  0  0  0  0  0  0  0  0  0  0  0
  152.9745  138.6176  153.4520 H   0  0  0  0  0  0  0  0  0  0  0  0
  150.8418  136.5427  154.5700 H   0  0  0  0  0  0  0  0  0  0  0  0
  150.7048  137.4689  153.0960 H   0  0  0  0  0  0  0  0  0  0  0  0
  148.6097  136.9800  153.7258 H   0  0  0  0  0  0  0  0  0  0  0  0
  1  2  1  0  0  0  0
  1 22  1  0  0  0  0
  1 23  1  0  0  0  0
  1 24  1  0  0  0  0
  2 21  2  0  0  0  0
  2  3  1  0  0  0  0
  3  4  2  0  0  0  0
  3 25  1  0  0  0  0
  4  5  1  0  0  0  0
  4  6  1  0  0  0  0
  5 26  1  0  0  0  0
  5 27  1  0  0  0  0
  5 28  1  0  0  0  0
  6  7  1  0  0  0  0
  6 21  1  0  0  0  0
  7  8  1  0  0  0  0
  7 29  1  0  0  0  0
  7 30  1  0  0  0  0
  8  9  2  0  0  0  0
  8 10  1  0  0  0  0
 10 11  1  0  0  0  0
 10 31  1  0  0  0  0
 11 12  1  0  0  0  0
 11 32  1  0  0  0  0
 11 33  1  0  0  0  0
 12 13  1  0  0  0  0
 12 34  1  0  0  0  0
 12 35  1  0  0  0  0
 13 20  1  0  0  0  0
 13 14  1  0  0  0  0
 13 48  1  0  0  0  0
 14 15  1  0  0  0  0
 14 36  1  0  0  0  0
 14 37  1  0  0  0  0
 15 16  1  0  0  0  0
 15 17  1  0  0  0  0
 15 38  1  0  0  0  0
 16 39  1  0  0  0  0
 16 40  1  0  0  0  0
 16 41  1  0  0  0  0
 17 18  1  0  0  0  0
 18 19  1  0  0  0  0
 18 20  1  0  0  0  0
 18 42  1  0  0  0  0
 19 43  1  0  0  0  0
 19 44  1  0  0  0  0
 19 45  1  0  0  0  0
 20 46  1  0  0  0  0
 20 47  1  0  0  0  0
M  CHG  1  13   1
M  END
> <s_m_source_file>
AV-unprocessed.smi

> <i_m_source_file_index>
2106

> <i_lp_mmshare_version>
43012

> <i_f3d_flags>
0

> <s_epik_input>
W0NIM11jMVtjSF1jKFtDSDNdKW4objEpW0NIMl1DKD1PKVtOSF1bQ0gyXVtDSDJdTjJbQ0gyXVtDQEBIXShbQ0gzXSlPW0NAQEhdKFtDSDNdKVtDSDJdMg==

> <s_epik_cmdline>
J2VwaWtfcHl0aG9uJywgJy1waCcsICc3LjAnLCAnLXRuJywgJzgnLCAnLW1hJywgJzIwMCcsICctbWV0YWxfYmluZGluZycsICctaW1hZScsICc8aW5maWxlLm1hZT4nLCAnLW9tYWUnLCAnPG91dGZpbGUubWFlPic=

> <r_lp_tautomer_probability>
1

> <r_epik_Ionization_Penalty>
0.748586

> <r_epik_Ionization_Penalty_Charging>
0.748396

> <r_epik_Ionization_Penalty_Neutral>
0.000189656

> <r_epik_State_Penalty>
0.775162

> <r_epik_Charging_Adjusted_Penalty>
1.52356

> <i_epik_Tot_Q>
1

> <i_epik_Tot_abs_Q>
1

> <r_epik_Metal_State_Penalty>
0.775295

> <b_epik_Metal_Only>
0

> <s_lp_Force_Field>
OPLS_2005

> <r_lp_Energy>
21.363

> <b_lp_Chiralities_Consistent>
1

> <s_lp_Variant>
AV-unprocessed.smi:2106-7

> <Gold.Version>
5.8.1

> <Gold.Id.Protein>
6NUR|6NUR_protein|mol2

> <Gold.PLP.Fitness>
49.8686

> <Gold.PLP.PLP>
-38.8190

> <Gold.PLP.part.hbond>
-3.0000

> <Gold.PLP.part.metal>
0.0000

> <Gold.PLP.part.buried>
-1.1363

> <Gold.PLP.part.nonpolar>
-34.2063

> <Gold.PLP.part.repulsive>
0.1004

> <Gold.PLP.ligand.clash>
0.0000

> <Gold.PLP.ligand.torsion>
0.5050

> <Gold.PLP.Chemscore.Hbond>
4.0000

> <Gold.PLP.Chemscore.CHOScore>
0.0000

> <Gold.PLP.Chemscore.Metal>
0.0000

> <Gold.Chemscore.Hbonds>
donor molecule, donor type, donor heavy atom, donor atom, acceptor molecule, acceptor atom, score
      L1  H    13    48       P1  7948  1.47
      P1  H  6896  6909       L1     9  0.80
      P1  H  7989  7998       L1    17  0.96

> <Gold.PLP.Chemscore.Internal.Correction>
0.0596

> <Gold.Rescore>
     Score         DG    S(hbond)    S(metal)    S(lipo)     H(rot)  DE(clash)    DE(int)     intcor
     20.44     -21.16       2.91        0.00      88.92       1.73       0.12       0.60       ----

> <Gold.Chemscore.Fitness>
20.4383

> <Gold.Chemscore.DG>
-21.1573

> <Gold.Chemscore.ZeroCoef>
-5.4800

> <Gold.Chemscore.Hbond>
2.9062

> <Gold.Chemscore.Metal>
0.0000

> <Gold.Chemscore.Lipo>
88.9209

> <Gold.Chemscore.Internal_Hbond>
0.0000

> <Gold.Chemscore.DEClash>
0.1187

> <Gold.Chemscore.DEInternal>
0.6003

> <Gold.Chemscore.Rot>
1.7316

> <Gold.Chemscore.Internal.Correction>
   9.000000E+99

> <Gold.Chemscore.Hbonds>
donor molecule, donor type, donor heavy atom, donor atom, acceptor molecule, acceptor atom, score
      L1  H    13    48       P1  7948  0.69
      P1  H  6896  6909       L1     9  0.75
      P1  H  7989  7998       L1    17  0.90

> <Gold.Chemscore.Hbond.Weighted>
-9.7066

> <Gold.Chemscore.Metal.Weighted>
-0.0000

> <Gold.Chemscore.Lipo.Weighted>
-10.4037

> <Gold.Chemscore.Internal_Hbond.Weighted>
0.0000

> <Gold.Chemscore.DEClash.Weighted>
0.1187

> <Gold.Chemscore.DEInternal.Weighted>
0.6003

> <Gold.Chemscore.Rot.Weighted>
4.4330

> <Gold.Chemscore.Internal.Correction.Weighted>
   9.000000E+99

> <Gold.Protein.RotatedTorsions>
[ 6907 6896 6895 6894 ] final   32.43 input  -60.11 | X-H torsion
[ 7974 7965 7964 7962 ] final  -18.01 input  175.53 | X-H torsion
[ 8008 7997 7996 7995 ] final -138.17 input   59.86 | X-H torsion
[ 10167 10162 10161 10158 ] final -140.35 input  -65.29 | X-H torsion
[ 10718 10713 10712 10709 ] final  -64.77 input   66.30 | X-H torsion
[ 10763 10752 10751 10750 ] final -169.49 input  -60.55 | X-H torsion
[ 11005 11000 10999 10996 ] final  -92.79 input  -57.11 | X-H torsion

> <Gold.Protein.ActiveResidues>
 VAL166  LYS551  ARG553  GLY616  TRP617  ASP618  TYR619  PRO620  LYS621  CYS622 
 ASP623  PHE694  ASN695  SER759  ASP760  ASP761  ALA762  ILE779  LEU786  VAL792 
 PHE793  MET794  SER795  GLU796  ALA797  LYS798  CYS799  TRP800  GLU811  SER814 

> <Gold.Protein.RotatedAtoms>
  152.0743  134.9513  160.0573 H   0  0  0  0  0  0  0  0  0  0  0  0  # atno 6907 bound_to 6896
  152.0826  133.4155  159.4516 H   0  0  0  0  0  0  0  0  0  0  0  0  # atno 6908 bound_to 6896
  150.6836  134.2884  159.4700 H   0  0  0  0  0  0  0  0  0  0  0  0  # atno 6909 bound_to 6896
  146.1913  140.3861  142.8457 H   0  0  0  0  0  0  0  0  0  0  0  0  # atno 7974 bound_to 7965
  155.4239  140.0520  157.3023 H   0  0  0  0  0  0  0  0  0  0  0  0  # atno 8008 bound_to 7997
  154.4890  140.2112  155.9549 H   0  0  0  0  0  0  0  0  0  0  0  0  # atno 8009 bound_to 7997
  156.1315  140.3171  155.8362 H   0  0  0  0  0  0  0  0  0  0  0  0  # atno 8010 bound_to 7997
  139.8290  143.7472  152.2666 H   0  0  0  0  0  0  0  0  0  0  0  0  # atno 10167 bound_to 10162
  156.0709  130.4238  150.1468 H   0  0  0  0  0  0  0  0  0  0  0  0  # atno 10718 bound_to 10713
  154.6517  135.2912  154.9979 H   0  0  0  0  0  0  0  0  0  0  0  0  # atno 10763 bound_to 10752
  154.1069  135.6568  153.4882 H   0  0  0  0  0  0  0  0  0  0  0  0  # atno 10764 bound_to 10752
  153.0380  135.5256  154.7428 H   0  0  0  0  0  0  0  0  0  0  0  0  # atno 10765 bound_to 10752
  141.1513  133.7844  157.0069 H   0  0  0  0  0  0  0  0  0  0  0  0  # atno 11005 bound_to 11000
  144.8492  140.6976  143.6179 LP  0  0  0  0  0  0  0  0  0  0  0  0  # atno 17320 bound_to 7965
  145.3783  139.1642  143.4294 LP  0  0  0  0  0  0  0  0  0  0  0  0  # atno 17321 bound_to 7965
  139.7674  144.7487  151.0274 LP  0  0  0  0  0  0  0  0  0  0  0  0  # atno 17342 bound_to 10162
  140.7808  143.4683  151.0182 LP  0  0  0  0  0  0  0  0  0  0  0  0  # atno 17343 bound_to 10162
  156.9519  130.9777  151.3496 LP  0  0  0  0  0  0  0  0  0  0  0  0  # atno 17370 bound_to 10713
  157.5779  130.8356  149.8481 LP  0  0  0  0  0  0  0  0  0  0  0  0  # atno 17371 bound_to 10713
  140.0903  134.9596  157.1765 LP  0  0  0  0  0  0  0  0  0  0  0  0  # atno 17394 bound_to 11000
  140.3455  134.2656  155.7206 LP  0  0  0  0  0  0  0  0  0  0  0  0  # atno 17395 bound_to 11000

$$$$
