AV-unprocessed.smi:1753|AV-procd|sdf|7062|dock4
  -GOLD-   22720 8283D 1   1.00000     0.00000
 Structure written by MMmdl.
 37 38  0  0  0  0  0  0  0  0  1 V2000
  143.6311  132.4196  148.8306 C   0  0  0  0  0  0  0  0  0  0  0  0
  144.4999  133.1681  149.7977 C   0  0  0  0  0  0  0  0  0  0  0  0
  145.7605  132.7729  150.3328 C   0  0  0  0  0  0  0  0  0  0  0  0
  146.0847  133.8238  151.1465 C   0  0  0  0  0  0  0  0  0  0  0  0
  147.1877  133.9963  151.9224 N   0  0  0  0  0  0  0  0  0  0  0  0
  147.8111  133.1010  152.7080 C   0  0  0  0  0  0  0  0  0  0  0  0
  147.4812  131.9238  152.8525 O   0  0  0  0  0  0  0  0  0  0  0  0
  148.8590  133.6547  153.3345 N   0  0  0  0  0  0  0  0  0  0  0  0
  149.7403  132.9605  154.2679 C   0  0  0  0  0  0  0  0  0  0  0  0
  149.6014  133.4845  155.7116 C   0  0  2  0  0  0  0  0  0  0  0  0
  148.1979  133.2663  156.3153 C   0  0  0  0  0  0  0  0  0  0  0  0
  148.0931  134.0753  157.6111 C   0  0  0  0  0  0  0  0  0  0  0  0
  149.0726  135.5941  157.3210 S   0  0  0  0  0  0  0  0  0  0  0  0
  148.1717  136.6907  156.9350 O   0  0  0  0  0  0  0  0  0  0  0  0
  150.0396  135.7587  158.4170 O   0  0  0  0  0  0  0  0  0  0  0  0
  149.9354  134.9810  155.8235 C   0  0  0  0  0  0  0  0  0  0  0  0
  145.0788  134.7622  151.0839 N   0  0  0  0  0  0  0  0  0  0  0  0
  144.9653  136.0371  151.7650 C   0  0  0  0  0  0  0  0  0  0  0  0
  144.1003  134.3521  150.2483 N   0  0  0  0  0  0  0  0  0  0  0  0
  144.0650  131.4516  148.5790 H   0  0  0  0  0  0  0  0  0  0  0  0
  143.5059  132.9779  147.9026 H   0  0  0  0  0  0  0  0  0  0  0  0
  142.6407  132.2398  149.2495 H   0  0  0  0  0  0  0  0  0  0  0  0
  146.3137  131.8665  150.1383 H   0  0  0  0  0  0  0  0  0  0  0  0
  147.5827  134.9250  151.9057 H   0  0  0  0  0  0  0  0  0  0  0  0
  149.0618  134.6274  153.1560 H   0  0  0  0  0  0  0  0  0  0  0  0
  149.5397  131.8883  154.2340 H   0  0  0  0  0  0  0  0  0  0  0  0
  150.7653  133.0915  153.9204 H   0  0  0  0  0  0  0  0  0  0  0  0
  150.3109  132.9520  156.3471 H   0  0  0  0  0  0  0  0  0  0  0  0
  147.4451  133.6254  155.6123 H   0  0  0  0  0  0  0  0  0  0  0  0
  147.9905  132.2107  156.4939 H   0  0  0  0  0  0  0  0  0  0  0  0
  147.0673  134.3300  157.8778 H   0  0  0  0  0  0  0  0  0  0  0  0
  148.5477  133.5342  158.4414 H   0  0  0  0  0  0  0  0  0  0  0  0
  151.0059  135.1702  155.9037 H   0  0  0  0  0  0  0  0  0  0  0  0
  149.5493  135.5375  154.9690 H   0  0  0  0  0  0  0  0  0  0  0  0
  145.8381  136.6512  151.5412 H   0  0  0  0  0  0  0  0  0  0  0  0
  144.9107  135.8728  152.8415 H   0  0  0  0  0  0  0  0  0  0  0  0
  144.0683  136.5674  151.4413 H   0  0  0  0  0  0  0  0  0  0  0  0
  1  2  1  0  0  0  0
  1 20  1  0  0  0  0
  1 21  1  0  0  0  0
  1 22  1  0  0  0  0
  2 19  2  0  0  0  0
  2  3  1  0  0  0  0
  3  4  2  0  0  0  0
  3 23  1  0  0  0  0
  4  5  1  0  0  0  0
  4 17  1  0  0  0  0
  5  6  1  0  0  0  0
  5 24  1  0  0  0  0
  6  7  2  0  0  0  0
  6  8  1  0  0  0  0
  8  9  1  0  0  0  0
  8 25  1  0  0  0  0
  9 10  1  0  0  0  0
  9 26  1  0  0  0  0
  9 27  1  0  0  0  0
 10 16  1  0  0  0  0
 10 11  1  0  0  0  0
 10 28  1  0  0  0  0
 11 12  1  0  0  0  0
 11 29  1  0  0  0  0
 11 30  1  0  0  0  0
 12 13  1  0  0  0  0
 12 31  1  0  0  0  0
 12 32  1  0  0  0  0
 13 14  2  0  0  0  0
 13 15  2  0  0  0  0
 13 16  1  0  0  0  0
 16 33  1  0  0  0  0
 16 34  1  0  0  0  0
 17 18  1  0  0  0  0
 17 19  1  0  0  0  0
 18 35  1  0  0  0  0
 18 36  1  0  0  0  0
 18 37  1  0  0  0  0
M  END
> <s_m_source_file>
AV-unprocessed.smi

> <i_m_source_file_index>
1753

> <i_lp_mmshare_version>
43012

> <i_f3d_flags>
0

> <s_epik_input>
W0NIM11jMVtjSF1jKG4objEpW0NIM10pW05IXUMoPU8pW05IXVtDSDJdW0NAQEhdKFtDSDJdMilbQ0gyXVtDSDJdUzIoPU8pPU8=

> <s_epik_cmdline>
J2VwaWtfcHl0aG9uJywgJy1waCcsICc3LjAnLCAnLXRuJywgJzgnLCAnLW1hJywgJzIwMCcsICctbWV0YWxfYmluZGluZycsICctaW1hZScsICc8aW5maWxlLm1hZT4nLCAnLW9tYWUnLCAnPG91dGZpbGUubWFlPic=

> <r_lp_tautomer_probability>
1

> <r_epik_Ionization_Penalty>
9.06651e-05

> <r_epik_Ionization_Penalty_Charging>
0

> <r_epik_Ionization_Penalty_Neutral>
9.06651e-05

> <r_epik_State_Penalty>
-0

> <r_epik_Charging_Adjusted_Penalty>
0

> <i_epik_Tot_Q>
0

> <i_epik_Tot_abs_Q>
0

> <r_epik_Metal_State_Penalty>
-0

> <b_epik_Metal_Only>
0

> <s_lp_Force_Field>
OPLS_2005

> <r_lp_Energy>
5.34898

> <b_lp_Chiralities_Consistent>
1

> <s_lp_Variant>
AV-unprocessed.smi:1753-1

> <Gold.Version>
5.8.1

> <Gold.Id.Protein>
6NUR|6NUR_protein|mol2

> <Gold.PLP.Fitness>
35.6064

> <Gold.PLP.PLP>
-28.5060

> <Gold.PLP.part.hbond>
-3.0000

> <Gold.PLP.part.metal>
0.0000

> <Gold.PLP.part.buried>
-3.2126

> <Gold.PLP.part.nonpolar>
-23.3536

> <Gold.PLP.part.repulsive>
0.3801

> <Gold.PLP.ligand.clash>
0.0000

> <Gold.PLP.ligand.torsion>
0.3726

> <Gold.PLP.Chemscore.Hbond>
2.6136

> <Gold.PLP.Chemscore.CHOScore>
0.0000

> <Gold.PLP.Chemscore.Metal>
0.0000

> <Gold.Chemscore.Hbonds>
donor molecule, donor type, donor heavy atom, donor atom, acceptor molecule, acceptor atom, score
      L1  H     5    24       P1  7948  1.00
      L1  H     8    25       P1  7948  0.57
      P1  H  6896  6908       L1    15  1.00

> <Gold.PLP.Chemscore.Internal.Correction>
0.0047

> <Gold.Rescore>
     Score         DG    S(hbond)    S(metal)    S(lipo)     H(rot)  DE(clash)    DE(int)     intcor
     14.48     -15.00       1.99        0.00      53.06       1.31       0.04       0.48       ----

> <Gold.Chemscore.Fitness>
14.4816

> <Gold.Chemscore.DG>
-15.0017

> <Gold.Chemscore.ZeroCoef>
-5.4800

> <Gold.Chemscore.Hbond>
1.9946

> <Gold.Chemscore.Metal>
0.0000

> <Gold.Chemscore.Lipo>
53.0625

> <Gold.Chemscore.Internal_Hbond>
0.0000

> <Gold.Chemscore.DEClash>
0.0437

> <Gold.Chemscore.DEInternal>
0.4764

> <Gold.Chemscore.Rot>
1.3080

> <Gold.Chemscore.Internal.Correction>
   9.000000E+99

> <Gold.Chemscore.Hbonds>
donor molecule, donor type, donor heavy atom, donor atom, acceptor molecule, acceptor atom, score
      L1  H     5    24       P1  7948  0.77
      L1  H     8    25       P1  7948  0.04
      P1  H  6896  6908       L1    15  0.94

> <Gold.Chemscore.Hbond.Weighted>
-6.6619

> <Gold.Chemscore.Metal.Weighted>
-0.0000

> <Gold.Chemscore.Lipo.Weighted>
-6.2083

> <Gold.Chemscore.Internal_Hbond.Weighted>
0.0000

> <Gold.Chemscore.DEClash.Weighted>
0.0437

> <Gold.Chemscore.DEInternal.Weighted>
0.4764

> <Gold.Chemscore.Rot.Weighted>
3.3485

> <Gold.Chemscore.Internal.Correction.Weighted>
   9.000000E+99

> <Gold.Protein.RotatedTorsions>
[ 6907 6896 6895 6894 ] final  174.09 input  -60.11 | X-H torsion
[ 7974 7965 7964 7962 ] final   44.56 input  175.53 | X-H torsion
[ 8008 7997 7996 7995 ] final  -57.91 input   59.86 | X-H torsion
[ 10167 10162 10161 10158 ] final  -37.43 input  -65.29 | X-H torsion
[ 10718 10713 10712 10709 ] final -168.76 input   66.30 | X-H torsion
[ 10763 10752 10751 10750 ] final  -55.66 input  -60.55 | X-H torsion
[ 11005 11000 10999 10996 ] final  -99.96 input  -57.11 | X-H torsion

> <Gold.Protein.ActiveResidues>
 VAL166  LYS551  ARG553  GLY616  TRP617  ASP618  TYR619  PRO620  LYS621  CYS622 
 ASP623  PHE694  ASN695  SER759  ASP760  ASP761  ALA762  ILE779  LEU786  VAL792 
 PHE793  MET794  SER795  GLU796  ALA797  LYS798  CYS799  TRP800  GLU811  SER814 

> <Gold.Protein.RotatedAtoms>
  151.7579  133.3331  159.3409 H   0  0  0  0  0  0  0  0  0  0  0  0  # atno 6907 bound_to 6896
  150.7509  134.6132  159.6106 H   0  0  0  0  0  0  0  0  0  0  0  0  # atno 6908 bound_to 6896
  152.3425  134.7117  160.0311 H   0  0  0  0  0  0  0  0  0  0  0  0  # atno 6909 bound_to 6896
  146.0558  139.5061  142.9689 H   0  0  0  0  0  0  0  0  0  0  0  0  # atno 7974 bound_to 7965
  154.4287  140.1096  156.5872 H   0  0  0  0  0  0  0  0  0  0  0  0  # atno 8008 bound_to 7997
  155.6050  140.3493  155.4586 H   0  0  0  0  0  0  0  0  0  0  0  0  # atno 8009 bound_to 7997
  156.0144  140.1226  157.0411 H   0  0  0  0  0  0  0  0  0  0  0  0  # atno 8010 bound_to 7997
  140.7118  143.3342  151.2500 H   0  0  0  0  0  0  0  0  0  0  0  0  # atno 10167 bound_to 10162
  156.7016  130.9198  151.3080 H   0  0  0  0  0  0  0  0  0  0  0  0  # atno 10718 bound_to 10713
  154.1944  135.6422  153.5069 H   0  0  0  0  0  0  0  0  0  0  0  0  # atno 10763 bound_to 10752
  153.0027  135.5436  154.6381 H   0  0  0  0  0  0  0  0  0  0  0  0  # atno 10764 bound_to 10752
  154.5778  135.2922  155.0736 H   0  0  0  0  0  0  0  0  0  0  0  0  # atno 10765 bound_to 10752
  141.1289  133.8361  157.1040 H   0  0  0  0  0  0  0  0  0  0  0  0  # atno 11005 bound_to 11000
  145.6646  141.0232  143.1690 LP  0  0  0  0  0  0  0  0  0  0  0  0  # atno 17320 bound_to 7965
  144.7147  139.8240  143.7403 LP  0  0  0  0  0  0  0  0  0  0  0  0  # atno 17321 bound_to 7965
  139.6832  143.9818  152.2820 LP  0  0  0  0  0  0  0  0  0  0  0  0  # atno 17342 bound_to 10162
  139.9455  144.6654  150.8224 LP  0  0  0  0  0  0  0  0  0  0  0  0  # atno 17343 bound_to 10162
  157.6971  130.9293  150.0676 LP  0  0  0  0  0  0  0  0  0  0  0  0  # atno 17370 bound_to 10713
  156.1725  130.3647  149.9146 LP  0  0  0  0  0  0  0  0  0  0  0  0  # atno 17371 bound_to 10713
  140.0316  134.9898  157.0791 LP  0  0  0  0  0  0  0  0  0  0  0  0  # atno 17394 bound_to 11000
  140.4276  134.1814  155.7167 LP  0  0  0  0  0  0  0  0  0  0  0  0  # atno 17395 bound_to 11000

$$$$
