AV-unprocessed.smi:227|AV-procd|sdf|1728|dock7
  -GOLD-   2262020213D 1   1.00000     0.00000
 Structure written by MMmdl.
 54 58  0  0  0  0  0  0  0  0  1 V2000
  147.7303  139.0097  152.6733 O   0  0  0  0  0  0  0  0  0  0  0  0
  148.0122  139.9791  153.6618 C   0  0  0  0  0  0  0  0  0  0  0  0
  148.2629  139.3268  155.0458 C   0  0  1  0  0  0  0  0  0  0  0  0
  146.9450  138.7468  155.6407 C   0  0  0  0  0  0  0  0  0  0  0  0
  147.0851  138.1954  156.9808 N   0  0  0  0  0  0  0  0  0  0  0  0
  146.6374  138.7584  158.1534 C   0  0  0  0  0  0  0  0  0  0  0  0
  146.8804  138.0647  159.2305 N   0  0  0  0  0  0  0  0  0  0  0  0
  147.5620  136.9414  158.7756 C   0  0  0  0  0  0  0  0  0  0  0  0
  148.1163  135.7823  159.3981 C   0  0  0  0  0  0  0  0  0  0  0  0
  148.0641  135.5113  160.7328 N   0  0  0  0  0  0  0  0  0  0  0  0
  147.5591  136.4866  161.6890 C   0  0  2  0  0  0  0  0  0  0  0  0
  147.8623  135.8137  163.0387 C   0  0  0  0  0  0  0  0  0  0  0  0
  147.6464  134.3340  162.6928 C   0  0  0  0  0  0  0  0  0  0  0  0
  147.2161  134.4286  161.2171 C   0  0  1  0  0  0  0  0  0  0  0  0
  145.7856  135.0119  161.0769 C   0  0  1  0  0  0  0  0  0  0  0  0
  144.6754  134.3001  161.8710 C   0  0  0  0  0  0  0  0  0  0  0  0
  144.5732  132.9560  161.4520 O   0  0  0  0  0  0  0  0  0  0  0  0
  146.0332  136.4829  161.4636 C   0  0  0  0  0  0  0  0  0  0  0  0
  148.7575  134.8941  158.5924 N   0  0  0  0  0  0  0  0  0  0  0  0
  148.8345  135.1004  157.2757 C   0  0  0  0  0  0  0  0  0  0  0  0
  148.3495  136.1169  156.5634 N   0  0  0  0  0  0  0  0  0  0  0  0
  147.7150  137.0222  157.3606 C   0  0  0  0  0  0  0  0  0  0  0  0
  149.4120  138.2705  154.9904 C   0  0  2  0  0  0  0  0  0  0  0  0
  150.2861  138.2396  156.2418 C   0  0  0  0  0  0  0  0  0  0  0  0
  151.3610  139.2956  155.9753 C   0  0  0  0  0  0  0  0  0  0  0  0
  151.3423  139.5288  154.5720 O   0  0  0  0  0  0  0  0  0  0  0  0
  150.5125  138.5554  153.9582 C   0  0  0  0  0  0  0  0  0  0  0  0
  148.1922  139.2437  151.8825 H   0  0  0  0  0  0  0  0  0  0  0  0
  148.8637  140.5823  153.3477 H   0  0  0  0  0  0  0  0  0  0  0  0
  147.1495  140.6412  153.6810 H   0  0  0  0  0  0  0  0  0  0  0  0
  148.5842  140.1261  155.7150 H   0  0  0  0  0  0  0  0  0  0  0  0
  146.1592  139.5000  155.6607 H   0  0  0  0  0  0  0  0  0  0  0  0
  146.5489  137.9611  154.9970 H   0  0  0  0  0  0  0  0  0  0  0  0
  146.1139  139.7030  158.1850 H   0  0  0  0  0  0  0  0  0  0  0  0
  148.0038  137.4782  161.6350 H   0  0  0  0  0  0  0  0  0  0  0  0
  148.8958  135.9892  163.3396 H   0  0  0  0  0  0  0  0  0  0  0  0
  147.2112  136.1631  163.8409 H   0  0  0  0  0  0  0  0  0  0  0  0
  148.5861  133.7871  162.7792 H   0  0  0  0  0  0  0  0  0  0  0  0
  146.9211  133.8396  163.3376 H   0  0  0  0  0  0  0  0  0  0  0  0
  147.3437  133.4805  160.6935 H   0  0  0  0  0  0  0  0  0  0  0  0
  145.5150  134.9713  160.0202 H   0  0  0  0  0  0  0  0  0  0  0  0
  144.9018  134.3150  162.9374 H   0  0  0  0  0  0  0  0  0  0  0  0
  143.7073  134.7812  161.7331 H   0  0  0  0  0  0  0  0  0  0  0  0
  143.7897  132.5840  161.8270 H   0  0  0  0  0  0  0  0  0  0  0  0
  145.4827  136.7987  162.3506 H   0  0  0  0  0  0  0  0  0  0  0  0
  145.7542  137.1457  160.6433 H   0  0  0  0  0  0  0  0  0  0  0  0
  149.3574  134.3415  156.7127 H   0  0  0  0  0  0  0  0  0  0  0  0
  148.9814  137.2870  154.7990 H   0  0  0  0  0  0  0  0  0  0  0  0
  149.7631  138.4122  157.1799 H   0  0  0  0  0  0  0  0  0  0  0  0
  150.7586  137.2594  156.3213 H   0  0  0  0  0  0  0  0  0  0  0  0
  151.1364  140.2291  156.4921 H   0  0  0  0  0  0  0  0  0  0  0  0
  152.3446  138.9554  156.3003 H   0  0  0  0  0  0  0  0  0  0  0  0
  151.1074  137.6552  153.7940 H   0  0  0  0  0  0  0  0  0  0  0  0
  150.1665  138.8797  152.9796 H   0  0  0  0  0  0  0  0  0  0  0  0
  1  2  1  0  0  0  0
  1 28  1  0  0  0  0
  2  3  1  0  0  0  0
  2 29  1  0  0  0  0
  2 30  1  0  0  0  0
  3  4  1  0  0  0  0
  3 23  1  0  0  0  0
  3 31  1  0  0  0  0
  4  5  1  0  0  0  0
  4 32  1  0  0  0  0
  4 33  1  0  0  0  0
  5 22  1  0  0  0  0
  5  6  1  0  0  0  0
  6  7  2  0  0  0  0
  6 34  1  0  0  0  0
  7  8  1  0  0  0  0
  8 22  2  0  0  0  0
  8  9  1  0  0  0  0
  9 10  1  0  0  0  0
  9 19  2  0  0  0  0
 10 14  1  0  0  0  0
 10 11  1  0  0  0  0
 11 18  1  0  0  0  0
 11 12  1  0  0  0  0
 11 35  1  0  0  0  0
 12 13  1  0  0  0  0
 12 36  1  0  0  0  0
 12 37  1  0  0  0  0
 13 14  1  0  0  0  0
 13 38  1  0  0  0  0
 13 39  1  0  0  0  0
 14 15  1  0  0  0  0
 14 40  1  0  0  0  0
 15 16  1  0  0  0  0
 15 18  1  0  0  0  0
 15 41  1  0  0  0  0
 16 17  1  0  0  0  0
 16 42  1  0  0  0  0
 16 43  1  0  0  0  0
 17 44  1  0  0  0  0
 18 45  1  0  0  0  0
 18 46  1  0  0  0  0
 19 20  1  0  0  0  0
 20 21  2  0  0  0  0
 20 47  1  0  0  0  0
 21 22  1  0  0  0  0
 23 27  1  0  0  0  0
 23 24  1  0  0  0  0
 23 48  1  0  0  0  0
 24 25  1  0  0  0  0
 24 49  1  0  0  0  0
 24 50  1  0  0  0  0
 25 26  1  0  0  0  0
 25 51  1  0  0  0  0
 25 52  1  0  0  0  0
 26 27  1  0  0  0  0
 27 53  1  0  0  0  0
 27 54  1  0  0  0  0
M  END
> <s_m_source_file>
AV-unprocessed.smi

> <i_m_source_file_index>
227

> <i_lp_mmshare_version>
43012

> <i_f3d_flags>
0

> <s_epik_input>
W0NIMl0xT1tDSDJdW0NIMl1bQ0BIXTFbQ0BIXShbQ0gyXVtPSF0pW0NIMl1uKFtjSF1uMiljKGMyMyluW2NIXW5jM04oW0NASF00NSlbQ0BASF0oW0NIMl1bQ0gyXTQpW0NASF0oW0NIMl01KVtDSDJdW09IXQ==

> <s_epik_cmdline>
J2VwaWtfcHl0aG9uJywgJy1waCcsICc3LjAnLCAnLXRuJywgJzgnLCAnLW1hJywgJzIwMCcsICctbWV0YWxfYmluZGluZycsICctaW1hZScsICc8aW5maWxlLm1hZT4nLCAnLW9tYWUnLCAnPG91dGZpbGUubWFlPic=

> <r_lp_tautomer_probability>
1

> <r_epik_Ionization_Penalty>
0.0055791

> <r_epik_Ionization_Penalty_Charging>
0

> <r_epik_Ionization_Penalty_Neutral>
0.0055791

> <r_epik_State_Penalty>
0.00401299

> <r_epik_Charging_Adjusted_Penalty>
0.00401299

> <i_epik_Tot_Q>
0

> <i_epik_Tot_abs_Q>
0

> <r_epik_Metal_State_Penalty>
-0

> <b_epik_Metal_Only>
0

> <s_lp_Force_Field>
OPLS_2005

> <r_lp_Energy>
90.5153

> <b_lp_Chiralities_Consistent>
1

> <s_lp_Variant>
AV-unprocessed.smi:227-2

> <Gold.Version>
5.8.1

> <Gold.Id.Protein>
6NUR|6NUR_protein|mol2

> <Gold.PLP.Fitness>
42.9669

> <Gold.PLP.PLP>
-34.2150

> <Gold.PLP.part.hbond>
-4.8267

> <Gold.PLP.part.metal>
0.0000

> <Gold.PLP.part.buried>
-4.3615

> <Gold.PLP.part.nonpolar>
-24.3045

> <Gold.PLP.part.repulsive>
0.0727

> <Gold.PLP.ligand.clash>
0.0000

> <Gold.PLP.ligand.torsion>
1.0996

> <Gold.PLP.Chemscore.Hbond>
3.5920

> <Gold.PLP.Chemscore.CHOScore>
0.0000

> <Gold.PLP.Chemscore.Metal>
0.0000

> <Gold.Chemscore.Hbonds>
donor molecule, donor type, donor heavy atom, donor atom, acceptor molecule, acceptor atom, score
      L1  H     1    28       P1  7957  0.98
      P1  H  6896  6908       L1    19  0.73
      P1  H  6934  6947       L1     7  0.59
      P1  H  7989  7998       L1    26  1.00

> <Gold.PLP.Chemscore.Internal.Correction>
0.1751

> <Gold.Rescore>
     Score         DG    S(hbond)    S(metal)    S(lipo)     H(rot)  DE(clash)    DE(int)     intcor
      9.73     -15.75       2.79        0.00      87.12       3.61       0.28       5.74       ----

> <Gold.Chemscore.Fitness>
9.7333

> <Gold.Chemscore.DG>
-15.7473

> <Gold.Chemscore.ZeroCoef>
-5.4800

> <Gold.Chemscore.Hbond>
2.7870

> <Gold.Chemscore.Metal>
0.0000

> <Gold.Chemscore.Lipo>
87.1202

> <Gold.Chemscore.Internal_Hbond>
0.0000

> <Gold.Chemscore.DEClash>
0.2776

> <Gold.Chemscore.DEInternal>
5.7364

> <Gold.Chemscore.Rot>
3.6071

> <Gold.Chemscore.Internal.Correction>
   9.000000E+99

> <Gold.Chemscore.Hbonds>
donor molecule, donor type, donor heavy atom, donor atom, acceptor molecule, acceptor atom, score
      L1  H     1    28       P1  7957  0.93
      P1  H  6896  6908       L1    19  0.49
      P1  H  6934  6947       L1     7  0.56
      P1  H  7989  7998       L1    26  0.78

> <Gold.Chemscore.Hbond.Weighted>
-9.3085

> <Gold.Chemscore.Metal.Weighted>
-0.0000

> <Gold.Chemscore.Lipo.Weighted>
-10.1931

> <Gold.Chemscore.Internal_Hbond.Weighted>
0.0000

> <Gold.Chemscore.DEClash.Weighted>
0.2776

> <Gold.Chemscore.DEInternal.Weighted>
5.7364

> <Gold.Chemscore.Rot.Weighted>
9.2342

> <Gold.Chemscore.Internal.Correction.Weighted>
   9.000000E+99

> <Gold.Protein.RotatedTorsions>
[ 6907 6896 6895 6894 ] final  149.75 input  -60.11 | X-H torsion
[ 7974 7965 7964 7962 ] final  110.03 input  175.53 | X-H torsion
[ 8008 7997 7996 7995 ] final  174.98 input   59.86 | X-H torsion
[ 10167 10162 10161 10158 ] final  132.27 input  -65.29 | X-H torsion
[ 10718 10713 10712 10709 ] final   98.13 input   66.30 | X-H torsion
[ 10763 10752 10751 10750 ] final  -71.89 input  -60.55 | X-H torsion
[ 11005 11000 10999 10996 ] final    6.63 input  -57.11 | X-H torsion

> <Gold.Protein.ActiveResidues>
 VAL166  LYS551  ARG553  GLY616  TRP617  ASP618  TYR619  PRO620  LYS621  CYS622 
 ASP623  PHE694  ASN695  SER759  ASP760  ASP761  ALA762  ILE779  LEU786  VAL792 
 PHE793  MET794  SER795  GLU796  ALA797  LYS798  CYS799  TRP800  GLU811  SER814 

> <Gold.Protein.RotatedAtoms>
  152.1238  133.4368  159.4687 H   0  0  0  0  0  0  0  0  0  0  0  0  # atno 6907 bound_to 6896
  150.6873  134.2503  159.4517 H   0  0  0  0  0  0  0  0  0  0  0  0  # atno 6908 bound_to 6896
  152.0381  134.9727  160.0624 H   0  0  0  0  0  0  0  0  0  0  0  0  # atno 6909 bound_to 6896
  145.2602  139.2705  143.4021 H   0  0  0  0  0  0  0  0  0  0  0  0  # atno 7974 bound_to 7965
  156.0918  140.1420  156.9582 H   0  0  0  0  0  0  0  0  0  0  0  0  # atno 8008 bound_to 7997
  154.4647  140.0930  156.7034 H   0  0  0  0  0  0  0  0  0  0  0  0  # atno 8009 bound_to 7997
  155.4907  140.3448  155.4356 H   0  0  0  0  0  0  0  0  0  0  0  0  # atno 8010 bound_to 7997
  139.5347  144.6669  151.4828 H   0  0  0  0  0  0  0  0  0  0  0  0  # atno 10167 bound_to 10162
  157.6901  131.0631  150.4749 H   0  0  0  0  0  0  0  0  0  0  0  0  # atno 10718 bound_to 10713
  154.4380  135.5947  153.6111 H   0  0  0  0  0  0  0  0  0  0  0  0  # atno 10763 bound_to 10752
  152.9803  135.5991  154.3757 H   0  0  0  0  0  0  0  0  0  0  0  0  # atno 10764 bound_to 10752
  154.3603  135.2841  155.2302 H   0  0  0  0  0  0  0  0  0  0  0  0  # atno 10765 bound_to 10752
  140.5574  134.0225  155.7959 H   0  0  0  0  0  0  0  0  0  0  0  0  # atno 11005 bound_to 11000
  146.3277  140.3017  142.8621 LP  0  0  0  0  0  0  0  0  0  0  0  0  # atno 17320 bound_to 7965
  144.9425  140.8093  143.5621 LP  0  0  0  0  0  0  0  0  0  0  0  0  # atno 17321 bound_to 7965
  140.6546  143.8626  150.6821 LP  0  0  0  0  0  0  0  0  0  0  0  0  # atno 17342 bound_to 10162
  140.2001  143.3966  152.1798 LP  0  0  0  0  0  0  0  0  0  0  0  0  # atno 17343 bound_to 10162
  156.5085  130.4134  149.6314 LP  0  0  0  0  0  0  0  0  0  0  0  0  # atno 17370 bound_to 10713
  156.3262  130.7307  151.2228 LP  0  0  0  0  0  0  0  0  0  0  0  0  # atno 17371 bound_to 10713
  141.1135  133.9578  157.2865 LP  0  0  0  0  0  0  0  0  0  0  0  0  # atno 17394 bound_to 11000
  139.9425  135.0189  156.8751 LP  0  0  0  0  0  0  0  0  0  0  0  0  # atno 17395 bound_to 11000

$$$$
