#       Name:                AV-unprocessed.smi:3028
#       Creating user name   scv26
#       Creation time:       Fri Mar 27 16:46:15 2020


#       File generated by GOLD software.
#

@<TRIPOS>MOLECULE
AV-unprocessed.smi:3028
    53    54     1
SMALL
NO_CHARGES


@<TRIPOS>ATOM
      1 ****        -2.1209   0.5206   2.8614 C.3            1 S1                 0.0000
      2 ****        -2.2659   0.2710   1.3883 C.2            1 S1                 0.0000
      3 ****        -2.6345  -0.9407   0.7384 C.2            1 S1                 0.0000
      4 ****        -2.6669  -0.8287  -0.5789 N.2            1 S1                 0.0000
      5 ****        -2.3265   0.4558  -0.8206 N.pl3          1 S1                 0.0000
      6 ****        -2.2564   0.9428  -2.1936 C.3            1 S1                 0.0000
      7 ****        -3.2277   2.1272  -2.3578 C.3            1 S1                 0.0000
      8 ****        -0.7965   1.2800  -2.6124 C.3            1 S1                 0.0000
      9 ****        -0.6982   1.8729  -4.0289 C.3            1 S1                 0.0000
     10 ****         0.0179   0.0666  -2.6329 N.3            1 S1                 0.0000
     11 ****         0.9081  -0.0439  -1.4691 C.3            1 S1                 0.0000
     12 ****         1.7551  -1.3258  -1.4895 C.2            1 S1                 0.0000
     13 ****         1.8937  -1.9582  -2.5358 O.2            1 S1                 0.0000
     14 ****         2.3521  -1.7380  -0.3580 N.am           1 S1                 0.0000
     15 ****         3.1915  -2.9191  -0.1701 C.3            1 S1                 0.0000
     16 ****         3.0228  -3.4567   1.2588 C.3            1 S1                 0.0000
     17 ****         4.0093  -4.6053   1.5257 C.3            1 S1                 0.0000
     18 ****         5.3439  -4.1673   1.2928 O.3            1 S1                 0.0000
     19 ****         5.5701  -3.7690  -0.0548 C.3            1 S1                 0.0000
     20 ****         4.6712  -2.5734  -0.4068 C.3            1 S1                 0.0000
     21 ****        -2.0785   1.1411   0.3523 C.2            1 S1                 0.0000
     22 ****        -1.9691  -0.4058   3.4153 H              1 S1                 0.0000
     23 ****        -3.0064   1.0021   3.2759 H              1 S1                 0.0000
     24 ****        -1.2699   1.1661   3.0796 H              1 S1                 0.0000
     25 ****        -2.8743  -1.8950   1.1835 H              1 S1                 0.0000
     26 ****        -2.6194   0.1457  -2.8457 H              1 S1                 0.0000
     27 ****        -3.3510   2.4047  -3.4044 H              1 S1                 0.0000
     28 ****        -2.8805   3.0075  -1.8161 H              1 S1                 0.0000
     29 ****        -4.2188   1.8738  -1.9799 H              1 S1                 0.0000
     30 ****        -0.3754   2.0139  -1.9228 H              1 S1                 0.0000
     31 ****        -1.1791   2.8491  -4.0893 H              1 S1                 0.0000
     32 ****        -1.1668   1.2223  -4.7684 H              1 S1                 0.0000
     33 ****         0.3417   2.0177  -4.3248 H              1 S1                 0.0000
     34 ****         0.5496   0.0437  -3.4914 H              1 S1                 0.0000
     35 ****         1.5838   0.8118  -1.4445 H              1 S1                 0.0000
     36 ****         0.3128  -0.0171  -0.5592 H              1 S1                 0.0000
     37 ****         2.2113  -1.1641   0.4609 H              1 S1                 0.0000
     38 ****         2.8918  -3.7110  -0.8579 H              1 S1                 0.0000
     39 ****         3.2000  -2.6586   1.9812 H              1 S1                 0.0000
     40 ****         1.9997  -3.7996   1.4161 H              1 S1                 0.0000
     41 ****         3.9242  -4.9388   2.5600 H              1 S1                 0.0000
     42 ****         3.7831  -5.4661   0.8944 H              1 S1                 0.0000
     43 ****         6.6189  -3.4953  -0.1705 H              1 S1                 0.0000
     44 ****         5.3834  -4.6065  -0.7284 H              1 S1                 0.0000
     45 ****         4.8358  -2.2763  -1.4418 H              1 S1                 0.0000
     46 ****         4.9560  -1.7189   0.2089 H              1 S1                 0.0000
     47 ****        -1.7888   2.1815   0.3517 H              1 S1                 0.0000
     48 ****        -2.8931  -1.5373  -1.2473 LP             1 S1                 0.0000
     49 ****        -0.5990  -0.7190  -2.5859 LP             1 S1                 0.0000
     50 ****         1.4546  -1.6382  -3.3754 LP             1 S1                 0.0000
     51 ****         2.4454  -2.7921  -2.5467 LP             1 S1                 0.0000
     52 ****         5.9684  -4.9166   1.5130 LP             1 S1                 0.0000
     53 ****         5.5331  -3.3889   1.8915 LP             1 S1                 0.0000
@<TRIPOS>BOND
    1    1    2 1     
    2    1   22 1     
    3    1   23 1     
    4    1   24 1     
    5    2   21 2     
    6    2    3 1     
    7    3    4 2     
    8    3   25 1     
    9    4    5 1     
   10    5    6 1     
   11    5   21 1     
   12    6    7 1     
   13    6    8 1     
   14    6   26 1     
   15    7   27 1     
   16    7   28 1     
   17    7   29 1     
   18    8    9 1     
   19    8   10 1     
   20    8   30 1     
   21    9   31 1     
   22    9   32 1     
   23    9   33 1     
   24   10   11 1     
   25   10   34 1     
   26   11   12 1     
   27   11   35 1     
   28   11   36 1     
   29   12   13 2     
   30   12   14 am    
   31   14   15 1     
   32   14   37 1     
   33   15   20 1     
   34   15   16 1     
   35   15   38 1     
   36   16   17 1     
   37   16   39 1     
   38   16   40 1     
   39   17   18 1     
   40   17   41 1     
   41   17   42 1     
   42   18   19 1     
   43   19   20 1     
   44   19   43 1     
   45   19   44 1     
   46   20   45 1     
   47   20   46 1     
   48   21   47 1     
   49    4   48 1     
   50   10   49 1     
   51   13   50 1     
   52   13   51 1     
   53   18   52 1     
   54   18   53 1     
@<TRIPOS>SUBSTRUCTURE
      1 S1             1
@<TRIPOS>SET
LONE_PAIRS      STATIC     ATOMS    <user>   **** ""
6 48 49 50 51 52 53
DONOR_HYDROGENS      STATIC     ATOMS    <user>   **** ""
2 34 37
ATOM$BLUE        STATIC     ATOMS    COLORGROUP SYSTEM
6 48 49 50 51 52 53
ATOM$RED        STATIC     ATOMS    COLORGROUP SYSTEM
2 34 37
