AV-unprocessed.smi:767|AV-procd|sdf|3661|dock3
  -GOLD-   22720 1 73D 1   1.00000     0.00000
 Structure written by MMmdl.
 47 49  0  0  0  0  0  0  0  0  1 V2000
  150.4536  140.3859  156.5685 C   0  0  0  0  0  0  0  0  0  0  0  0
  150.6607  138.9507  156.1312 C   0  0  0  0  0  0  0  0  0  0  0  0
  150.5802  137.8915  157.0598 C   0  0  0  0  0  0  0  0  0  0  0  0
  150.7830  136.5772  156.5966 C   0  0  0  0  0  0  0  0  0  0  0  0
  151.0577  136.3729  155.2289 C   0  0  0  0  0  0  0  0  0  0  0  0
  151.2762  134.9774  154.6789 C   0  0  0  0  0  0  0  0  0  0  0  0
  150.0209  134.1015  154.8176 C   0  0  0  0  0  0  0  0  0  0  0  0
  149.0197  134.4374  153.8128 N   0  0  0  0  0  0  0  0  0  0  0  0
  147.8358  133.8248  153.6755 C   0  0  0  0  0  0  0  0  0  0  0  0
  147.4504  132.8982  154.3888 O   0  0  0  0  0  0  0  0  0  0  0  0
  147.1199  134.3458  152.6706 N   0  0  0  0  0  0  0  0  0  0  0  0
  145.7939  133.8796  152.2781 C   0  0  2  0  0  0  0  0  0  0  0  0
  145.7684  133.3132  150.8500 C   0  0  1  0  0  0  0  0  0  0  0  0
  145.4824  131.8529  150.6286 C   0  0  0  0  0  0  0  0  0  0  0  0
  143.9765  131.8384  150.3502 C   0  0  0  0  0  0  0  0  0  0  0  0
  143.4914  133.0488  150.9272 O   0  0  0  0  0  0  0  0  0  0  0  0
  144.4581  134.0643  150.6689 C   0  0  1  0  0  0  0  0  0  0  0  0
  144.8130  134.9991  151.8446 C   0  0  0  0  0  0  0  0  0  0  0  0
  143.6755  135.3132  152.8173 C   0  0  0  0  0  0  0  0  0  0  0  0
  145.4156  136.3456  151.4182 C   0  0  0  0  0  0  0  0  0  0  0  0
  151.1154  137.5007  154.3833 C   0  0  0  0  0  0  0  0  0  0  0  0
  150.9222  138.7645  154.8185 N   0  0  0  0  0  0  0  0  0  0  0  0
  150.2345  140.4474  157.6348 H   0  0  0  0  0  0  0  0  0  0  0  0
  149.6212  140.8324  156.0242 H   0  0  0  0  0  0  0  0  0  0  0  0
  151.3497  140.9748  156.3711 H   0  0  0  0  0  0  0  0  0  0  0  0
  150.3678  138.0783  158.1023 H   0  0  0  0  0  0  0  0  0  0  0  0
  150.7261  135.7424  157.2797 H   0  0  0  0  0  0  0  0  0  0  0  0
  151.5718  135.0536  153.6315 H   0  0  0  0  0  0  0  0  0  0  0  0
  152.1151  134.5169  155.2026 H   0  0  0  0  0  0  0  0  0  0  0  0
  150.2849  133.0511  154.6921 H   0  0  0  0  0  0  0  0  0  0  0  0
  149.5947  134.1982  155.8176 H   0  0  0  0  0  0  0  0  0  0  0  0
  149.2457  135.1883  153.1773 H   0  0  0  0  0  0  0  0  0  0  0  0
  147.5178  135.1051  152.1379 H   0  0  0  0  0  0  0  0  0  0  0  0
  145.3417  133.1894  152.9942 H   0  0  0  0  0  0  0  0  0  0  0  0
  146.5569  133.7254  150.2175 H   0  0  0  0  0  0  0  0  0  0  0  0
  146.0487  131.4352  149.7957 H   0  0  0  0  0  0  0  0  0  0  0  0
  145.7186  131.2707  151.5197 H   0  0  0  0  0  0  0  0  0  0  0  0
  143.7851  131.8568  149.2763 H   0  0  0  0  0  0  0  0  0  0  0  0
  143.4783  130.9647  150.7711 H   0  0  0  0  0  0  0  0  0  0  0  0
  144.3460  134.5369  149.6919 H   0  0  0  0  0  0  0  0  0  0  0  0
  142.8910  135.9006  152.3393 H   0  0  0  0  0  0  0  0  0  0  0  0
  144.0315  135.8755  153.6810 H   0  0  0  0  0  0  0  0  0  0  0  0
  143.2100  134.4041  153.1989 H   0  0  0  0  0  0  0  0  0  0  0  0
  144.6731  136.9754  150.9272 H   0  0  0  0  0  0  0  0  0  0  0  0
  146.2386  136.2165  150.7147 H   0  0  0  0  0  0  0  0  0  0  0  0
  145.8026  136.9031  152.2720 H   0  0  0  0  0  0  0  0  0  0  0  0
  151.3198  137.3868  153.3288 H   0  0  0  0  0  0  0  0  0  0  0  0
  1  2  1  0  0  0  0
  1 23  1  0  0  0  0
  1 24  1  0  0  0  0
  1 25  1  0  0  0  0
  2 22  1  0  0  0  0
  2  3  2  0  0  0  0
  3  4  1  0  0  0  0
  3 26  1  0  0  0  0
  4  5  2  0  0  0  0
  4 27  1  0  0  0  0
  5  6  1  0  0  0  0
  5 21  1  0  0  0  0
  6  7  1  0  0  0  0
  6 28  1  0  0  0  0
  6 29  1  0  0  0  0
  7  8  1  0  0  0  0
  7 30  1  0  0  0  0
  7 31  1  0  0  0  0
  8  9  1  0  0  0  0
  8 32  1  0  0  0  0
  9 10  2  0  0  0  0
  9 11  1  0  0  0  0
 11 12  1  0  0  0  0
 11 33  1  0  0  0  0
 12 18  1  0  0  0  0
 12 13  1  0  0  0  0
 12 34  1  0  0  0  0
 13 17  1  0  0  0  0
 13 14  1  0  0  0  0
 13 35  1  0  0  0  0
 14 15  1  0  0  0  0
 14 36  1  0  0  0  0
 14 37  1  0  0  0  0
 15 16  1  0  0  0  0
 15 38  1  0  0  0  0
 15 39  1  0  0  0  0
 16 17  1  0  0  0  0
 17 18  1  0  0  0  0
 17 40  1  0  0  0  0
 18 19  1  0  0  0  0
 18 20  1  0  0  0  0
 19 41  1  0  0  0  0
 19 42  1  0  0  0  0
 19 43  1  0  0  0  0
 20 44  1  0  0  0  0
 20 45  1  0  0  0  0
 20 46  1  0  0  0  0
 21 22  2  0  0  0  0
 21 47  1  0  0  0  0
M  END
> <s_m_source_file>
AV-unprocessed.smi

> <i_m_source_file_index>
767

> <i_lp_mmshare_version>
43012

> <i_f3d_flags>
0

> <s_epik_input>
W0NIM11jMVtjSF1bY0hdYyhbY0hdbjEpW0NIMl1bQ0gyXVtOSF1DKD1PKVtOSF1bQ0BIXTJDKFtDSDNdKShbQ0gzXSlbQ0BIXShbQ0BASF0yMylPW0NIMl1bQ0gyXTM=

> <s_epik_cmdline>
J2VwaWtfcHl0aG9uJywgJy1waCcsICc3LjAnLCAnLXRuJywgJzgnLCAnLW1hJywgJzIwMCcsICctbWV0YWxfYmluZGluZycsICctaW1hZScsICc8aW5maWxlLm1hZT4nLCAnLW9tYWUnLCAnPG91dGZpbGUubWFlPic=

> <r_epik_Ionization_Penalty>
0.0567523

> <r_epik_Ionization_Penalty_Charging>
0

> <r_epik_Ionization_Penalty_Neutral>
0.0567523

> <r_epik_State_Penalty>
0.0489186

> <r_epik_Charging_Adjusted_Penalty>
0.0489186

> <i_epik_Tot_Q>
0

> <i_epik_Tot_abs_Q>
0

> <r_epik_Metal_State_Penalty>
0.044622

> <b_epik_Metal_Only>
0

> <s_lp_Force_Field>
OPLS_2005

> <r_lp_Energy>
31.223

> <b_lp_Chiralities_Consistent>
1

> <s_lp_Variant>
AV-unprocessed.smi:767-5

> <Gold.Version>
5.8.1

> <Gold.Id.Protein>
6NUR|6NUR_protein|mol2

> <Gold.PLP.Fitness>
46.8832

> <Gold.PLP.PLP>
-35.2159

> <Gold.PLP.part.hbond>
-3.0000

> <Gold.PLP.part.metal>
0.0000

> <Gold.PLP.part.buried>
-4.8090

> <Gold.PLP.part.nonpolar>
-28.4494

> <Gold.PLP.part.repulsive>
0.4078

> <Gold.PLP.ligand.clash>
0.0000

> <Gold.PLP.ligand.torsion>
0.2436

> <Gold.PLP.Chemscore.Hbond>
2.9920

> <Gold.PLP.Chemscore.CHOScore>
1.0000

> <Gold.PLP.Chemscore.Metal>
0.0000

> <Gold.Chemscore.Hbonds>
donor molecule, donor type, donor heavy atom, donor atom, acceptor molecule, acceptor atom, score
      L1  H     8    32       P1  7948  0.75
      L1  H    11    33       P1  7948  0.96
      L1  C    21    47       P1  7949  1.00

> <Gold.PLP.Chemscore.Internal.Correction>
0.1786

> <Gold.Rescore>
     Score         DG    S(hbond)    S(metal)    S(lipo)     H(rot)  DE(clash)    DE(int)     intcor
     20.91     -21.11       2.63        0.00      90.10       1.45       0.04       0.16       ----

> <Gold.Chemscore.Fitness>
20.9102

> <Gold.Chemscore.DG>
-21.1090

> <Gold.Chemscore.ZeroCoef>
-5.4800

> <Gold.Chemscore.Hbond>
2.6344

> <Gold.Chemscore.Metal>
0.0000

> <Gold.Chemscore.Lipo>
90.0968

> <Gold.Chemscore.Internal_Hbond>
0.0000

> <Gold.Chemscore.DEClash>
0.0357

> <Gold.Chemscore.DEInternal>
0.1632

> <Gold.Chemscore.Rot>
1.4497

> <Gold.Chemscore.Internal.Correction>
   9.000000E+99

> <Gold.Chemscore.Hbonds>
donor molecule, donor type, donor heavy atom, donor atom, acceptor molecule, acceptor atom, score
      L1  H     8    32       P1  7948  0.09
      L1  H    11    33       P1  7948  0.89

> <Gold.Chemscore.Hbond.Weighted>
-8.7990

> <Gold.Chemscore.Metal.Weighted>
-0.0000

> <Gold.Chemscore.Lipo.Weighted>
-10.5413

> <Gold.Chemscore.Internal_Hbond.Weighted>
0.0000

> <Gold.Chemscore.DEClash.Weighted>
0.0357

> <Gold.Chemscore.DEInternal.Weighted>
0.1632

> <Gold.Chemscore.Rot.Weighted>
3.7112

> <Gold.Chemscore.Internal.Correction.Weighted>
   9.000000E+99

> <Gold.Protein.RotatedTorsions>
[ 6907 6896 6895 6894 ] final  -50.90 input  -60.11 | X-H torsion
[ 7974 7965 7964 7962 ] final -131.71 input  175.53 | X-H torsion
[ 8008 7997 7996 7995 ] final   90.49 input   59.86 | X-H torsion
[ 10167 10162 10161 10158 ] final   19.03 input  -65.29 | X-H torsion
[ 10718 10713 10712 10709 ] final -173.09 input   66.30 | X-H torsion
[ 10763 10752 10751 10750 ] final  148.89 input  -60.55 | X-H torsion
[ 11005 11000 10999 10996 ] final  -88.48 input  -57.11 | X-H torsion

> <Gold.Protein.ActiveResidues>
 VAL166  LYS551  ARG553  GLY616  TRP617  ASP618  TYR619  PRO620  LYS621  CYS622 
 ASP623  PHE694  ASN695  SER759  ASP760  ASP761  ALA762  ILE779  LEU786  VAL792 
 PHE793  MET794  SER795  GLU796  ALA797  LYS798  CYS799  TRP800  GLU811  SER814 

> <Gold.Protein.RotatedAtoms>
  150.8662  134.8026  159.7120 H   0  0  0  0  0  0  0  0  0  0  0  0  # atno 6907 bound_to 6896
  152.4683  134.5019  159.9737 H   0  0  0  0  0  0  0  0  0  0  0  0  # atno 6908 bound_to 6896
  151.5115  133.3445  159.2921 H   0  0  0  0  0  0  0  0  0  0  0  0  # atno 6909 bound_to 6896
  144.9354  140.7177  143.4880 H   0  0  0  0  0  0  0  0  0  0  0  0  # atno 7974 bound_to 7965
  156.0126  140.3349  155.6956 H   0  0  0  0  0  0  0  0  0  0  0  0  # atno 8008 bound_to 7997
  155.6136  140.0668  157.2716 H   0  0  0  0  0  0  0  0  0  0  0  0  # atno 8009 bound_to 7997
  154.4287  140.1789  156.1286 H   0  0  0  0  0  0  0  0  0  0  0  0  # atno 8010 bound_to 7997
  140.5609  143.9338  150.6642 H   0  0  0  0  0  0  0  0  0  0  0  0  # atno 10167 bound_to 10162
  156.7653  130.9428  151.3119 H   0  0  0  0  0  0  0  0  0  0  0  0  # atno 10718 bound_to 10713
  154.0622  135.2873  155.3323 H   0  0  0  0  0  0  0  0  0  0  0  0  # atno 10763 bound_to 10752
  154.6801  135.5267  153.8254 H   0  0  0  0  0  0  0  0  0  0  0  0  # atno 10764 bound_to 10752
  153.0518  135.6579  154.0810 H   0  0  0  0  0  0  0  0  0  0  0  0  # atno 10765 bound_to 10752
  141.1601  133.7572  156.9457 H   0  0  0  0  0  0  0  0  0  0  0  0  # atno 11005 bound_to 11000
  145.3075  139.1829  143.4656 LP  0  0  0  0  0  0  0  0  0  0  0  0  # atno 17320 bound_to 7965
  146.3264  140.3075  142.8624 LP  0  0  0  0  0  0  0  0  0  0  0  0  # atno 17321 bound_to 7965
  140.2789  143.3403  152.1170 LP  0  0  0  0  0  0  0  0  0  0  0  0  # atno 17342 bound_to 10162
  139.5070  144.6824  151.5975 LP  0  0  0  0  0  0  0  0  0  0  0  0  # atno 17343 bound_to 10162
  157.6716  130.9056  150.0053 LP  0  0  0  0  0  0  0  0  0  0  0  0  # atno 17370 bound_to 10713
  156.1313  130.3643  149.9727 LP  0  0  0  0  0  0  0  0  0  0  0  0  # atno 17371 bound_to 10713
  140.1291  134.9367  157.2312 LP  0  0  0  0  0  0  0  0  0  0  0  0  # atno 17394 bound_to 11000
  140.2975  134.3169  155.7298 LP  0  0  0  0  0  0  0  0  0  0  0  0  # atno 17395 bound_to 11000

$$$$
