#       Name:                AV-unprocessed.smi:3298
#       Creating user name   scv26
#       Creation time:       Fri Mar 27 18:57:41 2020


#       File generated by GOLD software.
#

@<TRIPOS>MOLECULE
AV-unprocessed.smi:3298
    40    41     1
SMALL
NO_CHARGES


@<TRIPOS>ATOM
      1 ****        -3.3900   5.0034  -0.7643 C.3            1 S1                 0.0000
      2 ****        -3.5305   3.5735  -0.2851 C.ar           1 S1                 0.0000
      3 ****        -2.4132   2.7124  -0.2405 C.ar           1 S1                 0.0000
      4 ****        -2.5967   1.3852   0.2199 C.ar           1 S1                 0.0000
      5 ****        -1.5670   0.4072   0.3111 N.am           1 S1                 0.0000
      6 ****        -0.2354   0.5494   0.1849 C.2            1 S1                 0.0000
      7 ****         0.3579   1.6054  -0.0328 O.2            1 S1                 0.0000
      8 ****         0.3904  -0.6271   0.3361 N.am           1 S1                 0.0000
      9 ****         1.8342  -0.8264   0.2564 C.3            1 S1                 0.0000
     10 ****         2.2965  -0.9439  -1.1720 C.2            1 S1                 0.0000
     11 ****         2.8804  -2.1122  -1.4278 C.2            1 S1                 0.0000
     12 ****         2.9076  -3.0281  -0.2320 C.3            1 S1                 0.0000
     13 ****         4.3299  -3.5162   0.0898 C.3            1 S1                 0.0000
     14 ****         4.2990  -4.4414   1.1560 O.3            1 S1                 0.0000
     15 ****         2.2660  -2.1714   0.8917 C.3            1 S1                 0.0000
     16 ****        -3.8973   0.9908   0.5972 C.ar           1 S1                 0.0000
     17 ****        -4.9453   1.9284   0.5139 C.ar           1 S1                 0.0000
     18 ****        -4.7732   3.1958   0.0846 N.ar           1 S1                 0.0000
     19 ****         2.3609   0.0002   0.7366 H              1 S1                 0.0000
     20 ****         2.2683  -3.8819  -0.4607 H              1 S1                 0.0000
     21 ****        -2.3661   5.2209  -1.0697 H              1 S1                 0.0000
     22 ****        -3.6620   5.6977   0.0312 H              1 S1                 0.0000
     23 ****        -4.0443   5.1846  -1.6175 H              1 S1                 0.0000
     24 ****        -1.4540   3.0843  -0.5632 H              1 S1                 0.0000
     25 ****        -1.8859  -0.5252   0.5293 H              1 S1                 0.0000
     26 ****        -0.1715  -1.4465   0.5151 H              1 S1                 0.0000
     27 ****         2.1655  -0.1445  -1.8866 H              1 S1                 0.0000
     28 ****         3.2844  -2.4061  -2.3854 H              1 S1                 0.0000
     29 ****         4.7693  -4.0073  -0.7790 H              1 S1                 0.0000
     30 ****         4.9803  -2.6811   0.3530 H              1 S1                 0.0000
     31 ****         5.1807  -4.7375   1.3235 H              1 S1                 0.0000
     32 ****         2.9793  -1.9826   1.6953 H              1 S1                 0.0000
     33 ****         1.4254  -2.7003   1.3431 H              1 S1                 0.0000
     34 ****        -4.0934  -0.0119   0.9477 H              1 S1                 0.0000
     35 ****        -5.9494   1.6522   0.7996 H              1 S1                 0.0000
     36 ****        -0.1569   2.4570  -0.1315 LP             1 S1                 0.0000
     37 ****         1.3548   1.6119  -0.1110 LP             1 S1                 0.0000
     38 ****         3.7229  -5.2207   0.9093 LP             1 S1                 0.0000
     39 ****         3.9305  -4.0003   1.9743 LP             1 S1                 0.0000
     40 ****        -5.5411   3.8349   0.0416 LP             1 S1                 0.0000
@<TRIPOS>BOND
    1    1    2 1     
    2    1   21 1     
    3    1   22 1     
    4    1   23 1     
    5    2   18 ar    
    6    2    3 ar    
    7    3    4 ar    
    8    3   24 1     
    9    4    5 1     
   10    4   16 ar    
   11    5    6 am    
   12    5   25 1     
   13    6    7 2     
   14    6    8 am    
   15    8    9 1     
   16    8   26 1     
   17    9   19 1     
   18    9   15 1     
   19    9   10 1     
   20   10   11 2     
   21   10   27 1     
   22   11   12 1     
   23   11   28 1     
   24   12   20 1     
   25   12   13 1     
   26   12   15 1     
   27   13   14 1     
   28   13   29 1     
   29   13   30 1     
   30   14   31 1     
   31   15   32 1     
   32   15   33 1     
   33   16   17 ar    
   34   16   34 1     
   35   17   18 ar    
   36   17   35 1     
   37    7   36 1     
   38    7   37 1     
   39   14   38 1     
   40   14   39 1     
   41   18   40 1     
@<TRIPOS>SUBSTRUCTURE
      1 S1             1
@<TRIPOS>SET
LONE_PAIRS      STATIC     ATOMS    <user>   **** ""
5 36 37 38 39 40
DONOR_HYDROGENS      STATIC     ATOMS    <user>   **** ""
3 25 26 31
ATOM$BLUE        STATIC     ATOMS    COLORGROUP SYSTEM
5 36 37 38 39 40
ATOM$RED        STATIC     ATOMS    COLORGROUP SYSTEM
3 25 26 31
