AV-unprocessed.smi:929|AV-procd|sdf|4195|dock1
  -GOLD-   22720 2103D 1   1.00000     0.00000
 Structure written by MMmdl.
 34 35  0  0  0  0  0  0  0  0  1 V2000
  150.1296  130.8897  155.2535 C   0  0  0  0  0  0  0  0  0  0  0  0
  150.2348  132.3705  155.4466 C   0  0  0  0  0  0  0  0  0  0  0  0
  149.7198  133.3486  154.5377 C   0  0  0  0  0  0  0  0  0  0  0  0
  149.9532  134.6331  154.9618 C   0  0  0  0  0  0  0  0  0  0  0  0
  149.6382  135.8367  154.4213 N   0  0  0  0  0  0  0  0  0  0  0  0
  149.5431  137.0230  155.0452 C   0  0  0  0  0  0  0  0  0  0  0  0
  149.7044  137.2082  156.2519 O   0  0  0  0  0  0  0  0  0  0  0  0
  149.2468  138.0037  154.1794 N   0  0  0  0  0  0  0  0  0  0  0  0
  149.1055  139.4173  154.5236 C   0  0  0  0  0  0  0  0  0  0  0  0
  150.3669  140.0172  155.1734 C   0  0  0  0  0  0  0  0  0  0  0  0
  151.4793  139.7655  154.7058 O   0  0  0  0  0  0  0  0  0  0  0  0
  150.2082  140.8216  156.2445 N   0  0  0  0  0  0  0  0  0  0  0  0
  148.9302  141.2021  156.8456 C   0  0  0  0  0  0  0  0  0  0  0  0
  149.2593  142.3092  157.8478 C   0  0  0  0  0  0  0  0  0  0  0  0
  150.7116  142.0511  158.2241 C   0  0  0  0  0  0  0  0  0  0  0  0
  151.3209  141.4418  156.9612 C   0  0  0  0  0  0  0  0  0  0  0  0
  150.8036  134.5240  156.4679 S   0  0  0  0  0  0  0  0  0  0  0  0
  150.8386  132.8470  156.5147 N   0  0  0  0  0  0  0  0  0  0  0  0
  149.4160  130.6399  154.4679 H   0  0  0  0  0  0  0  0  0  0  0  0
  149.7982  130.3931  156.1657 H   0  0  0  0  0  0  0  0  0  0  0  0
  151.0918  130.4612  154.9727 H   0  0  0  0  0  0  0  0  0  0  0  0
  149.2080  133.0655  153.6303 H   0  0  0  0  0  0  0  0  0  0  0  0
  149.4683  135.8357  153.4262 H   0  0  0  0  0  0  0  0  0  0  0  0
  149.1377  137.7617  153.2056 H   0  0  0  0  0  0  0  0  0  0  0  0
  148.8892  139.9652  153.6063 H   0  0  0  0  0  0  0  0  0  0  0  0
  148.2451  139.5497  155.1815 H   0  0  0  0  0  0  0  0  0  0  0  0
  148.2088  141.5478  156.1042 H   0  0  0  0  0  0  0  0  0  0  0  0
  148.5059  140.3386  157.3597 H   0  0  0  0  0  0  0  0  0  0  0  0
  149.1778  143.2809  157.3586 H   0  0  0  0  0  0  0  0  0  0  0  0
  148.5917  142.3119  158.7099 H   0  0  0  0  0  0  0  0  0  0  0  0
  151.2312  142.9514  158.5533 H   0  0  0  0  0  0  0  0  0  0  0  0
  150.7534  141.3249  159.0371 H   0  0  0  0  0  0  0  0  0  0  0  0
  152.1042  140.7227  157.2064 H   0  0  0  0  0  0  0  0  0  0  0  0
  151.7580  142.2189  156.3323 H   0  0  0  0  0  0  0  0  0  0  0  0
  1  2  1  0  0  0  0
  1 19  1  0  0  0  0
  1 20  1  0  0  0  0
  1 21  1  0  0  0  0
  2 18  2  0  0  0  0
  2  3  1  0  0  0  0
  3  4  2  0  0  0  0
  3 22  1  0  0  0  0
  4  5  1  0  0  0  0
  4 17  1  0  0  0  0
  5  6  1  0  0  0  0
  5 23  1  0  0  0  0
  6  7  2  0  0  0  0
  6  8  1  0  0  0  0
  8  9  1  0  0  0  0
  8 24  1  0  0  0  0
  9 10  1  0  0  0  0
  9 25  1  0  0  0  0
  9 26  1  0  0  0  0
 10 11  2  0  0  0  0
 10 12  1  0  0  0  0
 12 16  1  0  0  0  0
 12 13  1  0  0  0  0
 13 14  1  0  0  0  0
 13 27  1  0  0  0  0
 13 28  1  0  0  0  0
 14 15  1  0  0  0  0
 14 29  1  0  0  0  0
 14 30  1  0  0  0  0
 15 16  1  0  0  0  0
 15 31  1  0  0  0  0
 15 32  1  0  0  0  0
 16 33  1  0  0  0  0
 16 34  1  0  0  0  0
 17 18  1  0  0  0  0
M  END
> <s_m_source_file>
AV-unprocessed.smi

> <i_m_source_file_index>
929

> <i_lp_mmshare_version>
43012

> <i_f3d_flags>
0

> <s_epik_input>
W0NIM11jMVtjSF1jKHNuMSlbTkhdQyg9TylbTkhdW0NIMl1DKD1PKU4yW0NIMl1bQ0gyXVtDSDJdW0NIMl0y

> <s_epik_cmdline>
J2VwaWtfcHl0aG9uJywgJy1waCcsICc3LjAnLCAnLXRuJywgJzgnLCAnLW1hJywgJzIwMCcsICctbWV0YWxfYmluZGluZycsICctaW1hZScsICc8aW5maWxlLm1hZT4nLCAnLW9tYWUnLCAnPG91dGZpbGUubWFlPic=

> <r_lp_tautomer_probability>
1

> <r_epik_Ionization_Penalty>
3.14678e-05

> <r_epik_Ionization_Penalty_Charging>
0

> <r_epik_Ionization_Penalty_Neutral>
3.14678e-05

> <r_epik_State_Penalty>
-0

> <r_epik_Charging_Adjusted_Penalty>
0

> <i_epik_Tot_Q>
0

> <i_epik_Tot_abs_Q>
0

> <r_epik_Metal_State_Penalty>
-0

> <b_epik_Metal_Only>
0

> <s_lp_Force_Field>
OPLS_2005

> <r_lp_Energy>
23.5851

> <b_lp_Chiralities_Consistent>
1

> <s_lp_Variant>
AV-unprocessed.smi:929-1

> <Gold.Version>
5.8.1

> <Gold.Id.Protein>
6NUR|6NUR_protein|mol2

> <Gold.PLP.Fitness>
35.8833

> <Gold.PLP.PLP>
-27.7196

> <Gold.PLP.part.hbond>
-3.2474

> <Gold.PLP.part.metal>
0.0000

> <Gold.PLP.part.buried>
-4.1397

> <Gold.PLP.part.nonpolar>
-20.6951

> <Gold.PLP.part.repulsive>
0.1468

> <Gold.PLP.ligand.clash>
0.0000

> <Gold.PLP.ligand.torsion>
0.3135

> <Gold.PLP.Chemscore.Hbond>
2.9280

> <Gold.PLP.Chemscore.CHOScore>
0.0000

> <Gold.PLP.Chemscore.Metal>
0.0000

> <Gold.Chemscore.Hbonds>
donor molecule, donor type, donor heavy atom, donor atom, acceptor molecule, acceptor atom, score
      L1  H     5    23       P1  7948  1.00
      L1  H     8    24       P1  7948  0.93
      P1  H  7989  7998       L1    11  1.00

> <Gold.PLP.Chemscore.Internal.Correction>
0.0067

> <Gold.Rescore>
     Score         DG    S(hbond)    S(metal)    S(lipo)     H(rot)  DE(clash)    DE(int)     intcor
     15.05     -16.56       2.53        0.00      50.92       1.29       0.03       1.48       ----

> <Gold.Chemscore.Fitness>
15.0470

> <Gold.Chemscore.DG>
-16.5612

> <Gold.Chemscore.ZeroCoef>
-5.4800

> <Gold.Chemscore.Hbond>
2.5251

> <Gold.Chemscore.Metal>
0.0000

> <Gold.Chemscore.Lipo>
50.9224

> <Gold.Chemscore.Internal_Hbond>
0.0000

> <Gold.Chemscore.DEClash>
0.0314

> <Gold.Chemscore.DEInternal>
1.4829

> <Gold.Chemscore.Rot>
1.2931

> <Gold.Chemscore.Internal.Correction>
   9.000000E+99

> <Gold.Chemscore.Hbonds>
donor molecule, donor type, donor heavy atom, donor atom, acceptor molecule, acceptor atom, score
      L1  H     5    23       P1  7948  0.30
      L1  H     8    24       P1  7948  0.84
      P1  H  7989  7998       L1    11  0.44

> <Gold.Chemscore.Hbond.Weighted>
-8.4337

> <Gold.Chemscore.Metal.Weighted>
-0.0000

> <Gold.Chemscore.Lipo.Weighted>
-5.9579

> <Gold.Chemscore.Internal_Hbond.Weighted>
0.0000

> <Gold.Chemscore.DEClash.Weighted>
0.0314

> <Gold.Chemscore.DEInternal.Weighted>
1.4829

> <Gold.Chemscore.Rot.Weighted>
3.3105

> <Gold.Chemscore.Internal.Correction.Weighted>
   9.000000E+99

> <Gold.Protein.RotatedTorsions>
[ 6907 6896 6895 6894 ] final    7.36 input  -60.11 | X-H torsion
[ 7974 7965 7964 7962 ] final -149.14 input  175.53 | X-H torsion
[ 8008 7997 7996 7995 ] final  -91.15 input   59.86 | X-H torsion
[ 10167 10162 10161 10158 ] final    0.08 input  -65.29 | X-H torsion
[ 10718 10713 10712 10709 ] final  -58.55 input   66.30 | X-H torsion
[ 10763 10752 10751 10750 ] final  -74.30 input  -60.55 | X-H torsion
[ 11005 11000 10999 10996 ] final -104.57 input  -57.11 | X-H torsion

> <Gold.Protein.ActiveResidues>
 VAL166  LYS551  ARG553  GLY616  TRP617  ASP618  TYR619  PRO620  LYS621  CYS622 
 ASP623  PHE694  ASN695  SER759  ASP760  ASP761  ALA762  ILE779  LEU786  VAL792 
 PHE793  MET794  SER795  GLU796  ALA797  LYS798  CYS799  TRP800  GLU811  SER814 

> <Gold.Protein.RotatedAtoms>
  151.6887  135.0950  160.0229 H   0  0  0  0  0  0  0  0  0  0  0  0  # atno 6907 bound_to 6896
  152.3792  133.6518  159.6156 H   0  0  0  0  0  0  0  0  0  0  0  0  # atno 6908 bound_to 6896
  150.7733  133.9059  159.3396 H   0  0  0  0  0  0  0  0  0  0  0  0  # atno 6909 bound_to 6896
  144.7986  140.5104  143.5723 H   0  0  0  0  0  0  0  0  0  0  0  0  # atno 7974 bound_to 7965
  154.7072  140.0522  157.0515 H   0  0  0  0  0  0  0  0  0  0  0  0  # atno 8008 bound_to 7997
  155.0604  140.3189  155.4643 H   0  0  0  0  0  0  0  0  0  0  0  0  # atno 8009 bound_to 7997
  156.2778  140.2100  156.5731 H   0  0  0  0  0  0  0  0  0  0  0  0  # atno 8010 bound_to 7997
  140.6745  143.6956  150.7992 H   0  0  0  0  0  0  0  0  0  0  0  0  # atno 10167 bound_to 10162
  156.1127  130.4173  150.0593 H   0  0  0  0  0  0  0  0  0  0  0  0  # atno 10718 bound_to 10713
  154.4712  135.5869  153.6323 H   0  0  0  0  0  0  0  0  0  0  0  0  # atno 10763 bound_to 10752
  152.9835  135.6067  154.3364 H   0  0  0  0  0  0  0  0  0  0  0  0  # atno 10764 bound_to 10752
  154.3246  135.2843  155.2481 H   0  0  0  0  0  0  0  0  0  0  0  0  # atno 10765 bound_to 10752
  141.1094  133.8735  157.1628 H   0  0  0  0  0  0  0  0  0  0  0  0  # atno 11005 bound_to 11000
  145.5611  139.1479  143.3341 LP  0  0  0  0  0  0  0  0  0  0  0  0  # atno 17320 bound_to 7965
  146.2261  140.5747  142.8996 LP  0  0  0  0  0  0  0  0  0  0  0  0  # atno 17321 bound_to 7965
  140.0647  143.5120  152.2610 LP  0  0  0  0  0  0  0  0  0  0  0  0  # atno 17342 bound_to 10162
  139.6029  144.7588  151.3129 LP  0  0  0  0  0  0  0  0  0  0  0  0  # atno 17343 bound_to 10162
  156.8552  130.9472  151.3622 LP  0  0  0  0  0  0  0  0  0  0  0  0  # atno 17370 bound_to 10713
  157.6309  130.8728  149.9272 LP  0  0  0  0  0  0  0  0  0  0  0  0  # atno 17371 bound_to 10713
  139.9980  135.0039  157.0126 LP  0  0  0  0  0  0  0  0  0  0  0  0  # atno 17394 bound_to 11000
  140.4816  134.1284  155.7218 LP  0  0  0  0  0  0  0  0  0  0  0  0  # atno 17395 bound_to 11000

$$$$
