AV-unprocessed.smi:2237|AV-procd|sdf|9048|dock3
  -GOLD-   2272012253D 1   1.00000     0.00000
 Structure written by MMmdl.
 55 57  0  0  0  0  0  0  0  0  3 V2000
  153.3107  141.6906  160.4641 C   0  0  0  0  0  0  0  0  0  0  0  0
  152.6222  142.7727  159.6590 C   0  0  0  0  0  0  0  0  0  0  0  0
  152.8055  144.1345  159.9691 C   0  0  0  0  0  0  0  0  0  0  0  0
  152.1356  145.0893  159.1833 C   0  0  0  0  0  0  0  0  0  0  0  0
  151.3167  144.6461  158.1266 C   0  0  0  0  0  0  0  0  0  0  0  0
  151.1896  143.2605  157.8798 C   0  0  0  0  0  0  0  0  0  0  0  0
  150.3413  142.9167  156.7937 N   0  0  0  0  0  0  0  0  0  0  0  0
  150.2107  141.7230  156.1883 C   0  0  0  0  0  0  0  0  0  0  0  0
  150.8457  140.7061  156.4697 O   0  0  0  0  0  0  0  0  0  0  0  0
  149.2900  141.7696  155.2139 N   0  0  0  0  0  0  0  0  0  0  0  0
  148.9061  140.6415  154.3705 C   0  0  2  0  0  0  0  0  0  0  0  0
  147.5669  140.9112  153.6680 C   0  0  0  0  0  0  0  0  0  0  0  0
  147.1196  139.6900  152.8503 C   0  0  0  0  0  0  0  0  0  0  0  0
  146.9938  138.4683  153.6980 N   0  3  1  0  0  0  0  0  0  0  0  0
  146.3919  137.3149  152.9459 C   0  0  2  0  0  0  0  0  0  0  0  0
  144.8716  137.4974  152.7168 C   0  0  0  0  0  0  0  0  0  0  0  0
  144.0658  137.3315  154.0188 C   0  0  0  0  0  0  0  0  0  0  0  0
  144.3109  136.0040  154.6346 N   0  3  2  0  0  0  0  0  0  0  0  0
  143.4793  135.7771  155.8363 C   0  0  0  0  0  0  0  0  0  0  0  0
  145.7522  135.7646  154.8916 C   0  0  0  0  0  0  0  0  0  0  0  0
  146.5786  135.9224  153.6007 C   0  0  0  0  0  0  0  0  0  0  0  0
  148.2904  138.1776  154.3785 C   0  0  0  0  0  0  0  0  0  0  0  0
  148.7765  139.3711  155.2192 C   0  0  0  0  0  0  0  0  0  0  0  0
  151.8395  142.3476  158.6439 N   0  0  0  0  0  0  0  0  0  0  0  0
  153.7492  142.0959  161.3763 H   0  0  0  0  0  0  0  0  0  0  0  0
  154.1059  141.2320  159.8759 H   0  0  0  0  0  0  0  0  0  0  0  0
  152.5995  140.9136  160.7463 H   0  0  0  0  0  0  0  0  0  0  0  0
  153.4411  144.4416  160.7867 H   0  0  0  0  0  0  0  0  0  0  0  0
  152.2470  146.1440  159.3869 H   0  0  0  0  0  0  0  0  0  0  0  0
  150.7946  145.3667  157.5141 H   0  0  0  0  0  0  0  0  0  0  0  0
  149.7630  143.6655  156.4430 H   0  0  0  0  0  0  0  0  0  0  0  0
  148.8170  142.6464  155.0503 H   0  0  0  0  0  0  0  0  0  0  0  0
  149.6800  140.4750  153.6183 H   0  0  0  0  0  0  0  0  0  0  0  0
  146.8002  141.1587  154.4039 H   0  0  0  0  0  0  0  0  0  0  0  0
  147.6551  141.7774  153.0109 H   0  0  0  0  0  0  0  0  0  0  0  0
  146.1754  139.9389  152.3707 H   0  0  0  0  0  0  0  0  0  0  0  0
  147.8335  139.5022  152.0464 H   0  0  0  0  0  0  0  0  0  0  0  0
  146.8879  137.2783  151.9745 H   0  0  0  0  0  0  0  0  0  0  0  0
  144.6327  138.4525  152.2536 H   0  0  0  0  0  0  0  0  0  0  0  0
  144.5318  136.7466  152.0015 H   0  0  0  0  0  0  0  0  0  0  0  0
  144.3229  138.1203  154.7275 H   0  0  0  0  0  0  0  0  0  0  0  0
  143.0018  137.4367  153.8022 H   0  0  0  0  0  0  0  0  0  0  0  0
  143.7283  136.4879  156.6255 H   0  0  0  0  0  0  0  0  0  0  0  0
  143.6292  134.7689  156.2240 H   0  0  0  0  0  0  0  0  0  0  0  0
  142.4206  135.8866  155.5988 H   0  0  0  0  0  0  0  0  0  0  0  0
  146.1047  136.4530  155.6607 H   0  0  0  0  0  0  0  0  0  0  0  0
  145.8851  134.7563  155.2860 H   0  0  0  0  0  0  0  0  0  0  0  0
  146.2455  135.1627  152.8917 H   0  0  0  0  0  0  0  0  0  0  0  0
  147.6275  135.6841  153.7731 H   0  0  0  0  0  0  0  0  0  0  0  0
  148.1955  137.3379  155.0640 H   0  0  0  0  0  0  0  0  0  0  0  0
  149.0417  137.9054  153.6354 H   0  0  0  0  0  0  0  0  0  0  0  0
  149.7368  139.1298  155.6770 H   0  0  0  0  0  0  0  0  0  0  0  0
  148.0783  139.5428  156.0401 H   0  0  0  0  0  0  0  0  0  0  0  0
  146.3437  138.6949  154.4369 H   0  0  0  0  0  0  0  0  0  0  0  0
  144.0212  135.3141  153.9555 H   0  0  0  0  0  0  0  0  0  0  0  0
  1  2  1  0  0  0  0
  1 25  1  0  0  0  0
  1 26  1  0  0  0  0
  1 27  1  0  0  0  0
  2 24  1  0  0  0  0
  2  3  2  0  0  0  0
  3  4  1  0  0  0  0
  3 28  1  0  0  0  0
  4  5  2  0  0  0  0
  4 29  1  0  0  0  0
  5  6  1  0  0  0  0
  5 30  1  0  0  0  0
  6  7  1  0  0  0  0
  6 24  2  0  0  0  0
  7  8  1  0  0  0  0
  7 31  1  0  0  0  0
  8  9  2  0  0  0  0
  8 10  1  0  0  0  0
 10 11  1  0  0  0  0
 10 32  1  0  0  0  0
 11 23  1  0  0  0  0
 11 12  1  0  0  0  0
 11 33  1  0  0  0  0
 12 13  1  0  0  0  0
 12 34  1  0  0  0  0
 12 35  1  0  0  0  0
 13 14  1  0  0  0  0
 13 36  1  0  0  0  0
 13 37  1  0  0  0  0
 14 15  1  0  0  0  0
 14 22  1  0  0  0  0
 14 54  1  0  0  0  0
 15 21  1  0  0  0  0
 15 16  1  0  0  0  0
 15 38  1  0  0  0  0
 16 17  1  0  0  0  0
 16 39  1  0  0  0  0
 16 40  1  0  0  0  0
 17 18  1  0  0  0  0
 17 41  1  0  0  0  0
 17 42  1  0  0  0  0
 18 19  1  0  0  0  0
 18 20  1  0  0  0  0
 18 55  1  0  0  0  0
 19 43  1  0  0  0  0
 19 44  1  0  0  0  0
 19 45  1  0  0  0  0
 20 21  1  0  0  0  0
 20 46  1  0  0  0  0
 20 47  1  0  0  0  0
 21 48  1  0  0  0  0
 21 49  1  0  0  0  0
 22 23  1  0  0  0  0
 22 50  1  0  0  0  0
 22 51  1  0  0  0  0
 23 52  1  0  0  0  0
 23 53  1  0  0  0  0
M  CHG  1  14   1
M  CHG  1  18   1
M  END
> <s_m_source_file>
AV-unprocessed.smi

> <i_m_source_file_index>
2237

> <i_lp_mmshare_version>
43012

> <i_f3d_flags>
0

> <s_epik_input>
W0NIM11jMVtjSF1bY0hdW2NIXWMobjEpW05IXUMoPU8pW05IXVtDSF0yW0NIMl1bQ0gyXU4oW0NIMl1bQ0gyXTIpW0NIXTNbQ0gyXVtDSDJdTihbQ0gzXSlbQ0gyXVtDSDJdMw==

> <s_epik_cmdline>
J2VwaWtfcHl0aG9uJywgJy1waCcsICc3LjAnLCAnLXRuJywgJzgnLCAnLW1hJywgJzIwMCcsICctbWV0YWxfYmluZGluZycsICctaW1hZScsICc8aW5maWxlLm1hZT4nLCAnLW9tYWUnLCAnPG91dGZpbGUubWFlPic=

> <r_epik_Ionization_Penalty>
0.180851

> <r_epik_Ionization_Penalty_Charging>
0.180787

> <r_epik_Ionization_Penalty_Neutral>
6.38624e-05

> <r_epik_State_Penalty>
0.153592

> <r_epik_Charging_Adjusted_Penalty>
0.334379

> <i_epik_Tot_Q>
2

> <i_epik_Tot_abs_Q>
2

> <r_epik_Metal_State_Penalty>
0.153595

> <b_epik_Metal_Only>
0

> <s_lp_Force_Field>
OPLS_2005

> <r_lp_Energy>
45.5508

> <b_lp_Chiralities_Consistent>
1

> <s_lp_Variant>
AV-unprocessed.smi:2237-3

> <Gold.Version>
5.8.1

> <Gold.Id.Protein>
6NUR|6NUR_protein|mol2

> <Gold.PLP.Fitness>
41.7730

> <Gold.PLP.PLP>
-38.2155

> <Gold.PLP.part.hbond>
-2.0000

> <Gold.PLP.part.metal>
0.0000

> <Gold.PLP.part.buried>
-2.9492

> <Gold.PLP.part.nonpolar>
-33.5256

> <Gold.PLP.part.repulsive>
0.2341

> <Gold.PLP.ligand.clash>
0.0000

> <Gold.PLP.ligand.torsion>
0.6060

> <Gold.PLP.Chemscore.Hbond>
1.5788

> <Gold.PLP.Chemscore.CHOScore>
0.0000

> <Gold.PLP.Chemscore.Metal>
0.0000

> <Gold.Chemscore.Hbonds>
donor molecule, donor type, donor heavy atom, donor atom, acceptor molecule, acceptor atom, score
      L1  H     7    31       P1  8028  1.00
      L1  H    10    32       P1  8028  0.58

> <Gold.PLP.Chemscore.Internal.Correction>
0.0333

> <Gold.Rescore>
     Score         DG    S(hbond)    S(metal)    S(lipo)     H(rot)  DE(clash)    DE(int)     intcor
     16.51     -19.92       1.69        0.00     102.10       1.23       0.28       3.14       ----

> <Gold.Chemscore.Fitness>
16.5069

> <Gold.Chemscore.DG>
-19.9219

> <Gold.Chemscore.ZeroCoef>
-5.4800

> <Gold.Chemscore.Hbond>
1.6898

> <Gold.Chemscore.Metal>
0.0000

> <Gold.Chemscore.Lipo>
102.0986

> <Gold.Chemscore.Internal_Hbond>
0.0000

> <Gold.Chemscore.DEClash>
0.2786

> <Gold.Chemscore.DEInternal>
3.1365

> <Gold.Chemscore.Rot>
1.2295

> <Gold.Chemscore.Internal.Correction>
   9.000000E+99

> <Gold.Chemscore.Hbonds>
donor molecule, donor type, donor heavy atom, donor atom, acceptor molecule, acceptor atom, score
      L1  H     7    31       P1  8028  0.97
      L1  H    10    32       P1  8028  0.59

> <Gold.Chemscore.Hbond.Weighted>
-5.6438

> <Gold.Chemscore.Metal.Weighted>
-0.0000

> <Gold.Chemscore.Lipo.Weighted>
-11.9455

> <Gold.Chemscore.Internal_Hbond.Weighted>
0.0000

> <Gold.Chemscore.DEClash.Weighted>
0.2786

> <Gold.Chemscore.DEInternal.Weighted>
3.1365

> <Gold.Chemscore.Rot.Weighted>
3.1474

> <Gold.Chemscore.Internal.Correction.Weighted>
   9.000000E+99

> <Gold.Protein.RotatedTorsions>
[ 6907 6896 6895 6894 ] final   99.05 input  -60.11 | X-H torsion
[ 7974 7965 7964 7962 ] final   32.63 input  175.53 | X-H torsion
[ 8008 7997 7996 7995 ] final   31.00 input   59.86 | X-H torsion
[ 10167 10162 10161 10158 ] final  158.26 input  -65.29 | X-H torsion
[ 10718 10713 10712 10709 ] final  105.85 input   66.30 | X-H torsion
[ 10763 10752 10751 10750 ] final  -22.14 input  -60.55 | X-H torsion
[ 11005 11000 10999 10996 ] final -165.39 input  -57.11 | X-H torsion

> <Gold.Protein.ActiveResidues>
 VAL166  LYS551  ARG553  GLY616  TRP617  ASP618  TYR619  PRO620  LYS621  CYS622 
 ASP623  PHE694  ASN695  SER759  ASP760  ASP761  ALA762  ILE779  LEU786  VAL792 
 PHE793  MET794  SER795  GLU796  ALA797  LYS798  CYS799  TRP800  GLU811  SER814 

> <Gold.Protein.RotatedAtoms>
  152.5399  134.0487  159.8099 H   0  0  0  0  0  0  0  0  0  0  0  0  # atno 6907 bound_to 6896
  151.0632  133.5520  159.2640 H   0  0  0  0  0  0  0  0  0  0  0  0  # atno 6908 bound_to 6896
  151.2411  135.0597  159.9079 H   0  0  0  0  0  0  0  0  0  0  0  0  # atno 6909 bound_to 6896
  146.1474  139.6501  142.9122 H   0  0  0  0  0  0  0  0  0  0  0  0  # atno 7974 bound_to 7965
  155.0995  140.3228  155.4551 H   0  0  0  0  0  0  0  0  0  0  0  0  # atno 8008 bound_to 7997
  156.2721  140.2063  156.6068 H   0  0  0  0  0  0  0  0  0  0  0  0  # atno 8009 bound_to 7997
  154.6840  140.0523  157.0283 H   0  0  0  0  0  0  0  0  0  0  0  0  # atno 8010 bound_to 7997
  139.4826  144.4841  151.8402 H   0  0  0  0  0  0  0  0  0  0  0  0  # atno 10167 bound_to 10162
  157.6690  131.0837  150.5918 H   0  0  0  0  0  0  0  0  0  0  0  0  # atno 10718 bound_to 10713
  153.6472  135.6982  153.5221 H   0  0  0  0  0  0  0  0  0  0  0  0  # atno 10763 bound_to 10752
  153.2735  135.4207  155.1010 H   0  0  0  0  0  0  0  0  0  0  0  0  # atno 10764 bound_to 10752
  154.8485  135.3584  154.6016 H   0  0  0  0  0  0  0  0  0  0  0  0  # atno 10765 bound_to 10752
  140.5762  134.5188  157.5170 H   0  0  0  0  0  0  0  0  0  0  0  0  # atno 11005 bound_to 11000
  145.4905  141.0438  143.2595 LP  0  0  0  0  0  0  0  0  0  0  0  0  # atno 17320 bound_to 7965
  144.7862  139.6421  143.7133 LP  0  0  0  0  0  0  0  0  0  0  0  0  # atno 17321 bound_to 7965
  140.4320  144.2103  150.5888 LP  0  0  0  0  0  0  0  0  0  0  0  0  # atno 17342 bound_to 10162
  140.4770  143.2392  151.9009 LP  0  0  0  0  0  0  0  0  0  0  0  0  # atno 17343 bound_to 10162
  156.6218  130.4408  149.5819 LP  0  0  0  0  0  0  0  0  0  0  0  0  # atno 17370 bound_to 10713
  156.2349  130.6817  151.1500 LP  0  0  0  0  0  0  0  0  0  0  0  0  # atno 17371 bound_to 10713
  139.9338  134.7913  156.0857 LP  0  0  0  0  0  0  0  0  0  0  0  0  # atno 17394 bound_to 11000
  141.1025  133.6672  156.2787 LP  0  0  0  0  0  0  0  0  0  0  0  0  # atno 17395 bound_to 11000

$$$$
