AV-unprocessed.smi:1004|AV-procd|sdf|4361|dock10
  -GOLD-   22720 2263D 1   1.00000     0.00000
 Structure written by MMmdl.
 42 43  0  0  0  0  0  0  0  0  1 V2000
  146.8185  141.6907  154.5860 C   0  0  0  0  0  0  0  0  0  0  0  0
  147.8662  140.8999  155.3420 C   0  0  0  0  0  0  0  0  0  0  0  0
  147.6045  140.4149  156.6810 C   0  0  0  0  0  0  0  0  0  0  0  0
  148.5558  139.7179  157.3212 C   0  0  0  0  0  0  0  0  0  0  0  0
  149.8023  139.4440  156.7294 N   0  0  0  0  0  0  0  0  0  0  0  0
  150.7732  138.6796  157.5301 C   0  0  0  0  0  0  0  0  0  0  0  0
  152.1084  139.4118  157.7289 C   0  0  0  0  0  0  0  0  0  0  0  0
  152.8980  139.5561  156.7945 O   0  0  0  0  0  0  0  0  0  0  0  0
  152.3392  139.8870  158.9604 N   0  0  0  0  0  0  0  0  0  0  0  0
  153.5444  140.6073  159.3528 C   0  0  0  0  0  0  0  0  0  0  0  0
  153.2605  141.6087  160.4856 C   0  0  0  0  0  0  0  0  0  0  0  0
  152.5070  142.8504  160.0319 C   0  0  0  0  0  0  0  0  0  0  0  0
  152.4082  143.1901  158.7317 C   0  0  0  0  0  0  0  0  0  0  0  0
  151.6539  144.4058  158.2224 C   0  0  0  0  0  0  0  0  0  0  0  0
  150.7316  145.0136  159.2925 C   0  0  0  0  0  0  0  0  0  0  0  0
  151.4339  145.0830  160.6539 C   0  0  0  0  0  0  0  0  0  0  0  0
  151.8655  143.6856  161.1341 C   0  0  0  0  0  0  0  0  0  0  0  0
  150.1140  139.8755  155.4703 C   0  0  0  0  0  0  0  0  0  0  0  0
  151.2053  139.6430  154.9491 O   0  0  0  0  0  0  0  0  0  0  0  0
  149.0657  140.6352  154.7789 C   0  0  0  0  0  0  0  0  0  0  0  0
  145.9207  141.8333  155.1882 H   0  0  0  0  0  0  0  0  0  0  0  0
  146.5360  141.1689  153.6712 H   0  0  0  0  0  0  0  0  0  0  0  0
  147.2065  142.6734  154.3167 H   0  0  0  0  0  0  0  0  0  0  0  0
  146.6589  140.6131  157.1640 H   0  0  0  0  0  0  0  0  0  0  0  0
  148.4276  139.3349  158.3232 H   0  0  0  0  0  0  0  0  0  0  0  0
  150.3605  138.4529  158.5142 H   0  0  0  0  0  0  0  0  0  0  0  0
  150.9595  137.7081  157.0686 H   0  0  0  0  0  0  0  0  0  0  0  0
  151.6428  139.7311  159.6748 H   0  0  0  0  0  0  0  0  0  0  0  0
  154.3048  139.8901  159.6654 H   0  0  0  0  0  0  0  0  0  0  0  0
  153.9490  141.1381  158.4897 H   0  0  0  0  0  0  0  0  0  0  0  0
  152.6840  141.1201  161.2715 H   0  0  0  0  0  0  0  0  0  0  0  0
  154.2044  141.9064  160.9445 H   0  0  0  0  0  0  0  0  0  0  0  0
  152.8913  142.5837  157.9794 H   0  0  0  0  0  0  0  0  0  0  0  0
  152.3870  145.1431  157.8942 H   0  0  0  0  0  0  0  0  0  0  0  0
  151.0699  144.1263  157.3452 H   0  0  0  0  0  0  0  0  0  0  0  0
  150.4035  146.0060  158.9823 H   0  0  0  0  0  0  0  0  0  0  0  0
  149.8311  144.4051  159.3854 H   0  0  0  0  0  0  0  0  0  0  0  0
  152.3109  145.7263  160.5715 H   0  0  0  0  0  0  0  0  0  0  0  0
  150.7813  145.5456  161.3948 H   0  0  0  0  0  0  0  0  0  0  0  0
  150.9980  143.1424  161.5103 H   0  0  0  0  0  0  0  0  0  0  0  0
  152.5609  143.7866  161.9679 H   0  0  0  0  0  0  0  0  0  0  0  0
  149.2675  140.9951  153.7805 H   0  0  0  0  0  0  0  0  0  0  0  0
  1  2  1  0  0  0  0
  1 21  1  0  0  0  0
  1 22  1  0  0  0  0
  1 23  1  0  0  0  0
  2 20  2  0  0  0  0
  2  3  1  0  0  0  0
  3  4  2  0  0  0  0
  3 24  1  0  0  0  0
  4  5  1  0  0  0  0
  4 25  1  0  0  0  0
  5  6  1  0  0  0  0
  5 18  1  0  0  0  0
  6  7  1  0  0  0  0
  6 26  1  0  0  0  0
  6 27  1  0  0  0  0
  7  8  2  0  0  0  0
  7  9  1  0  0  0  0
  9 10  1  0  0  0  0
  9 28  1  0  0  0  0
 10 11  1  0  0  0  0
 10 29  1  0  0  0  0
 10 30  1  0  0  0  0
 11 12  1  0  0  0  0
 11 31  1  0  0  0  0
 11 32  1  0  0  0  0
 12 17  1  0  0  0  0
 12 13  2  0  0  0  0
 13 14  1  0  0  0  0
 13 33  1  0  0  0  0
 14 15  1  0  0  0  0
 14 34  1  0  0  0  0
 14 35  1  0  0  0  0
 15 16  1  0  0  0  0
 15 36  1  0  0  0  0
 15 37  1  0  0  0  0
 16 17  1  0  0  0  0
 16 38  1  0  0  0  0
 16 39  1  0  0  0  0
 17 40  1  0  0  0  0
 17 41  1  0  0  0  0
 18 19  2  0  0  0  0
 18 20  1  0  0  0  0
 20 42  1  0  0  0  0
M  END
> <s_m_source_file>
AV-unprocessed.smi

> <i_m_source_file_index>
1004

> <i_lp_mmshare_version>
43012

> <i_f3d_flags>
0

> <s_epik_input>
W0NIM11jMVtjSF1bY0hdbihjKD1PKVtjSF0xKVtDSDJdQyg9TylbTkhdW0NIMl1bQ0gyXUMyPVtDSF1bQ0gyXVtDSDJdW0NIMl1bQ0gyXTI=

> <s_epik_cmdline>
J2VwaWtfcHl0aG9uJywgJy1waCcsICc3LjAnLCAnLXRuJywgJzgnLCAnLW1hJywgJzIwMCcsICctbWV0YWxfYmluZGluZycsICctaW1hZScsICc8aW5maWxlLm1hZT4nLCAnLW9tYWUnLCAnPG91dGZpbGUubWFlPic=

> <r_lp_tautomer_probability>
1

> <r_epik_Ionization_Penalty>
5.31482e-07

> <r_epik_Ionization_Penalty_Charging>
5.13379e-07

> <r_epik_Ionization_Penalty_Neutral>
1.81035e-08

> <r_epik_State_Penalty>
-0

> <r_epik_Charging_Adjusted_Penalty>
5.13379e-07

> <i_epik_Tot_Q>
0

> <i_epik_Tot_abs_Q>
0

> <r_epik_Metal_State_Penalty>
-0

> <b_epik_Metal_Only>
0

> <s_lp_Force_Field>
OPLS_2005

> <r_lp_Energy>
18.1417

> <b_lp_Chiralities_Consistent>
1

> <s_lp_Variant>
AV-unprocessed.smi:1004-1

> <Gold.Version>
5.8.1

> <Gold.Id.Protein>
6NUR|6NUR_protein|mol2

> <Gold.PLP.Fitness>
53.7900

> <Gold.PLP.PLP>
-48.9325

> <Gold.PLP.part.hbond>
-2.0000

> <Gold.PLP.part.metal>
0.0000

> <Gold.PLP.part.buried>
-4.8588

> <Gold.PLP.part.nonpolar>
-40.8138

> <Gold.PLP.part.repulsive>
0.1738

> <Gold.PLP.ligand.clash>
0.0000

> <Gold.PLP.ligand.torsion>
0.5748

> <Gold.PLP.Chemscore.Hbond>
2.0000

> <Gold.PLP.Chemscore.CHOScore>
0.0000

> <Gold.PLP.Chemscore.Metal>
0.0000

> <Gold.Chemscore.Hbonds>
donor molecule, donor type, donor heavy atom, donor atom, acceptor molecule, acceptor atom, score
      P1  H  7989  7998       L1    19  1.00
      P1  H  7997  8009       L1     8  1.00

> <Gold.PLP.Chemscore.Internal.Correction>
0.0071

> <Gold.Rescore>
     Score         DG    S(hbond)    S(metal)    S(lipo)     H(rot)  DE(clash)    DE(int)     intcor
     18.15     -20.81       1.96        0.00     110.89       1.63       0.38       2.29       ----

> <Gold.Chemscore.Fitness>
18.1459

> <Gold.Chemscore.DG>
-20.8116

> <Gold.Chemscore.ZeroCoef>
-5.4800

> <Gold.Chemscore.Hbond>
1.9560

> <Gold.Chemscore.Metal>
0.0000

> <Gold.Chemscore.Lipo>
110.8921

> <Gold.Chemscore.Internal_Hbond>
0.0000

> <Gold.Chemscore.DEClash>
0.3773

> <Gold.Chemscore.DEInternal>
2.2884

> <Gold.Chemscore.Rot>
1.6311

> <Gold.Chemscore.Internal.Correction>
   9.000000E+99

> <Gold.Chemscore.Hbonds>
donor molecule, donor type, donor heavy atom, donor atom, acceptor molecule, acceptor atom, score
      P1  H  7989  7998       L1    19  0.87
      P1  H  7997  8009       L1     8  0.97

> <Gold.Chemscore.Hbond.Weighted>
-6.5329

> <Gold.Chemscore.Metal.Weighted>
-0.0000

> <Gold.Chemscore.Lipo.Weighted>
-12.9744

> <Gold.Chemscore.Internal_Hbond.Weighted>
0.0000

> <Gold.Chemscore.DEClash.Weighted>
0.3773

> <Gold.Chemscore.DEInternal.Weighted>
2.2884

> <Gold.Chemscore.Rot.Weighted>
4.1757

> <Gold.Chemscore.Internal.Correction.Weighted>
   9.000000E+99

> <Gold.Protein.RotatedTorsions>
[ 6907 6896 6895 6894 ] final    0.73 input  -60.11 | X-H torsion
[ 7974 7965 7964 7962 ] final -149.29 input  175.53 | X-H torsion
[ 8008 7997 7996 7995 ] final -170.17 input   59.86 | X-H torsion
[ 10167 10162 10161 10158 ] final  109.66 input  -65.29 | X-H torsion
[ 10718 10713 10712 10709 ] final  153.09 input   66.30 | X-H torsion
[ 10763 10752 10751 10750 ] final  158.21 input  -60.55 | X-H torsion
[ 11005 11000 10999 10996 ] final -131.65 input  -57.11 | X-H torsion

> <Gold.Protein.ActiveResidues>
 VAL166  LYS551  ARG553  GLY616  TRP617  ASP618  TYR619  PRO620  LYS621  CYS622 
 ASP623  PHE694  ASN695  SER759  ASP760  ASP761  ALA762  ILE779  LEU786  VAL792 
 PHE793  MET794  SER795  GLU796  ALA797  LYS798  CYS799  TRP800  GLU811  SER814 

> <Gold.Protein.RotatedAtoms>
  151.5812  135.1058  160.0017 H   0  0  0  0  0  0  0  0  0  0  0  0  # atno 6907 bound_to 6896
  152.4353  133.7346  159.6617 H   0  0  0  0  0  0  0  0  0  0  0  0  # atno 6908 bound_to 6896
  150.8250  133.8117  159.3145 H   0  0  0  0  0  0  0  0  0  0  0  0  # atno 6909 bound_to 6896
  144.7976  140.5084  143.5729 H   0  0  0  0  0  0  0  0  0  0  0  0  # atno 7974 bound_to 7965
  155.9147  140.1063  157.1253 H   0  0  0  0  0  0  0  0  0  0  0  0  # atno 8008 bound_to 7997
  154.4045  140.1267  156.4667 H   0  0  0  0  0  0  0  0  0  0  0  0  # atno 8009 bound_to 7997
  155.7268  140.3469  155.5043 H   0  0  0  0  0  0  0  0  0  0  0  0  # atno 8010 bound_to 7997
  139.6749  144.7123  151.1620 H   0  0  0  0  0  0  0  0  0  0  0  0  # atno 10167 bound_to 10162
  157.2493  131.0775  151.1741 H   0  0  0  0  0  0  0  0  0  0  0  0  # atno 10718 bound_to 10713
  154.2125  135.2785  155.2953 H   0  0  0  0  0  0  0  0  0  0  0  0  # atno 10763 bound_to 10752
  154.5767  135.5602  153.7150 H   0  0  0  0  0  0  0  0  0  0  0  0  # atno 10764 bound_to 10752
  153.0061  135.6334  154.2264 H   0  0  0  0  0  0  0  0  0  0  0  0  # atno 10765 bound_to 10752
  140.9240  134.1407  157.4290 H   0  0  0  0  0  0  0  0  0  0  0  0  # atno 11005 bound_to 11000
  145.5633  139.1480  143.3329 LP  0  0  0  0  0  0  0  0  0  0  0  0  # atno 17320 bound_to 7965
  146.2249  140.5768  142.9001 LP  0  0  0  0  0  0  0  0  0  0  0  0  # atno 17321 bound_to 7965
  140.7632  143.5787  150.8918 LP  0  0  0  0  0  0  0  0  0  0  0  0  # atno 17342 bound_to 10162
  139.9455  143.6332  152.3043 LP  0  0  0  0  0  0  0  0  0  0  0  0  # atno 17343 bound_to 10162
  157.3295  130.6978  149.6316 LP  0  0  0  0  0  0  0  0  0  0  0  0  # atno 17370 bound_to 10713
  155.9667  130.4311  150.4907 LP  0  0  0  0  0  0  0  0  0  0  0  0  # atno 17371 bound_to 10713
  139.8781  134.9981  156.5885 LP  0  0  0  0  0  0  0  0  0  0  0  0  # atno 17394 bound_to 11000
  140.7950  133.8551  155.8678 LP  0  0  0  0  0  0  0  0  0  0  0  0  # atno 17395 bound_to 11000

$$$$
