#       Name:                AV-unprocessed.smi:1149
#       Creating user name   scv26
#       Creation time:       Fri Mar 27 03:46:45 2020


#       File generated by GOLD software.
#

@<TRIPOS>MOLECULE
AV-unprocessed.smi:1149
    57    58     1
SMALL
NO_CHARGES


@<TRIPOS>ATOM
      1 ****        -5.7546   4.1809  -4.6482 C.3            1 S1                 0.0000
      2 ****        -4.8588   4.6514  -3.6468 O.3            1 S1                 0.0000
      3 ****        -4.1065   3.7251  -2.9535 C.ar           1 S1                 0.0000
      4 ****        -3.2220   4.1842  -1.9575 C.ar           1 S1                 0.0000
      5 ****        -2.4518   3.2431  -1.2487 C.ar           1 S1                 0.0000
      6 ****        -2.5790   1.8747  -1.5611 C.ar           1 S1                 0.0000
      7 ****        -1.8061   0.9434  -0.8168 N.am           1 S1                 0.0000
      8 ****        -1.4516  -0.3069  -1.1592 C.2            1 S1                 0.0000
      9 ****        -1.7004  -0.8443  -2.2381 O.2            1 S1                 0.0000
     10 ****        -0.7582  -0.8971  -0.1759 N.am           1 S1                 0.0000
     11 ****        -0.1786  -2.2395  -0.2198 C.3            1 S1                 0.0000
     12 ****         1.3733  -2.2201  -0.1016 C.3            1 S1                 0.0000
     13 ****         1.8497  -3.6927  -0.0804 C.3            1 S1                 0.0000
     14 ****         1.9023  -1.5859  -1.4132 C.3            1 S1                 0.0000
     15 ****         1.8242  -1.4442   1.0879 N.3            1 S1                 0.0000
     16 ****         1.3111  -1.9362   2.3773 C.3            1 S1                 0.0000
     17 ****         1.6975  -1.0035   3.5397 C.3            1 S1                 0.0000
     18 ****         3.1455  -0.8557   3.6473 N.3            1 S1                 0.0000
     19 ****         3.5126   0.0159   4.7526 C.3            1 S1                 0.0000
     20 ****         3.6612  -0.3570   2.3760 C.3            1 S1                 0.0000
     21 ****         3.2828  -1.2880   1.2094 C.3            1 S1                 0.0000
     22 ****        -3.5044   1.5123  -2.5700 C.ar           1 S1                 0.0000
     23 ****        -4.2479   2.4099  -3.2514 N.ar           1 S1                 0.0000
     24 ****        -6.2645   5.0292  -5.1043 H              1 S1                 0.0000
     25 ****        -6.5173   3.5259  -4.2247 H              1 S1                 0.0000
     26 ****        -5.2254   3.6491  -5.4402 H              1 S1                 0.0000
     27 ****        -3.1367   5.2387  -1.7405 H              1 S1                 0.0000
     28 ****        -1.7693   3.5718  -0.4785 H              1 S1                 0.0000
     29 ****        -1.4423   1.2845   0.0611 H              1 S1                 0.0000
     30 ****        -0.5911  -0.3675   0.6671 H              1 S1                 0.0000
     31 ****        -0.6276  -2.8248   0.5821 H              1 S1                 0.0000
     32 ****        -0.4753  -2.7600  -1.1322 H              1 S1                 0.0000
     33 ****         1.5112  -4.2255  -0.9698 H              1 S1                 0.0000
     34 ****         1.4606  -4.2388   0.7788 H              1 S1                 0.0000
     35 ****         2.9362  -3.7744  -0.0612 H              1 S1                 0.0000
     36 ****         1.4342  -2.0329  -2.2911 H              1 S1                 0.0000
     37 ****         2.9759  -1.7273  -1.5372 H              1 S1                 0.0000
     38 ****         1.7041  -0.5141  -1.4510 H              1 S1                 0.0000
     39 ****         0.2254  -2.0074   2.3617 H              1 S1                 0.0000
     40 ****         1.6909  -2.9374   2.5819 H              1 S1                 0.0000
     41 ****         1.2304  -0.0277   3.3964 H              1 S1                 0.0000
     42 ****         1.2992  -1.4064   4.4716 H              1 S1                 0.0000
     43 ****         4.5968   0.0982   4.8357 H              1 S1                 0.0000
     44 ****         3.1361  -0.3789   5.6968 H              1 S1                 0.0000
     45 ****         3.1048   1.0185   4.6166 H              1 S1                 0.0000
     46 ****         3.2755   0.6454   2.1828 H              1 S1                 0.0000
     47 ****         4.7469  -0.2690   2.4287 H              1 S1                 0.0000
     48 ****         3.7600  -2.2575   1.3554 H              1 S1                 0.0000
     49 ****         3.7041  -0.8621   0.3008 H              1 S1                 0.0000
     50 ****        -3.6850   0.4827  -2.8368 H              1 S1                 0.0000
     51 ****        -5.4033   5.1531  -2.9746 LP             1 S1                 0.0000
     52 ****        -4.2194   5.2780  -4.0924 LP             1 S1                 0.0000
     53 ****        -2.2044  -0.3435  -2.9417 LP             1 S1                 0.0000
     54 ****        -1.3985  -1.7819  -2.4111 LP             1 S1                 0.0000
     55 ****         1.4186  -0.5504   0.8970 LP             1 S1                 0.0000
     56 ****         3.5556  -1.7465   3.8434 LP             1 S1                 0.0000
     57 ****        -4.8880   2.1116  -3.9594 LP             1 S1                 0.0000
@<TRIPOS>BOND
    1    1    2 1     
    2    1   24 1     
    3    1   25 1     
    4    1   26 1     
    5    2    3 1     
    6    3   23 ar    
    7    3    4 ar    
    8    4    5 ar    
    9    4   27 1     
   10    5    6 ar    
   11    5   28 1     
   12    6    7 1     
   13    6   22 ar    
   14    7    8 am    
   15    7   29 1     
   16    8    9 2     
   17    8   10 am    
   18   10   11 1     
   19   10   30 1     
   20   11   12 1     
   21   11   31 1     
   22   11   32 1     
   23   12   13 1     
   24   12   14 1     
   25   12   15 1     
   26   13   33 1     
   27   13   34 1     
   28   13   35 1     
   29   14   36 1     
   30   14   37 1     
   31   14   38 1     
   32   15   21 1     
   33   15   16 1     
   34   16   17 1     
   35   16   39 1     
   36   16   40 1     
   37   17   18 1     
   38   17   41 1     
   39   17   42 1     
   40   18   19 1     
   41   18   20 1     
   42   19   43 1     
   43   19   44 1     
   44   19   45 1     
   45   20   21 1     
   46   20   46 1     
   47   20   47 1     
   48   21   48 1     
   49   21   49 1     
   50   22   23 ar    
   51   22   50 1     
   52    2   51 1     
   53    2   52 1     
   54    9   53 1     
   55    9   54 1     
   56   15   55 1     
   57   18   56 1     
   58   23   57 1     
@<TRIPOS>SUBSTRUCTURE
      1 S1             1
@<TRIPOS>SET
LONE_PAIRS      STATIC     ATOMS    <user>   **** ""
7 51 52 53 54 55 56 57
DONOR_HYDROGENS      STATIC     ATOMS    <user>   **** ""
2 29 30
ATOM$BLUE        STATIC     ATOMS    COLORGROUP SYSTEM
7 51 52 53 54 55 56 57
ATOM$RED        STATIC     ATOMS    COLORGROUP SYSTEM
2 29 30
