AV-unprocessed.smi:1762|AV-procd|sdf|7117|dock7
  -GOLD-   22720 8343D 1   1.00000     0.00000
 Structure written by MMmdl.
 53 54  0  0  0  0  0  0  0  0  2 V2000
  150.9730  134.6434  156.5734 C   0  0  0  0  0  0  0  0  0  0  0  0
  149.9730  135.1526  155.5292 C   0  0  2  0  0  0  0  0  0  0  0  0
  149.6897  136.6578  155.6821 C   0  0  0  0  0  0  0  0  0  0  0  0
  148.6749  137.1186  154.6910 N   0  3  2  0  0  0  0  0  0  0  0  0
  148.4419  138.6037  154.7375 C   0  0  1  0  0  0  0  0  0  0  0  0
  149.7559  139.3625  155.0250 C   0  0  0  0  0  0  0  0  0  0  0  0
  150.7340  139.2061  154.2929 O   0  0  0  0  0  0  0  0  0  0  0  0
  149.7611  140.1777  156.0905 N   0  0  0  0  0  0  0  0  0  0  0  0
  150.8976  140.9839  156.5165 C   0  0  0  0  0  0  0  0  0  0  0  0
  150.8096  141.2854  158.0189 C   0  0  0  0  0  0  0  0  0  0  0  0
  151.3207  142.6732  158.3580 C   0  0  0  0  0  0  0  0  0  0  0  0
  152.7035  142.9179  158.4985 C   0  0  0  0  0  0  0  0  0  0  0  0
  153.1254  144.2262  158.8049 C   0  0  0  0  0  0  0  0  0  0  0  0
  152.1539  145.2339  158.9572 C   0  0  0  0  0  0  0  0  0  0  0  0
  150.7977  144.8873  158.7963 C   0  0  0  0  0  0  0  0  0  0  0  0
  150.3824  143.6360  158.5031 N   0  0  0  0  0  0  0  0  0  0  0  0
  147.7353  139.1866  153.4664 C   0  0  0  0  0  0  0  0  0  0  0  0
  147.6005  140.7238  153.4727 C   0  0  0  0  0  0  0  0  0  0  0  0
  146.3670  138.5379  153.1775 C   0  0  0  0  0  0  0  0  0  0  0  0
  147.4526  136.2784  154.8279 C   0  0  0  0  0  0  0  0  0  0  0  0
  147.7914  134.7796  154.7146 C   0  0  2  0  0  0  0  0  0  0  0  0
  146.5601  133.8925  154.9295 C   0  0  0  0  0  0  0  0  0  0  0  0
  148.7569  134.4380  155.6995 O   0  0  0  0  0  0  0  0  0  0  0  0
  151.9314  135.1555  156.4828 H   0  0  0  0  0  0  0  0  0  0  0  0
  151.1550  133.5756  156.4499 H   0  0  0  0  0  0  0  0  0  0  0  0
  150.6025  134.8029  157.5865 H   0  0  0  0  0  0  0  0  0  0  0  0
  150.3775  134.9522  154.5355 H   0  0  0  0  0  0  0  0  0  0  0  0
  149.3313  136.8698  156.6909 H   0  0  0  0  0  0  0  0  0  0  0  0
  150.6308  137.1945  155.5657 H   0  0  0  0  0  0  0  0  0  0  0  0
  147.7702  138.7780  155.5806 H   0  0  0  0  0  0  0  0  0  0  0  0
  148.9166  140.2536  156.6389 H   0  0  0  0  0  0  0  0  0  0  0  0
  151.8172  140.4413  156.2931 H   0  0  0  0  0  0  0  0  0  0  0  0
  150.9313  141.9199  155.9560 H   0  0  0  0  0  0  0  0  0  0  0  0
  149.7757  141.1980  158.3568 H   0  0  0  0  0  0  0  0  0  0  0  0
  151.3802  140.5457  158.5822 H   0  0  0  0  0  0  0  0  0  0  0  0
  153.4258  142.1245  158.3740 H   0  0  0  0  0  0  0  0  0  0  0  0
  154.1751  144.4525  158.9197 H   0  0  0  0  0  0  0  0  0  0  0  0
  152.4411  146.2485  159.1915 H   0  0  0  0  0  0  0  0  0  0  0  0
  150.0262  145.6352  158.9049 H   0  0  0  0  0  0  0  0  0  0  0  0
  148.3343  138.9148  152.5986 H   0  0  0  0  0  0  0  0  0  0  0  0
  146.9083  141.0649  154.2429 H   0  0  0  0  0  0  0  0  0  0  0  0
  147.2201  141.0825  152.5158 H   0  0  0  0  0  0  0  0  0  0  0  0
  148.5554  141.2190  153.6467 H   0  0  0  0  0  0  0  0  0  0  0  0
  145.6142  138.8178  153.9148 H   0  0  0  0  0  0  0  0  0  0  0  0
  146.4401  137.4501  153.1684 H   0  0  0  0  0  0  0  0  0  0  0  0
  145.9902  138.8463  152.2019 H   0  0  0  0  0  0  0  0  0  0  0  0
  146.9718  136.4897  155.7845 H   0  0  0  0  0  0  0  0  0  0  0  0
  146.7296  136.5000  154.0457 H   0  0  0  0  0  0  0  0  0  0  0  0
  148.1985  134.5700  153.7237 H   0  0  0  0  0  0  0  0  0  0  0  0
  145.7868  134.1076  154.1918 H   0  0  0  0  0  0  0  0  0  0  0  0
  146.1301  134.0465  155.9199 H   0  0  0  0  0  0  0  0  0  0  0  0
  146.8191  132.8373  154.8395 H   0  0  0  0  0  0  0  0  0  0  0  0
  149.0535  136.9251  153.7744 H   0  0  0  0  0  0  0  0  0  0  0  0
  1  2  1  0  0  0  0
  1 24  1  0  0  0  0
  1 25  1  0  0  0  0
  1 26  1  0  0  0  0
  2 23  1  0  0  0  0
  2  3  1  0  0  0  0
  2 27  1  0  0  0  0
  3  4  1  0  0  0  0
  3 28  1  0  0  0  0
  3 29  1  0  0  0  0
  4  5  1  0  0  0  0
  4 20  1  0  0  0  0
  4 53  1  0  0  0  0
  5  6  1  0  0  0  0
  5 17  1  0  0  0  0
  5 30  1  0  0  0  0
  6  7  2  0  0  0  0
  6  8  1  0  0  0  0
  8  9  1  0  0  0  0
  8 31  1  0  0  0  0
  9 10  1  0  0  0  0
  9 32  1  0  0  0  0
  9 33  1  0  0  0  0
 10 11  1  0  0  0  0
 10 34  1  0  0  0  0
 10 35  1  0  0  0  0
 11 16  1  0  0  0  0
 11 12  2  0  0  0  0
 12 13  1  0  0  0  0
 12 36  1  0  0  0  0
 13 14  2  0  0  0  0
 13 37  1  0  0  0  0
 14 15  1  0  0  0  0
 14 38  1  0  0  0  0
 15 16  2  0  0  0  0
 15 39  1  0  0  0  0
 17 18  1  0  0  0  0
 17 19  1  0  0  0  0
 17 40  1  0  0  0  0
 18 41  1  0  0  0  0
 18 42  1  0  0  0  0
 18 43  1  0  0  0  0
 19 44  1  0  0  0  0
 19 45  1  0  0  0  0
 19 46  1  0  0  0  0
 20 21  1  0  0  0  0
 20 47  1  0  0  0  0
 20 48  1  0  0  0  0
 21 22  1  0  0  0  0
 21 23  1  0  0  0  0
 21 49  1  0  0  0  0
 22 50  1  0  0  0  0
 22 51  1  0  0  0  0
 22 52  1  0  0  0  0
M  CHG  1   4   1
M  END
> <s_m_source_file>
AV-unprocessed.smi

> <i_m_source_file_index>
1762

> <i_lp_mmshare_version>
43012

> <i_f3d_flags>
0

> <s_epik_input>
W0NIM11bQ0BASF0xW0NIMl1OKFtDSDJdW0NASF0oTzEpW0NIM10pW0NAQEhdKFtDSF0oW0NIM10pW0NIM10pQyg9TylbTkhdW0NIMl1bQ0gyXWMyW2NIXVtjSF1bY0hdW2NIXW4y

> <s_epik_cmdline>
J2VwaWtfcHl0aG9uJywgJy1waCcsICc3LjAnLCAnLXRuJywgJzgnLCAnLW1hJywgJzIwMCcsICctbWV0YWxfYmluZGluZycsICctaW1hZScsICc8aW5maWxlLm1hZT4nLCAnLW9tYWUnLCAnPG91dGZpbGUubWFlPic=

> <r_epik_Ionization_Penalty>
2.27005

> <r_epik_Ionization_Penalty_Charging>
2.24983

> <r_epik_Ionization_Penalty_Neutral>
0.0202209

> <r_epik_State_Penalty>
2.40228

> <r_epik_Charging_Adjusted_Penalty>
4.65211

> <i_epik_Tot_Q>
1

> <i_epik_Tot_abs_Q>
1

> <r_epik_Metal_State_Penalty>
2.40762

> <b_epik_Metal_Only>
0

> <s_lp_Force_Field>
OPLS_2005

> <r_lp_Energy>
21.958

> <b_lp_Chiralities_Consistent>
1

> <s_lp_Variant>
AV-unprocessed.smi:1762-19

> <Gold.Version>
5.8.1

> <Gold.Id.Protein>
6NUR|6NUR_protein|mol2

> <Gold.PLP.Fitness>
44.4361

> <Gold.PLP.PLP>
-34.9584

> <Gold.PLP.part.hbond>
-2.0000

> <Gold.PLP.part.metal>
0.0000

> <Gold.PLP.part.buried>
-3.1719

> <Gold.PLP.part.nonpolar>
-30.4598

> <Gold.PLP.part.repulsive>
0.4185

> <Gold.PLP.ligand.clash>
0.0000

> <Gold.PLP.ligand.torsion>
1.2102

> <Gold.PLP.Chemscore.Hbond>
3.0000

> <Gold.PLP.Chemscore.CHOScore>
0.8520

> <Gold.PLP.Chemscore.Metal>
0.0000

> <Gold.Chemscore.Hbonds>
donor molecule, donor type, donor heavy atom, donor atom, acceptor molecule, acceptor atom, score
      L1  H     4    53       P1  7948  2.00
      P1  H  7989  7998       L1     7  0.98
      L1  C    15    39       P1  8029  0.56

> <Gold.PLP.Chemscore.Internal.Correction>
0.3422

> <Gold.Rescore>
     Score         DG    S(hbond)    S(metal)    S(lipo)     H(rot)  DE(clash)    DE(int)     intcor
     18.99     -20.96       1.96        0.00     112.68       1.66       0.20       1.77       ----

> <Gold.Chemscore.Fitness>
18.9894

> <Gold.Chemscore.DG>
-20.9621

> <Gold.Chemscore.ZeroCoef>
-5.4800

> <Gold.Chemscore.Hbond>
1.9632

> <Gold.Chemscore.Metal>
0.0000

> <Gold.Chemscore.Lipo>
112.6793

> <Gold.Chemscore.Internal_Hbond>
0.0000

> <Gold.Chemscore.DEClash>
0.2042

> <Gold.Chemscore.DEInternal>
1.7685

> <Gold.Chemscore.Rot>
1.6635

> <Gold.Chemscore.Internal.Correction>
   9.000000E+99

> <Gold.Chemscore.Hbonds>
donor molecule, donor type, donor heavy atom, donor atom, acceptor molecule, acceptor atom, score
      L1  H     4    53       P1  7948  0.92
      P1  H  7989  7998       L1     7  0.88

> <Gold.Chemscore.Hbond.Weighted>
-6.5572

> <Gold.Chemscore.Metal.Weighted>
-0.0000

> <Gold.Chemscore.Lipo.Weighted>
-13.1835

> <Gold.Chemscore.Internal_Hbond.Weighted>
0.0000

> <Gold.Chemscore.DEClash.Weighted>
0.2042

> <Gold.Chemscore.DEInternal.Weighted>
1.7685

> <Gold.Chemscore.Rot.Weighted>
4.2586

> <Gold.Chemscore.Internal.Correction.Weighted>
   9.000000E+99

> <Gold.Protein.RotatedTorsions>
[ 6907 6896 6895 6894 ] final  105.27 input  -60.11 | X-H torsion
[ 7974 7965 7964 7962 ] final -100.87 input  175.53 | X-H torsion
[ 8008 7997 7996 7995 ] final  156.91 input   59.86 | X-H torsion
[ 10167 10162 10161 10158 ] final   62.57 input  -65.29 | X-H torsion
[ 10718 10713 10712 10709 ] final  -45.05 input   66.30 | X-H torsion
[ 10763 10752 10751 10750 ] final -139.62 input  -60.55 | X-H torsion
[ 11005 11000 10999 10996 ] final   -3.93 input  -57.11 | X-H torsion

> <Gold.Protein.ActiveResidues>
 VAL166  LYS551  ARG553  GLY616  TRP617  ASP618  TYR619  PRO620  LYS621  CYS622 
 ASP623  PHE694  ASN695  SER759  ASP760  ASP761  ALA762  ILE779  LEU786  VAL792 
 PHE793  MET794  SER795  GLU796  ALA797  LYS798  CYS799  TRP800  GLU811  SER814 

> <Gold.Protein.RotatedAtoms>
  152.5236  133.9554  159.7691 H   0  0  0  0  0  0  0  0  0  0  0  0  # atno 6907 bound_to 6896
  150.9855  133.6193  159.2723 H   0  0  0  0  0  0  0  0  0  0  0  0  # atno 6908 bound_to 6896
  151.3355  135.0858  159.9406 H   0  0  0  0  0  0  0  0  0  0  0  0  # atno 6909 bound_to 6896
  145.2890  140.9347  143.2889 H   0  0  0  0  0  0  0  0  0  0  0  0  # atno 7974 bound_to 7965
  156.2395  140.1899  156.7028 H   0  0  0  0  0  0  0  0  0  0  0  0  # atno 8008 bound_to 7997
  154.6169  140.0614  156.9592 H   0  0  0  0  0  0  0  0  0  0  0  0  # atno 8009 bound_to 7997
  155.1925  140.3285  155.4359 H   0  0  0  0  0  0  0  0  0  0  0  0  # atno 8010 bound_to 7997
  140.1424  144.4540  150.6803 H   0  0  0  0  0  0  0  0  0  0  0  0  # atno 10167 bound_to 10162
  156.2322  130.4173  149.8860 H   0  0  0  0  0  0  0  0  0  0  0  0  # atno 10718 bound_to 10713
  154.8603  135.3577  154.5576 H   0  0  0  0  0  0  0  0  0  0  0  0  # atno 10763 bound_to 10752
  153.6192  135.7006  153.5322 H   0  0  0  0  0  0  0  0  0  0  0  0  # atno 10764 bound_to 10752
  153.3143  135.4169  155.1323 H   0  0  0  0  0  0  0  0  0  0  0  0  # atno 10765 bound_to 10752
  140.6747  133.9205  155.8517 H   0  0  0  0  0  0  0  0  0  0  0  0  # atno 11005 bound_to 11000
  144.9189  139.4436  143.6551 LP  0  0  0  0  0  0  0  0  0  0  0  0  # atno 17320 bound_to 7965
  146.3191  139.8038  142.8960 LP  0  0  0  0  0  0  0  0  0  0  0  0  # atno 17321 bound_to 7965
  140.6752  143.2302  151.5525 LP  0  0  0  0  0  0  0  0  0  0  0  0  # atno 17342 bound_to 10162
  139.5465  144.2507  152.1452 LP  0  0  0  0  0  0  0  0  0  0  0  0  # atno 17343 bound_to 10162
  156.6470  130.8728  151.3524 LP  0  0  0  0  0  0  0  0  0  0  0  0  # atno 17370 bound_to 10713
  157.7138  130.9472  150.1183 LP  0  0  0  0  0  0  0  0  0  0  0  0  # atno 17371 bound_to 10713
  141.0364  134.0683  157.3954 LP  0  0  0  0  0  0  0  0  0  0  0  0  # atno 17394 bound_to 11000
  139.8970  135.0148  156.7080 LP  0  0  0  0  0  0  0  0  0  0  0  0  # atno 17395 bound_to 11000

$$$$
