AV-unprocessed.smi:763|AV-procd|sdf|3636|dock1
  -GOLD-   22720 1 33D 1   1.00000     0.00000
 Structure written by MMmdl.
 44 45  0  0  0  0  0  0  0  0  1 V2000
  145.3263  143.0413  161.6068 C   0  0  0  0  0  0  0  0  0  0  0  0
  146.6797  143.3909  161.3766 O   0  0  0  0  0  0  0  0  0  0  0  0
  146.8642  144.7908  161.2510 C   0  0  0  0  0  0  0  0  0  0  0  0
  148.3019  145.0671  160.7833 C   0  0  0  0  0  0  0  0  0  0  0  0
  148.7194  144.1338  159.7865 O   0  0  0  0  0  0  0  0  0  0  0  0
  149.9862  144.2253  159.2391 C   0  0  0  0  0  0  0  0  0  0  0  0
  150.7857  145.2560  159.6127 N   0  0  0  0  0  0  0  0  0  0  0  0
  152.0225  145.3370  159.0811 C   0  0  0  0  0  0  0  0  0  0  0  0
  152.5280  144.4003  158.1609 C   0  0  0  0  0  0  0  0  0  0  0  0
  151.7014  143.3291  157.7755 C   0  0  0  0  0  0  0  0  0  0  0  0
  150.4019  143.2332  158.3213 C   0  0  0  0  0  0  0  0  0  0  0  0
  149.5256  142.1937  157.9863 N   0  0  0  0  0  0  0  0  0  0  0  0
  149.7590  140.8557  156.9049 S   0  0  0  0  0  0  0  0  0  0  0  0
  151.2055  140.8382  156.6419 O   0  0  0  0  0  0  0  0  0  0  0  0
  149.1065  139.7025  157.5448 O   0  0  0  0  0  0  0  0  0  0  0  0
  148.8029  141.3906  155.3877 C   0  0  2  0  0  0  0  0  0  0  0  0
  147.3456  141.7427  155.7519 C   0  0  0  0  0  0  0  0  0  0  0  0
  146.5175  140.4905  156.0905 C   0  0  0  0  0  0  0  0  0  0  0  0
  146.5338  139.4856  154.9272 C   0  0  0  0  0  0  0  0  0  0  0  0
  147.9695  139.1044  154.5306 C   0  0  0  0  0  0  0  0  0  0  0  0
  148.8150  140.3592  154.2316 C   0  0  2  0  0  0  0  0  0  0  0  0
  150.1340  139.9996  153.8740 O   0  0  0  0  0  0  0  0  0  0  0  0
  145.2370  141.9584  161.6917 H   0  0  0  0  0  0  0  0  0  0  0  0
  144.6890  143.3680  160.7841 H   0  0  0  0  0  0  0  0  0  0  0  0
  144.9568  143.4831  162.5332 H   0  0  0  0  0  0  0  0  0  0  0  0
  146.1321  145.2167  160.5642 H   0  0  0  0  0  0  0  0  0  0  0  0
  146.7068  145.2604  162.2231 H   0  0  0  0  0  0  0  0  0  0  0  0
  148.4082  146.0943  160.4314 H   0  0  0  0  0  0  0  0  0  0  0  0
  148.9801  144.9805  161.6324 H   0  0  0  0  0  0  0  0  0  0  0  0
  152.6282  146.1721  159.4007 H   0  0  0  0  0  0  0  0  0  0  0  0
  153.5258  144.5006  157.7604 H   0  0  0  0  0  0  0  0  0  0  0  0
  152.0752  142.5994  157.0741 H   0  0  0  0  0  0  0  0  0  0  0  0
  148.6415  142.2103  158.4747 H   0  0  0  0  0  0  0  0  0  0  0  0
  149.2787  142.3051  155.0347 H   0  0  0  0  0  0  0  0  0  0  0  0
  147.3167  142.4487  156.5818 H   0  0  0  0  0  0  0  0  0  0  0  0
  146.8812  142.2572  154.9096 H   0  0  0  0  0  0  0  0  0  0  0  0
  146.9060  140.0158  156.9921 H   0  0  0  0  0  0  0  0  0  0  0  0
  145.4898  140.7776  156.3144 H   0  0  0  0  0  0  0  0  0  0  0  0
  145.9738  138.5906  155.1997 H   0  0  0  0  0  0  0  0  0  0  0  0
  146.0223  139.9188  154.0668 H   0  0  0  0  0  0  0  0  0  0  0  0
  148.4162  138.5091  155.3253 H   0  0  0  0  0  0  0  0  0  0  0  0
  147.9440  138.4583  153.6523 H   0  0  0  0  0  0  0  0  0  0  0  0
  148.3859  140.8420  153.3525 H   0  0  0  0  0  0  0  0  0  0  0  0
  150.2183  140.0536  152.9344 H   0  0  0  0  0  0  0  0  0  0  0  0
  1  2  1  0  0  0  0
  1 23  1  0  0  0  0
  1 24  1  0  0  0  0
  1 25  1  0  0  0  0
  2  3  1  0  0  0  0
  3  4  1  0  0  0  0
  3 26  1  0  0  0  0
  3 27  1  0  0  0  0
  4  5  1  0  0  0  0
  4 28  1  0  0  0  0
  4 29  1  0  0  0  0
  5  6  1  0  0  0  0
  6 11  1  0  0  0  0
  6  7  2  0  0  0  0
  7  8  1  0  0  0  0
  8  9  2  0  0  0  0
  8 30  1  0  0  0  0
  9 10  1  0  0  0  0
  9 31  1  0  0  0  0
 10 11  2  0  0  0  0
 10 32  1  0  0  0  0
 11 12  1  0  0  0  0
 12 13  1  0  0  0  0
 12 33  1  0  0  0  0
 13 14  2  0  0  0  0
 13 15  2  0  0  0  0
 13 16  1  0  0  0  0
 16 21  1  0  0  0  0
 16 17  1  0  0  0  0
 16 34  1  0  0  0  0
 17 18  1  0  0  0  0
 17 35  1  0  0  0  0
 17 36  1  0  0  0  0
 18 19  1  0  0  0  0
 18 37  1  0  0  0  0
 18 38  1  0  0  0  0
 19 20  1  0  0  0  0
 19 39  1  0  0  0  0
 19 40  1  0  0  0  0
 20 21  1  0  0  0  0
 20 41  1  0  0  0  0
 20 42  1  0  0  0  0
 21 22  1  0  0  0  0
 21 43  1  0  0  0  0
 22 44  1  0  0  0  0
M  END
> <s_m_source_file>
AV-unprocessed.smi

> <i_m_source_file_index>
763

> <i_lp_mmshare_version>
43012

> <i_f3d_flags>
0

> <s_epik_input>
W0NIM11PW0NIMl1bQ0gyXU9jMW5bY0hdW2NIXVtjSF1jMVtOSF1TKD1PKSg9TylbQ0BASF0yW0NIMl1bQ0gyXVtDSDJdW0NIMl1bQ0BIXTJbT0hd

> <s_epik_cmdline>
J2VwaWtfcHl0aG9uJywgJy1waCcsICc3LjAnLCAnLXRuJywgJzgnLCAnLW1hJywgJzIwMCcsICctbWV0YWxfYmluZGluZycsICctaW1hZScsICc8aW5maWxlLm1hZT4nLCAnLW9tYWUnLCAnPG91dGZpbGUubWFlPic=

> <r_epik_Ionization_Penalty>
0.124685

> <r_epik_Ionization_Penalty_Charging>
0

> <r_epik_Ionization_Penalty_Neutral>
0.124685

> <r_epik_State_Penalty>
0.114154

> <r_epik_Charging_Adjusted_Penalty>
0.114154

> <i_epik_Tot_Q>
0

> <i_epik_Tot_abs_Q>
0

> <r_epik_Metal_State_Penalty>
0.443785

> <b_epik_Metal_Only>
0

> <s_lp_Force_Field>
OPLS_2005

> <r_lp_Energy>
4.78457

> <b_lp_Chiralities_Consistent>
1

> <s_lp_Variant>
AV-unprocessed.smi:763-3

> <Gold.Version>
5.8.1

> <Gold.Id.Protein>
6NUR|6NUR_protein|mol2

> <Gold.PLP.Fitness>
46.5480

> <Gold.PLP.PLP>
-40.7962

> <Gold.PLP.part.hbond>
-3.5337

> <Gold.PLP.part.metal>
0.0000

> <Gold.PLP.part.buried>
-8.0175

> <Gold.PLP.part.nonpolar>
-29.7759

> <Gold.PLP.part.repulsive>
0.4948

> <Gold.PLP.ligand.clash>
0.0000

> <Gold.PLP.ligand.torsion>
0.8098

> <Gold.PLP.Chemscore.Hbond>
2.0000

> <Gold.PLP.Chemscore.CHOScore>
0.0000

> <Gold.PLP.Chemscore.Metal>
0.0000

> <Gold.Chemscore.Hbonds>
donor molecule, donor type, donor heavy atom, donor atom, acceptor molecule, acceptor atom, score
      L1  H    22    44       P1  7957  1.00
      P1  H  6933  6944       L1     2  0.88

> <Gold.PLP.Chemscore.Internal.Correction>
1.3714

> <Gold.Rescore>
     Score         DG    S(hbond)    S(metal)    S(lipo)     H(rot)  DE(clash)    DE(int)     intcor
     14.13     -16.41       1.94        0.00      90.84       2.41       0.05       2.23       ----

> <Gold.Chemscore.Fitness>
14.1328

> <Gold.Chemscore.DG>
-16.4149

> <Gold.Chemscore.ZeroCoef>
-5.4800

> <Gold.Chemscore.Hbond>
1.9354

> <Gold.Chemscore.Metal>
0.0000

> <Gold.Chemscore.Lipo>
90.8396

> <Gold.Chemscore.Internal_Hbond>
0.0000

> <Gold.Chemscore.DEClash>
0.0517

> <Gold.Chemscore.DEInternal>
2.2304

> <Gold.Chemscore.Rot>
2.4052

> <Gold.Chemscore.Internal.Correction>
   9.000000E+99

> <Gold.Chemscore.Hbonds>
donor molecule, donor type, donor heavy atom, donor atom, acceptor molecule, acceptor atom, score
      L1  H    22    44       P1  7957  0.99
      P1  H  6933  6944       L1     2  0.70

> <Gold.Chemscore.Hbond.Weighted>
-6.4641

> <Gold.Chemscore.Metal.Weighted>
-0.0000

> <Gold.Chemscore.Lipo.Weighted>
-10.6282

> <Gold.Chemscore.Internal_Hbond.Weighted>
0.0000

> <Gold.Chemscore.DEClash.Weighted>
0.0517

> <Gold.Chemscore.DEInternal.Weighted>
2.2304

> <Gold.Chemscore.Rot.Weighted>
6.1574

> <Gold.Chemscore.Internal.Correction.Weighted>
   9.000000E+99

> <Gold.Protein.RotatedTorsions>
[ 6907 6896 6895 6894 ] final  -24.38 input  -60.11 | X-H torsion
[ 7974 7965 7964 7962 ] final  122.52 input  175.53 | X-H torsion
[ 8008 7997 7996 7995 ] final -124.71 input   59.86 | X-H torsion
[ 10167 10162 10161 10158 ] final -120.93 input  -65.29 | X-H torsion
[ 10718 10713 10712 10709 ] final  -16.05 input   66.30 | X-H torsion
[ 10763 10752 10751 10750 ] final   -0.99 input  -60.55 | X-H torsion
[ 11005 11000 10999 10996 ] final  -24.78 input  -57.11 | X-H torsion

> <Gold.Protein.ActiveResidues>
 VAL166  LYS551  ARG553  GLY616  TRP617  ASP618  TYR619  PRO620  LYS621  CYS622 
 ASP623  PHE694  ASN695  SER759  ASP760  ASP761  ALA762  ILE779  LEU786  VAL792 
 PHE793  MET794  SER795  GLU796  ALA797  LYS798  CYS799  TRP800  GLU811  SER814 

> <Gold.Protein.RotatedAtoms>
  151.1903  135.0399  159.8829 H   0  0  0  0  0  0  0  0  0  0  0  0  # atno 6907 bound_to 6896
  152.5440  134.0963  159.8309 H   0  0  0  0  0  0  0  0  0  0  0  0  # atno 6908 bound_to 6896
  151.1091  133.5139  159.2638 H   0  0  0  0  0  0  0  0  0  0  0  0  # atno 6909 bound_to 6896
  145.1065  139.3482  143.4785 H   0  0  0  0  0  0  0  0  0  0  0  0  # atno 7974 bound_to 7965
  155.2013  140.0416  157.2918 H   0  0  0  0  0  0  0  0  0  0  0  0  # atno 8008 bound_to 7997
  154.6072  140.2467  155.7686 H   0  0  0  0  0  0  0  0  0  0  0  0  # atno 8009 bound_to 7997
  156.2357  140.2922  156.0317 H   0  0  0  0  0  0  0  0  0  0  0  0  # atno 8010 bound_to 7997
  140.0305  143.5253  152.2178 H   0  0  0  0  0  0  0  0  0  0  0  0  # atno 10167 bound_to 10162
  156.5931  130.4804  149.6271 H   0  0  0  0  0  0  0  0  0  0  0  0  # atno 10718 bound_to 10713
  153.3391  135.6979  153.6882 H   0  0  0  0  0  0  0  0  0  0  0  0  # atno 10763 bound_to 10752
  153.5654  135.3526  155.2817 H   0  0  0  0  0  0  0  0  0  0  0  0  # atno 10764 bound_to 10752
  154.8633  135.4259  154.2599 H   0  0  0  0  0  0  0  0  0  0  0  0  # atno 10765 bound_to 10752
  140.8877  133.7610  156.0381 H   0  0  0  0  0  0  0  0  0  0  0  0  # atno 11005 bound_to 11000
  146.3528  140.0966  142.8610 LP  0  0  0  0  0  0  0  0  0  0  0  0  # atno 17320 bound_to 7965
  145.0895  140.9275  143.4777 LP  0  0  0  0  0  0  0  0  0  0  0  0  # atno 17321 bound_to 7965
  139.6079  144.7601  151.3019 LP  0  0  0  0  0  0  0  0  0  0  0  0  # atno 17342 bound_to 10162
  140.7304  143.6881  150.7945 LP  0  0  0  0  0  0  0  0  0  0  0  0  # atno 17343 bound_to 10162
  156.2533  130.6920  151.1664 LP  0  0  0  0  0  0  0  0  0  0  0  0  # atno 17370 bound_to 10713
  157.7299  131.0621  150.5754 LP  0  0  0  0  0  0  0  0  0  0  0  0  # atno 17371 bound_to 10713
  140.8385  134.3094  157.5322 LP  0  0  0  0  0  0  0  0  0  0  0  0  # atno 17394 bound_to 11000
  139.8726  134.9403  156.3765 LP  0  0  0  0  0  0  0  0  0  0  0  0  # atno 17395 bound_to 11000

$$$$
