AV-unprocessed.smi:4|AV-procd|sdf|35|dock2
  -GOLD-   2262015143D 1   1.00000     0.00000
 Structure written by MMmdl.
 43 44  0  0  0  0  0  0  0  0  3 V2000
  150.2365  139.0866  155.8552 C   0  0  0  0  0  0  0  0  0  0  0  0
  151.0485  137.8838  155.3038 C   0  0  0  0  0  0  0  0  0  0  0  0
  150.9722  138.0011  153.7610 C   0  0  0  0  0  0  0  0  0  0  0  0
  152.5011  138.1136  155.7942 C   0  0  0  0  0  0  0  0  0  0  0  0
  150.5409  136.5362  155.7559 N   0  0  0  0  0  0  0  0  0  0  0  0
  150.1020  135.5861  154.7971 C   0  0  0  0  0  0  0  0  0  0  0  0
  149.6255  134.3655  155.1168 C   0  0  0  0  0  0  0  0  0  0  0  0
  149.1504  133.3730  154.0666 C   0  0  0  0  0  0  0  0  0  0  0  0
  148.0334  133.9354  153.2813 N   0  3  0  0  0  0  0  0  0  0  0  0
  147.4432  132.9906  152.3121 C   0  0  0  0  0  0  0  0  0  0  0  0
  146.2074  133.5820  151.6295 C   0  0  0  0  0  0  0  0  0  0  0  0
  146.5348  134.9260  151.3340 O   0  0  0  0  0  0  0  0  0  0  0  0
  145.5862  132.7942  150.4615 C   0  0  0  0  0  0  0  0  0  0  0  0
  144.1953  133.0741  151.0318 C   0  0  0  0  0  0  0  0  0  0  0  0
  144.8640  133.4199  152.3628 C   0  0  0  0  0  0  0  0  0  0  0  0
  149.5561  134.0206  156.5342 C   0  0  0  0  0  0  0  0  0  0  0  0
  149.1183  132.9220  156.8744 O   0  0  0  0  0  0  0  0  0  0  0  0
  149.9949  134.9432  157.4307 N   0  5  0  0  0  0  0  0  0  0  0  0
  150.4837  136.1722  157.0844 C   0  0  0  0  0  0  0  0  0  0  0  0
  150.8713  136.9504  157.9536 O   0  0  0  0  0  0  0  0  0  0  0  0
  150.6510  140.0347  155.5097 H   0  0  0  0  0  0  0  0  0  0  0  0
  150.2520  139.1245  156.9455 H   0  0  0  0  0  0  0  0  0  0  0  0
  149.1985  139.0695  155.5204 H   0  0  0  0  0  0  0  0  0  0  0  0
  149.9626  137.7999  153.4015 H   0  0  0  0  0  0  0  0  0  0  0  0
  151.6458  137.3205  153.2431 H   0  0  0  0  0  0  0  0  0  0  0  0
  151.2408  139.0041  153.4280 H   0  0  0  0  0  0  0  0  0  0  0  0
  152.8355  139.1289  155.5784 H   0  0  0  0  0  0  0  0  0  0  0  0
  153.2276  137.4547  155.3220 H   0  0  0  0  0  0  0  0  0  0  0  0
  152.5789  137.9697  156.8724 H   0  0  0  0  0  0  0  0  0  0  0  0
  150.1575  135.8678  153.7617 H   0  0  0  0  0  0  0  0  0  0  0  0
  149.9816  133.1213  153.4063 H   0  0  0  0  0  0  0  0  0  0  0  0
  148.8268  132.4476  154.5448 H   0  0  0  0  0  0  0  0  0  0  0  0
  147.3085  134.2440  153.9133 H   0  0  0  0  0  0  0  0  0  0  0  0
  148.2010  132.7452  151.5667 H   0  0  0  0  0  0  0  0  0  0  0  0
  147.1969  132.0579  152.8220 H   0  0  0  0  0  0  0  0  0  0  0  0
  147.4744  135.0043  151.4045 H   0  0  0  0  0  0  0  0  0  0  0  0
  145.7591  133.2255  149.4748 H   0  0  0  0  0  0  0  0  0  0  0  0
  145.8418  131.7334  150.4804 H   0  0  0  0  0  0  0  0  0  0  0  0
  143.7132  133.9344  150.5656 H   0  0  0  0  0  0  0  0  0  0  0  0
  143.5347  132.2072  151.0663 H   0  0  0  0  0  0  0  0  0  0  0  0
  144.8580  132.5836  153.0635 H   0  0  0  0  0  0  0  0  0  0  0  0
  144.4832  134.3291  152.8298 H   0  0  0  0  0  0  0  0  0  0  0  0
  148.3816  134.7381  152.7750 H   0  0  0  0  0  0  0  0  0  0  0  0
  1  2  1  0  0  0  0
  1 21  1  0  0  0  0
  1 22  1  0  0  0  0
  1 23  1  0  0  0  0
  2  3  1  0  0  0  0
  2  4  1  0  0  0  0
  2  5  1  0  0  0  0
  3 24  1  0  0  0  0
  3 25  1  0  0  0  0
  3 26  1  0  0  0  0
  4 27  1  0  0  0  0
  4 28  1  0  0  0  0
  4 29  1  0  0  0  0
  5 19  1  0  0  0  0
  5  6  1  0  0  0  0
  6  7  2  0  0  0  0
  6 30  1  0  0  0  0
  7  8  1  0  0  0  0
  7 16  1  0  0  0  0
  8  9  1  0  0  0  0
  8 31  1  0  0  0  0
  8 32  1  0  0  0  0
  9 10  1  0  0  0  0
  9 33  1  0  0  0  0
  9 43  1  0  0  0  0
 10 11  1  0  0  0  0
 10 34  1  0  0  0  0
 10 35  1  0  0  0  0
 11 15  1  0  0  0  0
 11 12  1  0  0  0  0
 11 13  1  0  0  0  0
 12 36  1  0  0  0  0
 13 14  1  0  0  0  0
 13 37  1  0  0  0  0
 13 38  1  0  0  0  0
 14 15  1  0  0  0  0
 14 39  1  0  0  0  0
 14 40  1  0  0  0  0
 15 41  1  0  0  0  0
 15 42  1  0  0  0  0
 16 17  2  0  0  0  0
 16 18  1  0  0  0  0
 18 19  1  0  0  0  0
 19 20  2  0  0  0  0
M  CHG  1   9   1
M  CHG  1  18  -1
M  END
> <s_m_source_file>
AV-unprocessed.smi

> <i_m_source_file_index>
4

> <i_lp_mmshare_version>
43012

> <i_f3d_flags>
0

> <s_epik_input>
W0NIM11DKFtDSDNdKShbQ0gzXSluMVtjSF1jKGMoPU8pW25IXWMxPU8pW0NIMl1bTkhdW0NIMl1DMihbT0hdKVtDSDJdW0NIMl1bQ0gyXTI=

> <s_epik_cmdline>
J2VwaWtfcHl0aG9uJywgJy1waCcsICc3LjAnLCAnLXRuJywgJzgnLCAnLW1hJywgJzIwMCcsICctbWV0YWxfYmluZGluZycsICctaW1hZScsICc8aW5maWxlLm1hZT4nLCAnLW9tYWUnLCAnPG91dGZpbGUubWFlPic=

> <r_lp_tautomer_probability>
0.999537

> <r_epik_Ionization_Penalty>
3.42736

> <r_epik_Ionization_Penalty_Charging>
0.0116785

> <r_epik_Ionization_Penalty_Neutral>
3.41568

> <r_epik_State_Penalty>
3.42726

> <r_epik_Charging_Adjusted_Penalty>
3.43893

> <i_epik_Tot_Q>
0

> <i_epik_Tot_abs_Q>
2

> <r_epik_Metal_State_Penalty>
0.176979

> <b_epik_Metal_Only>
1

> <s_lp_Force_Field>
OPLS_2005

> <r_lp_Energy>
29.0009

> <b_lp_Chiralities_Consistent>
1

> <s_lp_Variant>
AV-unprocessed.smi:4-3

> <Gold.Version>
5.8.1

> <Gold.Id.Protein>
6NUR|6NUR_protein|mol2

> <Gold.PLP.Fitness>
46.2116

> <Gold.PLP.PLP>
-29.8072

> <Gold.PLP.part.hbond>
-3.6270

> <Gold.PLP.part.metal>
0.0000

> <Gold.PLP.part.buried>
-4.8934

> <Gold.PLP.part.nonpolar>
-22.0446

> <Gold.PLP.part.repulsive>
0.0000

> <Gold.PLP.ligand.clash>
0.0000

> <Gold.PLP.ligand.torsion>
0.2563

> <Gold.PLP.Chemscore.Hbond>
4.8240

> <Gold.PLP.Chemscore.CHOScore>
0.7712

> <Gold.PLP.Chemscore.Metal>
0.0000

> <Gold.Chemscore.Hbonds>
donor molecule, donor type, donor heavy atom, donor atom, acceptor molecule, acceptor atom, score
      L1  H     9    43       P1  7948  2.00
      L1  H    12    36       P1  7948  0.91
      P1  H  6896  6907       L1    18  1.01
      L1  C     6    30       P1  7948  0.48

> <Gold.PLP.Chemscore.Internal.Correction>
0.1314

> <Gold.Rescore>
     Score         DG    S(hbond)    S(metal)    S(lipo)     H(rot)  DE(clash)    DE(int)     intcor
     14.01     -15.62       2.53        0.00      68.46       2.47       0.00       1.61       ----

> <Gold.Chemscore.Fitness>
14.0091

> <Gold.Chemscore.DG>
-15.6197

> <Gold.Chemscore.ZeroCoef>
-5.4800

> <Gold.Chemscore.Hbond>
2.5305

> <Gold.Chemscore.Metal>
0.0000

> <Gold.Chemscore.Lipo>
68.4570

> <Gold.Chemscore.Internal_Hbond>
0.0000

> <Gold.Chemscore.DEClash>
0.0000

> <Gold.Chemscore.DEInternal>
1.6106

> <Gold.Chemscore.Rot>
2.4694

> <Gold.Chemscore.Internal.Correction>
   9.000000E+99

> <Gold.Chemscore.Hbonds>
donor molecule, donor type, donor heavy atom, donor atom, acceptor molecule, acceptor atom, score
      L1  H     9    43       P1  7948  0.45
      L1  H    12    36       P1  7948  0.45
      P1  H  6896  6907       L1    18  0.42

> <Gold.Chemscore.Hbond.Weighted>
-8.4519

> <Gold.Chemscore.Metal.Weighted>
-0.0000

> <Gold.Chemscore.Lipo.Weighted>
-8.0095

> <Gold.Chemscore.Internal_Hbond.Weighted>
0.0000

> <Gold.Chemscore.DEClash.Weighted>
0.0000

> <Gold.Chemscore.DEInternal.Weighted>
1.6106

> <Gold.Chemscore.Rot.Weighted>
6.3216

> <Gold.Chemscore.Internal.Correction.Weighted>
   9.000000E+99

> <Gold.Protein.RotatedTorsions>
[ 6907 6896 6895 6894 ] final  -96.50 input  -60.11 | X-H torsion
[ 7974 7965 7964 7962 ] final -124.73 input  175.53 | X-H torsion
[ 8008 7997 7996 7995 ] final -177.74 input   59.86 | X-H torsion
[ 10167 10162 10161 10158 ] final  -46.64 input  -65.29 | X-H torsion
[ 10718 10713 10712 10709 ] final  -98.71 input   66.30 | X-H torsion
[ 10763 10752 10751 10750 ] final  154.70 input  -60.55 | X-H torsion
[ 11005 11000 10999 10996 ] final  -77.16 input  -57.11 | X-H torsion

> <Gold.Protein.ActiveResidues>
 VAL166  LYS551  ARG553  GLY616  TRP617  ASP618  TYR619  PRO620  LYS621  CYS622 
 ASP623  PHE694  ASN695  SER759  ASP760  ASP761  ALA762  ILE779  LEU786  VAL792 
 PHE793  MET794  SER795  GLU796  ALA797  LYS798  CYS799  TRP800  GLU811  SER814 

> <Gold.Protein.RotatedAtoms>
  150.6990  134.1494  159.4134 H   0  0  0  0  0  0  0  0  0  0  0  0  # atno 6907 bound_to 6896
  151.9477  135.0181  160.0549 H   0  0  0  0  0  0  0  0  0  0  0  0  # atno 6908 bound_to 6896
  152.2038  133.4826  159.5110 H   0  0  0  0  0  0  0  0  0  0  0  0  # atno 6909 bound_to 6896
  145.0050  140.7854  143.4473 H   0  0  0  0  0  0  0  0  0  0  0  0  # atno 7974 bound_to 7965
  156.0106  140.1240  157.0457 H   0  0  0  0  0  0  0  0  0  0  0  0  # atno 8008 bound_to 7997
  154.4274  140.1088  156.5893 H   0  0  0  0  0  0  0  0  0  0  0  0  # atno 8009 bound_to 7997
  155.6085  140.3471  155.4617 H   0  0  0  0  0  0  0  0  0  0  0  0  # atno 8010 bound_to 7997
  140.6809  143.2821  151.3811 H   0  0  0  0  0  0  0  0  0  0  0  0  # atno 10167 bound_to 10162
  156.0115  130.5250  150.6563 H   0  0  0  0  0  0  0  0  0  0  0  0  # atno 10718 bound_to 10713
  154.1565  135.2812  155.3121 H   0  0  0  0  0  0  0  0  0  0  0  0  # atno 10763 bound_to 10752
  154.6179  135.5477  153.7546 H   0  0  0  0  0  0  0  0  0  0  0  0  # atno 10764 bound_to 10752
  153.0205  135.6431  154.1708 H   0  0  0  0  0  0  0  0  0  0  0  0  # atno 10765 bound_to 10752
  141.1658  133.7012  156.7779 H   0  0  0  0  0  0  0  0  0  0  0  0  # atno 11005 bound_to 11000
  145.2101  139.2209  143.5147 LP  0  0  0  0  0  0  0  0  0  0  0  0  # atno 17320 bound_to 7965
  146.3459  140.1937  142.8589 LP  0  0  0  0  0  0  0  0  0  0  0  0  # atno 17321 bound_to 7965
  139.6131  144.1058  152.2319 LP  0  0  0  0  0  0  0  0  0  0  0  0  # atno 17342 bound_to 10162
  140.0478  144.5956  150.7360 LP  0  0  0  0  0  0  0  0  0  0  0  0  # atno 17343 bound_to 10162
  157.4315  131.0850  151.1034 LP  0  0  0  0  0  0  0  0  0  0  0  0  # atno 17370 bound_to 10713
  157.1605  130.6224  149.5609 LP  0  0  0  0  0  0  0  0  0  0  0  0  # atno 17371 bound_to 10713
  140.2416  134.8609  157.3579 LP  0  0  0  0  0  0  0  0  0  0  0  0  # atno 17394 bound_to 11000
  140.1790  134.4513  155.7784 LP  0  0  0  0  0  0  0  0  0  0  0  0  # atno 17395 bound_to 11000

$$$$
