AV-unprocessed.smi:1986|AV-procd|sdf|8052|dock3
  -GOLD-   2272010253D 1   1.00000     0.00000
 Structure written by MMmdl.
 48 49  0  0  0  0  0  0  0  0  2 V2000
  151.9856  140.4365  157.8335 C   0  0  0  0  0  0  0  0  0  0  0  0
  150.5432  140.7447  158.2730 C   0  0  0  0  0  0  0  0  0  0  0  0
  149.8242  141.8921  157.4998 C   0  0  1  0  0  0  0  0  0  0  0  0
  149.9552  141.6349  155.9758 C   0  0  0  0  0  0  0  0  0  0  0  0
  148.3014  141.8846  157.8556 C   0  0  0  0  0  0  0  0  0  0  0  0
  147.6520  140.5941  157.6323 N   0  0  0  0  0  0  0  0  0  0  0  0
  146.4996  140.1847  158.1811 C   0  0  0  0  0  0  0  0  0  0  0  0
  145.7878  140.8987  158.8867 O   0  0  0  0  0  0  0  0  0  0  0  0
  146.0994  138.7326  157.8976 C   0  0  0  0  0  0  0  0  0  0  0  0
  147.1672  137.7909  158.2609 N   0  0  0  0  0  0  0  0  0  0  0  0
  147.3353  137.6210  159.6264 N   0  0  0  0  0  0  0  0  0  0  0  0
  148.2484  136.8243  160.0693 C   0  0  0  0  0  0  0  0  0  0  0  0
  148.3820  136.6866  161.4290 O   0  0  0  0  0  0  0  0  0  0  0  0
  149.1089  136.0949  159.1638 C   0  0  0  0  0  0  0  0  0  0  0  0
  148.9350  136.2631  157.8347 C   0  0  0  0  0  0  0  0  0  0  0  0
  147.9081  137.1576  157.2986 C   0  0  0  0  0  0  0  0  0  0  0  0
  147.7272  137.3312  156.0924 O   0  0  0  0  0  0  0  0  0  0  0  0
  150.4328  143.2339  157.8339 N   0  3  0  0  0  0  0  0  0  0  0  0
  150.2088  143.7162  159.2256 C   0  0  0  0  0  0  0  0  0  0  0  0
  150.6674  145.1764  159.3624 C   0  0  0  0  0  0  0  0  0  0  0  0
  152.0468  145.2670  159.0355 O   0  0  0  0  0  0  0  0  0  0  0  0
  152.2965  144.8826  157.6905 C   0  0  0  0  0  0  0  0  0  0  0  0
  151.8667  143.4212  157.4698 C   0  0  0  0  0  0  0  0  0  0  0  0
  147.6704  136.1249  161.6953 H   0  0  0  0  0  0  0  0  0  0  0  0
  152.3959  139.6210  158.4295 H   0  0  0  0  0  0  0  0  0  0  0  0
  152.6452  141.2934  157.9677 H   0  0  0  0  0  0  0  0  0  0  0  0
  152.0368  140.1284  156.7896 H   0  0  0  0  0  0  0  0  0  0  0  0
  149.9750  139.8196  158.1802 H   0  0  0  0  0  0  0  0  0  0  0  0
  150.5678  140.9712  159.3385 H   0  0  0  0  0  0  0  0  0  0  0  0
  149.3135  140.8181  155.6448 H   0  0  0  0  0  0  0  0  0  0  0  0
  150.9716  141.3602  155.6921 H   0  0  0  0  0  0  0  0  0  0  0  0
  149.6772  142.5133  155.3926 H   0  0  0  0  0  0  0  0  0  0  0  0
  148.1340  142.2086  158.8841 H   0  0  0  0  0  0  0  0  0  0  0  0
  147.7698  142.6140  157.2442 H   0  0  0  0  0  0  0  0  0  0  0  0
  148.1467  139.9368  157.0464 H   0  0  0  0  0  0  0  0  0  0  0  0
  145.1866  138.5161  158.4555 H   0  0  0  0  0  0  0  0  0  0  0  0
  145.8382  138.6058  156.8449 H   0  0  0  0  0  0  0  0  0  0  0  0
  149.8693  135.4329  159.5518 H   0  0  0  0  0  0  0  0  0  0  0  0
  149.5710  135.7242  157.1478 H   0  0  0  0  0  0  0  0  0  0  0  0
  149.1591  143.6583  159.5076 H   0  0  0  0  0  0  0  0  0  0  0  0
  150.7642  143.1009  159.9336 H   0  0  0  0  0  0  0  0  0  0  0  0
  150.0789  145.8344  158.7204 H   0  0  0  0  0  0  0  0  0  0  0  0
  150.5259  145.5202  160.3870 H   0  0  0  0  0  0  0  0  0  0  0  0
  151.7743  145.5525  157.0065 H   0  0  0  0  0  0  0  0  0  0  0  0
  153.3618  144.9933  157.4868 H   0  0  0  0  0  0  0  0  0  0  0  0
  152.4971  142.7645  158.0694 H   0  0  0  0  0  0  0  0  0  0  0  0
  152.0533  143.1812  156.4248 H   0  0  0  0  0  0  0  0  0  0  0  0
  149.9323  143.8854  157.2453 H   0  0  0  0  0  0  0  0  0  0  0  0
  1  2  1  0  0  0  0
  1 25  1  0  0  0  0
  1 26  1  0  0  0  0
  1 27  1  0  0  0  0
  2  3  1  0  0  0  0
  2 28  1  0  0  0  0
  2 29  1  0  0  0  0
  3  4  1  0  0  0  0
  3  5  1  0  0  0  0
  3 18  1  0  0  0  0
  4 30  1  0  0  0  0
  4 31  1  0  0  0  0
  4 32  1  0  0  0  0
  5  6  1  0  0  0  0
  5 33  1  0  0  0  0
  5 34  1  0  0  0  0
  6  7  1  0  0  0  0
  6 35  1  0  0  0  0
  7  8  2  0  0  0  0
  7  9  1  0  0  0  0
  9 36  1  0  0  0  0
  9 37  1  0  0  0  0
  9 10  1  0  0  0  0
 10 11  1  0  0  0  0
 10 16  1  0  0  0  0
 11 12  2  0  0  0  0
 12 13  1  0  0  0  0
 12 14  1  0  0  0  0
 13 24  1  0  0  0  0
 14 38  1  0  0  0  0
 14 15  2  0  0  0  0
 15 39  1  0  0  0  0
 15 16  1  0  0  0  0
 16 17  2  0  0  0  0
 18 23  1  0  0  0  0
 18 19  1  0  0  0  0
 18 48  1  0  0  0  0
 19 20  1  0  0  0  0
 19 40  1  0  0  0  0
 19 41  1  0  0  0  0
 20 21  1  0  0  0  0
 20 42  1  0  0  0  0
 20 43  1  0  0  0  0
 21 22  1  0  0  0  0
 22 23  1  0  0  0  0
 22 44  1  0  0  0  0
 22 45  1  0  0  0  0
 23 46  1  0  0  0  0
 23 47  1  0  0  0  0
M  CHG  1  18   1
M  END
> <s_m_source_file>
AV-unprocessed.smi

> <i_m_source_file_index>
1986

> <i_lp_mmshare_version>
43012

> <i_f3d_flags>
0

> <s_epik_input>
W0NIMl0xW0NIMl1PW0NIMl1bQ0gyXU4xW0NAQF0oW0NIM10pKFtDSDJdW0NIM10pW0NIMl1bTkhdQyg9TylbQ0gyXW4yW25IXWMoPU8pW2NIXVtjSF1jMj1P

> <s_epik_cmdline>
J2VwaWtfcHl0aG9uJywgJy1waCcsICc3LjAnLCAnLXRuJywgJzgnLCAnLW1hJywgJzIwMCcsICctbWV0YWxfYmluZGluZycsICctaW1hZScsICc8aW5maWxlLm1hZT4nLCAnLW9tYWUnLCAnPG91dGZpbGUubWFlPic=

> <r_lp_tautomer_probability>
0.9996

> <r_epik_Ionization_Penalty>
2.73198

> <r_epik_Ionization_Penalty_Charging>
0.519658

> <r_epik_Ionization_Penalty_Neutral>
2.21233

> <r_epik_State_Penalty>
2.2852

> <r_epik_Charging_Adjusted_Penalty>
2.80486

> <i_epik_Tot_Q>
1

> <i_epik_Tot_abs_Q>
1

> <r_epik_Metal_State_Penalty>
2.2852

> <b_epik_Metal_Only>
0

> <s_lp_Force_Field>
OPLS_2005

> <r_lp_Energy>
43.5621

> <b_lp_Chiralities_Consistent>
1

> <s_lp_Variant>
AV-unprocessed.smi:1986-7

> <Gold.Version>
5.8.1

> <Gold.Id.Protein>
6NUR|6NUR_protein|mol2

> <Gold.PLP.Fitness>
38.9800

> <Gold.PLP.PLP>
-27.6419

> <Gold.PLP.part.hbond>
-4.2085

> <Gold.PLP.part.metal>
0.0000

> <Gold.PLP.part.buried>
-5.4412

> <Gold.PLP.part.nonpolar>
-19.0338

> <Gold.PLP.part.repulsive>
0.2269

> <Gold.PLP.ligand.clash>
0.0000

> <Gold.PLP.ligand.torsion>
0.4619

> <Gold.PLP.Chemscore.Hbond>
3.9776

> <Gold.PLP.Chemscore.CHOScore>
0.0000

> <Gold.PLP.Chemscore.Metal>
0.0000

> <Gold.Chemscore.Hbonds>
donor molecule, donor type, donor heavy atom, donor atom, acceptor molecule, acceptor atom, score
      L1  H    18    48       P1  8028  1.89
      P1  H  6931  6943       L1    13  1.00
      P1  H  6934  6946       L1     8  0.40
      P1  H  6934  6947       L1    11  0.80

> <Gold.PLP.Chemscore.Internal.Correction>
0.3290

> <Gold.Rescore>
     Score         DG    S(hbond)    S(metal)    S(lipo)     H(rot)  DE(clash)    DE(int)     intcor
     11.56     -13.92       2.55        0.00      68.23       3.15       1.82       0.55       ----

> <Gold.Chemscore.Fitness>
11.5557

> <Gold.Chemscore.DG>
-13.9190

> <Gold.Chemscore.ZeroCoef>
-5.4800

> <Gold.Chemscore.Hbond>
2.5496

> <Gold.Chemscore.Metal>
0.0000

> <Gold.Chemscore.Lipo>
68.2346

> <Gold.Chemscore.Internal_Hbond>
0.0000

> <Gold.Chemscore.DEClash>
1.8164

> <Gold.Chemscore.DEInternal>
0.5469

> <Gold.Chemscore.Rot>
3.1485

> <Gold.Chemscore.Internal.Correction>
   9.000000E+99

> <Gold.Chemscore.Hbonds>
donor molecule, donor type, donor heavy atom, donor atom, acceptor molecule, acceptor atom, score
      L1  H    18    48       P1  8028  0.77
      P1  H  6931  6943       L1    13  0.40
      P1  H  6934  6946       L1     8  0.09
      P1  H  6934  6947       L1    11  0.48

> <Gold.Chemscore.Hbond.Weighted>
-8.5157

> <Gold.Chemscore.Metal.Weighted>
-0.0000

> <Gold.Chemscore.Lipo.Weighted>
-7.9834

> <Gold.Chemscore.Internal_Hbond.Weighted>
0.0000

> <Gold.Chemscore.DEClash.Weighted>
1.8164

> <Gold.Chemscore.DEInternal.Weighted>
0.5469

> <Gold.Chemscore.Rot.Weighted>
8.0601

> <Gold.Chemscore.Internal.Correction.Weighted>
   9.000000E+99

> <Gold.Protein.RotatedTorsions>
[ 6907 6896 6895 6894 ] final -112.54 input  -60.11 | X-H torsion
[ 7974 7965 7964 7962 ] final -130.37 input  175.53 | X-H torsion
[ 8008 7997 7996 7995 ] final -104.13 input   59.86 | X-H torsion
[ 10167 10162 10161 10158 ] final  -35.44 input  -65.29 | X-H torsion
[ 10718 10713 10712 10709 ] final -135.63 input   66.30 | X-H torsion
[ 10763 10752 10751 10750 ] final   10.03 input  -60.55 | X-H torsion
[ 11005 11000 10999 10996 ] final   50.12 input  -57.11 | X-H torsion

> <Gold.Protein.ActiveResidues>
 VAL166  LYS551  ARG553  GLY616  TRP617  ASP618  TYR619  PRO620  LYS621  CYS622 
 ASP623  PHE694  ASN695  SER759  ASP760  ASP761  ALA762  ILE779  LEU786  VAL792 
 PHE793  MET794  SER795  GLU796  ALA797  LYS798  CYS799  TRP800  GLU811  SER814 

> <Gold.Protein.RotatedAtoms>
  150.7766  133.9075  159.3359 H   0  0  0  0  0  0  0  0  0  0  0  0  # atno 6907 bound_to 6896
  151.6948  135.0938  160.0249 H   0  0  0  0  0  0  0  0  0  0  0  0  # atno 6908 bound_to 6896
  152.3803  133.6499  159.6192 H   0  0  0  0  0  0  0  0  0  0  0  0  # atno 6909 bound_to 6896
  144.9482  140.7315  143.4804 H   0  0  0  0  0  0  0  0  0  0  0  0  # atno 7974 bound_to 7965
  154.8808  140.0419  157.1781 H   0  0  0  0  0  0  0  0  0  0  0  0  # atno 8008 bound_to 7997
  154.8641  140.2948  155.5500 H   0  0  0  0  0  0  0  0  0  0  0  0  # atno 8009 bound_to 7997
  156.2999  140.2441  156.3620 H   0  0  0  0  0  0  0  0  0  0  0  0  # atno 8010 bound_to 7997
  140.7165  143.3477  151.2221 H   0  0  0  0  0  0  0  0  0  0  0  0  # atno 10167 bound_to 10162
  156.2683  130.7250  151.1208 H   0  0  0  0  0  0  0  0  0  0  0  0  # atno 10718 bound_to 10713
  153.2076  135.6864  153.8153 H   0  0  0  0  0  0  0  0  0  0  0  0  # atno 10763 bound_to 10752
  153.7397  135.3240  155.3303 H   0  0  0  0  0  0  0  0  0  0  0  0  # atno 10764 bound_to 10752
  154.8205  135.4655  154.0870 H   0  0  0  0  0  0  0  0  0  0  0  0  # atno 10765 bound_to 10752
  140.1044  134.5038  155.8733 H   0  0  0  0  0  0  0  0  0  0  0  0  # atno 11005 bound_to 11000
  145.2885  139.1892  143.4753 LP  0  0  0  0  0  0  0  0  0  0  0  0  # atno 17320 bound_to 7965
  146.3311  140.2858  142.8612 LP  0  0  0  0  0  0  0  0  0  0  0  0  # atno 17321 bound_to 7965
  139.7000  143.9548  152.2901 LP  0  0  0  0  0  0  0  0  0  0  0  0  # atno 17342 bound_to 10162
  139.9238  144.6783  150.8433 LP  0  0  0  0  0  0  0  0  0  0  0  0  # atno 17343 bound_to 10162
  157.7275  131.0639  150.5863 LP  0  0  0  0  0  0  0  0  0  0  0  0  # atno 17370 bound_to 10713
  156.5957  130.4341  149.5918 LP  0  0  0  0  0  0  0  0  0  0  0  0  # atno 17371 bound_to 10713
  141.2114  133.6706  156.6582 LP  0  0  0  0  0  0  0  0  0  0  0  0  # atno 17394 bound_to 11000
  140.3176  134.8035  157.4226 LP  0  0  0  0  0  0  0  0  0  0  0  0  # atno 17395 bound_to 11000

$$$$
