#       Name:                AV-unprocessed.smi:1583
#       Creating user name   scv26
#       Creation time:       Fri Mar 27 06:59:07 2020


#       File generated by GOLD software.
#

@<TRIPOS>MOLECULE
AV-unprocessed.smi:1583
    41    42     1
SMALL
NO_CHARGES


@<TRIPOS>ATOM
      1 ****        -5.5374   2.0300  -1.2217 C.3            1 S1                 0.0000
      2 ****        -4.1049   1.7769  -1.1962 N.am           1 S1                 0.0000
      3 ****        -3.1810   2.7024  -0.8994 C.2            1 S1                 0.0000
      4 ****        -3.4558   3.8686  -0.6180 O.2            1 S1                 0.0000
      5 ****        -1.7242   2.2485  -0.9337 C.3            1 S1                 0.0000
      6 ****        -1.3139   1.1188   0.4249 S.3            1 S1                 0.0000
      7 ****         0.3968   0.7373   0.2241 C.2            1 S1                 0.0000
      8 ****         1.2205   1.2330  -0.7406 N.pl3          1 S1                 1.0000
      9 ****         2.4987   0.6948  -0.5840 C.ar           1 S1                 0.0000
     10 ****         3.6659   0.8910  -1.3156 C.ar           1 S1                 0.0000
     11 ****         4.8068   0.1795  -0.8895 C.ar           1 S1                 0.0000
     12 ****         4.7602  -0.6857   0.2232 C.ar           1 S1                 0.0000
     13 ****         3.5714  -0.8763   0.9581 C.ar           1 S1                 0.0000
     14 ****         2.4484  -0.1686   0.5308 C.ar           1 S1                 0.0000
     15 ****         1.1318  -0.1082   0.9998 N.pl3          1 S1                 0.0000
     16 ****         0.7458  -0.9126   2.1676 C.3            1 S1                 0.0000
     17 ****         0.4216  -2.3657   1.7921 C.3            1 S1                 0.0000
     18 ****        -0.5826  -2.3854   0.7905 O.3            1 S1                 0.0000
     19 ****        -0.9291  -3.7008   0.3954 C.3            1 S1                 0.0000
     20 ****        -6.0726   1.1142  -1.4732 H              1 S1                 0.0000
     21 ****        -5.7844   2.7858  -1.9686 H              1 S1                 0.0000
     22 ****        -5.8890   2.3740  -0.2481 H              1 S1                 0.0000
     23 ****        -3.7967   0.8400  -1.4137 H              1 S1                 0.0000
     24 ****        -1.5216   1.7547  -1.8847 H              1 S1                 0.0000
     25 ****        -1.0707   3.1200  -0.8788 H              1 S1                 0.0000
     26 ****         3.7042   1.5524  -2.1689 H              1 S1                 0.0000
     27 ****         5.7362   0.2992  -1.4273 H              1 S1                 0.0000
     28 ****         5.6546  -1.2147   0.5192 H              1 S1                 0.0000
     29 ****         3.5455  -1.5423   1.8080 H              1 S1                 0.0000
     30 ****         1.5444  -0.8668   2.9086 H              1 S1                 0.0000
     31 ****        -0.1256  -0.4422   2.6237 H              1 S1                 0.0000
     32 ****         1.3190  -2.8676   1.4274 H              1 S1                 0.0000
     33 ****         0.0819  -2.9078   2.6756 H              1 S1                 0.0000
     34 ****        -1.6998  -3.6609  -0.3743 H              1 S1                 0.0000
     35 ****        -1.3220  -4.2744   1.2358 H              1 S1                 0.0000
     36 ****        -0.0683  -4.2285  -0.0172 H              1 S1                 0.0000
     37 ****         0.9272   1.8887  -1.4529 H              1 S1                 0.0000
     38 ****        -4.4099   4.1677  -0.6026 LP             1 S1                 0.0000
     39 ****        -2.7250   4.5170  -0.4046 LP             1 S1                 0.0000
     40 ****        -0.2473  -1.8881  -0.0096 LP             1 S1                 0.0000
     41 ****        -1.3996  -1.9319   1.1466 LP             1 S1                 0.0000
@<TRIPOS>BOND
    1    1    2 1     
    2    1   20 1     
    3    1   21 1     
    4    1   22 1     
    5    2    3 am    
    6    2   23 1     
    7    3    4 2     
    8    3    5 1     
    9    5    6 1     
   10    5   24 1     
   11    5   25 1     
   12    6    7 1     
   13    7   15 1     
   14    7    8 2     
   15    8    9 1     
   16    8   37 1     
   17    9   14 ar    
   18    9   10 ar    
   19   10   11 ar    
   20   10   26 1     
   21   11   12 ar    
   22   11   27 1     
   23   12   13 ar    
   24   12   28 1     
   25   13   14 ar    
   26   13   29 1     
   27   14   15 1     
   28   15   16 1     
   29   16   17 1     
   30   16   30 1     
   31   16   31 1     
   32   17   18 1     
   33   17   32 1     
   34   17   33 1     
   35   18   19 1     
   36   19   34 1     
   37   19   35 1     
   38   19   36 1     
   39    4   38 1     
   40    4   39 1     
   41   18   40 1     
   42   18   41 1     
@<TRIPOS>SUBSTRUCTURE
      1 S1             1
@<TRIPOS>SET
LONE_PAIRS      STATIC     ATOMS    <user>   **** ""
4 38 39 40 41
DONOR_HYDROGENS      STATIC     ATOMS    <user>   **** ""
2 23 37
ATOM$BLUE        STATIC     ATOMS    COLORGROUP SYSTEM
4 38 39 40 41
ATOM$RED        STATIC     ATOMS    COLORGROUP SYSTEM
2 23 37
