AV-unprocessed.smi:2451|AV-procd|sdf|9671|dock5
  -GOLD-   2272013313D 1   1.00000     0.00000
 Structure written by MMmdl.
 38 39  0  0  0  0  0  0  0  0  1 V2000
  153.1319  142.3037  161.4989 C   0  0  0  0  0  0  0  0  0  0  0  0
  152.8985  142.6554  160.0181 C   0  0  2  0  0  0  0  0  0  0  0  0
  152.4700  144.1317  159.9002 C   0  0  0  0  0  0  0  0  0  0  0  0
  152.2601  144.5475  158.4405 C   0  0  0  0  0  0  0  0  0  0  0  0
  151.2069  143.6564  157.7772 C   0  0  0  0  0  0  0  0  0  0  0  0
  151.5937  142.1700  157.8675 C   0  0  2  0  0  0  0  0  0  0  0  0
  150.5079  141.3734  157.2872 N   0  0  0  0  0  0  0  0  0  0  0  0
  150.9049  139.9557  156.3894 S   0  0  0  0  0  0  0  0  0  0  0  0
  152.3707  139.8359  156.3737 O   0  0  0  0  0  0  0  0  0  0  0  0
  150.0834  138.8526  156.9119 O   0  0  0  0  0  0  0  0  0  0  0  0
  150.3111  140.3798  154.6984 C   0  0  0  0  0  0  0  0  0  0  0  0
  148.8179  140.5357  154.7129 C   0  0  0  0  0  0  0  0  0  0  0  0
  147.9614  140.9313  153.6483 C   0  0  0  0  0  0  0  0  0  0  0  0
  146.7184  140.9019  154.2119 C   0  0  0  0  0  0  0  0  0  0  0  0
  146.7949  140.5181  155.5111 O   0  0  0  0  0  0  0  0  0  0  0  0
  148.1395  140.2842  155.8214 N   0  0  0  0  0  0  0  0  0  0  0  0
  151.8751  141.7120  159.3233 C   0  0  1  0  0  0  0  0  0  0  0  0
  152.3508  140.2427  159.3472 C   0  0  0  0  0  0  0  0  0  0  0  0
  152.1953  142.2958  162.0569 H   0  0  0  0  0  0  0  0  0  0  0  0
  153.7932  143.0290  161.9738 H   0  0  0  0  0  0  0  0  0  0  0  0
  153.6027  141.3283  161.6169 H   0  0  0  0  0  0  0  0  0  0  0  0
  153.8549  142.5524  159.5033 H   0  0  0  0  0  0  0  0  0  0  0  0
  151.5495  144.2960  160.4624 H   0  0  0  0  0  0  0  0  0  0  0  0
  153.2249  144.7768  160.3517 H   0  0  0  0  0  0  0  0  0  0  0  0
  151.9491  145.5915  158.3912 H   0  0  0  0  0  0  0  0  0  0  0  0
  153.2021  144.4766  157.8953 H   0  0  0  0  0  0  0  0  0  0  0  0
  150.2427  143.8192  158.2608 H   0  0  0  0  0  0  0  0  0  0  0  0
  151.0830  143.9492  156.7338 H   0  0  0  0  0  0  0  0  0  0  0  0
  152.5000  142.0181  157.2793 H   0  0  0  0  0  0  0  0  0  0  0  0
  149.8477  141.9619  156.7797 H   0  0  0  0  0  0  0  0  0  0  0  0
  150.7936  141.3072  154.3904 H   0  0  0  0  0  0  0  0  0  0  0  0
  150.6287  139.5950  154.0115 H   0  0  0  0  0  0  0  0  0  0  0  0
  148.2192  141.1982  152.6343 H   0  0  0  0  0  0  0  0  0  0  0  0
  145.7283  141.1159  153.8372 H   0  0  0  0  0  0  0  0  0  0  0  0
  150.9379  141.7691  159.8797 H   0  0  0  0  0  0  0  0  0  0  0  0
  153.3158  140.1316  158.8519 H   0  0  0  0  0  0  0  0  0  0  0  0
  151.6469  139.5808  158.8429 H   0  0  0  0  0  0  0  0  0  0  0  0
  152.4489  139.8633  160.3634 H   0  0  0  0  0  0  0  0  0  0  0  0
  1  2  1  0  0  0  0
  1 19  1  0  0  0  0
  1 20  1  0  0  0  0
  1 21  1  0  0  0  0
  2 17  1  0  0  0  0
  2  3  1  0  0  0  0
  2 22  1  0  0  0  0
  3  4  1  0  0  0  0
  3 23  1  0  0  0  0
  3 24  1  0  0  0  0
  4  5  1  0  0  0  0
  4 25  1  0  0  0  0
  4 26  1  0  0  0  0
  5  6  1  0  0  0  0
  5 27  1  0  0  0  0
  5 28  1  0  0  0  0
  6  7  1  0  0  0  0
  6 17  1  0  0  0  0
  6 29  1  0  0  0  0
  7  8  1  0  0  0  0
  7 30  1  0  0  0  0
  8  9  2  0  0  0  0
  8 10  2  0  0  0  0
  8 11  1  0  0  0  0
 11 12  1  0  0  0  0
 11 31  1  0  0  0  0
 11 32  1  0  0  0  0
 12 16  2  0  0  0  0
 12 13  1  0  0  0  0
 13 14  2  0  0  0  0
 13 33  1  0  0  0  0
 14 15  1  0  0  0  0
 14 34  1  0  0  0  0
 15 16  1  0  0  0  0
 17 18  1  0  0  0  0
 17 35  1  0  0  0  0
 18 36  1  0  0  0  0
 18 37  1  0  0  0  0
 18 38  1  0  0  0  0
M  END
> <s_m_source_file>
AV-unprocessed.smi

> <i_m_source_file_index>
2451

> <i_lp_mmshare_version>
43012

> <i_f3d_flags>
0

> <s_epik_input>
W0NIM11bQ0BASF0xW0NIMl1bQ0gyXVtDSDJdW0NASF0oW0NASF0xW0NIM10pW05IXVMoPU8pKD1PKVtDSDJdYzJbY0hdW2NIXW9uMg==

> <s_epik_cmdline>
J2VwaWtfcHl0aG9uJywgJy1waCcsICc3LjAnLCAnLXRuJywgJzgnLCAnLW1hJywgJzIwMCcsICctbWV0YWxfYmluZGluZycsICctaW1hZScsICc8aW5maWxlLm1hZT4nLCAnLW9tYWUnLCAnPG91dGZpbGUubWFlPic=

> <r_lp_tautomer_probability>
1

> <r_epik_Ionization_Penalty>
8.73668e-05

> <r_epik_Ionization_Penalty_Charging>
0

> <r_epik_Ionization_Penalty_Neutral>
8.73668e-05

> <r_epik_State_Penalty>
-0

> <r_epik_Charging_Adjusted_Penalty>
0

> <i_epik_Tot_Q>
0

> <i_epik_Tot_abs_Q>
0

> <r_epik_Metal_State_Penalty>
0.0716439

> <b_epik_Metal_Only>
0

> <s_lp_Force_Field>
OPLS_2005

> <r_lp_Energy>
6.58047

> <b_lp_Chiralities_Consistent>
1

> <s_lp_Variant>
AV-unprocessed.smi:2451-3

> <Gold.Version>
5.8.1

> <Gold.Id.Protein>
6NUR|6NUR_protein|mol2

> <Gold.PLP.Fitness>
40.8178

> <Gold.PLP.PLP>
-35.8906

> <Gold.PLP.part.hbond>
-1.0000

> <Gold.PLP.part.metal>
0.0000

> <Gold.PLP.part.buried>
-0.6676

> <Gold.PLP.part.nonpolar>
-34.7901

> <Gold.PLP.part.repulsive>
0.0766

> <Gold.PLP.ligand.clash>
0.0000

> <Gold.PLP.ligand.torsion>
0.6024

> <Gold.PLP.Chemscore.Hbond>
1.0000

> <Gold.PLP.Chemscore.CHOScore>
0.9959

> <Gold.PLP.Chemscore.Metal>
0.0000

> <Gold.Chemscore.Hbonds>
donor molecule, donor type, donor heavy atom, donor atom, acceptor molecule, acceptor atom, score
      P1  H  7997  8008       L1     9  1.00
      L1  C    14    34       P1 10175  1.00

> <Gold.PLP.Chemscore.Internal.Correction>
0.1445

> <Gold.Rescore>
     Score         DG    S(hbond)    S(metal)    S(lipo)     H(rot)  DE(clash)    DE(int)     intcor
     13.30     -17.76       1.00        0.00     112.84       1.66       1.16       3.31       ----

> <Gold.Chemscore.Fitness>
13.2952

> <Gold.Chemscore.DG>
-17.7599

> <Gold.Chemscore.ZeroCoef>
-5.4800

> <Gold.Chemscore.Hbond>
0.9951

> <Gold.Chemscore.Metal>
0.0000

> <Gold.Chemscore.Lipo>
112.8434

> <Gold.Chemscore.Internal_Hbond>
0.0000

> <Gold.Chemscore.DEClash>
1.1557

> <Gold.Chemscore.DEInternal>
3.3090

> <Gold.Chemscore.Rot>
1.6588

> <Gold.Chemscore.Internal.Correction>
   9.000000E+99

> <Gold.Chemscore.Hbonds>
donor molecule, donor type, donor heavy atom, donor atom, acceptor molecule, acceptor atom, score
      P1  H  7997  8008       L1     9  0.97

> <Gold.Chemscore.Hbond.Weighted>
-3.3238

> <Gold.Chemscore.Metal.Weighted>
-0.0000

> <Gold.Chemscore.Lipo.Weighted>
-13.2027

> <Gold.Chemscore.Internal_Hbond.Weighted>
0.0000

> <Gold.Chemscore.DEClash.Weighted>
1.1557

> <Gold.Chemscore.DEInternal.Weighted>
3.3090

> <Gold.Chemscore.Rot.Weighted>
4.2466

> <Gold.Chemscore.Internal.Correction.Weighted>
   9.000000E+99

> <Gold.Protein.RotatedTorsions>
[ 6907 6896 6895 6894 ] final   43.12 input  -60.11 | X-H torsion
[ 7974 7965 7964 7962 ] final    5.04 input  175.53 | X-H torsion
[ 8008 7997 7996 7995 ] final  -36.76 input   59.86 | X-H torsion
[ 10167 10162 10161 10158 ] final   -7.65 input  -65.29 | X-H torsion
[ 10718 10713 10712 10709 ] final   74.15 input   66.30 | X-H torsion
[ 10763 10752 10751 10750 ] final  -66.52 input  -60.55 | X-H torsion
[ 11005 11000 10999 10996 ] final  106.28 input  -57.11 | X-H torsion

> <Gold.Protein.ActiveResidues>
 VAL166  LYS551  ARG553  GLY616  TRP617  ASP618  TYR619  PRO620  LYS621  CYS622 
 ASP623  PHE694  ASN695  SER759  ASP760  ASP761  ALA762  ILE779  LEU786  VAL792 
 PHE793  MET794  SER795  GLU796  ALA797  LYS798  CYS799  TRP800  GLU811  SER814 

> <Gold.Protein.RotatedAtoms>
  152.2163  134.8454  160.0491 H   0  0  0  0  0  0  0  0  0  0  0  0  # atno 6907 bound_to 6896
  151.9254  133.3591  159.3920 H   0  0  0  0  0  0  0  0  0  0  0  0  # atno 6908 bound_to 6896
  150.6989  134.4517  159.5383 H   0  0  0  0  0  0  0  0  0  0  0  0  # atno 6909 bound_to 6896
  146.2442  140.0443  142.8380 H   0  0  0  0  0  0  0  0  0  0  0  0  # atno 7974 bound_to 7965
  154.4066  140.1622  156.2426 H   0  0  0  0  0  0  0  0  0  0  0  0  # atno 8008 bound_to 7997
  155.9188  140.3422  155.6134 H   0  0  0  0  0  0  0  0  0  0  0  0  # atno 8009 bound_to 7997
  155.7247  140.0773  157.2306 H   0  0  0  0  0  0  0  0  0  0  0  0  # atno 8010 bound_to 7997
  140.7035  143.6057  150.8753 H   0  0  0  0  0  0  0  0  0  0  0  0  # atno 10167 bound_to 10162
  157.6579  130.9663  150.1170 H   0  0  0  0  0  0  0  0  0  0  0  0  # atno 10718 bound_to 10713
  154.3610  135.6116  153.5691 H   0  0  0  0  0  0  0  0  0  0  0  0  # atno 10763 bound_to 10752
  152.9793  135.5815  154.4632 H   0  0  0  0  0  0  0  0  0  0  0  0  # atno 10764 bound_to 10752
  154.4370  135.2849  155.1851 H   0  0  0  0  0  0  0  0  0  0  0  0  # atno 10765 bound_to 10752
  139.8812  134.9364  156.5643 H   0  0  0  0  0  0  0  0  0  0  0  0  # atno 11005 bound_to 11000
  145.1041  140.9364  143.4695 LP  0  0  0  0  0  0  0  0  0  0  0  0  # atno 17320 bound_to 7965
  145.0642  139.3081  143.5865 LP  0  0  0  0  0  0  0  0  0  0  0  0  # atno 17321 bound_to 7965
  139.9781  143.5982  152.2952 LP  0  0  0  0  0  0  0  0  0  0  0  0  # atno 17342 bound_to 10162
  139.6593  144.7662  151.1995 LP  0  0  0  0  0  0  0  0  0  0  0  0  # atno 17343 bound_to 10162
  156.2051  130.3663  149.8739 LP  0  0  0  0  0  0  0  0  0  0  0  0  # atno 17370 bound_to 10713
  156.6633  130.8791  151.3551 LP  0  0  0  0  0  0  0  0  0  0  0  0  # atno 17371 bound_to 10713
  140.8146  133.8402  155.8840 LP  0  0  0  0  0  0  0  0  0  0  0  0  # atno 17394 bound_to 11000
  140.9475  134.1822  157.4753 LP  0  0  0  0  0  0  0  0  0  0  0  0  # atno 17395 bound_to 11000

$$$$
