AV-unprocessed.smi:11|AV-procd|sdf|58|dock5
  -GOLD-   2262015173D 1   1.00000     0.00000
 Structure written by MMmdl.
 34 36  0  0  0  0  0  0  0  0  2 V2000
  152.4219  144.6643  157.8893 C   0  0  0  0  0  0  0  0  0  0  0  0
  151.4851  143.7928  157.0354 C   0  0  0  0  0  0  0  0  0  0  0  0
  150.5302  142.8693  157.8323 C   0  0  2  0  0  0  0  0  0  0  0  0
  149.6120  143.6750  158.5447 O   0  0  0  0  0  0  0  0  0  0  0  0
  151.3016  141.9743  158.8127 C   0  0  0  0  0  0  0  0  0  0  0  0
  151.6684  140.7580  157.9650 C   0  0  0  0  0  0  0  0  0  0  0  0
  150.5588  140.6080  157.0347 N   0  0  0  0  0  0  0  0  0  0  0  0
  150.6376  139.7286  155.9360 C   0  0  0  0  0  0  0  0  0  0  0  0
  151.8025  139.0493  155.7464 N   0  0  0  0  0  0  0  0  0  0  0  0
  151.9821  138.1939  154.7300 C   0  0  0  0  0  0  0  0  0  0  0  0
  151.0317  137.9356  153.8267 N   0  3  0  0  0  0  0  0  0  0  0  0
  149.8478  138.5798  153.9845 C   0  0  0  0  0  0  0  0  0  0  0  0
  148.7099  138.4890  153.2107 N   0  0  0  0  0  0  0  0  0  0  0  0
  147.7197  139.3056  153.7285 C   0  0  0  0  0  0  0  0  0  0  0  0
  148.2023  139.9397  154.8458 C   0  0  0  0  0  0  0  0  0  0  0  0
  149.5639  139.5002  155.0265 C   0  0  0  0  0  0  0  0  0  0  0  0
  149.7923  141.8439  156.9496 C   0  0  0  0  0  0  0  0  0  0  0  0
  148.5826  137.9178  152.3872 H   0  0  0  0  0  0  0  0  0  0  0  0
  153.0774  145.2566  157.2505 H   0  0  0  0  0  0  0  0  0  0  0  0
  153.0585  144.0573  158.5333 H   0  0  0  0  0  0  0  0  0  0  0  0
  151.8716  145.3607  158.5209 H   0  0  0  0  0  0  0  0  0  0  0  0
  150.9037  144.4452  156.3831 H   0  0  0  0  0  0  0  0  0  0  0  0
  152.0991  143.1823  156.3720 H   0  0  0  0  0  0  0  0  0  0  0  0
  149.4432  144.4564  158.0410 H   0  0  0  0  0  0  0  0  0  0  0  0
  152.1700  142.4598  159.2591 H   0  0  0  0  0  0  0  0  0  0  0  0
  150.6486  141.6539  159.6266 H   0  0  0  0  0  0  0  0  0  0  0  0
  152.5930  140.9427  157.4161 H   0  0  0  0  0  0  0  0  0  0  0  0
  151.8030  139.8653  158.5768 H   0  0  0  0  0  0  0  0  0  0  0  0
  152.9231  137.6774  154.6101 H   0  0  0  0  0  0  0  0  0  0  0  0
  146.7476  139.3675  153.2604 H   0  0  0  0  0  0  0  0  0  0  0  0
  147.6644  140.6358  155.4719 H   0  0  0  0  0  0  0  0  0  0  0  0
  148.7928  141.6456  157.3385 H   0  0  0  0  0  0  0  0  0  0  0  0
  149.6881  142.1889  155.9219 H   0  0  0  0  0  0  0  0  0  0  0  0
  151.1789  137.2825  153.0573 H   0  0  0  0  0  0  0  0  0  0  0  0
  1  2  1  0  0  0  0
  1 19  1  0  0  0  0
  1 20  1  0  0  0  0
  1 21  1  0  0  0  0
  2  3  1  0  0  0  0
  2 22  1  0  0  0  0
  2 23  1  0  0  0  0
  3 17  1  0  0  0  0
  3  4  1  0  0  0  0
  3  5  1  0  0  0  0
  4 24  1  0  0  0  0
  5  6  1  0  0  0  0
  5 25  1  0  0  0  0
  5 26  1  0  0  0  0
  6  7  1  0  0  0  0
  6 27  1  0  0  0  0
  6 28  1  0  0  0  0
  7  8  1  0  0  0  0
  7 17  1  0  0  0  0
  8 16  1  0  0  0  0
  8  9  2  0  0  0  0
  9 10  1  0  0  0  0
 10 11  2  0  0  0  0
 10 29  1  0  0  0  0
 11 12  1  0  0  0  0
 11 34  1  0  0  0  0
 12 16  2  0  0  0  0
 12 13  1  0  0  0  0
 13 18  1  0  0  0  0
 13 14  1  0  0  0  0
 14 15  2  0  0  0  0
 14 30  1  0  0  0  0
 15 16  1  0  0  0  0
 15 31  1  0  0  0  0
 17 32  1  0  0  0  0
 17 33  1  0  0  0  0
M  CHG  1  11   1
M  END
> <s_m_source_file>
AV-unprocessed.smi

> <i_m_source_file_index>
11

> <i_lp_mmshare_version>
43012

> <i_f3d_flags>
0

> <s_epik_input>
W0NIM11bQ0gyXVtDQEBdMShbT0hdKVtDSDJdW0NIMl1OKFtDSDJdMSljKG5bY0hdbjIpYyhjMjMpW2NIXVtjSF1bbkhdMw==

> <s_epik_cmdline>
J2VwaWtfcHl0aG9uJywgJy1waCcsICc3LjAnLCAnLXRuJywgJzgnLCAnLW1hJywgJzIwMCcsICctbWV0YWxfYmluZGluZycsICctaW1hZScsICc8aW5maWxlLm1hZT4nLCAnLW9tYWUnLCAnPG91dGZpbGUubWFlPic=

> <r_lp_tautomer_probability>
1.75997e-05

> <r_epik_Ionization_Penalty>
1.53257

> <r_epik_Ionization_Penalty_Charging>
1.53255

> <r_epik_Ionization_Penalty_Neutral>
1.78556e-05

> <r_epik_State_Penalty>
1.6253

> <r_epik_Charging_Adjusted_Penalty>
3.15785

> <i_epik_Tot_Q>
1

> <i_epik_Tot_abs_Q>
1

> <r_epik_Metal_State_Penalty>
1.66891

> <b_epik_Metal_Only>
0

> <s_lp_Force_Field>
OPLS_2005

> <r_lp_Energy>
33.3454

> <b_lp_Chiralities_Consistent>
1

> <s_lp_Variant>
AV-unprocessed.smi:11-4

> <Gold.Version>
5.8.1

> <Gold.Id.Protein>
6NUR|6NUR_protein|mol2

> <Gold.PLP.Fitness>
41.3788

> <Gold.PLP.PLP>
-30.2775

> <Gold.PLP.part.hbond>
-4.5110

> <Gold.PLP.part.metal>
0.0000

> <Gold.PLP.part.buried>
-1.7405

> <Gold.PLP.part.nonpolar>
-25.1660

> <Gold.PLP.part.repulsive>
0.1841

> <Gold.PLP.ligand.clash>
0.0000

> <Gold.PLP.ligand.torsion>
0.2913

> <Gold.PLP.Chemscore.Hbond>
3.8136

> <Gold.PLP.Chemscore.CHOScore>
0.0000

> <Gold.PLP.Chemscore.Metal>
0.0000

> <Gold.Chemscore.Hbonds>
donor molecule, donor type, donor heavy atom, donor atom, acceptor molecule, acceptor atom, score
      L1  H     4    24       P1  8029  0.27
      L1  H    11    34       P1  7949  2.00
      L1  H    13    18       P1  7948  1.54

> <Gold.PLP.Chemscore.Internal.Correction>
0.2432

> <Gold.Rescore>
     Score         DG    S(hbond)    S(metal)    S(lipo)     H(rot)  DE(clash)    DE(int)     intcor
     15.29     -15.63       1.60        0.00      72.50       1.44       0.11       0.23       ----

> <Gold.Chemscore.Fitness>
15.2905

> <Gold.Chemscore.DG>
-15.6257

> <Gold.Chemscore.ZeroCoef>
-5.4800

> <Gold.Chemscore.Hbond>
1.6011

> <Gold.Chemscore.Metal>
0.0000

> <Gold.Chemscore.Lipo>
72.4997

> <Gold.Chemscore.Internal_Hbond>
0.0000

> <Gold.Chemscore.DEClash>
0.1087

> <Gold.Chemscore.DEInternal>
0.2265

> <Gold.Chemscore.Rot>
1.4392

> <Gold.Chemscore.Internal.Correction>
   9.000000E+99

> <Gold.Chemscore.Hbonds>
donor molecule, donor type, donor heavy atom, donor atom, acceptor molecule, acceptor atom, score
      L1  H     4    24       P1  8029  0.03
      L1  H    11    34       P1  7949  0.52
      L1  H    13    18       P1  7948  0.78

> <Gold.Chemscore.Hbond.Weighted>
-5.3476

> <Gold.Chemscore.Metal.Weighted>
-0.0000

> <Gold.Chemscore.Lipo.Weighted>
-8.4825

> <Gold.Chemscore.Internal_Hbond.Weighted>
0.0000

> <Gold.Chemscore.DEClash.Weighted>
0.1087

> <Gold.Chemscore.DEInternal.Weighted>
0.2265

> <Gold.Chemscore.Rot.Weighted>
3.6844

> <Gold.Chemscore.Internal.Correction.Weighted>
   9.000000E+99

> <Gold.Protein.RotatedTorsions>
[ 6907 6896 6895 6894 ] final  -10.36 input  -60.11 | X-H torsion
[ 7974 7965 7964 7962 ] final -159.09 input  175.53 | X-H torsion
[ 8008 7997 7996 7995 ] final  -42.27 input   59.86 | X-H torsion
[ 10167 10162 10161 10158 ] final   39.00 input  -65.29 | X-H torsion
[ 10718 10713 10712 10709 ] final  -86.01 input   66.30 | X-H torsion
[ 10763 10752 10751 10750 ] final    7.32 input  -60.55 | X-H torsion
[ 11005 11000 10999 10996 ] final  139.01 input  -57.11 | X-H torsion

> <Gold.Protein.ActiveResidues>
 VAL166  LYS551  ARG553  GLY616  TRP617  ASP618  TYR619  PRO620  LYS621  CYS622 
 ASP623  PHE694  ASN695  SER759  ASP760  ASP761  ALA762  ILE779  LEU786  VAL792 
 PHE793  MET794  SER795  GLU796  ALA797  LYS798  CYS799  TRP800  GLU811  SER814 

> <Gold.Protein.RotatedAtoms>
  151.4032  135.0974  159.9562 H   0  0  0  0  0  0  0  0  0  0  0  0  # atno 6907 bound_to 6896
  152.5043  133.8868  159.7384 H   0  0  0  0  0  0  0  0  0  0  0  0  # atno 6908 bound_to 6896
  150.9346  133.6670  159.2832 H   0  0  0  0  0  0  0  0  0  0  0  0  # atno 6909 bound_to 6896
  144.7479  140.3734  143.6071 H   0  0  0  0  0  0  0  0  0  0  0  0  # atno 7974 bound_to 7965
  154.4000  140.1478  156.3327 H   0  0  0  0  0  0  0  0  0  0  0  0  # atno 8008 bound_to 7997
  155.8428  140.3461  155.5622 H   0  0  0  0  0  0  0  0  0  0  0  0  # atno 8009 bound_to 7997
  155.8068  140.0878  157.1917 H   0  0  0  0  0  0  0  0  0  0  0  0  # atno 8010 bound_to 7997
  140.3882  144.1888  150.6130 H   0  0  0  0  0  0  0  0  0  0  0  0  # atno 10167 bound_to 10162
  155.9992  130.4750  150.4649 H   0  0  0  0  0  0  0  0  0  0  0  0  # atno 10718 bound_to 10713
  153.2376  135.6900  153.7819 H   0  0  0  0  0  0  0  0  0  0  0  0  # atno 10763 bound_to 10752
  153.6960  135.3305  155.3214 H   0  0  0  0  0  0  0  0  0  0  0  0  # atno 10764 bound_to 10752
  154.8341  135.4556  154.1286 H   0  0  0  0  0  0  0  0  0  0  0  0  # atno 10765 bound_to 10752
  140.0224  134.9390  157.0501 H   0  0  0  0  0  0  0  0  0  0  0  0  # atno 11005 bound_to 11000
  145.7053  139.1671  143.2569 LP  0  0  0  0  0  0  0  0  0  0  0  0  # atno 17320 bound_to 7965
  146.1386  140.7089  142.9378 LP  0  0  0  0  0  0  0  0  0  0  0  0  # atno 17321 bound_to 7965
  140.4867  143.2361  151.8878 LP  0  0  0  0  0  0  0  0  0  0  0  0  # atno 17342 bound_to 10162
  139.4790  144.5211  151.8800 LP  0  0  0  0  0  0  0  0  0  0  0  0  # atno 17343 bound_to 10162
  157.2669  131.0579  151.2284 LP  0  0  0  0  0  0  0  0  0  0  0  0  # atno 17370 bound_to 10713
  157.3379  130.7018  149.6363 LP  0  0  0  0  0  0  0  0  0  0  0  0  # atno 17371 bound_to 10713
  140.4364  134.1726  155.7171 LP  0  0  0  0  0  0  0  0  0  0  0  0  # atno 17394 bound_to 11000
  141.1782  133.8470  157.1350 LP  0  0  0  0  0  0  0  0  0  0  0  0  # atno 17395 bound_to 11000

$$$$
