#       Name:                AV-unprocessed.smi:2772
#       Creating user name   scv26
#       Creation time:       Fri Mar 27 15:12:07 2020


#       File generated by GOLD software.
#

@<TRIPOS>MOLECULE
AV-unprocessed.smi:2772
    58    60     1
SMALL
NO_CHARGES


@<TRIPOS>ATOM
      1 ****        -7.3402   5.7378   0.0268 C.3            1 S1                 0.0000
      2 ****        -6.1863   4.7578   0.0091 C.ar           1 S1                 0.0000
      3 ****        -6.3436   3.4131  -0.3867 C.ar           1 S1                 0.0000
      4 ****        -5.2225   2.5579  -0.3782 C.ar           1 S1                 0.0000
      5 ****        -3.9617   3.0578   0.0154 C.ar           1 S1                 0.0000
      6 ****        -2.8634   2.1549   0.0186 N.am           1 S1                 0.0000
      7 ****        -1.5488   2.4368   0.0173 C.2            1 S1                 0.0000
      8 ****        -1.0656   3.5681  -0.0024 O.2            1 S1                 0.0000
      9 ****        -0.8144   1.3150   0.0235 N.am           1 S1                 0.0000
     10 ****         0.6450   1.2495   0.0109 C.3            1 S1                 0.0000
     11 ****         1.1259   0.5306  -1.2636 C.3            1 S1                 0.0000
     12 ****         2.6458   0.2791  -1.2226 C.3            1 S1                 0.0000
     13 ****         3.0479  -0.4965  -0.0137 N.4            1 S1                 1.0000
     14 ****         2.6439  -1.9457  -0.0143 C.3            1 S1                 0.0000
     15 ****         3.1548  -2.6992   1.2404 C.3            1 S1                 0.0000
     16 ****         2.8161  -4.1994   1.2078 C.3            1 S1                 0.0000
     17 ****         3.3532  -4.8428  -0.0127 N.4            1 S1                 1.0000
     18 ****         3.1530  -6.3082  -0.0140 C.3            1 S1                 0.0000
     19 ****         2.8254  -4.1985  -1.2368 C.3            1 S1                 0.0000
     20 ****         3.1644  -2.6981  -1.2656 C.3            1 S1                 0.0000
     21 ****         2.6656   0.2741   1.2047 C.3            1 S1                 0.0000
     22 ****         1.1461   0.5218   1.2721 C.3            1 S1                 0.0000
     23 ****        -3.8705   4.4149   0.4140 C.ar           1 S1                 0.0000
     24 ****        -4.9690   5.2009   0.3931 N.pl3          1 S1                 1.0000
     25 ****        -8.2609   5.2672  -0.3190 H              1 S1                 0.0000
     26 ****        -7.1281   6.5873  -0.6232 H              1 S1                 0.0000
     27 ****        -7.5070   6.1103   1.0378 H              1 S1                 0.0000
     28 ****        -7.3095   3.0381  -0.6927 H              1 S1                 0.0000
     29 ****        -5.3333   1.5258  -0.6784 H              1 S1                 0.0000
     30 ****        -3.1070   1.1766  -0.0351 H              1 S1                 0.0000
     31 ****        -1.3057   0.4331   0.0365 H              1 S1                 0.0000
     32 ****         1.0749   2.2529   0.0114 H              1 S1                 0.0000
     33 ****         0.5958  -0.4142  -1.3890 H              1 S1                 0.0000
     34 ****         0.8792   1.1327  -2.1390 H              1 S1                 0.0000
     35 ****         2.9901  -0.1844  -2.1444 H              1 S1                 0.0000
     36 ****         3.1605   1.2407  -1.1937 H              1 S1                 0.0000
     37 ****         1.5555  -2.0068  -0.0178 H              1 S1                 0.0000
     38 ****         4.2341  -2.5715   1.3358 H              1 S1                 0.0000
     39 ****         2.7090  -2.2960   2.1484 H              1 S1                 0.0000
     40 ****         3.2349  -4.6853   2.0902 H              1 S1                 0.0000
     41 ****         1.7350  -4.3417   1.2515 H              1 S1                 0.0000
     42 ****         2.0915  -6.5599  -0.0181 H              1 S1                 0.0000
     43 ****         3.6086  -6.7599   0.8679 H              1 S1                 0.0000
     44 ****         3.6153  -6.7593  -0.8928 H              1 S1                 0.0000
     45 ****         3.2509  -4.6837  -2.1163 H              1 S1                 0.0000
     46 ****         1.7447  -4.3406  -1.2889 H              1 S1                 0.0000
     47 ****         2.7268  -2.2939  -2.1772 H              1 S1                 0.0000
     48 ****         4.2445  -2.5706  -1.3522 H              1 S1                 0.0000
     49 ****         3.0272  -0.1916   2.1190 H              1 S1                 0.0000
     50 ****         3.1778   1.2371   1.1707 H              1 S1                 0.0000
     51 ****         0.9122   1.1168   2.1559 H              1 S1                 0.0000
     52 ****         0.6200  -0.4250   1.3983 H              1 S1                 0.0000
     53 ****        -2.9727   4.9044   0.7591 H              1 S1                 0.0000
     54 ****         4.0582  -0.5044  -0.0213 H              1 S1                 0.0000
     55 ****         4.3522  -4.6923  -0.0089 H              1 S1                 0.0000
     56 ****        -4.8742   6.1744   0.6834 H              1 S1                 0.0000
     57 ****        -1.6657   4.3679  -0.0192 LP             1 S1                 0.0000
     58 ****        -0.0728   3.6879  -0.0017 LP             1 S1                 0.0000
@<TRIPOS>BOND
    1    1    2 1     
    2    1   25 1     
    3    1   26 1     
    4    1   27 1     
    5    2   24 ar    
    6    2    3 ar    
    7    3    4 ar    
    8    3   28 1     
    9    4    5 ar    
   10    4   29 1     
   11    5    6 1     
   12    5   23 ar    
   13    6    7 am    
   14    6   30 1     
   15    7    8 2     
   16    7    9 am    
   17    9   10 1     
   18    9   31 1     
   19   10   22 1     
   20   10   11 1     
   21   10   32 1     
   22   11   12 1     
   23   11   33 1     
   24   11   34 1     
   25   12   13 1     
   26   12   35 1     
   27   12   36 1     
   28   13   14 1     
   29   13   21 1     
   30   13   54 1     
   31   14   20 1     
   32   14   15 1     
   33   14   37 1     
   34   15   16 1     
   35   15   38 1     
   36   15   39 1     
   37   16   17 1     
   38   16   40 1     
   39   16   41 1     
   40   17   18 1     
   41   17   19 1     
   42   17   55 1     
   43   18   42 1     
   44   18   43 1     
   45   18   44 1     
   46   19   20 1     
   47   19   45 1     
   48   19   46 1     
   49   20   47 1     
   50   20   48 1     
   51   21   22 1     
   52   21   49 1     
   53   21   50 1     
   54   22   51 1     
   55   22   52 1     
   56   23   24 ar    
   57   23   53 1     
   58   24   56 1     
   59    8   57 1     
   60    8   58 1     
@<TRIPOS>SUBSTRUCTURE
      1 S1             1
@<TRIPOS>SET
LONE_PAIRS      STATIC     ATOMS    <user>   **** ""
2 57 58
DONOR_HYDROGENS      STATIC     ATOMS    <user>   **** ""
5 30 31 54 55 56
ATOM$BLUE        STATIC     ATOMS    COLORGROUP SYSTEM
2 57 58
ATOM$RED        STATIC     ATOMS    COLORGROUP SYSTEM
5 30 31 54 55 56
