AV-unprocessed.smi:3067|AV-procd|sdf|11697|dock2
  -GOLD-   2272017 93D 1   1.00000     0.00000
 Structure written by MMmdl.
 34 35  0  0  0  0  0  0  0  0  1 V2000
  151.0640  145.2945  158.7150 C   0  0  0  0  0  0  0  0  0  0  0  0
  151.1374  143.8932  158.9260 O   0  0  0  0  0  0  0  0  0  0  0  0
  152.2126  143.4815  159.7631 C   0  0  1  0  0  0  0  0  0  0  0  0
  152.0119  144.0633  161.1792 C   0  0  0  0  0  0  0  0  0  0  0  0
  153.0575  143.5283  162.1683 C   0  0  0  0  0  0  0  0  0  0  0  0
  153.0487  141.9941  162.2012 C   0  0  0  0  0  0  0  0  0  0  0  0
  153.2654  141.4142  160.7964 C   0  0  0  0  0  0  0  0  0  0  0  0
  152.2118  141.9368  159.7955 C   0  0  2  0  0  0  0  0  0  0  0  0
  152.4648  141.4048  158.4610 N   0  0  0  0  0  0  0  0  0  0  0  0
  151.4575  141.2938  157.4902 C   0  0  0  0  0  0  0  0  0  0  0  0
  150.1067  141.6504  157.7125 C   0  0  0  0  0  0  0  0  0  0  0  0
  149.1785  141.5020  156.6640 C   0  0  0  0  0  0  0  0  0  0  0  0
  149.6301  141.0025  155.4247 C   0  0  0  0  0  0  0  0  0  0  0  0
  148.6885  140.8440  154.3296 C   0  0  0  0  0  0  0  0  0  0  0  0
  147.9382  140.7179  153.4577 N   0  0  0  0  0  0  0  0  0  0  0  0
  150.9170  140.6590  155.2022 N   0  0  0  0  0  0  0  0  0  0  0  0
  151.8006  140.8037  156.2125 C   0  0  0  0  0  0  0  0  0  0  0  0
  150.2355  145.5156  158.0426 H   0  0  0  0  0  0  0  0  0  0  0  0
  151.9772  145.6722  158.2538 H   0  0  0  0  0  0  0  0  0  0  0  0
  150.8901  145.8377  159.6435 H   0  0  0  0  0  0  0  0  0  0  0  0
  153.1660  143.8243  159.3552 H   0  0  0  0  0  0  0  0  0  0  0  0
  152.0650  145.1515  161.1593 H   0  0  0  0  0  0  0  0  0  0  0  0
  151.0134  143.8103  161.5381 H   0  0  0  0  0  0  0  0  0  0  0  0
  154.0483  143.8841  161.8830 H   0  0  0  0  0  0  0  0  0  0  0  0
  152.8616  143.9225  163.1659 H   0  0  0  0  0  0  0  0  0  0  0  0
  153.8243  141.6325  162.8768 H   0  0  0  0  0  0  0  0  0  0  0  0
  152.0979  141.6401  162.6015 H   0  0  0  0  0  0  0  0  0  0  0  0
  154.2655  141.6772  160.4486 H   0  0  0  0  0  0  0  0  0  0  0  0
  153.2391  140.3258  160.8494 H   0  0  0  0  0  0  0  0  0  0  0  0
  151.2214  141.6184  160.1221 H   0  0  0  0  0  0  0  0  0  0  0  0
  153.4215  141.2112  158.2012 H   0  0  0  0  0  0  0  0  0  0  0  0
  149.7659  142.0319  158.6629 H   0  0  0  0  0  0  0  0  0  0  0  0
  148.1420  141.7686  156.8138 H   0  0  0  0  0  0  0  0  0  0  0  0
  152.8187  140.5186  155.9901 H   0  0  0  0  0  0  0  0  0  0  0  0
  1  2  1  0  0  0  0
  1 18  1  0  0  0  0
  1 19  1  0  0  0  0
  1 20  1  0  0  0  0
  2  3  1  0  0  0  0
  3  8  1  0  0  0  0
  3  4  1  0  0  0  0
  3 21  1  0  0  0  0
  4  5  1  0  0  0  0
  4 22  1  0  0  0  0
  4 23  1  0  0  0  0
  5  6  1  0  0  0  0
  5 24  1  0  0  0  0
  5 25  1  0  0  0  0
  6  7  1  0  0  0  0
  6 26  1  0  0  0  0
  6 27  1  0  0  0  0
  7  8  1  0  0  0  0
  7 28  1  0  0  0  0
  7 29  1  0  0  0  0
  8  9  1  0  0  0  0
  8 30  1  0  0  0  0
  9 10  1  0  0  0  0
  9 31  1  0  0  0  0
 10 17  1  0  0  0  0
 10 11  2  0  0  0  0
 11 12  1  0  0  0  0
 11 32  1  0  0  0  0
 12 13  2  0  0  0  0
 12 33  1  0  0  0  0
 13 14  1  0  0  0  0
 13 16  1  0  0  0  0
 14 15  3  0  0  0  0
 16 17  2  0  0  0  0
 17 34  1  0  0  0  0
M  END
> <s_m_source_file>
AV-unprocessed.smi

> <i_m_source_file_index>
3067

> <i_lp_mmshare_version>
43012

> <i_f3d_flags>
0

> <s_epik_input>
W0NIM11PW0NAQEhdMVtDSDJdW0NIMl1bQ0gyXVtDSDJdW0NASF0xW05IXWMyW2NIXVtjSF1jKEMjTiluW2NIXTI=

> <s_epik_cmdline>
J2VwaWtfcHl0aG9uJywgJy1waCcsICc3LjAnLCAnLXRuJywgJzgnLCAnLW1hJywgJzIwMCcsICctbWV0YWxfYmluZGluZycsICctaW1hZScsICc8aW5maWxlLm1hZT4nLCAnLW9tYWUnLCAnPG91dGZpbGUubWFlPic=

> <r_lp_tautomer_probability>
1

> <r_epik_Ionization_Penalty>
2.01011e-07

> <r_epik_Ionization_Penalty_Charging>
0

> <r_epik_Ionization_Penalty_Neutral>
2.01011e-07

> <r_epik_State_Penalty>
-0

> <r_epik_Charging_Adjusted_Penalty>
0

> <i_epik_Tot_Q>
0

> <i_epik_Tot_abs_Q>
0

> <r_epik_Metal_State_Penalty>
-0

> <b_epik_Metal_Only>
0

> <s_lp_Force_Field>
OPLS_2005

> <r_lp_Energy>
16.9027

> <b_lp_Chiralities_Consistent>
1

> <s_lp_Variant>
AV-unprocessed.smi:3067-4

> <Gold.Version>
5.8.1

> <Gold.Id.Protein>
6NUR|6NUR_protein|mol2

> <Gold.PLP.Fitness>
38.1735

> <Gold.PLP.PLP>
-36.1414

> <Gold.PLP.part.hbond>
-1.0000

> <Gold.PLP.part.metal>
0.0000

> <Gold.PLP.part.buried>
-6.3072

> <Gold.PLP.part.nonpolar>
-28.6923

> <Gold.PLP.part.repulsive>
0.4085

> <Gold.PLP.ligand.clash>
0.0000

> <Gold.PLP.ligand.torsion>
0.3299

> <Gold.PLP.Chemscore.Hbond>
0.8960

> <Gold.PLP.Chemscore.CHOScore>
0.0000

> <Gold.PLP.Chemscore.Metal>
0.0000

> <Gold.Chemscore.Hbonds>
donor molecule, donor type, donor heavy atom, donor atom, acceptor molecule, acceptor atom, score
      P1  H  7989  7998       L1    16  0.90

> <Gold.PLP.Chemscore.Internal.Correction>
0.0039

> <Gold.Rescore>
     Score         DG    S(hbond)    S(metal)    S(lipo)     H(rot)  DE(clash)    DE(int)     intcor
     13.70     -16.89       0.74        0.00     102.72       1.20       0.33       2.86       ----

> <Gold.Chemscore.Fitness>
13.7048

> <Gold.Chemscore.DG>
-16.8920

> <Gold.Chemscore.ZeroCoef>
-5.4800

> <Gold.Chemscore.Hbond>
0.7392

> <Gold.Chemscore.Metal>
0.0000

> <Gold.Chemscore.Lipo>
102.7186

> <Gold.Chemscore.Internal_Hbond>
0.0000

> <Gold.Chemscore.DEClash>
0.3316

> <Gold.Chemscore.DEInternal>
2.8556

> <Gold.Chemscore.Rot>
1.2012

> <Gold.Chemscore.Internal.Correction>
   9.000000E+99

> <Gold.Chemscore.Hbonds>
donor molecule, donor type, donor heavy atom, donor atom, acceptor molecule, acceptor atom, score
      P1  H  7989  7998       L1    16  0.77

> <Gold.Chemscore.Hbond.Weighted>
-2.4689

> <Gold.Chemscore.Metal.Weighted>
-0.0000

> <Gold.Chemscore.Lipo.Weighted>
-12.0181

> <Gold.Chemscore.Internal_Hbond.Weighted>
0.0000

> <Gold.Chemscore.DEClash.Weighted>
0.3316

> <Gold.Chemscore.DEInternal.Weighted>
2.8556

> <Gold.Chemscore.Rot.Weighted>
3.0750

> <Gold.Chemscore.Internal.Correction.Weighted>
   9.000000E+99

> <Gold.Protein.RotatedTorsions>
[ 6907 6896 6895 6894 ] final -171.38 input  -60.11 | X-H torsion
[ 7974 7965 7964 7962 ] final  149.10 input  175.53 | X-H torsion
[ 8008 7997 7996 7995 ] final  101.15 input   59.86 | X-H torsion
[ 10167 10162 10161 10158 ] final -127.14 input  -65.29 | X-H torsion
[ 10718 10713 10712 10709 ] final  -89.46 input   66.30 | X-H torsion
[ 10763 10752 10751 10750 ] final  -86.08 input  -60.55 | X-H torsion
[ 11005 11000 10999 10996 ] final  -61.71 input  -57.11 | X-H torsion

> <Gold.Protein.ActiveResidues>
 VAL166  LYS551  ARG553  GLY616  TRP617  ASP618  TYR619  PRO620  LYS621  CYS622 
 ASP623  PHE694  ASN695  SER759  ASP760  ASP761  ALA762  ILE779  LEU786  VAL792 
 PHE793  MET794  SER795  GLU796  ALA797  LYS798  CYS799  TRP800  GLU811  SER814 

> <Gold.Protein.RotatedAtoms>
  151.5229  133.3463  159.2904 H   0  0  0  0  0  0  0  0  0  0  0  0  # atno 6907 bound_to 6896
  150.8641  134.8002  159.7116 H   0  0  0  0  0  0  0  0  0  0  0  0  # atno 6908 bound_to 6896
  152.4651  134.5103  159.9803 H   0  0  0  0  0  0  0  0  0  0  0  0  # atno 6909 bound_to 6896
  144.8463  139.6237  143.5994 H   0  0  0  0  0  0  0  0  0  0  0  0  # atno 7974 bound_to 7965
  156.1271  140.3202  155.8294 H   0  0  0  0  0  0  0  0  0  0  0  0  # atno 8008 bound_to 7997
  155.4399  140.0525  157.3028 H   0  0  0  0  0  0  0  0  0  0  0  0  # atno 8009 bound_to 7997
  154.4871  140.2077  155.9644 H   0  0  0  0  0  0  0  0  0  0  0  0  # atno 8010 bound_to 7997
  139.9640  143.5918  152.2435 H   0  0  0  0  0  0  0  0  0  0  0  0  # atno 10167 bound_to 10162
  155.9984  130.4873  150.5175 H   0  0  0  0  0  0  0  0  0  0  0  0  # atno 10718 bound_to 10713
  154.6184  135.5462  153.7548 H   0  0  0  0  0  0  0  0  0  0  0  0  # atno 10763 bound_to 10752
  153.0227  135.6406  154.1476 H   0  0  0  0  0  0  0  0  0  0  0  0  # atno 10764 bound_to 10752
  154.1412  135.2908  155.3140 H   0  0  0  0  0  0  0  0  0  0  0  0  # atno 10765 bound_to 10752
  141.1334  133.6633  156.5417 H   0  0  0  0  0  0  0  0  0  0  0  0  # atno 11005 bound_to 11000
  146.2747  139.6723  142.9271 LP  0  0  0  0  0  0  0  0  0  0  0  0  # atno 17320 bound_to 7965
  145.4590  141.0432  143.2762 LP  0  0  0  0  0  0  0  0  0  0  0  0  # atno 17321 bound_to 7965
  139.6532  144.7661  151.2107 LP  0  0  0  0  0  0  0  0  0  0  0  0  # atno 17342 bound_to 10162
  140.7544  143.6128  150.8589 LP  0  0  0  0  0  0  0  0  0  0  0  0  # atno 17343 bound_to 10162
  157.3140  131.0669  151.1980 LP  0  0  0  0  0  0  0  0  0  0  0  0  # atno 17370 bound_to 10713
  157.2916  130.6799  149.6117 LP  0  0  0  0  0  0  0  0  0  0  0  0  # atno 17371 bound_to 10713
  140.4134  134.7252  157.4849 LP  0  0  0  0  0  0  0  0  0  0  0  0  # atno 17394 bound_to 11000
  140.0411  134.6266  155.8980 LP  0  0  0  0  0  0  0  0  0  0  0  0  # atno 17395 bound_to 11000

$$$$
