AV-unprocessed.smi:69|AV-procd|sdf|644|dock7
  -GOLD-   2262016543D 1   1.00000     0.00000
 Structure written by MMmdl.
 32 34  0  0  0  0  0  0  0  0  1 V2000
  152.6382  143.0798  161.5639 N   0  0  0  0  0  0  0  0  0  0  0  0
  152.2743  143.3161  160.2960 C   0  0  0  0  0  0  0  0  0  0  0  0
  152.1687  144.6019  159.8844 N   0  0  0  0  0  0  0  0  0  0  0  0
  151.8057  144.8627  158.6237 C   0  0  0  0  0  0  0  0  0  0  0  0
  151.5112  144.0040  157.6429 N   0  0  0  0  0  0  0  0  0  0  0  0
  151.6212  142.7097  158.0630 C   0  0  0  0  0  0  0  0  0  0  0  0
  151.9940  142.2830  159.3666 C   0  0  0  0  0  0  0  0  0  0  0  0
  151.9945  140.8958  159.4266 N   0  0  0  0  0  0  0  0  0  0  0  0
  151.6390  140.5283  158.2240 C   0  0  0  0  0  0  0  0  0  0  0  0
  151.3922  141.5594  157.3407 N   0  0  0  0  0  0  0  0  0  0  0  0
  150.9736  141.5019  155.9017 C   0  0  1  0  0  0  0  0  0  0  0  0
  151.4811  140.3269  155.3427 O   0  0  0  0  0  0  0  0  0  0  0  0
  150.4422  139.3607  155.2250 C   0  0  2  0  0  0  0  0  0  0  0  0
  150.8240  138.3109  154.1709 C   0  0  0  0  0  0  0  0  0  0  0  0
  149.8110  137.3321  154.0801 O   0  0  0  0  0  0  0  0  0  0  0  0
  149.2629  140.2449  154.8209 C   0  0  1  0  0  0  0  0  0  0  0  0
  148.0109  139.6002  154.9652 O   0  0  0  0  0  0  0  0  0  0  0  0
  149.4353  141.4595  155.7302 C   0  0  1  0  0  0  0  0  0  0  0  0
  148.7231  141.3210  156.9517 O   0  0  0  0  0  0  0  0  0  0  0  0
  151.4464  142.3695  155.4395 H   0  0  0  0  0  0  0  0  0  0  0  0
  150.2436  138.8975  156.1937 H   0  0  0  0  0  0  0  0  0  0  0  0
  149.3817  140.5570  153.7820 H   0  0  0  0  0  0  0  0  0  0  0  0
  149.0990  142.3726  155.2380 H   0  0  0  0  0  0  0  0  0  0  0  0
  152.7222  142.1283  161.8916 H   0  0  0  0  0  0  0  0  0  0  0  0
  152.8286  143.8514  162.1868 H   0  0  0  0  0  0  0  0  0  0  0  0
  151.7416  145.9091  158.3641 H   0  0  0  0  0  0  0  0  0  0  0  0
  151.5490  139.4867  157.9525 H   0  0  0  0  0  0  0  0  0  0  0  0
  150.9159  138.7782  153.1899 H   0  0  0  0  0  0  0  0  0  0  0  0
  151.7834  137.8461  154.4003 H   0  0  0  0  0  0  0  0  0  0  0  0
  149.7792  137.0142  153.1908 H   0  0  0  0  0  0  0  0  0  0  0  0
  147.4479  140.1521  155.4861 H   0  0  0  0  0  0  0  0  0  0  0  0
  148.9116  140.4677  157.3117 H   0  0  0  0  0  0  0  0  0  0  0  0
  1  2  1  0  0  0  0
  1 24  1  0  0  0  0
  1 25  1  0  0  0  0
  2  7  1  0  0  0  0
  2  3  2  0  0  0  0
  3  4  1  0  0  0  0
  4  5  2  0  0  0  0
  4 26  1  0  0  0  0
  5  6  1  0  0  0  0
  6 10  1  0  0  0  0
  6  7  2  0  0  0  0
  7  8  1  0  0  0  0
  8  9  2  0  0  0  0
  9 10  1  0  0  0  0
  9 27  1  0  0  0  0
 10 11  1  0  0  0  0
 11 20  1  0  0  0  0
 11 18  1  0  0  0  0
 11 12  1  0  0  0  0
 12 13  1  0  0  0  0
 13 21  1  0  0  0  0
 13 14  1  0  0  0  0
 13 16  1  0  0  0  0
 14 15  1  0  0  0  0
 14 28  1  0  0  0  0
 14 29  1  0  0  0  0
 15 30  1  0  0  0  0
 16 22  1  0  0  0  0
 16 17  1  0  0  0  0
 16 18  1  0  0  0  0
 17 31  1  0  0  0  0
 18 23  1  0  0  0  0
 18 19  1  0  0  0  0
 19 32  1  0  0  0  0
M  END
> <s_m_source_file>
AV-unprocessed.smi

> <i_m_source_file_index>
69

> <i_lp_mmshare_version>
43012

> <i_f3d_flags>
0

> <s_epik_input>
bjFbY0hdbmMoW05IMl0pYyhjMTIpbltjSF1uMltDQEBIXTNPW0NASF0oW0NIMl1bT0hdKVtDQEBIXShbT0hdKVtDQEhdM1tPSF0=

> <s_epik_cmdline>
J2VwaWtfcHl0aG9uJywgJy1waCcsICc3LjAnLCAnLXRuJywgJzgnLCAnLW1hJywgJzIwMCcsICctbWV0YWxfYmluZGluZycsICctaW1hZScsICc8aW5maWxlLm1hZT4nLCAnLW9tYWUnLCAnPG91dGZpbGUubWFlPic=

> <r_lp_tautomer_probability>
1

> <r_epik_Ionization_Penalty>
0.000428445

> <r_epik_Ionization_Penalty_Charging>
0

> <r_epik_Ionization_Penalty_Neutral>
0.000428445

> <r_epik_State_Penalty>
-0

> <r_epik_Charging_Adjusted_Penalty>
0

> <i_epik_Tot_Q>
0

> <i_epik_Tot_abs_Q>
0

> <r_epik_Metal_State_Penalty>
-0

> <b_epik_Metal_Only>
0

> <s_epik_Chemistry_Notes>
This compound contains an acetal/aminal-like group ( X-CH(R)-Y where X, Y are N, S, or O) that may be acid/base labile, releasing an aldehyde.

> <s_lp_Force_Field>
OPLS_2005

> <r_lp_Energy>
41.389

> <b_lp_Chiralities_Consistent>
1

> <s_lp_Variant>
AV-unprocessed.smi:69-2

> <Gold.Version>
5.8.1

> <Gold.Id.Protein>
6NUR|6NUR_protein|mol2

> <Gold.PLP.Fitness>
38.7192

> <Gold.PLP.PLP>
-34.4054

> <Gold.PLP.part.hbond>
-2.3738

> <Gold.PLP.part.metal>
0.0000

> <Gold.PLP.part.buried>
-7.6337

> <Gold.PLP.part.nonpolar>
-24.6927

> <Gold.PLP.part.repulsive>
0.2640

> <Gold.PLP.ligand.clash>
0.0000

> <Gold.PLP.ligand.torsion>
0.7692

> <Gold.PLP.Chemscore.Hbond>
1.9280

> <Gold.PLP.Chemscore.CHOScore>
0.0000

> <Gold.PLP.Chemscore.Metal>
0.0000

> <Gold.Chemscore.Hbonds>
donor molecule, donor type, donor heavy atom, donor atom, acceptor molecule, acceptor atom, score
      L1  H    15    30       P1  7948  1.00
      P1  H  7989  7998       L1    12  0.93

> <Gold.PLP.Chemscore.Internal.Correction>
0.0682

> <Gold.Rescore>
     Score         DG    S(hbond)    S(metal)    S(lipo)     H(rot)  DE(clash)    DE(int)     intcor
      4.31      -4.90       1.74        0.00      33.51       4.03       0.08       0.50       ----

> <Gold.Chemscore.Fitness>
4.3135

> <Gold.Chemscore.DG>
-4.8990

> <Gold.Chemscore.ZeroCoef>
-5.4800

> <Gold.Chemscore.Hbond>
1.7393

> <Gold.Chemscore.Metal>
0.0000

> <Gold.Chemscore.Lipo>
33.5106

> <Gold.Chemscore.Internal_Hbond>
0.0000

> <Gold.Chemscore.DEClash>
0.0805

> <Gold.Chemscore.DEInternal>
0.5049

> <Gold.Chemscore.Rot>
4.0277

> <Gold.Chemscore.Internal.Correction>
   9.000000E+99

> <Gold.Chemscore.Hbonds>
donor molecule, donor type, donor heavy atom, donor atom, acceptor molecule, acceptor atom, score
      L1  H    15    30       P1  7948  0.39
      P1  H  7989  7998       L1    12  0.07

> <Gold.Chemscore.Hbond.Weighted>
-5.8092

> <Gold.Chemscore.Metal.Weighted>
-0.0000

> <Gold.Chemscore.Lipo.Weighted>
-3.9207

> <Gold.Chemscore.Internal_Hbond.Weighted>
0.0000

> <Gold.Chemscore.DEClash.Weighted>
0.0805

> <Gold.Chemscore.DEInternal.Weighted>
0.5049

> <Gold.Chemscore.Rot.Weighted>
10.3110

> <Gold.Chemscore.Internal.Correction.Weighted>
   9.000000E+99

> <Gold.Protein.RotatedTorsions>
[ 6907 6896 6895 6894 ] final -163.34 input  -60.11 | X-H torsion
[ 7974 7965 7964 7962 ] final -140.82 input  175.53 | X-H torsion
[ 8008 7997 7996 7995 ] final   74.15 input   59.86 | X-H torsion
[ 10167 10162 10161 10158 ] final  173.74 input  -65.29 | X-H torsion
[ 10718 10713 10712 10709 ] final   48.23 input   66.30 | X-H torsion
[ 10763 10752 10751 10750 ] final   32.68 input  -60.55 | X-H torsion
[ 11005 11000 10999 10996 ] final   90.49 input  -57.11 | X-H torsion

> <Gold.Protein.ActiveResidues>
 VAL166  LYS551  ARG553  GLY616  TRP617  ASP618  TYR619  PRO620  LYS621  CYS622 
 ASP623  PHE694  ASN695  SER759  ASP760  ASP761  ALA762  ILE779  LEU786  VAL792 
 PHE793  MET794  SER795  GLU796  ALA797  LYS798  CYS799  TRP800  GLU811  SER814 

> <Gold.Protein.RotatedAtoms>
  151.3944  133.3778  159.2724 H   0  0  0  0  0  0  0  0  0  0  0  0  # atno 6907 bound_to 6896
  150.9480  134.8884  159.7665 H   0  0  0  0  0  0  0  0  0  0  0  0  # atno 6908 bound_to 6896
  152.5100  134.3898  159.9432 H   0  0  0  0  0  0  0  0  0  0  0  0  # atno 6909 bound_to 6896
  144.8567  140.6154  143.5354 H   0  0  0  0  0  0  0  0  0  0  0  0  # atno 7974 bound_to 7965
  155.7942  140.3478  155.5366 H   0  0  0  0  0  0  0  0  0  0  0  0  # atno 8008 bound_to 7997
  155.8603  140.0970  157.1638 H   0  0  0  0  0  0  0  0  0  0  0  0  # atno 8009 bound_to 7997
  154.4011  140.1359  156.3940 H   0  0  0  0  0  0  0  0  0  0  0  0  # atno 8010 bound_to 7997
  139.5118  144.3226  152.0188 H   0  0  0  0  0  0  0  0  0  0  0  0  # atno 10167 bound_to 10162
  157.4666  130.8229  149.7942 H   0  0  0  0  0  0  0  0  0  0  0  0  # atno 10718 bound_to 10713
  153.0250  135.6407  154.1393 H   0  0  0  0  0  0  0  0  0  0  0  0  # atno 10763 bound_to 10752
  154.1123  135.2852  155.3229 H   0  0  0  0  0  0  0  0  0  0  0  0  # atno 10764 bound_to 10752
  154.6323  135.5488  153.7757 H   0  0  0  0  0  0  0  0  0  0  0  0  # atno 10765 bound_to 10752
  139.8855  134.8617  156.3293 H   0  0  0  0  0  0  0  0  0  0  0  0  # atno 11005 bound_to 11000
  145.4391  139.1538  143.3980 LP  0  0  0  0  0  0  0  0  0  0  0  0  # atno 17320 bound_to 7965
  146.2829  140.4512  142.8769 LP  0  0  0  0  0  0  0  0  0  0  0  0  # atno 17321 bound_to 7965
  140.2667  144.4008  150.6166 LP  0  0  0  0  0  0  0  0  0  0  0  0  # atno 17342 bound_to 10162
  140.6118  143.2170  151.6871 LP  0  0  0  0  0  0  0  0  0  0  0  0  # atno 17343 bound_to 10162
  156.0053  130.3859  150.2454 LP  0  0  0  0  0  0  0  0  0  0  0  0  # atno 17370 bound_to 10713
  157.0634  131.0096  151.3215 LP  0  0  0  0  0  0  0  0  0  0  0  0  # atno 17371 bound_to 10713
  140.9734  133.7313  156.0567 LP  0  0  0  0  0  0  0  0  0  0  0  0  # atno 17394 bound_to 11000
  140.7842  134.3691  157.5480 LP  0  0  0  0  0  0  0  0  0  0  0  0  # atno 17395 bound_to 11000

$$$$
