AV-unprocessed.smi:560|AV-procd|sdf|2930|dock5
  -GOLD-   2262023423D 1   1.00000     0.00000
 Structure written by MMmdl.
 42 43  0  0  0  0  0  0  0  0  2 V2000
  151.0919  140.8554  156.1900 C   0  0  0  0  0  0  0  0  0  0  0  0
  150.3727  141.3310  157.4686 C   0  0  2  0  0  0  0  0  0  0  0  0
  148.8914  141.6725  157.2348 C   0  0  0  0  0  0  0  0  0  0  0  0
  148.1388  141.9058  158.1812 O   0  0  0  0  0  0  0  0  0  0  0  0
  148.4863  141.7031  155.9546 N   0  0  0  0  0  0  0  0  0  0  0  0
  147.1222  141.9716  155.5026 C   0  0  2  0  0  0  0  0  0  0  0  0
  146.2052  140.7815  155.8335 C   0  0  0  0  0  0  0  0  0  0  0  0
  146.4954  139.5609  154.9407 C   0  0  0  0  0  0  0  0  0  0  0  0
  146.4047  139.9128  153.5008 N   0  3  2  0  0  0  0  0  0  0  0  0
  146.5370  138.7256  152.6173 C   0  0  0  0  0  0  0  0  0  0  0  0
  145.5196  137.6253  152.9365 C   0  0  0  0  0  0  0  0  0  0  0  0
  144.2421  137.8832  152.6475 N   0  0  0  0  0  0  0  0  0  0  0  0
  145.8784  136.5537  153.4213 O   0  0  0  0  0  0  0  0  0  0  0  0
  147.3418  141.0122  153.1468 C   0  0  0  0  0  0  0  0  0  0  0  0
  147.0645  142.2682  153.9906 C   0  0  0  0  0  0  0  0  0  0  0  0
  151.0636  142.4518  158.0966 N   0  0  0  0  0  0  0  0  0  0  0  0
  151.3506  143.6859  157.5496 C   0  0  0  0  0  0  0  0  0  0  0  0
  152.0361  144.4020  158.4883 C   0  0  0  0  0  0  0  0  0  0  0  0
  152.1308  143.5095  159.5918 C   0  0  0  0  0  0  0  0  0  0  0  0
  151.5559  142.3425  159.3526 N   0  0  0  0  0  0  0  0  0  0  0  0
  150.6064  139.9742  155.7695 H   0  0  0  0  0  0  0  0  0  0  0  0
  152.1264  140.5855  156.4040 H   0  0  0  0  0  0  0  0  0  0  0  0
  151.1064  141.6258  155.4177 H   0  0  0  0  0  0  0  0  0  0  0  0
  150.3965  140.5017  158.1778 H   0  0  0  0  0  0  0  0  0  0  0  0
  149.1707  141.4926  155.2427 H   0  0  0  0  0  0  0  0  0  0  0  0
  146.7544  142.8430  156.0476 H   0  0  0  0  0  0  0  0  0  0  0  0
  146.3031  140.5089  156.8853 H   0  0  0  0  0  0  0  0  0  0  0  0
  145.1659  141.0829  155.6952 H   0  0  0  0  0  0  0  0  0  0  0  0
  147.4858  139.1569  155.1564 H   0  0  0  0  0  0  0  0  0  0  0  0
  145.7765  138.7742  155.1724 H   0  0  0  0  0  0  0  0  0  0  0  0
  146.4627  139.0271  151.5711 H   0  0  0  0  0  0  0  0  0  0  0  0
  147.5248  138.2809  152.7461 H   0  0  0  0  0  0  0  0  0  0  0  0
  143.5271  137.1965  152.8408 H   0  0  0  0  0  0  0  0  0  0  0  0
  143.9915  138.7722  152.2379 H   0  0  0  0  0  0  0  0  0  0  0  0
  148.3705  140.6788  153.2920 H   0  0  0  0  0  0  0  0  0  0  0  0
  147.2421  141.2656  152.0911 H   0  0  0  0  0  0  0  0  0  0  0  0
  146.0744  142.6514  153.7405 H   0  0  0  0  0  0  0  0  0  0  0  0
  147.7665  143.0595  153.7251 H   0  0  0  0  0  0  0  0  0  0  0  0
  151.0457  143.9501  156.5477 H   0  0  0  0  0  0  0  0  0  0  0  0
  152.4143  145.4095  158.3998 H   0  0  0  0  0  0  0  0  0  0  0  0
  152.5999  143.6722  160.5509 H   0  0  0  0  0  0  0  0  0  0  0  0
  145.4695  140.2660  153.3530 H   0  0  0  0  0  0  0  0  0  0  0  0
  1  2  1  0  0  0  0
  1 21  1  0  0  0  0
  1 22  1  0  0  0  0
  1 23  1  0  0  0  0
  2  3  1  0  0  0  0
  2 16  1  0  0  0  0
  2 24  1  0  0  0  0
  3  4  2  0  0  0  0
  3  5  1  0  0  0  0
  5  6  1  0  0  0  0
  5 25  1  0  0  0  0
  6 15  1  0  0  0  0
  6  7  1  0  0  0  0
  6 26  1  0  0  0  0
  7  8  1  0  0  0  0
  7 27  1  0  0  0  0
  7 28  1  0  0  0  0
  8  9  1  0  0  0  0
  8 29  1  0  0  0  0
  8 30  1  0  0  0  0
  9 10  1  0  0  0  0
  9 14  1  0  0  0  0
  9 42  1  0  0  0  0
 10 11  1  0  0  0  0
 10 31  1  0  0  0  0
 10 32  1  0  0  0  0
 11 12  1  0  0  0  0
 11 13  2  0  0  0  0
 12 33  1  0  0  0  0
 12 34  1  0  0  0  0
 14 15  1  0  0  0  0
 14 35  1  0  0  0  0
 14 36  1  0  0  0  0
 15 37  1  0  0  0  0
 15 38  1  0  0  0  0
 16 20  1  0  0  0  0
 16 17  1  0  0  0  0
 17 18  2  0  0  0  0
 17 39  1  0  0  0  0
 18 19  1  0  0  0  0
 18 40  1  0  0  0  0
 19 20  2  0  0  0  0
 19 41  1  0  0  0  0
M  CHG  1   9   1
M  END
> <s_m_source_file>
AV-unprocessed.smi

> <i_m_source_file_index>
560

> <i_lp_mmshare_version>
43012

> <i_f3d_flags>
0

> <s_epik_input>
bjFbY0hdW2NIXVtjSF1uMVtDQEhdKFtDSDNdKUMoPU8pW05IXVtDSF0yW0NIMl1bQ0gyXU4oW0NIMl1bQ0gyXTIpW0NIMl1DKD1PKVtOSDJd

> <s_epik_cmdline>
J2VwaWtfcHl0aG9uJywgJy1waCcsICc3LjAnLCAnLXRuJywgJzgnLCAnLW1hJywgJzIwMCcsICctbWV0YWxfYmluZGluZycsICctaW1hZScsICc8aW5maWxlLm1hZT4nLCAnLW9tYWUnLCAnPG91dGZpbGUubWFlPic=

> <r_lp_tautomer_probability>
1

> <r_epik_Ionization_Penalty>
1.02943

> <r_epik_Ionization_Penalty_Charging>
1.02936

> <r_epik_Ionization_Penalty_Neutral>
7.4537e-05

> <r_epik_State_Penalty>
1.08036

> <r_epik_Charging_Adjusted_Penalty>
2.10972

> <i_epik_Tot_Q>
1

> <i_epik_Tot_abs_Q>
1

> <r_epik_Metal_State_Penalty>
1.09347

> <b_epik_Metal_Only>
0

> <s_lp_Force_Field>
OPLS_2005

> <r_lp_Energy>
16.2494

> <b_lp_Chiralities_Consistent>
1

> <s_lp_Variant>
AV-unprocessed.smi:560-5

> <Gold.Version>
5.8.1

> <Gold.Id.Protein>
6NUR|6NUR_protein|mol2

> <Gold.PLP.Fitness>
47.8983

> <Gold.PLP.PLP>
-36.4702

> <Gold.PLP.part.hbond>
-3.9303

> <Gold.PLP.part.metal>
0.0000

> <Gold.PLP.part.buried>
-5.6221

> <Gold.PLP.part.nonpolar>
-28.2042

> <Gold.PLP.part.repulsive>
0.2737

> <Gold.PLP.ligand.clash>
0.0000

> <Gold.PLP.ligand.torsion>
0.3650

> <Gold.PLP.Chemscore.Hbond>
3.0000

> <Gold.PLP.Chemscore.CHOScore>
1.0000

> <Gold.PLP.Chemscore.Metal>
0.0000

> <Gold.Chemscore.Hbonds>
donor molecule, donor type, donor heavy atom, donor atom, acceptor molecule, acceptor atom, score
      L1  H     9    42       P1 10175  2.00
      L1  H    12    34       P1 10175  0.99
      L1  C    17    39       P1  8028  1.00

> <Gold.PLP.Chemscore.Internal.Correction>
0.1581

> <Gold.Rescore>
     Score         DG    S(hbond)    S(metal)    S(lipo)     H(rot)  DE(clash)    DE(int)     intcor
     14.52     -15.08       1.96        0.00      81.39       2.52       0.12       0.44       ----

> <Gold.Chemscore.Fitness>
14.5177

> <Gold.Chemscore.DG>
-15.0842

> <Gold.Chemscore.ZeroCoef>
-5.4800

> <Gold.Chemscore.Hbond>
1.9592

> <Gold.Chemscore.Metal>
0.0000

> <Gold.Chemscore.Lipo>
81.3900

> <Gold.Chemscore.Internal_Hbond>
0.0000

> <Gold.Chemscore.DEClash>
0.1234

> <Gold.Chemscore.DEInternal>
0.4431

> <Gold.Chemscore.Rot>
2.5243

> <Gold.Chemscore.Internal.Correction>
   9.000000E+99

> <Gold.Chemscore.Hbonds>
donor molecule, donor type, donor heavy atom, donor atom, acceptor molecule, acceptor atom, score
      L1  H     9    42       P1 10175  0.95
      L1  H    12    34       P1 10175  0.93

> <Gold.Chemscore.Hbond.Weighted>
-6.5438

> <Gold.Chemscore.Metal.Weighted>
-0.0000

> <Gold.Chemscore.Lipo.Weighted>
-9.5226

> <Gold.Chemscore.Internal_Hbond.Weighted>
0.0000

> <Gold.Chemscore.DEClash.Weighted>
0.1234

> <Gold.Chemscore.DEInternal.Weighted>
0.4431

> <Gold.Chemscore.Rot.Weighted>
6.4622

> <Gold.Chemscore.Internal.Correction.Weighted>
   9.000000E+99

> <Gold.Protein.RotatedTorsions>
[ 6907 6896 6895 6894 ] final  108.98 input  -60.11 | X-H torsion
[ 7974 7965 7964 7962 ] final  -40.71 input  175.53 | X-H torsion
[ 8008 7997 7996 7995 ] final  -21.08 input   59.86 | X-H torsion
[ 10167 10162 10161 10158 ] final  165.79 input  -65.29 | X-H torsion
[ 10718 10713 10712 10709 ] final   73.42 input   66.30 | X-H torsion
[ 10763 10752 10751 10750 ] final  -52.06 input  -60.55 | X-H torsion
[ 11005 11000 10999 10996 ] final   56.93 input  -57.11 | X-H torsion

> <Gold.Protein.ActiveResidues>
 VAL166  LYS551  ARG553  GLY616  TRP617  ASP618  TYR619  PRO620  LYS621  CYS622 
 ASP623  PHE694  ASN695  SER759  ASP760  ASP761  ALA762  ILE779  LEU786  VAL792 
 PHE793  MET794  SER795  GLU796  ALA797  LYS798  CYS799  TRP800  GLU811  SER814 

> <Gold.Protein.RotatedAtoms>
  152.5088  133.9010  159.7440 H   0  0  0  0  0  0  0  0  0  0  0  0  # atno 6907 bound_to 6896
  150.9426  133.6631  159.2794 H   0  0  0  0  0  0  0  0  0  0  0  0  # atno 6908 bound_to 6896
  151.3937  135.0965  159.9587 H   0  0  0  0  0  0  0  0  0  0  0  0  # atno 6909 bound_to 6896
  146.0279  140.6769  142.9147 H   0  0  0  0  0  0  0  0  0  0  0  0  # atno 7974 bound_to 7965
  154.4728  140.2044  155.9951 H   0  0  0  0  0  0  0  0  0  0  0  0  # atno 8008 bound_to 7997
  156.1040  140.3239  155.7951 H   0  0  0  0  0  0  0  0  0  0  0  0  # atno 8009 bound_to 7997
  155.4749  140.0534  157.2965 H   0  0  0  0  0  0  0  0  0  0  0  0  # atno 8010 bound_to 7997
  139.4912  144.4095  151.9316 H   0  0  0  0  0  0  0  0  0  0  0  0  # atno 10167 bound_to 10162
  157.6547  130.9627  150.1067 H   0  0  0  0  0  0  0  0  0  0  0  0  # atno 10718 bound_to 10713
  154.1366  135.6511  153.4933 H   0  0  0  0  0  0  0  0  0  0  0  0  # atno 10763 bound_to 10752
  153.0178  135.5305  154.6947 H   0  0  0  0  0  0  0  0  0  0  0  0  # atno 10764 bound_to 10752
  154.6197  135.2963  155.0311 H   0  0  0  0  0  0  0  0  0  0  0  0  # atno 10765 bound_to 10752
  140.0491  134.5762  155.9285 H   0  0  0  0  0  0  0  0  0  0  0  0  # atno 11005 bound_to 11000
  144.7017  140.3682  143.7150 LP  0  0  0  0  0  0  0  0  0  0  0  0  # atno 17320 bound_to 7965
  145.7089  139.1679  143.2550 LP  0  0  0  0  0  0  0  0  0  0  0  0  # atno 17321 bound_to 7965
  140.3536  144.3059  150.5945 LP  0  0  0  0  0  0  0  0  0  0  0  0  # atno 17342 bound_to 10162
  140.5464  143.2214  151.8000 LP  0  0  0  0  0  0  0  0  0  0  0  0  # atno 17343 bound_to 10162
  156.1975  130.3658  149.8831 LP  0  0  0  0  0  0  0  0  0  0  0  0  # atno 17370 bound_to 10713
  156.6743  130.8833  151.3567 LP  0  0  0  0  0  0  0  0  0  0  0  0  # atno 17371 bound_to 10713
  141.1922  133.6574  156.5490 LP  0  0  0  0  0  0  0  0  0  0  0  0  # atno 17394 bound_to 11000
  140.3945  134.7411  157.4742 LP  0  0  0  0  0  0  0  0  0  0  0  0  # atno 17395 bound_to 11000

$$$$
