AV-unprocessed.smi:630|AV-procd|sdf|3121|dock9
  -GOLD-   22720 0 43D 1   1.00000     0.00000
 Structure written by MMmdl.
 36 37  0  0  0  0  0  0  0  0  2 V2000
  151.9164  137.4826  154.1126 N   0  0  0  0  0  0  0  0  0  0  0  0
  151.8695  138.6546  154.7516 C   0  0  0  0  0  0  0  0  0  0  0  0
  152.8887  139.2497  155.0978 O   0  0  0  0  0  0  0  0  0  0  0  0
  150.4761  139.2472  155.0392 C   0  0  2  0  0  0  0  0  0  0  0  0
  149.6272  139.1989  153.7448 C   0  0  0  0  0  0  0  0  0  0  0  0
  148.1169  139.3266  154.0031 C   0  0  0  0  0  0  0  0  0  0  0  0
  147.5814  140.7673  154.0357 C   0  0  0  0  0  0  0  0  0  0  0  0
  148.5029  141.8170  154.6789 C   0  0  0  0  0  0  0  0  0  0  0  0
  149.2358  141.3566  155.9492 C   0  0  0  0  0  0  0  0  0  0  0  0
  150.5892  140.6645  155.6712 C   0  0  1  0  0  0  0  0  0  0  0  0
  151.3194  140.5826  156.9411 N   0  0  0  0  0  0  0  0  0  0  0  0
  151.5732  141.5857  157.7950 C   0  0  0  0  0  0  0  0  0  0  0  0
  151.1667  142.7245  157.5541 O   0  0  0  0  0  0  0  0  0  0  0  0
  152.2900  141.2045  158.8769 N   0  5  0  0  0  0  0  0  0  0  0  0
  152.3530  142.0036  159.9545 C   0  0  0  0  0  0  0  0  0  0  0  0
  151.6435  143.1321  160.0711 N   0  0  0  0  0  0  0  0  0  0  0  0
  151.8625  143.8032  161.2756 C   0  0  0  0  0  0  0  0  0  0  0  0
  152.7510  143.1651  162.0999 C   0  0  0  0  0  0  0  0  0  0  0  0
  153.3440  141.6940  161.3829 S   0  0  0  0  0  0  0  0  0  0  0  0
  152.8087  137.0461  153.9331 H   0  0  0  0  0  0  0  0  0  0  0  0
  151.0600  137.0231  153.8394 H   0  0  0  0  0  0  0  0  0  0  0  0
  149.9971  138.5929  155.7701 H   0  0  0  0  0  0  0  0  0  0  0  0
  149.9600  139.9491  153.0257 H   0  0  0  0  0  0  0  0  0  0  0  0
  149.7884  138.2359  153.2566 H   0  0  0  0  0  0  0  0  0  0  0  0
  147.5764  138.7870  153.2248 H   0  0  0  0  0  0  0  0  0  0  0  0
  147.8601  138.8179  154.9329 H   0  0  0  0  0  0  0  0  0  0  0  0
  147.3609  141.0901  153.0175 H   0  0  0  0  0  0  0  0  0  0  0  0
  146.6228  140.7631  154.5556 H   0  0  0  0  0  0  0  0  0  0  0  0
  149.2301  142.1692  153.9465 H   0  0  0  0  0  0  0  0  0  0  0  0
  147.8955  142.6904  154.9190 H   0  0  0  0  0  0  0  0  0  0  0  0
  149.4310  142.2483  156.5471 H   0  0  0  0  0  0  0  0  0  0  0  0
  148.5913  140.7264  156.5634 H   0  0  0  0  0  0  0  0  0  0  0  0
  151.1441  141.2951  154.9742 H   0  0  0  0  0  0  0  0  0  0  0  0
  151.6738  139.6724  157.1953 H   0  0  0  0  0  0  0  0  0  0  0  0
  151.3419  144.7304  161.4638 H   0  0  0  0  0  0  0  0  0  0  0  0
  153.0910  143.4676  163.0786 H   0  0  0  0  0  0  0  0  0  0  0  0
  1  2  1  0  0  0  0
  1 20  1  0  0  0  0
  1 21  1  0  0  0  0
  2  3  2  0  0  0  0
  2  4  1  0  0  0  0
  4 10  1  0  0  0  0
  4  5  1  0  0  0  0
  4 22  1  0  0  0  0
  5  6  1  0  0  0  0
  5 23  1  0  0  0  0
  5 24  1  0  0  0  0
  6  7  1  0  0  0  0
  6 25  1  0  0  0  0
  6 26  1  0  0  0  0
  7  8  1  0  0  0  0
  7 27  1  0  0  0  0
  7 28  1  0  0  0  0
  8  9  1  0  0  0  0
  8 29  1  0  0  0  0
  8 30  1  0  0  0  0
  9 10  1  0  0  0  0
  9 31  1  0  0  0  0
  9 32  1  0  0  0  0
 10 11  1  0  0  0  0
 10 33  1  0  0  0  0
 11 12  1  0  0  0  0
 11 34  1  0  0  0  0
 12 13  2  0  0  0  0
 12 14  1  0  0  0  0
 14 15  1  0  0  0  0
 15 19  1  0  0  0  0
 15 16  2  0  0  0  0
 16 17  1  0  0  0  0
 17 18  2  0  0  0  0
 17 35  1  0  0  0  0
 18 19  1  0  0  0  0
 18 36  1  0  0  0  0
M  CHG  1  14  -1
M  END
> <s_m_source_file>
AV-unprocessed.smi

> <i_m_source_file_index>
630

> <i_lp_mmshare_version>
43012

> <i_f3d_flags>
0

> <s_epik_input>
W05IMl1DKD1PKVtDQEBIXTFbQ0gyXVtDSDJdW0NIMl1bQ0gyXVtDSDJdW0NASF0xW05IXUMoPU8pW05IXWMybltjSF1bY0hdczI=

> <s_epik_cmdline>
J2VwaWtfcHl0aG9uJywgJy1waCcsICc3LjAnLCAnLXRuJywgJzgnLCAnLW1hJywgJzIwMCcsICctbWV0YWxfYmluZGluZycsICctaW1hZScsICc8aW5maWxlLm1hZT4nLCAnLW9tYWUnLCAnPG91dGZpbGUubWFlPic=

> <r_lp_tautomer_probability>
0.999

> <r_epik_Ionization_Penalty>
8.29606

> <r_epik_Ionization_Penalty_Charging>
6.67551

> <r_epik_Ionization_Penalty_Neutral>
1.62055

> <r_epik_State_Penalty>
6.67568

> <r_epik_Charging_Adjusted_Penalty>
13.3512

> <i_epik_Tot_Q>
-1

> <i_epik_Tot_abs_Q>
1

> <r_epik_Metal_State_Penalty>
2.59802

> <b_epik_Metal_Only>
1

> <s_lp_Force_Field>
OPLS_2005

> <r_lp_Energy>
8.76486

> <b_lp_Chiralities_Consistent>
1

> <s_lp_Variant>
AV-unprocessed.smi:630-5

> <Gold.Version>
5.8.1

> <Gold.Id.Protein>
6NUR|6NUR_protein|mol2

> <Gold.PLP.Fitness>
39.9333

> <Gold.PLP.PLP>
-37.3521

> <Gold.PLP.part.hbond>
-2.1975

> <Gold.PLP.part.metal>
0.0000

> <Gold.PLP.part.buried>
-2.7030

> <Gold.PLP.part.nonpolar>
-33.7831

> <Gold.PLP.part.repulsive>
1.0775

> <Gold.PLP.ligand.clash>
0.0000

> <Gold.PLP.ligand.torsion>
0.2420

> <Gold.PLP.Chemscore.Hbond>
1.0000

> <Gold.PLP.Chemscore.CHOScore>
0.0000

> <Gold.PLP.Chemscore.Metal>
0.0000

> <Gold.Chemscore.Hbonds>
donor molecule, donor type, donor heavy atom, donor atom, acceptor molecule, acceptor atom, score
      P1  H  7997  8009       L1     3  1.00

> <Gold.PLP.Chemscore.Internal.Correction>
0.0652

> <Gold.Rescore>
     Score         DG    S(hbond)    S(metal)    S(lipo)     H(rot)  DE(clash)    DE(int)     intcor
      9.39     -14.84       1.08        0.00      82.19       1.50       1.72       3.74       ----

> <Gold.Chemscore.Fitness>
9.3869

> <Gold.Chemscore.DG>
-14.8430

> <Gold.Chemscore.ZeroCoef>
-5.4800

> <Gold.Chemscore.Hbond>
1.0771

> <Gold.Chemscore.Metal>
0.0000

> <Gold.Chemscore.Lipo>
82.1945

> <Gold.Chemscore.Internal_Hbond>
0.0000

> <Gold.Chemscore.DEClash>
1.7208

> <Gold.Chemscore.DEInternal>
3.7353

> <Gold.Chemscore.Rot>
1.5044

> <Gold.Chemscore.Internal.Correction>
   9.000000E+99

> <Gold.Chemscore.Hbonds>
donor molecule, donor type, donor heavy atom, donor atom, acceptor molecule, acceptor atom, score
      P1  H  7997  8009       L1     3  0.92

> <Gold.Chemscore.Hbond.Weighted>
-3.5974

> <Gold.Chemscore.Metal.Weighted>
-0.0000

> <Gold.Chemscore.Lipo.Weighted>
-9.6168

> <Gold.Chemscore.Internal_Hbond.Weighted>
0.0000

> <Gold.Chemscore.DEClash.Weighted>
1.7208

> <Gold.Chemscore.DEInternal.Weighted>
3.7353

> <Gold.Chemscore.Rot.Weighted>
3.8512

> <Gold.Chemscore.Internal.Correction.Weighted>
   9.000000E+99

> <Gold.Protein.RotatedTorsions>
[ 6907 6896 6895 6894 ] final  -69.43 input  -60.11 | X-H torsion
[ 7974 7965 7964 7962 ] final -154.44 input  175.53 | X-H torsion
[ 8008 7997 7996 7995 ] final -155.06 input   59.86 | X-H torsion
[ 10167 10162 10161 10158 ] final -115.76 input  -65.29 | X-H torsion
[ 10718 10713 10712 10709 ] final  130.71 input   66.30 | X-H torsion
[ 10763 10752 10751 10750 ] final   70.06 input  -60.55 | X-H torsion
[ 11005 11000 10999 10996 ] final  177.52 input  -57.11 | X-H torsion

> <Gold.Protein.ActiveResidues>
 VAL166  LYS551  ARG553  GLY616  TRP617  ASP618  TYR619  PRO620  LYS621  CYS622 
 ASP623  PHE694  ASN695  SER759  ASP760  ASP761  ALA762  ILE779  LEU786  VAL792 
 PHE793  MET794  SER795  GLU796  ALA797  LYS798  CYS799  TRP800  GLU811  SER814 

> <Gold.Protein.RotatedAtoms>
  150.7306  134.5598  159.5836 H   0  0  0  0  0  0  0  0  0  0  0  0  # atno 6907 bound_to 6896
  152.3064  134.7547  160.0355 H   0  0  0  0  0  0  0  0  0  0  0  0  # atno 6908 bound_to 6896
  151.8110  133.3346  159.3592 H   0  0  0  0  0  0  0  0  0  0  0  0  # atno 6909 bound_to 6896
  144.7689  140.4388  143.5921 H   0  0  0  0  0  0  0  0  0  0  0  0  # atno 7974 bound_to 7965
  155.6960  140.0761  157.2429 H   0  0  0  0  0  0  0  0  0  0  0  0  # atno 8008 bound_to 7997
  154.4081  140.1656  156.2191 H   0  0  0  0  0  0  0  0  0  0  0  0  # atno 8009 bound_to 7997
  155.9410  140.3384  155.6330 H   0  0  0  0  0  0  0  0  0  0  0  0  # atno 8010 bound_to 7997
  140.0866  143.4738  152.1895 H   0  0  0  0  0  0  0  0  0  0  0  0  # atno 10167 bound_to 10162
  157.5036  131.1095  150.9392 H   0  0  0  0  0  0  0  0  0  0  0  0  # atno 10718 bound_to 10713
  153.0321  135.5188  154.7383 H   0  0  0  0  0  0  0  0  0  0  0  0  # atno 10763 bound_to 10752
  154.6390  135.2910  155.0128 H   0  0  0  0  0  0  0  0  0  0  0  0  # atno 10764 bound_to 10752
  154.1053  135.6630  153.4928 H   0  0  0  0  0  0  0  0  0  0  0  0  # atno 10765 bound_to 10752
  140.3850  134.6912  157.4474 H   0  0  0  0  0  0  0  0  0  0  0  0  # atno 11005 bound_to 11000
  145.6383  139.1546  143.2930 LP  0  0  0  0  0  0  0  0  0  0  0  0  # atno 17320 bound_to 7965
  146.1820  140.6482  142.9185 LP  0  0  0  0  0  0  0  0  0  0  0  0  # atno 17321 bound_to 7965
  139.5749  144.7482  151.3793 LP  0  0  0  0  0  0  0  0  0  0  0  0  # atno 17342 bound_to 10162
  140.7050  143.7536  150.7467 LP  0  0  0  0  0  0  0  0  0  0  0  0  # atno 17343 bound_to 10162
  157.0054  130.5616  149.5315 LP  0  0  0  0  0  0  0  0  0  0  0  0  # atno 17370 bound_to 10713
  156.0245  130.5339  150.8367 LP  0  0  0  0  0  0  0  0  0  0  0  0  # atno 17371 bound_to 10713
  140.0449  134.6213  155.8933 LP  0  0  0  0  0  0  0  0  0  0  0  0  # atno 17394 bound_to 11000
  141.1910  133.6570  156.5439 LP  0  0  0  0  0  0  0  0  0  0  0  0  # atno 17395 bound_to 11000

$$$$
