#       Name:                AV-unprocessed.smi:104
#       Creating user name   scv26
#       Creation time:       Thu Mar 26 17:57:33 2020


#       File generated by GOLD software.
#

@<TRIPOS>MOLECULE
AV-unprocessed.smi:104
    58    60     1
SMALL
NO_CHARGES


@<TRIPOS>ATOM
      1 ****        -3.3885   3.8010   1.8729 C.3            1 S1                 0.0000
      2 ****        -3.1171   2.3229   1.6259 C.2            1 S1                 0.0000
      3 ****        -3.9660   1.5913   1.1157 O.2            1 S1                 0.0000
      4 ****        -1.8883   1.9552   2.0231 O.3            1 S1                 0.0000
      5 ****        -1.4586   0.6132   1.8540 C.3            1 S1                 0.0000
      6 ****         0.0710   0.5804   1.7365 C.3            1 S1                 0.0000
      7 ****         0.4462   1.2053   0.5050 O.3            1 S1                 0.0000
      8 ****         1.1191   0.2969  -0.3077 C.3            1 S1                 0.0000
      9 ****         0.7328   0.5163  -1.7335 N.pl3          1 S1                 0.0000
     10 ****         1.5166   0.4245  -2.8606 C.2            1 S1                 0.0000
     11 ****         3.3602  -0.0463  -2.7787 Br             1 S1                 0.0000
     12 ****         0.9417   0.6574  -4.0072 N.2            1 S1                 0.0000
     13 ****        -0.3718   0.9253  -3.6413 C.ar           1 S1                 0.0000
     14 ****        -1.5480   1.2534  -4.3620 C.ar           1 S1                 0.0000
     15 ****        -1.5775   1.3793  -5.6960 N.pl3          1 S1                 0.0000
     16 ****        -2.6968   1.4474  -3.6728 N.ar           1 S1                 0.0000
     17 ****        -2.6957   1.3255  -2.3415 C.ar           1 S1                 0.0000
     18 ****        -1.6770   1.0256  -1.5319 N.ar           1 S1                 0.0000
     19 ****        -0.5174   0.8337  -2.2257 C.ar           1 S1                 0.0000
     20 ****         0.6991  -1.0872   0.1550 C.3            1 S1                 0.0000
     21 ****         1.6580  -2.0661  -0.2233 O.3            1 S1                 0.0000
     22 ****         1.3249  -3.3658  -0.2238 C.2            1 S1                 0.0000
     23 ****         2.4765  -4.2594  -0.6645 C.3            1 S1                 0.0000
     24 ****         0.2313  -3.8334   0.0932 O.2            1 S1                 0.0000
     25 ****         0.6033  -0.8610   1.6550 C.3            1 S1                 0.0000
     26 ****         1.8924  -0.9387   2.2585 O.3            1 S1                 0.0000
     27 ****         2.0152  -1.2469   3.5609 C.2            1 S1                 0.0000
     28 ****         3.4697  -1.3113   4.0065 C.3            1 S1                 0.0000
     29 ****         1.0912  -1.4571   4.3466 O.2            1 S1                 0.0000
     30 ****        -2.5144   4.3985   1.6126 H              1 S1                 0.0000
     31 ****        -3.6256   3.9709   2.9233 H              1 S1                 0.0000
     32 ****        -4.2299   4.1410   1.2687 H              1 S1                 0.0000
     33 ****        -1.7809   0.0357   2.7210 H              1 S1                 0.0000
     34 ****        -1.9094   0.1510   0.9751 H              1 S1                 0.0000
     35 ****         0.5123   1.1167   2.5777 H              1 S1                 0.0000
     36 ****         2.1933   0.4741  -0.2482 H              1 S1                 0.0000
     37 ****        -0.7342   1.2384  -6.2337 H              1 S1                 0.0000
     38 ****        -2.4419   1.6167  -6.1607 H              1 S1                 0.0000
     39 ****        -3.6455   1.4918  -1.8546 H              1 S1                 0.0000
     40 ****        -0.2875  -1.3029  -0.2593 H              1 S1                 0.0000
     41 ****         2.9720  -3.8388  -1.5400 H              1 S1                 0.0000
     42 ****         2.1118  -5.2547  -0.9196 H              1 S1                 0.0000
     43 ****         3.2088  -4.3538   0.1375 H              1 S1                 0.0000
     44 ****        -0.0755  -1.5840   2.1103 H              1 S1                 0.0000
     45 ****         4.0512  -1.9240   3.3172 H              1 S1                 0.0000
     46 ****         3.5458  -1.7466   5.0031 H              1 S1                 0.0000
     47 ****         3.9017  -0.3108   4.0315 H              1 S1                 0.0000
     48 ****        -4.8559   1.9648   0.8540 LP             1 S1                 0.0000
     49 ****        -3.7654   0.6236   0.9630 LP             1 S1                 0.0000
     50 ****         1.0447   1.9829   0.6977 LP             1 S1                 0.0000
     51 ****        -0.3752   1.5257   0.0331 LP             1 S1                 0.0000
     52 ****         1.3454   0.6461  -4.9221 LP             1 S1                 0.0000
     53 ****        -3.5406   1.6803  -4.1562 LP             1 S1                 0.0000
     54 ****        -1.7543   0.9507  -0.5377 LP             1 S1                 0.0000
     55 ****        -0.5070  -3.2252   0.3847 LP             1 S1                 0.0000
     56 ****         0.0812  -4.8215   0.0592 LP             1 S1                 0.0000
     57 ****         0.1441  -1.4045   4.0301 LP             1 S1                 0.0000
     58 ****         1.2878  -1.6804   5.3013 LP             1 S1                 0.0000
@<TRIPOS>BOND
    1    1    2 1     
    2    1   30 1     
    3    1   31 1     
    4    1   32 1     
    5    2    3 2     
    6    2    4 1     
    7    4    5 1     
    8    5    6 1     
    9    5   33 1     
   10    5   34 1     
   11    6   25 1     
   12    6    7 1     
   13    6   35 1     
   14    7    8 1     
   15    8    9 1     
   16    8   20 1     
   17    8   36 1     
   18    9   19 1     
   19    9   10 1     
   20   10   11 1     
   21   10   12 2     
   22   12   13 1     
   23   13   19 ar    
   24   13   14 ar    
   25   14   15 1     
   26   14   16 ar    
   27   15   37 1     
   28   15   38 1     
   29   16   17 ar    
   30   17   18 ar    
   31   17   39 1     
   32   18   19 ar    
   33   20   21 1     
   34   20   25 1     
   35   20   40 1     
   36   21   22 1     
   37   22   23 1     
   38   22   24 2     
   39   23   41 1     
   40   23   42 1     
   41   23   43 1     
   42   25   26 1     
   43   25   44 1     
   44   26   27 1     
   45   27   28 1     
   46   27   29 2     
   47   28   45 1     
   48   28   46 1     
   49   28   47 1     
   50    3   48 1     
   51    3   49 1     
   52    7   50 1     
   53    7   51 1     
   54   12   52 1     
   55   16   53 1     
   56   18   54 1     
   57   24   55 1     
   58   24   56 1     
   59   29   57 1     
   60   29   58 1     
@<TRIPOS>SUBSTRUCTURE
      1 S1             1
@<TRIPOS>SET
LONE_PAIRS      STATIC     ATOMS    <user>   **** ""
11 48 49 50 51 52 53 54 55 56 57 58
DONOR_HYDROGENS      STATIC     ATOMS    <user>   **** ""
2 37 38
ATOM$BLUE        STATIC     ATOMS    COLORGROUP SYSTEM
11 48 49 50 51 52 53 54 55 56 57 58
ATOM$RED        STATIC     ATOMS    COLORGROUP SYSTEM
2 37 38
