AV-unprocessed.smi:3333|AV-procd|sdf|12832|dock5
  -GOLD-   2272019213D 1   1.00000     0.00000
 Structure written by MMmdl.
 41 43  0  0  0  0  0  0  0  0  1 V2000
  148.7785  133.0786  154.3057 C   0  0  0  0  0  0  0  0  0  0  0  0
  149.9465  133.5943  155.1532 C   0  0  0  0  0  0  0  0  0  0  0  0
  150.0193  135.0845  155.1797 C   0  0  0  0  0  0  0  0  0  0  0  0
  151.0572  135.7615  155.6777 N   0  0  0  0  0  0  0  0  0  0  0  0
  150.8698  137.1471  155.6340 C   0  0  0  0  0  0  0  0  0  0  0  0
  151.9358  138.0653  156.1634 C   0  0  0  0  0  0  0  0  0  0  0  0
  151.5327  139.5404  156.0391 C   0  0  0  0  0  0  0  0  0  0  0  0
  151.3315  140.0554  154.9380 O   0  0  0  0  0  0  0  0  0  0  0  0
  151.4108  140.2144  157.1930 N   0  0  0  0  0  0  0  0  0  0  0  0
  151.0409  141.6213  157.3046 C   0  0  0  0  0  0  0  0  0  0  0  0
  151.3151  142.1829  158.7161 C   0  0  1  0  0  0  0  0  0  0  0  0
  152.7955  142.1242  159.1465 C   0  0  0  0  0  0  0  0  0  0  0  0
  153.0646  143.5568  159.6449 C   0  0  1  0  0  0  0  0  0  0  0  0
  153.1554  144.5030  158.4338 C   0  0  0  0  0  0  0  0  0  0  0  0
  151.6895  144.6032  157.9734 C   0  0  0  0  0  0  0  0  0  0  0  0
  150.9555  143.6694  158.9580 C   0  0  2  0  0  0  0  0  0  0  0  0
  151.7197  143.9474  160.2489 C   0  0  0  0  0  0  0  0  0  0  0  0
  149.6661  137.5118  155.0822 C   0  0  0  0  0  0  0  0  0  0  0  0
  148.7148  136.1264  154.6229 S   0  0  0  0  0  0  0  0  0  0  0  0
  148.7532  131.9888  154.3007 H   0  0  0  0  0  0  0  0  0  0  0  0
  148.8632  133.4156  153.2722 H   0  0  0  0  0  0  0  0  0  0  0  0
  147.8238  133.4324  154.6966 H   0  0  0  0  0  0  0  0  0  0  0  0
  149.8554  133.2264  156.1759 H   0  0  0  0  0  0  0  0  0  0  0  0
  150.8876  133.2049  154.7638 H   0  0  0  0  0  0  0  0  0  0  0  0
  152.1421  137.8519  157.2128 H   0  0  0  0  0  0  0  0  0  0  0  0
  152.8710  137.9028  155.6257 H   0  0  0  0  0  0  0  0  0  0  0  0
  151.5874  139.7187  158.0548 H   0  0  0  0  0  0  0  0  0  0  0  0
  151.5854  142.2055  156.5611 H   0  0  0  0  0  0  0  0  0  0  0  0
  149.9881  141.7219  157.0425 H   0  0  0  0  0  0  0  0  0  0  0  0
  150.7400  141.5864  159.4267 H   0  0  0  0  0  0  0  0  0  0  0  0
  152.9305  141.3986  159.9498 H   0  0  0  0  0  0  0  0  0  0  0  0
  153.4655  141.8439  158.3326 H   0  0  0  0  0  0  0  0  0  0  0  0
  153.9156  143.6316  160.3221 H   0  0  0  0  0  0  0  0  0  0  0  0
  153.5314  145.4827  158.7310 H   0  0  0  0  0  0  0  0  0  0  0  0
  153.8117  144.1151  157.6537 H   0  0  0  0  0  0  0  0  0  0  0  0
  151.3304  145.6272  158.0841 H   0  0  0  0  0  0  0  0  0  0  0  0
  151.5535  144.3260  156.9290 H   0  0  0  0  0  0  0  0  0  0  0  0
  149.8827  143.8548  159.0183 H   0  0  0  0  0  0  0  0  0  0  0  0
  151.4170  143.3086  161.0806 H   0  0  0  0  0  0  0  0  0  0  0  0
  151.6736  144.9912  160.5651 H   0  0  0  0  0  0  0  0  0  0  0  0
  149.2770  138.5079  154.9319 H   0  0  0  0  0  0  0  0  0  0  0  0
  1  2  1  0  0  0  0
  1 20  1  0  0  0  0
  1 21  1  0  0  0  0
  1 22  1  0  0  0  0
  2  3  1  0  0  0  0
  2 23  1  0  0  0  0
  2 24  1  0  0  0  0
  3 19  1  0  0  0  0
  3  4  2  0  0  0  0
  4  5  1  0  0  0  0
  5  6  1  0  0  0  0
  5 18  2  0  0  0  0
  6  7  1  0  0  0  0
  6 25  1  0  0  0  0
  6 26  1  0  0  0  0
  7  8  2  0  0  0  0
  7  9  1  0  0  0  0
  9 10  1  0  0  0  0
  9 27  1  0  0  0  0
 10 11  1  0  0  0  0
 10 28  1  0  0  0  0
 10 29  1  0  0  0  0
 11 16  1  0  0  0  0
 11 12  1  0  0  0  0
 11 30  1  0  0  0  0
 12 13  1  0  0  0  0
 12 31  1  0  0  0  0
 12 32  1  0  0  0  0
 13 17  1  0  0  0  0
 13 14  1  0  0  0  0
 13 33  1  0  0  0  0
 14 15  1  0  0  0  0
 14 34  1  0  0  0  0
 14 35  1  0  0  0  0
 15 16  1  0  0  0  0
 15 36  1  0  0  0  0
 15 37  1  0  0  0  0
 16 17  1  0  0  0  0
 16 38  1  0  0  0  0
 17 39  1  0  0  0  0
 17 40  1  0  0  0  0
 18 19  1  0  0  0  0
 18 41  1  0  0  0  0
M  END
> <s_m_source_file>
AV-unprocessed.smi

> <i_m_source_file_index>
3333

> <i_lp_mmshare_version>
43012

> <i_f3d_flags>
0

> <s_epik_input>
W0NIM11bQ0gyXWMxbmMoW2NIXXMxKVtDSDJdQyg9TylbTkhdW0NIMl1bQ0BIXShbQ0gyXVtDQEBIXTIzKVtDQEBIXShbQ0gyXTMpW0NIMl1bQ0gyXTI=

> <s_epik_cmdline>
J2VwaWtfcHl0aG9uJywgJy1waCcsICc3LjAnLCAnLXRuJywgJzgnLCAnLW1hJywgJzIwMCcsICctbWV0YWxfYmluZGluZycsICctaW1hZScsICc8aW5maWxlLm1hZT4nLCAnLW9tYWUnLCAnPG91dGZpbGUubWFlPic=

> <r_lp_tautomer_probability>
1

> <r_epik_Ionization_Penalty>
6.68371e-05

> <r_epik_Ionization_Penalty_Charging>
0

> <r_epik_Ionization_Penalty_Neutral>
6.68371e-05

> <r_epik_State_Penalty>
-0

> <r_epik_Charging_Adjusted_Penalty>
0

> <i_epik_Tot_Q>
0

> <i_epik_Tot_abs_Q>
0

> <r_epik_Metal_State_Penalty>
-0

> <b_epik_Metal_Only>
0

> <s_lp_Force_Field>
OPLS_2005

> <r_lp_Energy>
44.5958

> <b_lp_Chiralities_Consistent>
1

> <s_lp_Variant>
AV-unprocessed.smi:3333-2

> <Gold.Version>
5.8.1

> <Gold.Id.Protein>
6NUR|6NUR_protein|mol2

> <Gold.PLP.Fitness>
44.9382

> <Gold.PLP.PLP>
-39.3438

> <Gold.PLP.part.hbond>
-2.0000

> <Gold.PLP.part.metal>
0.0000

> <Gold.PLP.part.buried>
-5.4527

> <Gold.PLP.part.nonpolar>
-32.3967

> <Gold.PLP.part.repulsive>
0.1742

> <Gold.PLP.ligand.clash>
0.0000

> <Gold.PLP.ligand.torsion>
0.2164

> <Gold.PLP.Chemscore.Hbond>
2.0000

> <Gold.PLP.Chemscore.CHOScore>
0.0000

> <Gold.PLP.Chemscore.Metal>
0.0000

> <Gold.Chemscore.Hbonds>
donor molecule, donor type, donor heavy atom, donor atom, acceptor molecule, acceptor atom, score
      P1  H  7989  7998       L1     8  1.00
      P1  H 10752 10764       L1     4  0.59

> <Gold.PLP.Chemscore.Internal.Correction>
0.0272

> <Gold.Rescore>
     Score         DG    S(hbond)    S(metal)    S(lipo)     H(rot)  DE(clash)    DE(int)     intcor
     22.04     -22.49       1.96        0.00     120.61       1.42       0.15       0.31       ----

> <Gold.Chemscore.Fitness>
22.0382

> <Gold.Chemscore.DG>
-22.4945

> <Gold.Chemscore.ZeroCoef>
-5.4800

> <Gold.Chemscore.Hbond>
1.9598

> <Gold.Chemscore.Metal>
0.0000

> <Gold.Chemscore.Lipo>
120.6060

> <Gold.Chemscore.Internal_Hbond>
0.0000

> <Gold.Chemscore.DEClash>
0.1491

> <Gold.Chemscore.DEInternal>
0.3072

> <Gold.Chemscore.Rot>
1.4227

> <Gold.Chemscore.Internal.Correction>
   9.000000E+99

> <Gold.Chemscore.Hbonds>
donor molecule, donor type, donor heavy atom, donor atom, acceptor molecule, acceptor atom, score
      P1  H  7989  7998       L1     8  0.99
      P1  H 10752 10764       L1     4  0.28

> <Gold.Chemscore.Hbond.Weighted>
-6.5457

> <Gold.Chemscore.Metal.Weighted>
-0.0000

> <Gold.Chemscore.Lipo.Weighted>
-14.1109

> <Gold.Chemscore.Internal_Hbond.Weighted>
0.0000

> <Gold.Chemscore.DEClash.Weighted>
0.1491

> <Gold.Chemscore.DEInternal.Weighted>
0.3072

> <Gold.Chemscore.Rot.Weighted>
3.6421

> <Gold.Chemscore.Internal.Correction.Weighted>
   9.000000E+99

> <Gold.Protein.RotatedTorsions>
[ 6907 6896 6895 6894 ] final  164.98 input  -60.11 | X-H torsion
[ 7974 7965 7964 7962 ] final  -15.02 input  175.53 | X-H torsion
[ 8008 7997 7996 7995 ] final -170.05 input   59.86 | X-H torsion
[ 10167 10162 10161 10158 ] final  -72.15 input  -65.29 | X-H torsion
[ 10718 10713 10712 10709 ] final  -60.77 input   66.30 | X-H torsion
[ 10763 10752 10751 10750 ] final  -28.32 input  -60.55 | X-H torsion
[ 11005 11000 10999 10996 ] final  -67.64 input  -57.11 | X-H torsion

> <Gold.Protein.ActiveResidues>
 VAL166  LYS551  ARG553  GLY616  TRP617  ASP618  TYR619  PRO620  LYS621  CYS622 
 ASP623  PHE694  ASN695  SER759  ASP760  ASP761  ALA762  ILE779  LEU786  VAL792 
 PHE793  MET794  SER795  GLU796  ALA797  LYS798  CYS799  TRP800  GLU811  SER814 

> <Gold.Protein.RotatedAtoms>
  151.9015  133.3539  159.3831 H   0  0  0  0  0  0  0  0  0  0  0  0  # atno 6907 bound_to 6896
  150.7079  134.4824  159.5486 H   0  0  0  0  0  0  0  0  0  0  0  0  # atno 6908 bound_to 6896
  152.2413  134.8226  160.0511 H   0  0  0  0  0  0  0  0  0  0  0  0  # atno 6909 bound_to 6896
  146.2050  140.3433  142.8410 H   0  0  0  0  0  0  0  0  0  0  0  0  # atno 7974 bound_to 7965
  155.9132  140.1061  157.1263 H   0  0  0  0  0  0  0  0  0  0  0  0  # atno 8008 bound_to 7997
  154.4042  140.1270  156.4649 H   0  0  0  0  0  0  0  0  0  0  0  0  # atno 8009 bound_to 7997
  155.7285  140.3469  155.5050 H   0  0  0  0  0  0  0  0  0  0  0  0  # atno 8010 bound_to 7997
  140.5215  143.2331  151.7421 H   0  0  0  0  0  0  0  0  0  0  0  0  # atno 10167 bound_to 10162
  156.0968  130.4192  150.0900 H   0  0  0  0  0  0  0  0  0  0  0  0  # atno 10718 bound_to 10713
  153.7464  135.6929  153.4955 H   0  0  0  0  0  0  0  0  0  0  0  0  # atno 10763 bound_to 10752
  153.2033  135.4428  155.0292 H   0  0  0  0  0  0  0  0  0  0  0  0  # atno 10764 bound_to 10752
  154.8203  135.3418  154.6987 H   0  0  0  0  0  0  0  0  0  0  0  0  # atno 10765 bound_to 10752
  141.1513  133.6723  156.6323 H   0  0  0  0  0  0  0  0  0  0  0  0  # atno 11005 bound_to 11000
  144.8770  140.7350  143.6010 LP  0  0  0  0  0  0  0  0  0  0  0  0  # atno 17320 bound_to 7965
  145.3353  139.1748  143.4515 LP  0  0  0  0  0  0  0  0  0  0  0  0  # atno 17321 bound_to 7965
  139.4925  144.4247  151.9939 LP  0  0  0  0  0  0  0  0  0  0  0  0  # atno 17342 bound_to 10162
  140.3344  144.3278  150.5980 LP  0  0  0  0  0  0  0  0  0  0  0  0  # atno 17343 bound_to 10162
  156.8897  130.9584  151.3590 LP  0  0  0  0  0  0  0  0  0  0  0  0  # atno 17370 bound_to 10713
  157.6130  130.8597  149.8982 LP  0  0  0  0  0  0  0  0  0  0  0  0  # atno 17371 bound_to 10713
  140.3457  134.7811  157.4430 LP  0  0  0  0  0  0  0  0  0  0  0  0  # atno 17394 bound_to 11000
  140.0901  134.5612  155.8452 LP  0  0  0  0  0  0  0  0  0  0  0  0  # atno 17395 bound_to 11000

$$$$
