AV-unprocessed.smi:2032|AV-procd|sdf|8231|dock1
  -GOLD-   2272010503D 1   1.00000     0.00000
 Structure written by MMmdl.
 42 43  0  0  0  0  0  0  0  0  1 V2000
  150.1322  141.0806  157.0587 C   0  0  0  0  0  0  0  0  0  0  0  0
  150.4667  141.2898  155.5716 C   0  0  2  0  0  0  0  0  0  0  0  0
  149.2209  141.3137  154.6639 C   0  0  0  0  0  0  0  0  0  0  0  0
  148.6143  139.9929  154.4599 N   0  0  0  0  0  0  0  0  0  0  0  0
  147.4293  140.0393  153.5694 C   0  0  2  0  0  0  0  0  0  0  0  0
  146.6625  141.3835  153.6636 C   0  0  0  0  0  0  0  0  0  0  0  0
  146.4348  138.8679  153.8143 C   0  0  0  0  0  0  0  0  0  0  0  0
  146.7418  137.6767  153.0242 N   0  0  0  0  0  0  0  0  0  0  0  0
  145.8602  136.7340  152.6581 C   0  0  0  0  0  0  0  0  0  0  0  0
  144.6642  136.7698  152.9485 O   0  0  0  0  0  0  0  0  0  0  0  0
  146.4548  135.7672  151.9370 N   0  0  0  0  0  0  0  0  0  0  0  0
  145.8639  134.6103  151.3640 C   0  0  0  0  0  0  0  0  0  0  0  0
  144.5535  134.4677  151.1320 N   0  0  0  0  0  0  0  0  0  0  0  0
  144.2534  133.2280  150.5618 C   0  0  0  0  0  0  0  0  0  0  0  0
  145.3550  132.4332  150.3647 C   0  0  0  0  0  0  0  0  0  0  0  0
  146.8222  133.2154  150.8896 S   0  0  0  0  0  0  0  0  0  0  0  0
  149.6598  139.0879  153.9725 C   0  0  0  0  0  0  0  0  0  0  0  0
  150.8807  139.0227  154.9081 C   0  0  1  0  0  0  0  0  0  0  0  0
  151.9970  138.1404  154.3386 C   0  0  0  0  0  0  0  0  0  0  0  0
  151.4084  140.3311  155.0966 O   0  0  0  0  0  0  0  0  0  0  0  0
  149.5113  141.8947  157.4333 H   0  0  0  0  0  0  0  0  0  0  0  0
  151.0399  141.0530  157.6618 H   0  0  0  0  0  0  0  0  0  0  0  0
  149.5875  140.1524  157.2311 H   0  0  0  0  0  0  0  0  0  0  0  0
  150.9559  142.2610  155.4918 H   0  0  0  0  0  0  0  0  0  0  0  0
  148.5105  142.0032  155.1158 H   0  0  0  0  0  0  0  0  0  0  0  0
  149.4959  141.7378  153.6970 H   0  0  0  0  0  0  0  0  0  0  0  0
  147.7801  139.9480  152.5403 H   0  0  0  0  0  0  0  0  0  0  0  0
  145.7783  141.4038  153.0285 H   0  0  0  0  0  0  0  0  0  0  0  0
  147.2611  142.2293  153.3294 H   0  0  0  0  0  0  0  0  0  0  0  0
  146.3364  141.5810  154.6853 H   0  0  0  0  0  0  0  0  0  0  0  0
  146.4763  138.5244  154.8458 H   0  0  0  0  0  0  0  0  0  0  0  0
  145.4113  139.2074  153.6462 H   0  0  0  0  0  0  0  0  0  0  0  0
  147.7024  137.5636  152.7353 H   0  0  0  0  0  0  0  0  0  0  0  0
  147.4455  135.8719  151.7761 H   0  0  0  0  0  0  0  0  0  0  0  0
  143.2258  132.9929  150.3275 H   0  0  0  0  0  0  0  0  0  0  0  0
  145.3913  131.4394  149.9435 H   0  0  0  0  0  0  0  0  0  0  0  0
  149.2806  138.0720  153.8860 H   0  0  0  0  0  0  0  0  0  0  0  0
  149.9773  139.3948  152.9746 H   0  0  0  0  0  0  0  0  0  0  0  0
  150.5790  138.6099  155.8711 H   0  0  0  0  0  0  0  0  0  0  0  0
  151.6532  137.1159  154.1953 H   0  0  0  0  0  0  0  0  0  0  0  0
  152.8535  138.1122  155.0125 H   0  0  0  0  0  0  0  0  0  0  0  0
  152.3441  138.5155  153.3754 H   0  0  0  0  0  0  0  0  0  0  0  0
  1  2  1  0  0  0  0
  1 21  1  0  0  0  0
  1 22  1  0  0  0  0
  1 23  1  0  0  0  0
  2 20  1  0  0  0  0
  2  3  1  0  0  0  0
  2 24  1  0  0  0  0
  3  4  1  0  0  0  0
  3 25  1  0  0  0  0
  3 26  1  0  0  0  0
  4  5  1  0  0  0  0
  4 17  1  0  0  0  0
  5  6  1  0  0  0  0
  5  7  1  0  0  0  0
  5 27  1  0  0  0  0
  6 28  1  0  0  0  0
  6 29  1  0  0  0  0
  6 30  1  0  0  0  0
  7  8  1  0  0  0  0
  7 31  1  0  0  0  0
  7 32  1  0  0  0  0
  8  9  1  0  0  0  0
  8 33  1  0  0  0  0
  9 10  2  0  0  0  0
  9 11  1  0  0  0  0
 11 12  1  0  0  0  0
 11 34  1  0  0  0  0
 12 16  1  0  0  0  0
 12 13  2  0  0  0  0
 13 14  1  0  0  0  0
 14 15  2  0  0  0  0
 14 35  1  0  0  0  0
 15 16  1  0  0  0  0
 15 36  1  0  0  0  0
 17 18  1  0  0  0  0
 17 37  1  0  0  0  0
 17 38  1  0  0  0  0
 18 19  1  0  0  0  0
 18 20  1  0  0  0  0
 18 39  1  0  0  0  0
 19 40  1  0  0  0  0
 19 41  1  0  0  0  0
 19 42  1  0  0  0  0
M  END
> <s_m_source_file>
AV-unprocessed.smi

> <i_m_source_file_index>
2032

> <i_lp_mmshare_version>
43012

> <i_f3d_flags>
0

> <s_epik_input>
W0NIM11bQ0BASF0xW0NIMl1OKFtDSDJdW0NASF0oTzEpW0NIM10pW0NASF0oW0NIM10pW0NIMl1bTkhdQyg9TylbTkhdYzJuW2NIXVtjSF1zMg==

> <s_epik_cmdline>
J2VwaWtfcHl0aG9uJywgJy1waCcsICc3LjAnLCAnLXRuJywgJzgnLCAnLW1hJywgJzIwMCcsICctbWV0YWxfYmluZGluZycsICctaW1hZScsICc8aW5maWxlLm1hZT4nLCAnLW9tYWUnLCAnPG91dGZpbGUubWFlPic=

> <r_lp_tautomer_probability>
0.999

> <r_epik_Ionization_Penalty>
0.219202

> <r_epik_Ionization_Penalty_Charging>
0

> <r_epik_Ionization_Penalty_Neutral>
0.219202

> <r_epik_State_Penalty>
0.209349

> <r_epik_Charging_Adjusted_Penalty>
0.209349

> <i_epik_Tot_Q>
0

> <i_epik_Tot_abs_Q>
0

> <r_epik_Metal_State_Penalty>
0.247737

> <b_epik_Metal_Only>
0

> <s_lp_Force_Field>
OPLS_2005

> <r_lp_Energy>
29.8023

> <b_lp_Chiralities_Consistent>
1

> <s_lp_Variant>
AV-unprocessed.smi:2032-1

> <Gold.Version>
5.8.1

> <Gold.Id.Protein>
6NUR|6NUR_protein|mol2

> <Gold.PLP.Fitness>
45.4782

> <Gold.PLP.PLP>
-36.6189

> <Gold.PLP.part.hbond>
-3.0000

> <Gold.PLP.part.metal>
0.0000

> <Gold.PLP.part.buried>
-4.4138

> <Gold.PLP.part.nonpolar>
-29.5475

> <Gold.PLP.part.repulsive>
0.6053

> <Gold.PLP.ligand.clash>
0.0750

> <Gold.PLP.ligand.torsion>
1.2598

> <Gold.PLP.Chemscore.Hbond>
2.7980

> <Gold.PLP.Chemscore.CHOScore>
1.0000

> <Gold.PLP.Chemscore.Metal>
0.0000

> <Gold.Chemscore.Hbonds>
donor molecule, donor type, donor heavy atom, donor atom, acceptor molecule, acceptor atom, score
      L1  H     8    33       P1  7948  0.85
      L1  H    11    34       P1  7948  0.98
      P1  H  7989  7998       L1    20  0.99
      L1  C    14    35       P1 10186  0.45

> <Gold.PLP.Chemscore.Internal.Correction>
0.0600

> <Gold.Rescore>
     Score         DG    S(hbond)    S(metal)    S(lipo)     H(rot)  DE(clash)    DE(int)     intcor
     15.50     -18.14       1.88        0.00      88.93       1.57       0.27       2.37       ----

> <Gold.Chemscore.Fitness>
15.4978

> <Gold.Chemscore.DG>
-18.1402

> <Gold.Chemscore.ZeroCoef>
-5.4800

> <Gold.Chemscore.Hbond>
1.8826

> <Gold.Chemscore.Metal>
0.0000

> <Gold.Chemscore.Lipo>
88.9262

> <Gold.Chemscore.Internal_Hbond>
0.0000

> <Gold.Chemscore.DEClash>
0.2731

> <Gold.Chemscore.DEInternal>
2.3694

> <Gold.Chemscore.Rot>
1.5750

> <Gold.Chemscore.Internal.Correction>
   9.000000E+99

> <Gold.Chemscore.Hbonds>
donor molecule, donor type, donor heavy atom, donor atom, acceptor molecule, acceptor atom, score
      L1  H     8    33       P1  7948  0.79
      L1  H    11    34       P1  7948  0.91
      P1  H  7989  7998       L1    20  0.11

> <Gold.Chemscore.Hbond.Weighted>
-6.2878

> <Gold.Chemscore.Metal.Weighted>
-0.0000

> <Gold.Chemscore.Lipo.Weighted>
-10.4044

> <Gold.Chemscore.Internal_Hbond.Weighted>
0.0000

> <Gold.Chemscore.DEClash.Weighted>
0.2731

> <Gold.Chemscore.DEInternal.Weighted>
2.3694

> <Gold.Chemscore.Rot.Weighted>
4.0319

> <Gold.Chemscore.Internal.Correction.Weighted>
   9.000000E+99

> <Gold.Protein.RotatedTorsions>
[ 6907 6896 6895 6894 ] final -151.29 input  -60.11 | X-H torsion
[ 7974 7965 7964 7962 ] final  -71.22 input  175.53 | X-H torsion
[ 8008 7997 7996 7995 ] final -156.18 input   59.86 | X-H torsion
[ 10167 10162 10161 10158 ] final  -90.57 input  -65.29 | X-H torsion
[ 10718 10713 10712 10709 ] final -110.98 input   66.30 | X-H torsion
[ 10763 10752 10751 10750 ] final  -79.69 input  -60.55 | X-H torsion
[ 11005 11000 10999 10996 ] final -177.21 input  -57.11 | X-H torsion

> <Gold.Protein.ActiveResidues>
 VAL166  LYS551  ARG553  GLY616  TRP617  ASP618  TYR619  PRO620  LYS621  CYS622 
 ASP623  PHE694  ASN695  SER759  ASP760  ASP761  ALA762  ILE779  LEU786  VAL792 
 PHE793  MET794  SER795  GLU796  ALA797  LYS798  CYS799  TRP800  GLU811  SER814 

> <Gold.Protein.RotatedAtoms>
  151.2109  133.4556  159.2597 H   0  0  0  0  0  0  0  0  0  0  0  0  # atno 6907 bound_to 6896
  151.0977  134.9954  159.8444 H   0  0  0  0  0  0  0  0  0  0  0  0  # atno 6908 bound_to 6896
  152.5440  134.2038  159.8775 H   0  0  0  0  0  0  0  0  0  0  0  0  # atno 6909 bound_to 6896
  145.6809  140.9188  143.0832 H   0  0  0  0  0  0  0  0  0  0  0  0  # atno 7974 bound_to 7965
  155.7132  140.0781  157.2362 H   0  0  0  0  0  0  0  0  0  0  0  0  # atno 8008 bound_to 7997
  154.4055  140.1626  156.2373 H   0  0  0  0  0  0  0  0  0  0  0  0  # atno 8009 bound_to 7997
  155.9264  140.3394  155.6216 H   0  0  0  0  0  0  0  0  0  0  0  0  # atno 8010 bound_to 7997
  140.3536  143.2878  151.9697 H   0  0  0  0  0  0  0  0  0  0  0  0  # atno 10167 bound_to 10162
  156.0621  130.5844  150.8312 H   0  0  0  0  0  0  0  0  0  0  0  0  # atno 10718 bound_to 10713
  154.5418  135.5687  153.6846 H   0  0  0  0  0  0  0  0  0  0  0  0  # atno 10763 bound_to 10752
  152.9965  135.6229  154.2491 H   0  0  0  0  0  0  0  0  0  0  0  0  # atno 10764 bound_to 10752
  154.2423  135.2862  155.2829 H   0  0  0  0  0  0  0  0  0  0  0  0  # atno 10765 bound_to 10752
  140.4434  134.6410  157.4768 H   0  0  0  0  0  0  0  0  0  0  0  0  # atno 11005 bound_to 11000
  144.7026  139.8696  143.7439 LP  0  0  0  0  0  0  0  0  0  0  0  0  # atno 17320 bound_to 7965
  146.0965  139.3957  143.0373 LP  0  0  0  0  0  0  0  0  0  0  0  0  # atno 17321 bound_to 7965
  139.4823  144.6054  151.7530 LP  0  0  0  0  0  0  0  0  0  0  0  0  # atno 17342 bound_to 10162
  140.5195  144.0901  150.6018 LP  0  0  0  0  0  0  0  0  0  0  0  0  # atno 17343 bound_to 10162
  157.5638  131.0946  150.9520 LP  0  0  0  0  0  0  0  0  0  0  0  0  # atno 17370 bound_to 10713
  156.9752  130.5506  149.5293 LP  0  0  0  0  0  0  0  0  0  0  0  0  # atno 17371 bound_to 10713
  140.0054  134.6771  155.9463 LP  0  0  0  0  0  0  0  0  0  0  0  0  # atno 17394 bound_to 11000
  141.1695  133.6537  156.4602 LP  0  0  0  0  0  0  0  0  0  0  0  0  # atno 17395 bound_to 11000

$$$$
