AV-unprocessed.smi:2489|AV-procd|sdf|9798|dock5
  -GOLD-   2272013433D 1   1.00000     0.00000
 Structure written by MMmdl.
 33 34  0  0  0  0  0  0  0  0  1 V2000
  153.7248  141.8252  161.3365 C   0  0  0  0  0  0  0  0  0  0  0  0
  153.0633  141.3962  160.1555 O   0  0  0  0  0  0  0  0  0  0  0  0
  152.5022  142.3600  159.3463 C   0  0  0  0  0  0  0  0  0  0  0  0
  152.6050  143.7536  159.5691 C   0  0  0  0  0  0  0  0  0  0  0  0
  151.9807  144.6257  158.6585 C   0  0  0  0  0  0  0  0  0  0  0  0
  151.2880  144.2015  157.5822 N   0  0  0  0  0  0  0  0  0  0  0  0
  151.1786  142.8704  157.3532 C   0  0  0  0  0  0  0  0  0  0  0  0
  150.4715  142.3150  156.2544 N   0  0  0  0  0  0  0  0  0  0  0  0
  150.6481  141.1183  155.6613 C   0  0  0  0  0  0  0  0  0  0  0  0
  151.5083  140.3012  155.9912 O   0  0  0  0  0  0  0  0  0  0  0  0
  149.7156  140.7936  154.4802 C   0  0  1  0  0  0  0  0  0  0  0  0
  148.7039  139.6702  154.7867 C   0  0  0  0  0  0  0  0  0  0  0  0
  147.3520  140.3010  154.5046 C   0  0  0  0  0  0  0  0  0  0  0  0
  147.6285  141.7850  154.7106 C   0  0  2  0  0  0  0  0  0  0  0  0
  146.6251  142.7151  154.0211 C   0  0  0  0  0  0  0  0  0  0  0  0
  148.9212  141.9341  154.1436 O   0  0  0  0  0  0  0  0  0  0  0  0
  151.7755  141.9268  158.2185 C   0  0  0  0  0  0  0  0  0  0  0  0
  154.1127  140.9562  161.8678 H   0  0  0  0  0  0  0  0  0  0  0  0
  153.0418  142.3454  162.0095 H   0  0  0  0  0  0  0  0  0  0  0  0
  154.5700  142.4753  161.1062 H   0  0  0  0  0  0  0  0  0  0  0  0
  153.1427  144.1674  160.4086 H   0  0  0  0  0  0  0  0  0  0  0  0
  152.0390  145.6948  158.7986 H   0  0  0  0  0  0  0  0  0  0  0  0
  149.7310  142.8883  155.8767 H   0  0  0  0  0  0  0  0  0  0  0  0
  150.3296  140.5353  153.6170 H   0  0  0  0  0  0  0  0  0  0  0  0
  148.8715  138.7875  154.1690 H   0  0  0  0  0  0  0  0  0  0  0  0
  148.7470  139.3521  155.8296 H   0  0  0  0  0  0  0  0  0  0  0  0
  147.0660  140.1096  153.4692 H   0  0  0  0  0  0  0  0  0  0  0  0
  146.5606  139.9211  155.1513 H   0  0  0  0  0  0  0  0  0  0  0  0
  147.6811  142.0117  155.7770 H   0  0  0  0  0  0  0  0  0  0  0  0
  145.6237  142.5820  154.4307 H   0  0  0  0  0  0  0  0  0  0  0  0
  146.5779  142.5223  152.9488 H   0  0  0  0  0  0  0  0  0  0  0  0
  146.9056  143.7593  154.1594 H   0  0  0  0  0  0  0  0  0  0  0  0
  151.6793  140.8687  158.0216 H   0  0  0  0  0  0  0  0  0  0  0  0
  1  2  1  0  0  0  0
  1 18  1  0  0  0  0
  1 19  1  0  0  0  0
  1 20  1  0  0  0  0
  2  3  1  0  0  0  0
  3 17  1  0  0  0  0
  3  4  2  0  0  0  0
  4  5  1  0  0  0  0
  4 21  1  0  0  0  0
  5  6  2  0  0  0  0
  5 22  1  0  0  0  0
  6  7  1  0  0  0  0
  7  8  1  0  0  0  0
  7 17  2  0  0  0  0
  8  9  1  0  0  0  0
  8 23  1  0  0  0  0
  9 10  2  0  0  0  0
  9 11  1  0  0  0  0
 11 16  1  0  0  0  0
 11 12  1  0  0  0  0
 11 24  1  0  0  0  0
 12 13  1  0  0  0  0
 12 25  1  0  0  0  0
 12 26  1  0  0  0  0
 13 14  1  0  0  0  0
 13 27  1  0  0  0  0
 13 28  1  0  0  0  0
 14 15  1  0  0  0  0
 14 16  1  0  0  0  0
 14 29  1  0  0  0  0
 15 30  1  0  0  0  0
 15 31  1  0  0  0  0
 15 32  1  0  0  0  0
 17 33  1  0  0  0  0
M  END
> <s_m_source_file>
AV-unprocessed.smi

> <i_m_source_file_index>
2489

> <i_lp_mmshare_version>
43012

> <i_f3d_flags>
0

> <s_epik_input>
W0NIM11PYzFbY0hdW2NIXW5jKFtjSF0xKVtOSF1DKD1PKVtDQEBIXTJbQ0gyXVtDSDJdW0NASF0oTzIpW0NIM10=

> <s_epik_cmdline>
J2VwaWtfcHl0aG9uJywgJy1waCcsICc3LjAnLCAnLXRuJywgJzgnLCAnLW1hJywgJzIwMCcsICctbWV0YWxfYmluZGluZycsICctaW1hZScsICc8aW5maWxlLm1hZT4nLCAnLW9tYWUnLCAnPG91dGZpbGUubWFlPic=

> <r_epik_Ionization_Penalty>
0.0871917

> <r_epik_Ionization_Penalty_Charging>
0

> <r_epik_Ionization_Penalty_Neutral>
0.0871917

> <r_epik_State_Penalty>
0.146479

> <r_epik_Charging_Adjusted_Penalty>
0.146479

> <i_epik_Tot_Q>
0

> <i_epik_Tot_abs_Q>
0

> <r_epik_Metal_State_Penalty>
0.067489

> <b_epik_Metal_Only>
0

> <s_lp_Force_Field>
OPLS_2005

> <r_lp_Energy>
22.8638

> <b_lp_Chiralities_Consistent>
1

> <s_lp_Variant>
AV-unprocessed.smi:2489-4

> <Gold.Version>
5.8.1

> <Gold.Id.Protein>
6NUR|6NUR_protein|mol2

> <Gold.PLP.Fitness>
41.7979

> <Gold.PLP.PLP>
-38.1216

> <Gold.PLP.part.hbond>
-2.0000

> <Gold.PLP.part.metal>
0.0000

> <Gold.PLP.part.buried>
-4.6526

> <Gold.PLP.part.nonpolar>
-31.8367

> <Gold.PLP.part.repulsive>
0.6877

> <Gold.PLP.ligand.clash>
0.0000

> <Gold.PLP.ligand.torsion>
0.2854

> <Gold.PLP.Chemscore.Hbond>
1.4132

> <Gold.PLP.Chemscore.CHOScore>
0.0000

> <Gold.PLP.Chemscore.Metal>
0.0000

> <Gold.Chemscore.Hbonds>
donor molecule, donor type, donor heavy atom, donor atom, acceptor molecule, acceptor atom, score
      L1  H     8    23       P1  8028  0.98
      P1  H  8011  8017       L1    16  0.40

> <Gold.PLP.Chemscore.Internal.Correction>
0.0074

> <Gold.Rescore>
     Score         DG    S(hbond)    S(metal)    S(lipo)     H(rot)  DE(clash)    DE(int)     intcor
     13.33     -15.59       0.98        0.00      85.23       1.23       0.55       1.72       ----

> <Gold.Chemscore.Fitness>
13.3260

> <Gold.Chemscore.DG>
-15.5930

> <Gold.Chemscore.ZeroCoef>
-5.4800

> <Gold.Chemscore.Hbond>
0.9823

> <Gold.Chemscore.Metal>
0.0000

> <Gold.Chemscore.Lipo>
85.2272

> <Gold.Chemscore.Internal_Hbond>
0.0000

> <Gold.Chemscore.DEClash>
0.5489

> <Gold.Chemscore.DEInternal>
1.7181

> <Gold.Chemscore.Rot>
1.2264

> <Gold.Chemscore.Internal.Correction>
   9.000000E+99

> <Gold.Chemscore.Hbonds>
donor molecule, donor type, donor heavy atom, donor atom, acceptor molecule, acceptor atom, score
      L1  H     8    23       P1  8028  0.87
      P1  H  8011  8017       L1    16  0.10

> <Gold.Chemscore.Hbond.Weighted>
-3.2809

> <Gold.Chemscore.Metal.Weighted>
-0.0000

> <Gold.Chemscore.Lipo.Weighted>
-9.9716

> <Gold.Chemscore.Internal_Hbond.Weighted>
0.0000

> <Gold.Chemscore.DEClash.Weighted>
0.5489

> <Gold.Chemscore.DEInternal.Weighted>
1.7181

> <Gold.Chemscore.Rot.Weighted>
3.1396

> <Gold.Chemscore.Internal.Correction.Weighted>
   9.000000E+99

> <Gold.Protein.RotatedTorsions>
[ 6907 6896 6895 6894 ] final  134.88 input  -60.11 | X-H torsion
[ 7974 7965 7964 7962 ] final    7.13 input  175.53 | X-H torsion
[ 8008 7997 7996 7995 ] final  -60.37 input   59.86 | X-H torsion
[ 10167 10162 10161 10158 ] final   60.75 input  -65.29 | X-H torsion
[ 10718 10713 10712 10709 ] final  125.63 input   66.30 | X-H torsion
[ 10763 10752 10751 10750 ] final  -43.24 input  -60.55 | X-H torsion
[ 11005 11000 10999 10996 ] final   77.00 input  -57.11 | X-H torsion

> <Gold.Protein.ActiveResidues>
 VAL166  LYS551  ARG553  GLY616  TRP617  ASP618  TYR619  PRO620  LYS621  CYS622 
 ASP623  PHE694  ASN695  SER759  ASP760  ASP761  ALA762  ILE779  LEU786  VAL792 
 PHE793  MET794  SER795  GLU796  ALA797  LYS798  CYS799  TRP800  GLU811  SER814 

> <Gold.Protein.RotatedAtoms>
  152.3065  133.5709  159.5652 H   0  0  0  0  0  0  0  0  0  0  0  0  # atno 6907 bound_to 6896
  150.7302  134.0215  159.3712 H   0  0  0  0  0  0  0  0  0  0  0  0  # atno 6908 bound_to 6896
  151.8111  135.0681  160.0464 H   0  0  0  0  0  0  0  0  0  0  0  0  # atno 6909 bound_to 6896
  146.2429  140.0130  142.8405 H   0  0  0  0  0  0  0  0  0  0  0  0  # atno 7974 bound_to 7965
  154.4395  140.1041  156.6262 H   0  0  0  0  0  0  0  0  0  0  0  0  # atno 8008 bound_to 7997
  155.5654  140.3488  155.4483 H   0  0  0  0  0  0  0  0  0  0  0  0  # atno 8009 bound_to 7997
  156.0429  140.1286  157.0125 H   0  0  0  0  0  0  0  0  0  0  0  0  # atno 8010 bound_to 7997
  140.1622  144.4359  150.6703 H   0  0  0  0  0  0  0  0  0  0  0  0  # atno 10167 bound_to 10162
  157.5487  131.1095  150.8738 H   0  0  0  0  0  0  0  0  0  0  0  0  # atno 10718 bound_to 10713
  153.9923  135.6704  153.4755 H   0  0  0  0  0  0  0  0  0  0  0  0  # atno 10763 bound_to 10752
  153.0699  135.4980  154.8279 H   0  0  0  0  0  0  0  0  0  0  0  0  # atno 10764 bound_to 10752
  154.7102  135.3096  154.9171 H   0  0  0  0  0  0  0  0  0  0  0  0  # atno 10765 bound_to 10752
  139.9273  134.7647  156.1466 H   0  0  0  0  0  0  0  0  0  0  0  0  # atno 11005 bound_to 11000
  145.1310  140.9518  143.4544 LP  0  0  0  0  0  0  0  0  0  0  0  0  # atno 17320 bound_to 7965
  145.0387  139.3278  143.5987 LP  0  0  0  0  0  0  0  0  0  0  0  0  # atno 17321 bound_to 7965
  140.6635  143.2260  151.5798 LP  0  0  0  0  0  0  0  0  0  0  0  0  # atno 17342 bound_to 10162
  139.5376  144.2738  152.1283 LP  0  0  0  0  0  0  0  0  0  0  0  0  # atno 17343 bound_to 10162
  156.9269  130.5335  149.5279 LP  0  0  0  0  0  0  0  0  0  0  0  0  # atno 17370 bound_to 10713
  156.0558  130.5620  150.9088 LP  0  0  0  0  0  0  0  0  0  0  0  0  # atno 17371 bound_to 10713
  141.0840  133.6742  156.2396 LP  0  0  0  0  0  0  0  0  0  0  0  0  # atno 17394 bound_to 11000
  140.6299  134.5274  157.5558 LP  0  0  0  0  0  0  0  0  0  0  0  0  # atno 17395 bound_to 11000

$$$$
