#       Name:                AV-unprocessed.smi:1593
#       Creating user name   scv26
#       Creation time:       Fri Mar 27 07:04:52 2020


#       File generated by GOLD software.
#

@<TRIPOS>MOLECULE
AV-unprocessed.smi:1593
    44    45     1
SMALL
NO_CHARGES


@<TRIPOS>ATOM
      1 ****        -6.9918   3.5783   0.1647 C.3            1 S1                 0.0000
      2 ****        -5.5638   3.1579   0.2327 C.2            1 S1                 0.0000
      3 ****        -4.9550   1.9359   0.2876 C.2            1 S1                 0.0000
      4 ****        -3.5742   2.2663   0.3321 C.2            1 S1                 0.0000
      5 ****        -2.5875   1.2466   0.3862 N.am           1 S1                 0.0000
      6 ****        -1.2492   1.3716   0.4503 C.2            1 S1                 0.0000
      7 ****        -0.7296   2.4920   0.5199 O.2            1 S1                 0.0000
      8 ****        -0.6185   0.1651   0.4313 N.pl3          1 S1                -1.0000
      9 ****         0.8308  -0.0141   0.4799 C.3            1 S1                 0.0000
     10 ****         1.2047  -1.3888  -0.1069 C.3            1 S1                 0.0000
     11 ****         2.6719  -1.6292  -0.0687 N.4            1 S1                 1.0000
     12 ****         3.0220  -3.0308   0.2671 C.3            1 S1                 0.0000
     13 ****         4.5480  -3.1893   0.3773 C.3            1 S1                 0.0000
     14 ****         5.1618  -2.7829  -0.8397 O.3            1 S1                 0.0000
     15 ****         4.9019  -1.4166  -1.1376 C.3            1 S1                 0.0000
     16 ****         3.3880  -1.2039  -1.3006 C.3            1 S1                 0.0000
     17 ****        -3.3610   3.5737   0.3076 N.2            1 S1                 0.0000
     18 ****        -4.6344   4.1514   0.2439 O.3            1 S1                 0.0000
     19 ****        -7.6533   2.7118   0.1539 H              1 S1                 0.0000
     20 ****        -7.1805   4.1590  -0.7383 H              1 S1                 0.0000
     21 ****        -7.2546   4.1939   1.0250 H              1 S1                 0.0000
     22 ****        -5.4237   0.9632   0.2934 H              1 S1                 0.0000
     23 ****        -2.9369   0.3005   0.3560 H              1 S1                 0.0000
     24 ****         1.3595   0.7593  -0.0789 H              1 S1                 0.0000
     25 ****         1.2071   0.0479   1.5017 H              1 S1                 0.0000
     26 ****         0.6938  -2.1546   0.4794 H              1 S1                 0.0000
     27 ****         0.8343  -1.4942  -1.1281 H              1 S1                 0.0000
     28 ****         2.5581  -3.3133   1.2129 H              1 S1                 0.0000
     29 ****         2.6278  -3.7007  -0.4988 H              1 S1                 0.0000
     30 ****         4.9407  -2.6037   1.2103 H              1 S1                 0.0000
     31 ****         4.8045  -4.2308   0.5715 H              1 S1                 0.0000
     32 ****         5.3034  -0.7761  -0.3505 H              1 S1                 0.0000
     33 ****         5.4198  -1.1513  -2.0595 H              1 S1                 0.0000
     34 ****         3.0217  -1.7769  -2.1538 H              1 S1                 0.0000
     35 ****         3.1893  -0.1532  -1.5141 H              1 S1                 0.0000
     36 ****         3.0239  -1.0624   0.6897 H              1 S1                 0.0000
     37 ****        -1.3045   3.3101   0.5288 LP             1 S1                 0.0000
     38 ****         0.2655   2.5796   0.5674 LP             1 S1                 0.0000
     39 ****        -1.1870  -0.6560   0.3806 LP             1 S1                 0.0000
     40 ****         4.8078  -3.3487  -1.5844 LP             1 S1                 0.0000
     41 ****         6.1502  -2.9141  -0.7623 LP             1 S1                 0.0000
     42 ****        -2.4799   4.0461   0.3299 LP             1 S1                 0.0000
     43 ****        -4.7782   4.7377   1.0411 LP             1 S1                 0.0000
     44 ****        -4.7150   4.6971  -0.5902 LP             1 S1                 0.0000
@<TRIPOS>BOND
    1    1    2 1     
    2    1   19 1     
    3    1   20 1     
    4    1   21 1     
    5    2   18 1     
    6    2    3 2     
    7    3    4 1     
    8    3   22 1     
    9    4    5 1     
   10    4   17 2     
   11    5    6 am    
   12    5   23 1     
   13    6    7 2     
   14    6    8 1     
   15    8    9 1     
   16    9   10 1     
   17    9   24 1     
   18    9   25 1     
   19   10   11 1     
   20   10   26 1     
   21   10   27 1     
   22   11   16 1     
   23   11   12 1     
   24   11   36 1     
   25   12   13 1     
   26   12   28 1     
   27   12   29 1     
   28   13   14 1     
   29   13   30 1     
   30   13   31 1     
   31   14   15 1     
   32   15   16 1     
   33   15   32 1     
   34   15   33 1     
   35   16   34 1     
   36   16   35 1     
   37   17   18 1     
   38    7   37 1     
   39    7   38 1     
   40    8   39 1     
   41   14   40 1     
   42   14   41 1     
   43   17   42 1     
   44   18   43 1     
   45   18   44 1     
@<TRIPOS>SUBSTRUCTURE
      1 S1             1
@<TRIPOS>SET
LONE_PAIRS      STATIC     ATOMS    <user>   **** ""
8 37 38 39 40 41 42 43 44
DONOR_HYDROGENS      STATIC     ATOMS    <user>   **** ""
2 23 36
ATOM$BLUE        STATIC     ATOMS    COLORGROUP SYSTEM
8 37 38 39 40 41 42 43 44
ATOM$RED        STATIC     ATOMS    COLORGROUP SYSTEM
2 23 36
