AV-unprocessed.smi:2752|AV-procd|sdf|10606|dock8
  -GOLD-   2272015 63D 1   1.00000     0.00000
 Structure written by MMmdl.
 34 35  0  0  0  0  0  0  0  0  1 V2000
  148.6724  138.4585  157.0178 C   0  0  0  0  0  0  0  0  0  0  0  0
  148.8424  139.7453  156.4461 O   0  0  0  0  0  0  0  0  0  0  0  0
  149.3907  139.7217  155.1307 C   0  0  1  0  0  0  0  0  0  0  0  0
  148.3909  139.0455  154.1863 C   0  0  0  0  0  0  0  0  0  0  0  0
  147.3886  140.1476  153.8542 C   0  0  0  0  0  0  0  0  0  0  0  0
  148.2265  141.4268  153.7726 C   0  0  0  0  0  0  0  0  0  0  0  0
  149.5115  141.1616  154.5817 C   0  0  1  0  0  0  0  0  0  0  0  0
  149.6945  142.1610  155.6321 N   0  0  0  0  0  0  0  0  0  0  0  0
  150.4269  141.9790  156.7401 C   0  0  0  0  0  0  0  0  0  0  0  0
  151.0438  140.9409  156.9815 O   0  0  0  0  0  0  0  0  0  0  0  0
  150.3869  143.0637  157.5334 N   0  0  0  0  0  0  0  0  0  0  0  0
  151.0292  143.2601  158.7849 C   0  0  0  0  0  0  0  0  0  0  0  0
  150.9153  144.5644  159.3177 C   0  0  0  0  0  0  0  0  0  0  0  0
  151.5186  144.8630  160.5551 C   0  0  0  0  0  0  0  0  0  0  0  0
  152.2208  143.8468  161.2269 C   0  0  0  0  0  0  0  0  0  0  0  0
  152.8170  144.0864  162.4189 F   0  0  0  0  0  0  0  0  0  0  0  0
  152.2875  142.5750  160.6285 C   0  0  0  0  0  0  0  0  0  0  0  0
  151.7098  142.2879  159.4428 N   0  0  0  0  0  0  0  0  0  0  0  0
  148.2268  138.5563  158.0076 H   0  0  0  0  0  0  0  0  0  0  0  0
  149.6321  137.9533  157.1326 H   0  0  0  0  0  0  0  0  0  0  0  0
  148.0166  137.8299  156.4154 H   0  0  0  0  0  0  0  0  0  0  0  0
  150.3645  139.2282  155.1263 H   0  0  0  0  0  0  0  0  0  0  0  0
  148.9041  138.7365  153.2748 H   0  0  0  0  0  0  0  0  0  0  0  0
  147.9159  138.1610  154.6104 H   0  0  0  0  0  0  0  0  0  0  0  0
  146.8370  139.9493  152.9349 H   0  0  0  0  0  0  0  0  0  0  0  0
  146.6632  140.2353  154.6642 H   0  0  0  0  0  0  0  0  0  0  0  0
  148.4868  141.6339  152.7340 H   0  0  0  0  0  0  0  0  0  0  0  0
  147.6623  142.2861  154.1373 H   0  0  0  0  0  0  0  0  0  0  0  0
  150.3560  141.2082  153.8913 H   0  0  0  0  0  0  0  0  0  0  0  0
  149.2133  143.0401  155.5134 H   0  0  0  0  0  0  0  0  0  0  0  0
  149.8308  143.8388  157.2041 H   0  0  0  0  0  0  0  0  0  0  0  0
  150.3715  145.3324  158.7869 H   0  0  0  0  0  0  0  0  0  0  0  0
  151.4430  145.8531  160.9795 H   0  0  0  0  0  0  0  0  0  0  0  0
  152.8173  141.7678  161.1124 H   0  0  0  0  0  0  0  0  0  0  0  0
  1  2  1  0  0  0  0
  1 19  1  0  0  0  0
  1 20  1  0  0  0  0
  1 21  1  0  0  0  0
  2  3  1  0  0  0  0
  3  7  1  0  0  0  0
  3  4  1  0  0  0  0
  3 22  1  0  0  0  0
  4  5  1  0  0  0  0
  4 23  1  0  0  0  0
  4 24  1  0  0  0  0
  5  6  1  0  0  0  0
  5 25  1  0  0  0  0
  5 26  1  0  0  0  0
  6  7  1  0  0  0  0
  6 27  1  0  0  0  0
  6 28  1  0  0  0  0
  7  8  1  0  0  0  0
  7 29  1  0  0  0  0
  8  9  1  0  0  0  0
  8 30  1  0  0  0  0
  9 10  2  0  0  0  0
  9 11  1  0  0  0  0
 11 12  1  0  0  0  0
 11 31  1  0  0  0  0
 12 18  1  0  0  0  0
 12 13  2  0  0  0  0
 13 14  1  0  0  0  0
 13 32  1  0  0  0  0
 14 15  2  0  0  0  0
 14 33  1  0  0  0  0
 15 16  1  0  0  0  0
 15 17  1  0  0  0  0
 17 18  2  0  0  0  0
 17 34  1  0  0  0  0
M  END
> <s_m_source_file>
AV-unprocessed.smi

> <i_m_source_file_index>
2752

> <i_lp_mmshare_version>
43012

> <i_f3d_flags>
0

> <s_epik_input>
W0NIM11PW0NAQEhdMVtDSDJdW0NIMl1bQ0gyXVtDQEhdMVtOSF1DKD1PKVtOSF1jMltjSF1bY0hdYyhGKVtjSF1uMg==

> <s_epik_cmdline>
J2VwaWtfcHl0aG9uJywgJy1waCcsICc3LjAnLCAnLXRuJywgJzgnLCAnLW1hJywgJzIwMCcsICctbWV0YWxfYmluZGluZycsICctaW1hZScsICc8aW5maWxlLm1hZT4nLCAnLW9tYWUnLCAnPG91dGZpbGUubWFlPic=

> <r_lp_tautomer_probability>
1

> <r_epik_Ionization_Penalty>
3.49853e-05

> <r_epik_Ionization_Penalty_Charging>
0

> <r_epik_Ionization_Penalty_Neutral>
3.49853e-05

> <r_epik_State_Penalty>
-0

> <r_epik_Charging_Adjusted_Penalty>
0

> <i_epik_Tot_Q>
0

> <i_epik_Tot_abs_Q>
0

> <r_epik_Metal_State_Penalty>
-0

> <b_epik_Metal_Only>
0

> <s_lp_Force_Field>
OPLS_2005

> <r_lp_Energy>
23.7986

> <b_lp_Chiralities_Consistent>
1

> <s_lp_Variant>
AV-unprocessed.smi:2752-2

> <Gold.Version>
5.8.1

> <Gold.Id.Protein>
6NUR|6NUR_protein|mol2

> <Gold.PLP.Fitness>
39.5890

> <Gold.PLP.PLP>
-34.2581

> <Gold.PLP.part.hbond>
-2.0000

> <Gold.PLP.part.metal>
0.0000

> <Gold.PLP.part.buried>
-4.5343

> <Gold.PLP.part.nonpolar>
-27.9406

> <Gold.PLP.part.repulsive>
0.1951

> <Gold.PLP.ligand.clash>
0.0000

> <Gold.PLP.ligand.torsion>
0.3406

> <Gold.PLP.Chemscore.Hbond>
2.0000

> <Gold.PLP.Chemscore.CHOScore>
0.0000

> <Gold.PLP.Chemscore.Metal>
0.0000

> <Gold.Chemscore.Hbonds>
donor molecule, donor type, donor heavy atom, donor atom, acceptor molecule, acceptor atom, score
      L1  H     8    30       P1  8028  1.00
      L1  H    11    31       P1  8028  0.98

> <Gold.PLP.Chemscore.Internal.Correction>
0.0120

> <Gold.Rescore>
     Score         DG    S(hbond)    S(metal)    S(lipo)     H(rot)  DE(clash)    DE(int)     intcor
     11.02     -17.51       1.92        0.00      76.14       1.28       0.17       6.32       ----

> <Gold.Chemscore.Fitness>
11.0185

> <Gold.Chemscore.DG>
-17.5080

> <Gold.Chemscore.ZeroCoef>
-5.4800

> <Gold.Chemscore.Hbond>
1.9169

> <Gold.Chemscore.Metal>
0.0000

> <Gold.Chemscore.Lipo>
76.1355

> <Gold.Chemscore.Internal_Hbond>
0.0000

> <Gold.Chemscore.DEClash>
0.1724

> <Gold.Chemscore.DEInternal>
6.3172

> <Gold.Chemscore.Rot>
1.2821

> <Gold.Chemscore.Internal.Correction>
   9.000000E+99

> <Gold.Chemscore.Hbonds>
donor molecule, donor type, donor heavy atom, donor atom, acceptor molecule, acceptor atom, score
      L1  H     8    30       P1  8028  1.00
      L1  H    11    31       P1  8028  0.77

> <Gold.Chemscore.Hbond.Weighted>
-6.4024

> <Gold.Chemscore.Metal.Weighted>
-0.0000

> <Gold.Chemscore.Lipo.Weighted>
-8.9079

> <Gold.Chemscore.Internal_Hbond.Weighted>
0.0000

> <Gold.Chemscore.DEClash.Weighted>
0.1724

> <Gold.Chemscore.DEInternal.Weighted>
6.3172

> <Gold.Chemscore.Rot.Weighted>
3.2822

> <Gold.Chemscore.Internal.Correction.Weighted>
   9.000000E+99

> <Gold.Protein.RotatedTorsions>
[ 6907 6896 6895 6894 ] final  -16.30 input  -60.11 | X-H torsion
[ 7974 7965 7964 7962 ] final   10.84 input  175.53 | X-H torsion
[ 8008 7997 7996 7995 ] final  -30.42 input   59.86 | X-H torsion
[ 10167 10162 10161 10158 ] final  -63.62 input  -65.29 | X-H torsion
[ 10718 10713 10712 10709 ] final  158.33 input   66.30 | X-H torsion
[ 10763 10752 10751 10750 ] final -157.56 input  -60.55 | X-H torsion
[ 11005 11000 10999 10996 ] final -148.13 input  -57.11 | X-H torsion

> <Gold.Protein.ActiveResidues>
 VAL166  LYS551  ARG553  GLY616  TRP617  ASP618  TYR619  PRO620  LYS621  CYS622 
 ASP623  PHE694  ASN695  SER759  ASP760  ASP761  ALA762  ILE779  LEU786  VAL792 
 PHE793  MET794  SER795  GLU796  ALA797  LYS798  CYS799  TRP800  GLU811  SER814 

> <Gold.Protein.RotatedAtoms>
  151.3107  135.0793  159.9271 H   0  0  0  0  0  0  0  0  0  0  0  0  # atno 6907 bound_to 6896
  152.5278  133.9738  159.7785 H   0  0  0  0  0  0  0  0  0  0  0  0  # atno 6908 bound_to 6896
  151.0041  133.5975  159.2721 H   0  0  0  0  0  0  0  0  0  0  0  0  # atno 6909 bound_to 6896
  146.2381  139.9574  142.8463 H   0  0  0  0  0  0  0  0  0  0  0  0  # atno 7974 bound_to 7965
  154.4251  140.1791  156.1404 H   0  0  0  0  0  0  0  0  0  0  0  0  # atno 8008 bound_to 7997
  155.9996  140.3361  155.6807 H   0  0  0  0  0  0  0  0  0  0  0  0  # atno 8009 bound_to 7997
  155.6261  140.0665  157.2654 H   0  0  0  0  0  0  0  0  0  0  0  0  # atno 8010 bound_to 7997
  140.5858  143.2333  151.6246 H   0  0  0  0  0  0  0  0  0  0  0  0  # atno 10167 bound_to 10162
  157.1794  131.0629  151.2140 H   0  0  0  0  0  0  0  0  0  0  0  0  # atno 10718 bound_to 10713
  154.7626  135.3122  154.8348 H   0  0  0  0  0  0  0  0  0  0  0  0  # atno 10763 bound_to 10752
  153.9104  135.6806  153.4755 H   0  0  0  0  0  0  0  0  0  0  0  0  # atno 10764 bound_to 10752
  153.1229  135.4814  154.9157 H   0  0  0  0  0  0  0  0  0  0  0  0  # atno 10765 bound_to 10752
  140.7644  134.3261  157.5092 H   0  0  0  0  0  0  0  0  0  0  0  0  # atno 11005 bound_to 11000
  145.1803  140.9764  143.4270 LP  0  0  0  0  0  0  0  0  0  0  0  0  # atno 17320 bound_to 7965
  144.9948  139.3655  143.6197 LP  0  0  0  0  0  0  0  0  0  0  0  0  # atno 17321 bound_to 7965
  139.5197  144.3246  152.0880 LP  0  0  0  0  0  0  0  0  0  0  0  0  # atno 17342 bound_to 10162
  140.2403  144.4276  150.6263 LP  0  0  0  0  0  0  0  0  0  0  0  0  # atno 17343 bound_to 10162
  157.3967  130.7311  149.6737 LP  0  0  0  0  0  0  0  0  0  0  0  0  # atno 17370 bound_to 10713
  155.9726  130.4132  150.4069 LP  0  0  0  0  0  0  0  0  0  0  0  0  # atno 17371 bound_to 10713
  139.8765  134.9222  156.3295 LP  0  0  0  0  0  0  0  0  0  0  0  0  # atno 17394 bound_to 11000
  140.9632  133.7375  156.0431 LP  0  0  0  0  0  0  0  0  0  0  0  0  # atno 17395 bound_to 11000

$$$$
