AV-unprocessed.smi:190|AV-procd|sdf|1491|dock6
  -GOLD-   2262019313D 1   1.00000     0.00000
 Structure written by MMmdl.
 54 58  0  0  0  0  0  0  0  0  1 V2000
  148.6811  140.5655  153.3974 O   0  0  0  0  0  0  0  0  0  0  0  0
  149.4701  141.0090  154.4838 C   0  0  0  0  0  0  0  0  0  0  0  0
  149.5761  139.9451  155.6135 C   0  0  0  0  0  0  0  0  0  0  0  0
  148.1233  139.5473  156.0203 C   0  0  0  0  0  0  0  0  0  0  0  0
  148.0085  138.6648  157.1730 N   0  0  0  0  0  0  0  0  0  0  0  0
  149.0318  138.0103  157.8177 C   0  0  0  0  0  0  0  0  0  0  0  0
  148.6661  137.2644  158.8231 N   0  0  0  0  0  0  0  0  0  0  0  0
  147.2817  137.3978  158.8744 C   0  0  0  0  0  0  0  0  0  0  0  0
  146.2511  136.8629  159.7084 C   0  0  0  0  0  0  0  0  0  0  0  0
  146.4763  136.0164  160.7570 N   0  0  0  0  0  0  0  0  0  0  0  0
  147.7497  136.0692  161.4682 C   0  0  0  0  0  0  0  0  0  0  0  0
  147.5543  135.2872  162.7706 C   0  0  0  0  0  0  0  0  0  0  0  0
  146.2567  134.5136  162.5439 C   0  0  0  0  0  0  0  0  0  0  0  0
  145.4407  135.4404  161.6278 C   0  0  1  0  0  0  0  0  0  0  0  0
  144.6820  136.4899  162.4554 C   0  0  0  0  0  0  0  0  0  0  0  0
  143.2657  135.9298  162.5010 C   0  0  0  0  0  0  0  0  0  0  0  0
  143.1120  135.3562  161.2144 O   0  0  0  0  0  0  0  0  0  0  0  0
  144.3157  134.6669  160.9013 C   0  0  0  0  0  0  0  0  0  0  0  0
  144.9765  137.2279  159.4069 N   0  0  0  0  0  0  0  0  0  0  0  0
  144.7158  138.0518  158.3898 C   0  0  0  0  0  0  0  0  0  0  0  0
  145.5709  138.6254  157.5446 N   0  0  0  0  0  0  0  0  0  0  0  0
  146.8551  138.2668  157.8272 C   0  0  0  0  0  0  0  0  0  0  0  0
  150.3885  138.7082  155.1488 C   0  0  0  0  0  0  0  0  0  0  0  0
  151.8773  139.0285  154.9218 C   0  0  0  0  0  0  0  0  0  0  0  0
  152.4456  139.5577  156.1135 O   0  0  0  0  0  0  0  0  0  0  0  0
  151.8391  140.7758  156.5273 C   0  0  0  0  0  0  0  0  0  0  0  0
  150.3442  140.5468  156.8201 C   0  0  0  0  0  0  0  0  0  0  0  0
  149.2553  140.2274  152.7270 H   0  0  0  0  0  0  0  0  0  0  0  0
  150.4443  141.2866  154.0857 H   0  0  0  0  0  0  0  0  0  0  0  0
  149.0288  141.9281  154.8709 H   0  0  0  0  0  0  0  0  0  0  0  0
  147.5409  140.4445  156.2336 H   0  0  0  0  0  0  0  0  0  0  0  0
  147.6178  139.0592  155.1862 H   0  0  0  0  0  0  0  0  0  0  0  0
  150.0658  138.1075  157.5197 H   0  0  0  0  0  0  0  0  0  0  0  0
  148.5166  135.5862  160.8621 H   0  0  0  0  0  0  0  0  0  0  0  0
  148.0610  137.0958  161.6655 H   0  0  0  0  0  0  0  0  0  0  0  0
  148.3975  134.6358  163.0012 H   0  0  0  0  0  0  0  0  0  0  0  0
  147.4333  135.9819  163.6025 H   0  0  0  0  0  0  0  0  0  0  0  0
  146.4871  133.5806  162.0262 H   0  0  0  0  0  0  0  0  0  0  0  0
  145.7455  134.2574  163.4726 H   0  0  0  0  0  0  0  0  0  0  0  0
  145.0936  136.6506  163.4521 H   0  0  0  0  0  0  0  0  0  0  0  0
  144.6647  137.4608  161.9614 H   0  0  0  0  0  0  0  0  0  0  0  0
  143.1736  135.1550  163.2636 H   0  0  0  0  0  0  0  0  0  0  0  0
  142.5153  136.6968  162.6929 H   0  0  0  0  0  0  0  0  0  0  0  0
  144.4564  134.5911  159.8230 H   0  0  0  0  0  0  0  0  0  0  0  0
  144.2288  133.6485  161.2829 H   0  0  0  0  0  0  0  0  0  0  0  0
  143.6728  138.2834  158.2321 H   0  0  0  0  0  0  0  0  0  0  0  0
  150.3399  137.9254  155.9045 H   0  0  0  0  0  0  0  0  0  0  0  0
  149.9572  138.2777  154.2448 H   0  0  0  0  0  0  0  0  0  0  0  0
  152.4143  138.1172  154.6584 H   0  0  0  0  0  0  0  0  0  0  0  0
  152.0200  139.7222  154.0929 H   0  0  0  0  0  0  0  0  0  0  0  0
  152.3423  141.1207  157.4309 H   0  0  0  0  0  0  0  0  0  0  0  0
  151.9937  141.5507  155.7764 H   0  0  0  0  0  0  0  0  0  0  0  0
  149.8783  141.4788  157.1419 H   0  0  0  0  0  0  0  0  0  0  0  0
  150.2937  139.8721  157.6738 H   0  0  0  0  0  0  0  0  0  0  0  0
  1  2  1  0  0  0  0
  1 28  1  0  0  0  0
  2  3  1  0  0  0  0
  2 29  1  0  0  0  0
  2 30  1  0  0  0  0
  3 27  1  0  0  0  0
  3  4  1  0  0  0  0
  3 23  1  0  0  0  0
  4  5  1  0  0  0  0
  4 31  1  0  0  0  0
  4 32  1  0  0  0  0
  5 22  1  0  0  0  0
  5  6  1  0  0  0  0
  6  7  2  0  0  0  0
  6 33  1  0  0  0  0
  7  8  1  0  0  0  0
  8 22  2  0  0  0  0
  8  9  1  0  0  0  0
  9 10  1  0  0  0  0
  9 19  2  0  0  0  0
 10 14  1  0  0  0  0
 10 11  1  0  0  0  0
 11 12  1  0  0  0  0
 11 34  1  0  0  0  0
 11 35  1  0  0  0  0
 12 13  1  0  0  0  0
 12 36  1  0  0  0  0
 12 37  1  0  0  0  0
 13 14  1  0  0  0  0
 13 38  1  0  0  0  0
 13 39  1  0  0  0  0
 14 18  1  0  0  0  0
 14 15  1  0  0  0  0
 15 16  1  0  0  0  0
 15 40  1  0  0  0  0
 15 41  1  0  0  0  0
 16 17  1  0  0  0  0
 16 42  1  0  0  0  0
 16 43  1  0  0  0  0
 17 18  1  0  0  0  0
 18 44  1  0  0  0  0
 18 45  1  0  0  0  0
 19 20  1  0  0  0  0
 20 21  2  0  0  0  0
 20 46  1  0  0  0  0
 21 22  1  0  0  0  0
 23 24  1  0  0  0  0
 23 47  1  0  0  0  0
 23 48  1  0  0  0  0
 24 25  1  0  0  0  0
 24 49  1  0  0  0  0
 24 50  1  0  0  0  0
 25 26  1  0  0  0  0
 26 27  1  0  0  0  0
 26 51  1  0  0  0  0
 26 52  1  0  0  0  0
 27 53  1  0  0  0  0
 27 54  1  0  0  0  0
M  END
> <s_m_source_file>
AV-unprocessed.smi

> <i_m_source_file_index>
190

> <i_lp_mmshare_version>
43012

> <i_f3d_flags>
0

> <s_epik_input>
W0NIMl0xW0NIMl1PW0NIMl1bQ0gyXUMxKFtDSDJdW09IXSlbQ0gyXW4oW2NIXW4yKWMoYzIzKW5bY0hdbmMzTihbQ0gyXVtDSDJdW0NIMl00KVtDQF00NVtDSDJdW0NIMl1PW0NIMl01

> <s_epik_cmdline>
J2VwaWtfcHl0aG9uJywgJy1waCcsICc3LjAnLCAnLXRuJywgJzgnLCAnLW1hJywgJzIwMCcsICctbWV0YWxfYmluZGluZycsICctaW1hZScsICc8aW5maWxlLm1hZT4nLCAnLW9tYWUnLCAnPG91dGZpbGUubWFlPic=

> <r_lp_tautomer_probability>
1

> <r_epik_Ionization_Penalty>
0.00423054

> <r_epik_Ionization_Penalty_Charging>
0

> <r_epik_Ionization_Penalty_Neutral>
0.00423054

> <r_epik_State_Penalty>
0.00298851

> <r_epik_Charging_Adjusted_Penalty>
0.00298851

> <i_epik_Tot_Q>
0

> <i_epik_Tot_abs_Q>
0

> <r_epik_Metal_State_Penalty>
-0

> <b_epik_Metal_Only>
0

> <s_lp_Force_Field>
OPLS_2005

> <r_lp_Energy>
66.7697

> <b_lp_Chiralities_Consistent>
1

> <s_lp_Variant>
AV-unprocessed.smi:190-1

> <Gold.Version>
5.8.1

> <Gold.Id.Protein>
6NUR|6NUR_protein|mol2

> <Gold.PLP.Fitness>
40.2991

> <Gold.PLP.PLP>
-34.6803

> <Gold.PLP.part.hbond>
-2.0422

> <Gold.PLP.part.metal>
0.0000

> <Gold.PLP.part.buried>
-5.2284

> <Gold.PLP.part.nonpolar>
-27.2065

> <Gold.PLP.part.repulsive>
0.0000

> <Gold.PLP.ligand.clash>
0.0000

> <Gold.PLP.ligand.torsion>
0.2811

> <Gold.PLP.Chemscore.Hbond>
2.0000

> <Gold.PLP.Chemscore.CHOScore>
0.0000

> <Gold.PLP.Chemscore.Metal>
0.0000

> <Gold.Chemscore.Hbonds>
donor molecule, donor type, donor heavy atom, donor atom, acceptor molecule, acceptor atom, score
      L1  H     1    28       P1  7957  0.99
      P1  H  7997  8010       L1    25  0.85

> <Gold.PLP.Chemscore.Internal.Correction>
0.1809

> <Gold.Rescore>
     Score         DG    S(hbond)    S(metal)    S(lipo)     H(rot)  DE(clash)    DE(int)     intcor
     13.78     -15.83       1.67        0.00      86.62       2.10       0.03       2.01       ----

> <Gold.Chemscore.Fitness>
13.7836

> <Gold.Chemscore.DG>
-15.8287

> <Gold.Chemscore.ZeroCoef>
-5.4800

> <Gold.Chemscore.Hbond>
1.6722

> <Gold.Chemscore.Metal>
0.0000

> <Gold.Chemscore.Lipo>
86.6153

> <Gold.Chemscore.Internal_Hbond>
0.0000

> <Gold.Chemscore.DEClash>
0.0309

> <Gold.Chemscore.DEInternal>
2.0142

> <Gold.Chemscore.Rot>
2.0978

> <Gold.Chemscore.Internal.Correction>
   9.000000E+99

> <Gold.Chemscore.Hbonds>
donor molecule, donor type, donor heavy atom, donor atom, acceptor molecule, acceptor atom, score
      L1  H     1    28       P1  7957  0.93
      P1  H  7997  8010       L1    25  0.14

> <Gold.Chemscore.Hbond.Weighted>
-5.5850

> <Gold.Chemscore.Metal.Weighted>
-0.0000

> <Gold.Chemscore.Lipo.Weighted>
-10.1340

> <Gold.Chemscore.Internal_Hbond.Weighted>
0.0000

> <Gold.Chemscore.DEClash.Weighted>
0.0309

> <Gold.Chemscore.DEInternal.Weighted>
2.0142

> <Gold.Chemscore.Rot.Weighted>
5.3703

> <Gold.Chemscore.Internal.Correction.Weighted>
   9.000000E+99

> <Gold.Protein.RotatedTorsions>
[ 6907 6896 6895 6894 ] final   56.06 input  -60.11 | X-H torsion
[ 7974 7965 7964 7962 ] final   21.39 input  175.53 | X-H torsion
[ 8008 7997 7996 7995 ] final   70.60 input   59.86 | X-H torsion
[ 10167 10162 10161 10158 ] final -178.38 input  -65.29 | X-H torsion
[ 10718 10713 10712 10709 ] final   34.12 input   66.30 | X-H torsion
[ 10763 10752 10751 10750 ] final   25.04 input  -60.55 | X-H torsion
[ 11005 11000 10999 10996 ] final  -58.37 input  -57.11 | X-H torsion

> <Gold.Protein.ActiveResidues>
 VAL166  LYS551  ARG553  GLY616  TRP617  ASP618  TYR619  PRO620  LYS621  CYS622 
 ASP623  PHE694  ASN695  SER759  ASP760  ASP761  ALA762  ILE779  LEU786  VAL792 
 PHE793  MET794  SER795  GLU796  ALA797  LYS798  CYS799  TRP800  GLU811  SER814 

> <Gold.Protein.RotatedAtoms>
  152.3600  134.6886  160.0209 H   0  0  0  0  0  0  0  0  0  0  0  0  # atno 6907 bound_to 6896
  151.7213  133.3309  159.3324 H   0  0  0  0  0  0  0  0  0  0  0  0  # atno 6908 bound_to 6896
  150.7598  134.6380  159.6266 H   0  0  0  0  0  0  0  0  0  0  0  0  # atno 6909 bound_to 6896
  146.2073  139.8033  142.8716 H   0  0  0  0  0  0  0  0  0  0  0  0  # atno 7974 bound_to 7965
  155.7413  140.3490  155.5105 H   0  0  0  0  0  0  0  0  0  0  0  0  # atno 8008 bound_to 7997
  155.9091  140.1047  157.1314 H   0  0  0  0  0  0  0  0  0  0  0  0  # atno 8009 bound_to 7997
  154.4053  140.1271  156.4521 H   0  0  0  0  0  0  0  0  0  0  0  0  # atno 8010 bound_to 7997
  139.5435  144.2298  152.0943 H   0  0  0  0  0  0  0  0  0  0  0  0  # atno 10167 bound_to 10162
  157.3064  130.7377  149.6698 H   0  0  0  0  0  0  0  0  0  0  0  0  # atno 10718 bound_to 10713
  153.0720  135.6592  154.0226 H   0  0  0  0  0  0  0  0  0  0  0  0  # atno 10763 bound_to 10752
  153.9869  135.2950  155.3417 H   0  0  0  0  0  0  0  0  0  0  0  0  # atno 10764 bound_to 10752
  154.7098  135.5210  153.8719 H   0  0  0  0  0  0  0  0  0  0  0  0  # atno 10765 bound_to 10752
  141.1204  133.6612  156.4910 H   0  0  0  0  0  0  0  0  0  0  0  0  # atno 11005 bound_to 11000
  145.3273  141.0258  143.3466 LP  0  0  0  0  0  0  0  0  0  0  0  0  # atno 17320 bound_to 7965
  144.8824  139.4886  143.6717 LP  0  0  0  0  0  0  0  0  0  0  0  0  # atno 17321 bound_to 7965
  140.1780  144.4871  150.6543 LP  0  0  0  0  0  0  0  0  0  0  0  0  # atno 17342 bound_to 10162
  140.6675  143.2273  151.5708 LP  0  0  0  0  0  0  0  0  0  0  0  0  # atno 17343 bound_to 10162
  155.9675  130.4264  150.4699 LP  0  0  0  0  0  0  0  0  0  0  0  0  # atno 17370 bound_to 10713
  157.2689  131.0583  151.2272 LP  0  0  0  0  0  0  0  0  0  0  0  0  # atno 17371 bound_to 10713
  140.4523  134.6917  157.5045 LP  0  0  0  0  0  0  0  0  0  0  0  0  # atno 17394 bound_to 11000
  140.0157  134.6622  155.9313 LP  0  0  0  0  0  0  0  0  0  0  0  0  # atno 17395 bound_to 11000

$$$$
