AV-unprocessed.smi:2726|AV-procd|sdf|10520|dock1
  -GOLD-   2272014563D 1   1.00000     0.00000
 Structure written by MMmdl.
 42 43  0  0  0  0  0  0  0  0  2 V2000
  147.0967  132.6994  152.0529 C   0  0  0  0  0  0  0  0  0  0  0  0
  145.8061  131.9689  151.6418 C   0  0  0  0  0  0  0  0  0  0  0  0
  145.6426  132.0688  150.1104 C   0  0  0  0  0  0  0  0  0  0  0  0
  145.9028  130.4928  152.0829 C   0  0  0  0  0  0  0  0  0  0  0  0
  144.6966  132.6447  152.3259 N   0  0  0  0  0  0  0  0  0  0  0  0
  144.3306  133.9357  152.2479 C   0  0  0  0  0  0  0  0  0  0  0  0
  144.8998  134.7727  151.5484 O   0  0  0  0  0  0  0  0  0  0  0  0
  143.2801  134.1867  153.0484 N   0  0  0  0  0  0  0  0  0  0  0  0
  142.5982  135.4172  153.2486 C   0  0  0  0  0  0  0  0  0  0  0  0
  141.2886  135.3671  153.7724 C   0  0  0  0  0  0  0  0  0  0  0  0
  140.5688  136.5625  153.9743 C   0  0  0  0  0  0  0  0  0  0  0  0
  141.1681  137.7982  153.6363 C   0  0  0  0  0  0  0  0  0  0  0  0
  140.5418  139.0417  153.7991 N   0  0  0  0  0  0  0  0  0  0  0  0
  139.1004  139.0365  153.6129 C   0  0  0  0  0  0  0  0  0  0  0  0
  138.6035  140.3454  154.2320 C   0  0  0  0  0  0  0  0  0  0  0  0
  139.7058  140.7601  155.2140 C   0  0  0  0  0  0  0  0  0  0  0  0
  140.7773  139.6737  155.0863 C   0  0  0  0  0  0  0  0  0  0  0  0
  142.4184  137.8036  153.1255 N   0  3  0  0  0  0  0  0  0  0  0  0
  143.1427  136.6825  152.9188 C   0  0  0  0  0  0  0  0  0  0  0  0
  147.9724  132.2571  151.5767 H   0  0  0  0  0  0  0  0  0  0  0  0
  147.2541  132.6556  153.1315 H   0  0  0  0  0  0  0  0  0  0  0  0
  147.0669  133.7518  151.7673 H   0  0  0  0  0  0  0  0  0  0  0  0
  145.5437  133.1062  149.7887 H   0  0  0  0  0  0  0  0  0  0  0  0
  144.7659  131.5282  149.7538 H   0  0  0  0  0  0  0  0  0  0  0  0
  146.5070  131.6483  149.5957 H   0  0  0  0  0  0  0  0  0  0  0  0
  146.7808  130.0111  151.6511 H   0  0  0  0  0  0  0  0  0  0  0  0
  145.0359  129.9117  151.7689 H   0  0  0  0  0  0  0  0  0  0  0  0
  145.9823  130.4065  153.1672 H   0  0  0  0  0  0  0  0  0  0  0  0
  144.1481  132.0566  152.9362 H   0  0  0  0  0  0  0  0  0  0  0  0
  142.9677  133.4184  153.6238 H   0  0  0  0  0  0  0  0  0  0  0  0
  140.8369  134.4190  154.0260 H   0  0  0  0  0  0  0  0  0  0  0  0
  139.5703  136.5241  154.3843 H   0  0  0  0  0  0  0  0  0  0  0  0
  138.8422  138.9710  152.5554 H   0  0  0  0  0  0  0  0  0  0  0  0
  138.6471  138.1854  154.1226 H   0  0  0  0  0  0  0  0  0  0  0  0
  138.4876  141.1090  153.4619 H   0  0  0  0  0  0  0  0  0  0  0  0
  137.6369  140.2179  154.7203 H   0  0  0  0  0  0  0  0  0  0  0  0
  140.1126  141.7308  154.9281 H   0  0  0  0  0  0  0  0  0  0  0  0
  139.3397  140.8421  156.2378 H   0  0  0  0  0  0  0  0  0  0  0  0
  140.6748  138.9482  155.8944 H   0  0  0  0  0  0  0  0  0  0  0  0
  141.7820  140.0943  155.1378 H   0  0  0  0  0  0  0  0  0  0  0  0
  144.1189  136.8472  152.4884 H   0  0  0  0  0  0  0  0  0  0  0  0
  142.8374  138.7011  152.8805 H   0  0  0  0  0  0  0  0  0  0  0  0
  1  2  1  0  0  0  0
  1 20  1  0  0  0  0
  1 21  1  0  0  0  0
  1 22  1  0  0  0  0
  2  3  1  0  0  0  0
  2  4  1  0  0  0  0
  2  5  1  0  0  0  0
  3 23  1  0  0  0  0
  3 24  1  0  0  0  0
  3 25  1  0  0  0  0
  4 26  1  0  0  0  0
  4 27  1  0  0  0  0
  4 28  1  0  0  0  0
  5  6  1  0  0  0  0
  5 29  1  0  0  0  0
  6  7  2  0  0  0  0
  6  8  1  0  0  0  0
  8  9  1  0  0  0  0
  8 30  1  0  0  0  0
  9 19  1  0  0  0  0
  9 10  2  0  0  0  0
 10 11  1  0  0  0  0
 10 31  1  0  0  0  0
 11 12  2  0  0  0  0
 11 32  1  0  0  0  0
 12 13  1  0  0  0  0
 12 18  1  0  0  0  0
 13 17  1  0  0  0  0
 13 14  1  0  0  0  0
 14 15  1  0  0  0  0
 14 33  1  0  0  0  0
 14 34  1  0  0  0  0
 15 16  1  0  0  0  0
 15 35  1  0  0  0  0
 15 36  1  0  0  0  0
 16 17  1  0  0  0  0
 16 37  1  0  0  0  0
 16 38  1  0  0  0  0
 17 39  1  0  0  0  0
 17 40  1  0  0  0  0
 18 19  2  0  0  0  0
 18 42  1  0  0  0  0
 19 41  1  0  0  0  0
M  CHG  1  18   1
M  END
> <s_m_source_file>
AV-unprocessed.smi

> <i_m_source_file_index>
2726

> <i_lp_mmshare_version>
43012

> <i_f3d_flags>
0

> <s_epik_input>
W0NIM11DKFtDSDNdKShbQ0gzXSlbTkhdQyg9TylbTkhdYzFbY0hdW2NIXWMobltjSF0xKU4yW0NIMl1bQ0gyXVtDSDJdW0NIMl0y

> <s_epik_cmdline>
J2VwaWtfcHl0aG9uJywgJy1waCcsICc3LjAnLCAnLXRuJywgJzgnLCAnLW1hJywgJzIwMCcsICctbWV0YWxfYmluZGluZycsICctaW1hZScsICc8aW5maWxlLm1hZT4nLCAnLW9tYWUnLCAnPG91dGZpbGUubWFlPic=

> <r_lp_tautomer_probability>
0.999994

> <r_epik_Ionization_Penalty>
1.07826

> <r_epik_Ionization_Penalty_Charging>
1.07824

> <r_epik_Ionization_Penalty_Neutral>
2.30307e-05

> <r_epik_State_Penalty>
1.13344

> <r_epik_Charging_Adjusted_Penalty>
2.21168

> <i_epik_Tot_Q>
1

> <i_epik_Tot_abs_Q>
1

> <r_epik_Metal_State_Penalty>
1.22394

> <b_epik_Metal_Only>
0

> <s_lp_Force_Field>
OPLS_2005

> <r_lp_Energy>
40.4449

> <b_lp_Chiralities_Consistent>
1

> <s_lp_Variant>
AV-unprocessed.smi:2726-2

> <Gold.Version>
5.8.1

> <Gold.Id.Protein>
6NUR|6NUR_protein|mol2

> <Gold.PLP.Fitness>
41.5720

> <Gold.PLP.PLP>
-34.3574

> <Gold.PLP.part.hbond>
-2.1625

> <Gold.PLP.part.metal>
0.0000

> <Gold.PLP.part.buried>
-6.6896

> <Gold.PLP.part.nonpolar>
-26.4585

> <Gold.PLP.part.repulsive>
0.9480

> <Gold.PLP.ligand.clash>
0.0000

> <Gold.PLP.ligand.torsion>
0.8293

> <Gold.PLP.Chemscore.Hbond>
2.9519

> <Gold.PLP.Chemscore.CHOScore>
0.0000

> <Gold.PLP.Chemscore.Metal>
0.0000

> <Gold.Chemscore.Hbonds>
donor molecule, donor type, donor heavy atom, donor atom, acceptor molecule, acceptor atom, score
      L1  H     5    29       P1 10957  0.04
      L1  H     8    30       P1 10957  0.99
      L1  H    18    42       P1 10175  2.00

> <Gold.PLP.Chemscore.Internal.Correction>
0.0175

> <Gold.Rescore>
     Score         DG    S(hbond)    S(metal)    S(lipo)     H(rot)  DE(clash)    DE(int)     intcor
     15.30     -17.32       1.91        0.00      72.64       1.18       0.02       2.00       ----

> <Gold.Chemscore.Fitness>
15.2964

> <Gold.Chemscore.DG>
-17.3195

> <Gold.Chemscore.ZeroCoef>
-5.4800

> <Gold.Chemscore.Hbond>
1.9068

> <Gold.Chemscore.Metal>
0.0000

> <Gold.Chemscore.Lipo>
72.6440

> <Gold.Chemscore.Internal_Hbond>
0.0000

> <Gold.Chemscore.DEClash>
0.0197

> <Gold.Chemscore.DEInternal>
2.0035

> <Gold.Chemscore.Rot>
1.1830

> <Gold.Chemscore.Internal.Correction>
   9.000000E+99

> <Gold.Chemscore.Hbonds>
donor molecule, donor type, donor heavy atom, donor atom, acceptor molecule, acceptor atom, score
      L1  H     8    30       P1 10957  0.92
      L1  H    18    42       P1 10175  0.99

> <Gold.Chemscore.Hbond.Weighted>
-6.3687

> <Gold.Chemscore.Metal.Weighted>
-0.0000

> <Gold.Chemscore.Lipo.Weighted>
-8.4994

> <Gold.Chemscore.Internal_Hbond.Weighted>
0.0000

> <Gold.Chemscore.DEClash.Weighted>
0.0197

> <Gold.Chemscore.DEInternal.Weighted>
2.0035

> <Gold.Chemscore.Rot.Weighted>
3.0285

> <Gold.Chemscore.Internal.Correction.Weighted>
   9.000000E+99

> <Gold.Protein.RotatedTorsions>
[ 6907 6896 6895 6894 ] final  -15.26 input  -60.11 | X-H torsion
[ 7974 7965 7964 7962 ] final  106.60 input  175.53 | X-H torsion
[ 8008 7997 7996 7995 ] final -140.78 input   59.86 | X-H torsion
[ 10167 10162 10161 10158 ] final  -59.34 input  -65.29 | X-H torsion
[ 10718 10713 10712 10709 ] final -138.63 input   66.30 | X-H torsion
[ 10763 10752 10751 10750 ] final  155.47 input  -60.55 | X-H torsion
[ 11005 11000 10999 10996 ] final  112.77 input  -57.11 | X-H torsion

> <Gold.Protein.ActiveResidues>
 VAL166  LYS551  ARG553  GLY616  TRP617  ASP618  TYR619  PRO620  LYS621  CYS622 
 ASP623  PHE694  ASN695  SER759  ASP760  ASP761  ALA762  ILE779  LEU786  VAL792 
 PHE793  MET794  SER795  GLU796  ALA797  LYS798  CYS799  TRP800  GLU811  SER814 

> <Gold.Protein.RotatedAtoms>
  151.3266  135.0831  159.9323 H   0  0  0  0  0  0  0  0  0  0  0  0  # atno 6907 bound_to 6896
  152.5244  133.9585  159.7716 H   0  0  0  0  0  0  0  0  0  0  0  0  # atno 6908 bound_to 6896
  150.9916  133.6092  159.2737 H   0  0  0  0  0  0  0  0  0  0  0  0  # atno 6909 bound_to 6896
  145.3045  139.2559  143.3796 H   0  0  0  0  0  0  0  0  0  0  0  0  # atno 7974 bound_to 7965
  155.4670  140.0550  157.2984 H   0  0  0  0  0  0  0  0  0  0  0  0  # atno 8008 bound_to 7997
  154.4714  140.2042  155.9940 H   0  0  0  0  0  0  0  0  0  0  0  0  # atno 8009 bound_to 7997
  156.1061  140.3211  155.8013 H   0  0  0  0  0  0  0  0  0  0  0  0  # atno 8010 bound_to 7997
  140.6141  143.2396  151.5638 H   0  0  0  0  0  0  0  0  0  0  0  0  # atno 10167 bound_to 10162
  156.3015  130.7431  151.1484 H   0  0  0  0  0  0  0  0  0  0  0  0  # atno 10718 bound_to 10713
  154.1689  135.2805  155.3087 H   0  0  0  0  0  0  0  0  0  0  0  0  # atno 10763 bound_to 10752
  154.6090  135.5505  153.7457 H   0  0  0  0  0  0  0  0  0  0  0  0  # atno 10764 bound_to 10752
  153.0170  135.6411  154.1829 H   0  0  0  0  0  0  0  0  0  0  0  0  # atno 10765 bound_to 10752
  139.8936  134.9537  156.6637 H   0  0  0  0  0  0  0  0  0  0  0  0  # atno 11005 bound_to 11000
  146.3140  140.3566  142.8661 LP  0  0  0  0  0  0  0  0  0  0  0  0  # atno 17320 bound_to 7965
  144.9066  140.7708  143.5833 LP  0  0  0  0  0  0  0  0  0  0  0  0  # atno 17321 bound_to 7965
  139.5385  144.2714  152.1301 LP  0  0  0  0  0  0  0  0  0  0  0  0  # atno 17342 bound_to 10162
  140.1920  144.4742  150.6474 LP  0  0  0  0  0  0  0  0  0  0  0  0  # atno 17343 bound_to 10162
  157.7369  131.0557  150.5386 LP  0  0  0  0  0  0  0  0  0  0  0  0  # atno 17370 bound_to 10713
  156.5514  130.4232  149.6106 LP  0  0  0  0  0  0  0  0  0  0  0  0  # atno 17371 bound_to 10713
  140.7427  133.8964  155.8289 LP  0  0  0  0  0  0  0  0  0  0  0  0  # atno 17394 bound_to 11000
  141.0065  134.1079  157.4265 LP  0  0  0  0  0  0  0  0  0  0  0  0  # atno 17395 bound_to 11000

$$$$
