AV-unprocessed.smi:750|AV-procd|sdf|3588|dock8
  -GOLD-   22720 0583D 1   1.00000     0.00000
 Structure written by MMmdl.
 23 24  0  0  0  0  0  0  0  0  1 V2000
  147.3524  137.1832  155.3365 C   0  0  0  0  0  0  0  0  0  0  0  0
  147.7264  138.4327  154.5139 C   0  0  1  0  0  0  0  0  0  0  0  0
  148.9898  139.1278  155.0452 C   0  0  0  0  0  0  0  0  0  0  0  0
  149.0359  139.6216  156.3700 C   0  0  0  0  0  0  0  0  0  0  0  0
  150.2051  140.2531  156.8339 C   0  0  0  0  0  0  0  0  0  0  0  0
  151.2969  140.3697  155.9537 C   0  0  0  0  0  0  0  0  0  0  0  0
  151.2763  139.9055  154.6873 N   0  0  0  0  0  0  0  0  0  0  0  0
  150.1500  139.3019  154.2507 C   0  0  0  0  0  0  0  0  0  0  0  0
  147.7913  138.0903  153.0982 N   0  0  0  0  0  0  0  0  0  0  0  0
  146.9107  138.7708  152.3519 C   0  0  0  0  0  0  0  0  0  0  0  0
  146.7748  138.6837  151.1340 O   0  0  0  0  0  0  0  0  0  0  0  0
  146.2011  139.5534  153.1691 N   0  0  0  0  0  0  0  0  0  0  0  0
  146.5684  139.4250  154.4428 C   0  0  0  0  0  0  0  0  0  0  0  0
  146.0674  139.9968  155.4099 O   0  0  0  0  0  0  0  0  0  0  0  0
  147.1658  137.4238  156.3834 H   0  0  0  0  0  0  0  0  0  0  0  0
  148.1525  136.4431  155.3070 H   0  0  0  0  0  0  0  0  0  0  0  0
  146.4506  136.7049  154.9512 H   0  0  0  0  0  0  0  0  0  0  0  0
  148.1846  139.5251  157.0272 H   0  0  0  0  0  0  0  0  0  0  0  0
  150.2623  140.6401  157.8403 H   0  0  0  0  0  0  0  0  0  0  0  0
  152.2100  140.8488  156.2747 H   0  0  0  0  0  0  0  0  0  0  0  0
  150.1925  138.9517  153.2304 H   0  0  0  0  0  0  0  0  0  0  0  0
  148.4502  137.4207  152.7281 H   0  0  0  0  0  0  0  0  0  0  0  0
  145.4577  140.1616  152.8583 H   0  0  0  0  0  0  0  0  0  0  0  0
  1  2  1  0  0  0  0
  1 15  1  0  0  0  0
  1 16  1  0  0  0  0
  1 17  1  0  0  0  0
  2 13  1  0  0  0  0
  2  3  1  0  0  0  0
  2  9  1  0  0  0  0
  3  8  1  0  0  0  0
  3  4  2  0  0  0  0
  4  5  1  0  0  0  0
  4 18  1  0  0  0  0
  5  6  2  0  0  0  0
  5 19  1  0  0  0  0
  6  7  1  0  0  0  0
  6 20  1  0  0  0  0
  7  8  2  0  0  0  0
  8 21  1  0  0  0  0
  9 10  1  0  0  0  0
  9 22  1  0  0  0  0
 10 11  2  0  0  0  0
 10 12  1  0  0  0  0
 12 13  1  0  0  0  0
 12 23  1  0  0  0  0
 13 14  2  0  0  0  0
M  END
> <s_m_source_file>
AV-unprocessed.smi

> <i_m_source_file_index>
750

> <i_lp_mmshare_version>
43012

> <i_f3d_flags>
0

> <s_epik_input>
Tz1DMVtOSF1DKD1PKVtOSF1bQ0BAXTEoW0NIM10pYzJbY0hdW2NIXVtjSF1uW2NIXTI=

> <s_epik_cmdline>
J2VwaWtfcHl0aG9uJywgJy1waCcsICc3LjAnLCAnLXRuJywgJzgnLCAnLW1hJywgJzIwMCcsICctbWV0YWxfYmluZGluZycsICctaW1hZScsICc8aW5maWxlLm1hZT4nLCAnLW9tYWUnLCAnPG91dGZpbGUubWFlPic=

> <r_lp_tautomer_probability>
1

> <r_epik_Ionization_Penalty>
0.0296909

> <r_epik_Ionization_Penalty_Charging>
0

> <r_epik_Ionization_Penalty_Neutral>
0.0296909

> <r_epik_State_Penalty>
0.022996

> <r_epik_Charging_Adjusted_Penalty>
0.022996

> <i_epik_Tot_Q>
0

> <i_epik_Tot_abs_Q>
0

> <r_epik_Metal_State_Penalty>
0.427807

> <b_epik_Metal_Only>
0

> <s_lp_Force_Field>
OPLS_2005

> <r_lp_Energy>
18.5111

> <b_lp_Chiralities_Consistent>
1

> <s_lp_Variant>
AV-unprocessed.smi:750-1

> <Gold.Version>
5.8.1

> <Gold.Id.Protein>
6NUR|6NUR_protein|mol2

> <Gold.PLP.Fitness>
33.1755

> <Gold.PLP.PLP>
-18.2235

> <Gold.PLP.part.hbond>
-4.1572

> <Gold.PLP.part.metal>
0.0000

> <Gold.PLP.part.buried>
-2.9380

> <Gold.PLP.part.nonpolar>
-11.9741

> <Gold.PLP.part.repulsive>
0.9644

> <Gold.PLP.ligand.clash>
0.0000

> <Gold.PLP.ligand.torsion>
0.0591

> <Gold.PLP.Chemscore.Hbond>
3.9840

> <Gold.PLP.Chemscore.CHOScore>
1.0000

> <Gold.PLP.Chemscore.Metal>
0.0000

> <Gold.Chemscore.Hbonds>
donor molecule, donor type, donor heavy atom, donor atom, acceptor molecule, acceptor atom, score
      L1  H     9    22       P1  7948  1.00
      L1  H    12    23       P1 10175  1.00
      P1  H  7954  7966       L1    11  0.99
      P1  H  7989  7998       L1     7  1.00
      L1  C     8    21       P1  7957  1.00

> <Gold.PLP.Chemscore.Internal.Correction>
0.1182

> <Gold.Rescore>
     Score         DG    S(hbond)    S(metal)    S(lipo)     H(rot)  DE(clash)    DE(int)     intcor
     17.23     -17.59       3.40        0.00      28.35       1.00       0.22       0.14       ----

> <Gold.Chemscore.Fitness>
17.2290

> <Gold.Chemscore.DG>
-17.5865

> <Gold.Chemscore.ZeroCoef>
-5.4800

> <Gold.Chemscore.Hbond>
3.3981

> <Gold.Chemscore.Metal>
0.0000

> <Gold.Chemscore.Lipo>
28.3486

> <Gold.Chemscore.Internal_Hbond>
0.0000

> <Gold.Chemscore.DEClash>
0.2181

> <Gold.Chemscore.DEInternal>
0.1394

> <Gold.Chemscore.Rot>
1.0000

> <Gold.Chemscore.Internal.Correction>
   9.000000E+99

> <Gold.Chemscore.Hbonds>
donor molecule, donor type, donor heavy atom, donor atom, acceptor molecule, acceptor atom, score
      L1  H     9    22       P1  7948  0.94
      L1  H    12    23       P1 10175  0.94
      P1  H  7954  7966       L1    11  0.88
      P1  H  7989  7998       L1     7  0.38

> <Gold.Chemscore.Hbond.Weighted>
-11.3497

> <Gold.Chemscore.Metal.Weighted>
-0.0000

> <Gold.Chemscore.Lipo.Weighted>
-3.3168

> <Gold.Chemscore.Internal_Hbond.Weighted>
0.0000

> <Gold.Chemscore.DEClash.Weighted>
0.2181

> <Gold.Chemscore.DEInternal.Weighted>
0.1394

> <Gold.Chemscore.Rot.Weighted>
2.5600

> <Gold.Chemscore.Internal.Correction.Weighted>
   9.000000E+99

> <Gold.Protein.RotatedTorsions>
[ 6907 6896 6895 6894 ] final -147.36 input  -60.11 | X-H torsion
[ 7974 7965 7964 7962 ] final   16.00 input  175.53 | X-H torsion
[ 8008 7997 7996 7995 ] final  -24.08 input   59.86 | X-H torsion
[ 10167 10162 10161 10158 ] final  -97.34 input  -65.29 | X-H torsion
[ 10718 10713 10712 10709 ] final -143.78 input   66.30 | X-H torsion
[ 10763 10752 10751 10750 ] final  109.85 input  -60.55 | X-H torsion
[ 11005 11000 10999 10996 ] final   79.77 input  -57.11 | X-H torsion

> <Gold.Protein.ActiveResidues>
 VAL166  LYS551  ARG553  GLY616  TRP617  ASP618  TYR619  PRO620  LYS621  CYS622 
 ASP623  PHE694  ASN695  SER759  ASP760  ASP761  ALA762  ILE779  LEU786  VAL792 
 PHE793  MET794  SER795  GLU796  ALA797  LYS798  CYS799  TRP800  GLU811  SER814 

> <Gold.Protein.RotatedAtoms>
  151.1546  133.4884  159.2594 H   0  0  0  0  0  0  0  0  0  0  0  0  # atno 6907 bound_to 6896
  151.1517  135.0230  159.8681 H   0  0  0  0  0  0  0  0  0  0  0  0  # atno 6908 bound_to 6896
  152.5463  134.1430  159.8540 H   0  0  0  0  0  0  0  0  0  0  0  0  # atno 6909 bound_to 6896
  146.2262  139.8812  142.8570 H   0  0  0  0  0  0  0  0  0  0  0  0  # atno 7974 bound_to 7965
  154.4549  140.1963  156.0409 H   0  0  0  0  0  0  0  0  0  0  0  0  # atno 8008 bound_to 7997
  156.0725  140.3282  155.7566 H   0  0  0  0  0  0  0  0  0  0  0  0  # atno 8009 bound_to 7997
  155.5240  140.0572  157.2892 H   0  0  0  0  0  0  0  0  0  0  0  0  # atno 8010 bound_to 7997
  140.2844  143.3261  152.0409 H   0  0  0  0  0  0  0  0  0  0  0  0  # atno 10167 bound_to 10162
  156.3621  130.7744  151.1913 H   0  0  0  0  0  0  0  0  0  0  0  0  # atno 10718 bound_to 10713
  153.4406  135.3767  155.2225 H   0  0  0  0  0  0  0  0  0  0  0  0  # atno 10763 bound_to 10752
  154.8753  135.3862  154.4157 H   0  0  0  0  0  0  0  0  0  0  0  0  # atno 10764 bound_to 10752
  153.4703  135.7087  153.6061 H   0  0  0  0  0  0  0  0  0  0  0  0  # atno 10765 bound_to 10752
  139.9160  134.7869  156.1822 H   0  0  0  0  0  0  0  0  0  0  0  0  # atno 11005 bound_to 11000
  145.2511  141.0044  143.3881 LP  0  0  0  0  0  0  0  0  0  0  0  0  # atno 17320 bound_to 7965
  144.9374  139.4228  143.6465 LP  0  0  0  0  0  0  0  0  0  0  0  0  # atno 17321 bound_to 7965
  139.4954  144.6569  151.6552 LP  0  0  0  0  0  0  0  0  0  0  0  0  # atno 17342 bound_to 10162
  140.5785  143.9987  150.6255 LP  0  0  0  0  0  0  0  0  0  0  0  0  # atno 17343 bound_to 10162
  157.7475  131.0397  150.4562 LP  0  0  0  0  0  0  0  0  0  0  0  0  # atno 17370 bound_to 10713
  156.4774  130.4066  149.6481 LP  0  0  0  0  0  0  0  0  0  0  0  0  # atno 17371 bound_to 10713
  141.0635  133.6830  156.1999 LP  0  0  0  0  0  0  0  0  0  0  0  0  # atno 17394 bound_to 11000
  140.6623  134.4955  157.5584 LP  0  0  0  0  0  0  0  0  0  0  0  0  # atno 17395 bound_to 11000

$$$$
