AV-unprocessed.smi:1223|AV-procd|sdf|5126|dock1
  -GOLD-   22720 4183D 1   1.00000     0.00000
 Structure written by MMmdl.
 33 34  0  0  0  0  0  0  0  0  1 V2000
  151.6644  140.7294  155.5648 O   0  0  0  0  0  0  0  0  0  0  0  0
  150.5957  140.3941  156.0744 C   0  0  0  0  0  0  0  0  0  0  0  0
  149.6317  139.4884  155.3037 C   0  0  0  0  0  0  0  0  0  0  0  0
  148.6694  140.2568  154.5319 N   0  0  0  0  0  0  0  0  0  0  0  0
  148.4959  141.6251  154.4963 C   0  0  0  0  0  0  0  0  0  0  0  0
  147.4655  141.8826  153.6384 C   0  0  0  0  0  0  0  0  0  0  0  0
  147.0691  140.5918  153.1895 C   0  0  0  0  0  0  0  0  0  0  0  0
  147.7914  139.6211  153.7251 N   0  0  0  0  0  0  0  0  0  0  0  0
  150.2028  140.7935  157.2958 N   0  0  0  0  0  0  0  0  0  0  0  0
  150.9616  141.6656  158.1923 C   0  0  2  0  0  0  0  0  0  0  0  0
  151.1488  143.0301  157.4836 C   0  0  0  0  0  0  0  0  0  0  0  0
  152.2271  143.9660  158.0741 C   0  0  0  0  0  0  0  0  0  0  0  0
  152.2412  144.0551  159.6138 C   0  0  0  0  0  0  0  0  0  0  0  0
  152.5409  142.7428  160.3853 C   0  0  0  0  0  0  0  0  0  0  0  0
  153.0182  141.6333  159.5590 N   0  0  0  0  0  0  0  0  0  0  0  0
  152.3420  141.0689  158.5442 C   0  0  0  0  0  0  0  0  0  0  0  0
  152.8146  140.1328  157.9002 O   0  0  0  0  0  0  0  0  0  0  0  0
  150.1978  138.8470  154.6273 H   0  0  0  0  0  0  0  0  0  0  0  0
  149.0957  138.8345  155.9933 H   0  0  0  0  0  0  0  0  0  0  0  0
  149.1112  142.2933  155.0806 H   0  0  0  0  0  0  0  0  0  0  0  0
  147.0571  142.8460  153.3719 H   0  0  0  0  0  0  0  0  0  0  0  0
  146.2833  140.3330  152.4954 H   0  0  0  0  0  0  0  0  0  0  0  0
  149.3051  140.4745  157.6291 H   0  0  0  0  0  0  0  0  0  0  0  0
  150.3822  141.8078  159.1059 H   0  0  0  0  0  0  0  0  0  0  0  0
  151.3827  142.8742  156.4292 H   0  0  0  0  0  0  0  0  0  0  0  0
  150.1905  143.5510  157.4961 H   0  0  0  0  0  0  0  0  0  0  0  0
  153.2130  143.6575  157.7236 H   0  0  0  0  0  0  0  0  0  0  0  0
  152.0821  144.9650  157.6616 H   0  0  0  0  0  0  0  0  0  0  0  0
  152.9918  144.7942  159.8957 H   0  0  0  0  0  0  0  0  0  0  0  0
  151.2914  144.4635  159.9606 H   0  0  0  0  0  0  0  0  0  0  0  0
  153.2896  142.9368  161.1536 H   0  0  0  0  0  0  0  0  0  0  0  0
  151.6512  142.4171  160.9257 H   0  0  0  0  0  0  0  0  0  0  0  0
  153.9273  141.2557  159.7843 H   0  0  0  0  0  0  0  0  0  0  0  0
  1  2  2  0  0  0  0
  2  3  1  0  0  0  0
  2  9  1  0  0  0  0
  3  4  1  0  0  0  0
  3 18  1  0  0  0  0
  3 19  1  0  0  0  0
  4  8  1  0  0  0  0
  4  5  1  0  0  0  0
  5  6  2  0  0  0  0
  5 20  1  0  0  0  0
  6  7  1  0  0  0  0
  6 21  1  0  0  0  0
  7  8  2  0  0  0  0
  7 22  1  0  0  0  0
  9 10  1  0  0  0  0
  9 23  1  0  0  0  0
 10 16  1  0  0  0  0
 10 11  1  0  0  0  0
 10 24  1  0  0  0  0
 11 12  1  0  0  0  0
 11 25  1  0  0  0  0
 11 26  1  0  0  0  0
 12 13  1  0  0  0  0
 12 27  1  0  0  0  0
 12 28  1  0  0  0  0
 13 14  1  0  0  0  0
 13 29  1  0  0  0  0
 13 30  1  0  0  0  0
 14 15  1  0  0  0  0
 14 31  1  0  0  0  0
 14 32  1  0  0  0  0
 15 16  1  0  0  0  0
 15 33  1  0  0  0  0
 16 17  2  0  0  0  0
M  END
> <s_m_source_file>
AV-unprocessed.smi

> <i_m_source_file_index>
1223

> <i_lp_mmshare_version>
43012

> <i_f3d_flags>
0

> <s_epik_input>
bjFbY0hdW2NIXVtjSF1uMVtDSDJdQyg9TylbTkhdW0NAQEhdMltDSDJdW0NIMl1bQ0gyXVtDSDJdW05IXUMyPU8=

> <s_epik_cmdline>
J2VwaWtfcHl0aG9uJywgJy1waCcsICc3LjAnLCAnLXRuJywgJzgnLCAnLW1hJywgJzIwMCcsICctbWV0YWxfYmluZGluZycsICctaW1hZScsICc8aW5maWxlLm1hZT4nLCAnLW9tYWUnLCAnPG91dGZpbGUubWFlPic=

> <r_lp_tautomer_probability>
1

> <r_epik_Ionization_Penalty>
1.16214e-05

> <r_epik_Ionization_Penalty_Charging>
0

> <r_epik_Ionization_Penalty_Neutral>
1.16214e-05

> <r_epik_State_Penalty>
-0

> <r_epik_Charging_Adjusted_Penalty>
0

> <i_epik_Tot_Q>
0

> <i_epik_Tot_abs_Q>
0

> <r_epik_Metal_State_Penalty>
-0

> <b_epik_Metal_Only>
0

> <s_lp_Force_Field>
OPLS_2005

> <r_lp_Energy>
15.4059

> <b_lp_Chiralities_Consistent>
1

> <s_lp_Variant>
AV-unprocessed.smi:1223-1

> <Gold.Version>
5.8.1

> <Gold.Id.Protein>
6NUR|6NUR_protein|mol2

> <Gold.PLP.Fitness>
44.6970

> <Gold.PLP.PLP>
-34.4576

> <Gold.PLP.part.hbond>
-2.0000

> <Gold.PLP.part.metal>
0.0000

> <Gold.PLP.part.buried>
-3.2936

> <Gold.PLP.part.nonpolar>
-29.4646

> <Gold.PLP.part.repulsive>
0.3101

> <Gold.PLP.ligand.clash>
0.0000

> <Gold.PLP.ligand.torsion>
0.3894

> <Gold.PLP.Chemscore.Hbond>
1.6720

> <Gold.PLP.Chemscore.CHOScore>
2.0000

> <Gold.PLP.Chemscore.Metal>
0.0000

> <Gold.Chemscore.Hbonds>
donor molecule, donor type, donor heavy atom, donor atom, acceptor molecule, acceptor atom, score
      P1  H  7989  7998       L1     1  0.62
      P1  H  7997  8008       L1    17  1.00
      L1  C     5    20       P1  8028  1.00
      L1  C     7    22       P1 10175  0.84

> <Gold.PLP.Chemscore.Internal.Correction>
0.0024

> <Gold.Rescore>
     Score         DG    S(hbond)    S(metal)    S(lipo)     H(rot)  DE(clash)    DE(int)     intcor
     12.27     -16.46       1.69        0.00      80.12       1.58       0.05       4.14       ----

> <Gold.Chemscore.Fitness>
12.2683

> <Gold.Chemscore.DG>
-16.4648

> <Gold.Chemscore.ZeroCoef>
-5.4800

> <Gold.Chemscore.Hbond>
1.6928

> <Gold.Chemscore.Metal>
0.0000

> <Gold.Chemscore.Lipo>
80.1175

> <Gold.Chemscore.Internal_Hbond>
0.0000

> <Gold.Chemscore.DEClash>
0.0545

> <Gold.Chemscore.DEInternal>
4.1420

> <Gold.Chemscore.Rot>
1.5792

> <Gold.Chemscore.Internal.Correction>
   9.000000E+99

> <Gold.Chemscore.Hbonds>
donor molecule, donor type, donor heavy atom, donor atom, acceptor molecule, acceptor atom, score
      P1  H  7989  7998       L1     1  0.55
      P1  H  7997  8008       L1    17  0.95

> <Gold.Chemscore.Hbond.Weighted>
-5.6539

> <Gold.Chemscore.Metal.Weighted>
-0.0000

> <Gold.Chemscore.Lipo.Weighted>
-9.3737

> <Gold.Chemscore.Internal_Hbond.Weighted>
0.0000

> <Gold.Chemscore.DEClash.Weighted>
0.0545

> <Gold.Chemscore.DEInternal.Weighted>
4.1420

> <Gold.Chemscore.Rot.Weighted>
4.0428

> <Gold.Chemscore.Internal.Correction.Weighted>
   9.000000E+99

> <Gold.Protein.RotatedTorsions>
[ 6907 6896 6895 6894 ] final   68.24 input  -60.11 | X-H torsion
[ 7974 7965 7964 7962 ] final   35.74 input  175.53 | X-H torsion
[ 8008 7997 7996 7995 ] final  -77.03 input   59.86 | X-H torsion
[ 10167 10162 10161 10158 ] final  116.11 input  -65.29 | X-H torsion
[ 10718 10713 10712 10709 ] final  -71.47 input   66.30 | X-H torsion
[ 10763 10752 10751 10750 ] final  -30.39 input  -60.55 | X-H torsion
[ 11005 11000 10999 10996 ] final  -59.74 input  -57.11 | X-H torsion

> <Gold.Protein.ActiveResidues>
 VAL166  LYS551  ARG553  GLY616  TRP617  ASP618  TYR619  PRO620  LYS621  CYS622 
 ASP623  PHE694  ASN695  SER759  ASP760  ASP761  ALA762  ILE779  LEU786  VAL792 
 PHE793  MET794  SER795  GLU796  ALA797  LYS798  CYS799  TRP800  GLU811  SER814 

> <Gold.Protein.RotatedAtoms>
  152.4607  134.5191  159.9776 H   0  0  0  0  0  0  0  0  0  0  0  0  # atno 6907 bound_to 6896
  151.5240  133.3455  159.2914 H   0  0  0  0  0  0  0  0  0  0  0  0  # atno 6908 bound_to 6896
  150.8569  134.7939  159.7115 H   0  0  0  0  0  0  0  0  0  0  0  0  # atno 6909 bound_to 6896
  146.1261  139.6104  142.9257 H   0  0  0  0  0  0  0  0  0  0  0  0  # atno 7974 bound_to 7965
  154.5559  140.0717  156.8742 H   0  0  0  0  0  0  0  0  0  0  0  0  # atno 8008 bound_to 7997
  155.2904  140.3377  155.4234 H   0  0  0  0  0  0  0  0  0  0  0  0  # atno 8009 bound_to 7997
  156.2001  140.1718  156.7902 H   0  0  0  0  0  0  0  0  0  0  0  0  # atno 8010 bound_to 7997
  139.6270  144.7110  151.2513 H   0  0  0  0  0  0  0  0  0  0  0  0  # atno 10167 bound_to 10162
  156.0361  130.4352  150.2449 H   0  0  0  0  0  0  0  0  0  0  0  0  # atno 10718 bound_to 10713
  153.7802  135.6905  153.4890 H   0  0  0  0  0  0  0  0  0  0  0  0  # atno 10763 bound_to 10752
  153.1816  135.4504  155.0034 H   0  0  0  0  0  0  0  0  0  0  0  0  # atno 10764 bound_to 10752
  154.8084  135.3367  154.7306 H   0  0  0  0  0  0  0  0  0  0  0  0  # atno 10765 bound_to 10752
  141.1260  133.6618  156.5117 H   0  0  0  0  0  0  0  0  0  0  0  0  # atno 11005 bound_to 11000
  145.5362  141.0424  143.2356 LP  0  0  0  0  0  0  0  0  0  0  0  0  # atno 17320 bound_to 7965
  144.7644  139.6880  143.7221 LP  0  0  0  0  0  0  0  0  0  0  0  0  # atno 17321 bound_to 7965
  140.7416  143.6550  150.8214 LP  0  0  0  0  0  0  0  0  0  0  0  0  # atno 17342 bound_to 10162
  140.0170  143.5583  152.2816 LP  0  0  0  0  0  0  0  0  0  0  0  0  # atno 17343 bound_to 10162
  157.0548  131.0073  151.3242 LP  0  0  0  0  0  0  0  0  0  0  0  0  # atno 17370 bound_to 10713
  157.5114  130.7940  149.7709 LP  0  0  0  0  0  0  0  0  0  0  0  0  # atno 17371 bound_to 10713
  140.4364  134.7055  157.4969 LP  0  0  0  0  0  0  0  0  0  0  0  0  # atno 17394 bound_to 11000
  140.0259  134.6478  155.9174 LP  0  0  0  0  0  0  0  0  0  0  0  0  # atno 17395 bound_to 11000

$$$$
