#       Name:                AV-unprocessed.smi:630
#       Creating user name   scv26
#       Creation time:       Fri Mar 27 00:04:44 2020


#       File generated by GOLD software.
#

@<TRIPOS>MOLECULE
AV-unprocessed.smi:630
    42    43     1
SMALL
NO_CHARGES


@<TRIPOS>ATOM
      1 ****         0.7206  -2.1609   1.8453 N.am           1 S1                 0.0000
      2 ****        -0.0876  -2.1713   0.7816 C.2            1 S1                 0.0000
      3 ****        -0.1143  -3.1171  -0.0044 O.2            1 S1                 0.0000
      4 ****        -0.9951  -0.9387   0.5773 C.3            1 S1                 0.0000
      5 ****        -2.4821  -1.3794   0.6122 C.3            1 S1                 0.0000
      6 ****        -3.4971  -0.4457  -0.0673 C.3            1 S1                 0.0000
      7 ****        -3.6072  -0.6881  -1.5820 C.3            1 S1                 0.0000
      8 ****        -2.4574  -0.0978  -2.4089 C.3            1 S1                 0.0000
      9 ****        -1.0528  -0.5918  -2.0228 C.3            1 S1                 0.0000
     10 ****        -0.5800  -0.0621  -0.6503 C.3            1 S1                 0.0000
     11 ****         0.8702   0.1598  -0.6939 N.am           1 S1                 0.0000
     12 ****         1.5770   0.9822   0.0966 C.2            1 S1                 0.0000
     13 ****         1.0021   1.6613   0.9505 O.2            1 S1                 0.0000
     14 ****         2.9080   0.9538  -0.1412 N.pl3          1 S1                -1.0000
     15 ****         3.7420   1.6805   0.6201 C.2            1 S1                 0.0000
     16 ****         4.2676   2.8449   0.2227 N.2            1 S1                 0.0000
     17 ****         5.1144   3.4237   1.1699 C.2            1 S1                 0.0000
     18 ****         5.2422   2.6790   2.3122 C.2            1 S1                 0.0000
     19 ****         4.2981   1.2191   2.2315 S.3            1 S1                 0.0000
     20 ****         1.3556  -2.9300   2.0009 H              1 S1                 0.0000
     21 ****         0.7169  -1.3684   2.4710 H              1 S1                 0.0000
     22 ****        -0.8562  -0.2978   1.4500 H              1 S1                 0.0000
     23 ****        -2.6086  -2.3806   0.1975 H              1 S1                 0.0000
     24 ****        -2.7665  -1.4773   1.6608 H              1 S1                 0.0000
     25 ****        -4.4761  -0.6505   0.3675 H              1 S1                 0.0000
     26 ****        -3.2891   0.6010   0.1568 H              1 S1                 0.0000
     27 ****        -3.6963  -1.7565  -1.7824 H              1 S1                 0.0000
     28 ****        -4.5384  -0.2448  -1.9367 H              1 S1                 0.0000
     29 ****        -2.6333  -0.3401  -3.4575 H              1 S1                 0.0000
     30 ****        -2.4891   0.9909  -2.3514 H              1 S1                 0.0000
     31 ****        -1.0014  -1.6795  -2.0683 H              1 S1                 0.0000
     32 ****        -0.3714  -0.2347  -2.7966 H              1 S1                 0.0000
     33 ****        -1.0212   0.9274  -0.5191 H              1 S1                 0.0000
     34 ****         1.3874  -0.3745  -1.3767 H              1 S1                 0.0000
     35 ****         5.5863   4.3686   0.9463 H              1 S1                 0.0000
     36 ****         5.8314   2.8968   3.1899 H              1 S1                 0.0000
     37 ****         0.4801  -3.9075   0.1440 LP             1 S1                 0.0000
     38 ****        -0.7303  -3.0956  -0.7918 LP             1 S1                 0.0000
     39 ****         0.0094   1.5991   1.0537 LP             1 S1                 0.0000
     40 ****         1.5287   2.2742   1.5396 LP             1 S1                 0.0000
     41 ****         3.2712   0.3915  -0.8841 LP             1 S1                 0.0000
     42 ****         4.0730   3.2601  -0.6660 LP             1 S1                 0.0000
@<TRIPOS>BOND
    1    1    2 am    
    2    1   20 1     
    3    1   21 1     
    4    2    3 2     
    5    2    4 1     
    6    4   10 1     
    7    4    5 1     
    8    4   22 1     
    9    5    6 1     
   10    5   23 1     
   11    5   24 1     
   12    6    7 1     
   13    6   25 1     
   14    6   26 1     
   15    7    8 1     
   16    7   27 1     
   17    7   28 1     
   18    8    9 1     
   19    8   29 1     
   20    8   30 1     
   21    9   10 1     
   22    9   31 1     
   23    9   32 1     
   24   10   11 1     
   25   10   33 1     
   26   11   12 am    
   27   11   34 1     
   28   12   13 2     
   29   12   14 1     
   30   14   15 1     
   31   15   19 1     
   32   15   16 2     
   33   16   17 1     
   34   17   18 2     
   35   17   35 1     
   36   18   19 1     
   37   18   36 1     
   38    3   37 1     
   39    3   38 1     
   40   13   39 1     
   41   13   40 1     
   42   14   41 1     
   43   16   42 1     
@<TRIPOS>SUBSTRUCTURE
      1 S1             1
@<TRIPOS>SET
LONE_PAIRS      STATIC     ATOMS    <user>   **** ""
6 37 38 39 40 41 42
DONOR_HYDROGENS      STATIC     ATOMS    <user>   **** ""
3 20 21 34
ATOM$BLUE        STATIC     ATOMS    COLORGROUP SYSTEM
6 37 38 39 40 41 42
ATOM$RED        STATIC     ATOMS    COLORGROUP SYSTEM
3 20 21 34
