AV-unprocessed.smi:634|AV-procd|sdf|3134|dock5
  -GOLD-   22720 0 63D 1   1.00000     0.00000
 Structure written by MMmdl.
 33 34  0  0  0  0  0  0  0  0  1 V2000
  148.1444  130.0468  153.3307 C   0  0  0  0  0  0  0  0  0  0  0  0
  148.4322  131.4002  153.8844 C   0  0  0  0  0  0  0  0  0  0  0  0
  148.6336  132.6205  153.3029 C   0  0  0  0  0  0  0  0  0  0  0  0
  148.8571  133.4730  154.4169 C   0  0  0  0  0  0  0  0  0  0  0  0
  149.1095  134.8571  154.2362 N   0  0  0  0  0  0  0  0  0  0  0  0
  149.3239  135.7820  155.1875 C   0  0  0  0  0  0  0  0  0  0  0  0
  149.3499  135.5567  156.3974 O   0  0  0  0  0  0  0  0  0  0  0  0
  149.5091  136.9977  154.6457 N   0  0  0  0  0  0  0  0  0  0  0  0
  149.7669  138.2713  155.3331 C   0  0  2  0  0  0  0  0  0  0  0  0
  148.4489  139.0470  155.5447 C   0  0  0  0  0  0  0  0  0  0  0  0
  150.7189  139.0929  154.4304 C   0  0  0  0  0  0  0  0  0  0  0  0
  152.1441  138.5387  154.5424 C   0  0  0  0  0  0  0  0  0  0  0  0
  152.3064  137.9466  156.2649 S   0  0  0  0  0  0  0  0  0  0  0  0
  152.7295  136.5382  156.2466 O   0  0  0  0  0  0  0  0  0  0  0  0
  153.0330  138.9461  157.0624 O   0  0  0  0  0  0  0  0  0  0  0  0
  150.5195  138.0460  156.6668 C   0  0  0  0  0  0  0  0  0  0  0  0
  148.7975  132.8310  155.5736 N   0  0  0  0  0  0  0  0  0  0  0  0
  148.5256  131.4995  155.2382 O   0  0  0  0  0  0  0  0  0  0  0  0
  147.8164  130.1118  152.2932 H   0  0  0  0  0  0  0  0  0  0  0  0
  147.3585  129.5528  153.9022 H   0  0  0  0  0  0  0  0  0  0  0  0
  149.0344  129.4187  153.3658 H   0  0  0  0  0  0  0  0  0  0  0  0
  148.6219  132.8606  152.2500 H   0  0  0  0  0  0  0  0  0  0  0  0
  149.1205  135.1783  153.2797 H   0  0  0  0  0  0  0  0  0  0  0  0
  149.4671  137.0532  153.6386 H   0  0  0  0  0  0  0  0  0  0  0  0
  148.6357  140.0386  155.9583 H   0  0  0  0  0  0  0  0  0  0  0  0
  147.7802  138.5368  156.2378 H   0  0  0  0  0  0  0  0  0  0  0  0
  147.9131  139.1812  154.6045 H   0  0  0  0  0  0  0  0  0  0  0  0
  150.3830  139.1210  153.3930 H   0  0  0  0  0  0  0  0  0  0  0  0
  150.7339  140.1274  154.7763 H   0  0  0  0  0  0  0  0  0  0  0  0
  152.2846  137.6865  153.8775 H   0  0  0  0  0  0  0  0  0  0  0  0
  152.9107  139.2822  154.3241 H   0  0  0  0  0  0  0  0  0  0  0  0
  150.3885  138.9027  157.3286 H   0  0  0  0  0  0  0  0  0  0  0  0
  150.2125  137.1579  157.2183 H   0  0  0  0  0  0  0  0  0  0  0  0
  1  2  1  0  0  0  0
  1 19  1  0  0  0  0
  1 20  1  0  0  0  0
  1 21  1  0  0  0  0
  2 18  1  0  0  0  0
  2  3  2  0  0  0  0
  3  4  1  0  0  0  0
  3 22  1  0  0  0  0
  4  5  1  0  0  0  0
  4 17  2  0  0  0  0
  5  6  1  0  0  0  0
  5 23  1  0  0  0  0
  6  7  2  0  0  0  0
  6  8  1  0  0  0  0
  8  9  1  0  0  0  0
  8 24  1  0  0  0  0
  9 16  1  0  0  0  0
  9 10  1  0  0  0  0
  9 11  1  0  0  0  0
 10 25  1  0  0  0  0
 10 26  1  0  0  0  0
 10 27  1  0  0  0  0
 11 12  1  0  0  0  0
 11 28  1  0  0  0  0
 11 29  1  0  0  0  0
 12 13  1  0  0  0  0
 12 30  1  0  0  0  0
 12 31  1  0  0  0  0
 13 14  2  0  0  0  0
 13 15  2  0  0  0  0
 13 16  1  0  0  0  0
 16 32  1  0  0  0  0
 16 33  1  0  0  0  0
 17 18  1  0  0  0  0
M  END
> <s_m_source_file>
AV-unprocessed.smi

> <i_m_source_file_index>
634

> <i_lp_mmshare_version>
43012

> <i_f3d_flags>
0

> <s_epik_input>
W0NIM11jMVtjSF1jKG5vMSlbTkhdQyg9TylbTkhdW0NAQF0yKFtDSDNdKVtDSDJdW0NIMl1TKD1PKSg9TylbQ0gyXTI=

> <s_epik_cmdline>
J2VwaWtfcHl0aG9uJywgJy1waCcsICc3LjAnLCAnLXRuJywgJzgnLCAnLW1hJywgJzIwMCcsICctbWV0YWxfYmluZGluZycsICctaW1hZScsICc8aW5maWxlLm1hZT4nLCAnLW9tYWUnLCAnPG91dGZpbGUubWFlPic=

> <r_lp_tautomer_probability>
1

> <r_epik_Ionization_Penalty>
3.87281e-05

> <r_epik_Ionization_Penalty_Charging>
0

> <r_epik_Ionization_Penalty_Neutral>
3.87281e-05

> <r_epik_State_Penalty>
-0

> <r_epik_Charging_Adjusted_Penalty>
0

> <i_epik_Tot_Q>
0

> <i_epik_Tot_abs_Q>
0

> <r_epik_Metal_State_Penalty>
0.0249287

> <b_epik_Metal_Only>
0

> <s_lp_Force_Field>
OPLS_2005

> <r_lp_Energy>
3.31823

> <b_lp_Chiralities_Consistent>
1

> <s_lp_Variant>
AV-unprocessed.smi:634-2

> <Gold.Version>
5.8.1

> <Gold.Id.Protein>
6NUR|6NUR_protein|mol2

> <Gold.PLP.Fitness>
33.8981

> <Gold.PLP.PLP>
-22.9617

> <Gold.PLP.part.hbond>
-4.0000

> <Gold.PLP.part.metal>
0.0000

> <Gold.PLP.part.buried>
-2.7644

> <Gold.PLP.part.nonpolar>
-16.5911

> <Gold.PLP.part.repulsive>
0.0431

> <Gold.PLP.ligand.clash>
0.0000

> <Gold.PLP.ligand.torsion>
0.5387

> <Gold.PLP.Chemscore.Hbond>
4.0000

> <Gold.PLP.Chemscore.CHOScore>
0.0000

> <Gold.PLP.Chemscore.Metal>
0.0000

> <Gold.Chemscore.Hbonds>
donor molecule, donor type, donor heavy atom, donor atom, acceptor molecule, acceptor atom, score
      L1  H     5    23       P1  7948  0.95
      L1  H     8    24       P1  7948  1.00
      P1  H  7997  8009       L1    15  1.00
      P1  H 10752 10763       L1    14  0.99

> <Gold.PLP.Chemscore.Internal.Correction>
0.0139

> <Gold.Rescore>
     Score         DG    S(hbond)    S(metal)    S(lipo)     H(rot)  DE(clash)    DE(int)     intcor
     15.85     -19.08       3.32        0.00      43.37       1.00       0.01       3.22       ----

> <Gold.Chemscore.Fitness>
15.8477

> <Gold.Chemscore.DG>
-19.0792

> <Gold.Chemscore.ZeroCoef>
-5.4800

> <Gold.Chemscore.Hbond>
3.3189

> <Gold.Chemscore.Metal>
0.0000

> <Gold.Chemscore.Lipo>
43.3686

> <Gold.Chemscore.Internal_Hbond>
0.0000

> <Gold.Chemscore.DEClash>
0.0067

> <Gold.Chemscore.DEInternal>
3.2248

> <Gold.Chemscore.Rot>
1.0000

> <Gold.Chemscore.Internal.Correction>
   9.000000E+99

> <Gold.Chemscore.Hbonds>
donor molecule, donor type, donor heavy atom, donor atom, acceptor molecule, acceptor atom, score
      L1  H     5    23       P1  7948  0.22
      L1  H     8    24       P1  7948  0.84
      P1  H  7997  8009       L1    15  0.99
      P1  H 10752 10763       L1    14  0.94

> <Gold.Chemscore.Hbond.Weighted>
-11.0851

> <Gold.Chemscore.Metal.Weighted>
-0.0000

> <Gold.Chemscore.Lipo.Weighted>
-5.0741

> <Gold.Chemscore.Internal_Hbond.Weighted>
0.0000

> <Gold.Chemscore.DEClash.Weighted>
0.0067

> <Gold.Chemscore.DEInternal.Weighted>
3.2248

> <Gold.Chemscore.Rot.Weighted>
2.5600

> <Gold.Chemscore.Internal.Correction.Weighted>
   9.000000E+99

> <Gold.Protein.RotatedTorsions>
[ 6907 6896 6895 6894 ] final  174.06 input  -60.11 | X-H torsion
[ 7974 7965 7964 7962 ] final  -82.46 input  175.53 | X-H torsion
[ 8008 7997 7996 7995 ] final  162.42 input   59.86 | X-H torsion
[ 10167 10162 10161 10158 ] final -175.47 input  -65.29 | X-H torsion
[ 10718 10713 10712 10709 ] final  111.05 input   66.30 | X-H torsion
[ 10763 10752 10751 10750 ] final   93.98 input  -60.55 | X-H torsion
[ 11005 11000 10999 10996 ] final  -96.23 input  -57.11 | X-H torsion

> <Gold.Protein.ActiveResidues>
 VAL166  LYS551  ARG553  GLY616  TRP617  ASP618  TYR619  PRO620  LYS621  CYS622 
 ASP623  PHE694  ASN695  SER759  ASP760  ASP761  ALA762  ILE779  LEU786  VAL792 
 PHE793  MET794  SER795  GLU796  ALA797  LYS798  CYS799  TRP800  GLU811  SER814 

> <Gold.Protein.RotatedAtoms>
  151.7583  133.3332  159.3410 H   0  0  0  0  0  0  0  0  0  0  0  0  # atno 6907 bound_to 6896
  150.7508  134.6129  159.6105 H   0  0  0  0  0  0  0  0  0  0  0  0  # atno 6908 bound_to 6896
  152.3422  134.7121  160.0312 H   0  0  0  0  0  0  0  0  0  0  0  0  # atno 6909 bound_to 6896
  145.5330  140.9519  143.1592 H   0  0  0  0  0  0  0  0  0  0  0  0  # atno 7974 bound_to 7965
  156.2032  140.1751  156.7855 H   0  0  0  0  0  0  0  0  0  0  0  0  # atno 8008 bound_to 7997
  154.5620  140.0698  156.8863 H   0  0  0  0  0  0  0  0  0  0  0  0  # atno 8009 bound_to 7997
  155.2831  140.3350  155.4259 H   0  0  0  0  0  0  0  0  0  0  0  0  # atno 8010 bound_to 7997
  139.5579  144.1942  152.1191 H   0  0  0  0  0  0  0  0  0  0  0  0  # atno 10167 bound_to 10162
  157.6464  131.0944  150.6691 H   0  0  0  0  0  0  0  0  0  0  0  0  # atno 10718 bound_to 10713
  153.2364  135.4306  155.0651 H   0  0  0  0  0  0  0  0  0  0  0  0  # atno 10763 bound_to 10752
  154.8320  135.3392  154.6713 H   0  0  0  0  0  0  0  0  0  0  0  0  # atno 10764 bound_to 10752
  153.7138  135.7021  153.5087 H   0  0  0  0  0  0  0  0  0  0  0  0  # atno 10765 bound_to 10752
  141.1418  133.8083  157.0543 H   0  0  0  0  0  0  0  0  0  0  0  0  # atno 11005 bound_to 11000
  144.7616  139.6943  143.7232 LP  0  0  0  0  0  0  0  0  0  0  0  0  # atno 17320 bound_to 7965
  146.2031  139.5339  142.9730 LP  0  0  0  0  0  0  0  0  0  0  0  0  # atno 17321 bound_to 7965
  140.1450  144.5167  150.6721 LP  0  0  0  0  0  0  0  0  0  0  0  0  # atno 17342 bound_to 10162
  140.6855  143.2348  151.5271 LP  0  0  0  0  0  0  0  0  0  0  0  0  # atno 17343 bound_to 10162
  156.7008  130.4622  149.5573 LP  0  0  0  0  0  0  0  0  0  0  0  0  # atno 17370 bound_to 10713
  156.1797  130.6491  151.0936 LP  0  0  0  0  0  0  0  0  0  0  0  0  # atno 17371 bound_to 10713
  140.0612  134.9754  157.1307 LP  0  0  0  0  0  0  0  0  0  0  0  0  # atno 17394 bound_to 11000
  140.3846  134.2250  155.7169 LP  0  0  0  0  0  0  0  0  0  0  0  0  # atno 17395 bound_to 11000

$$$$
