AV-unprocessed.smi:1611|AV-procd|sdf|6474|dock6
  -GOLD-   22720 7133D 1   1.00000     0.00000
 Structure written by MMmdl.
 48 49  0  0  0  0  0  0  0  0  1 V2000
  151.9087  144.2257  160.8147 C   0  0  0  0  0  0  0  0  0  0  0  0
  151.7897  143.2473  159.6589 C   0  0  0  0  0  0  0  0  0  0  0  0
  150.8876  143.5323  158.6138 C   0  0  0  0  0  0  0  0  0  0  0  0
  150.7573  142.6519  157.5257 C   0  0  0  0  0  0  0  0  0  0  0  0
  151.5230  141.4712  157.4748 C   0  0  0  0  0  0  0  0  0  0  0  0
  151.3768  140.5335  156.2905 C   0  0  0  0  0  0  0  0  0  0  0  0
  152.4179  141.1674  158.5265 C   0  0  0  0  0  0  0  0  0  0  0  0
  153.1524  140.0110  158.4698 O   0  0  0  0  0  0  0  0  0  0  0  0
  152.7191  139.0170  159.3872 C   0  0  0  0  0  0  0  0  0  0  0  0
  153.3135  137.6621  158.9699 C   0  0  2  0  0  0  0  0  0  0  0  0
  152.5039  136.6555  159.5456 O   0  0  0  0  0  0  0  0  0  0  0  0
  154.7507  137.4751  159.5040 C   0  0  0  0  0  0  0  0  0  0  0  0
  154.8070  137.5414  160.9698 N   0  0  0  0  0  0  0  0  0  0  0  0
  155.0534  138.8069  161.4639 N   0  0  0  0  0  0  0  0  0  0  0  0
  155.1271  139.0310  162.7348 C   0  0  0  0  0  0  0  0  0  0  0  0
  155.4010  140.4495  163.1569 C   0  0  0  0  0  0  0  0  0  0  0  0
  154.9468  137.9294  163.6750 C   0  0  0  0  0  0  0  0  0  0  0  0
  155.0439  138.2534  165.1597 C   0  0  0  0  0  0  0  0  0  0  0  0
  154.7087  136.6902  163.1770 C   0  0  0  0  0  0  0  0  0  0  0  0
  154.5254  135.5520  164.0185 C   0  0  0  0  0  0  0  0  0  0  0  0
  154.3884  134.6175  164.6879 N   0  0  0  0  0  0  0  0  0  0  0  0
  154.6223  136.4299  161.7382 C   0  0  0  0  0  0  0  0  0  0  0  0
  154.3998  135.3191  161.2540 O   0  0  0  0  0  0  0  0  0  0  0  0
  152.5681  142.0635  159.6148 C   0  0  0  0  0  0  0  0  0  0  0  0
  153.5576  141.7553  160.7306 C   0  0  0  0  0  0  0  0  0  0  0  0
  151.1415  144.9986  160.7614 H   0  0  0  0  0  0  0  0  0  0  0  0
  152.8818  144.7171  160.7964 H   0  0  0  0  0  0  0  0  0  0  0  0
  151.7962  143.7119  161.7697 H   0  0  0  0  0  0  0  0  0  0  0  0
  150.2923  144.4334  158.6391 H   0  0  0  0  0  0  0  0  0  0  0  0
  150.0665  142.8877  156.7296 H   0  0  0  0  0  0  0  0  0  0  0  0
  152.3514  140.1748  155.9582 H   0  0  0  0  0  0  0  0  0  0  0  0
  150.9006  141.0342  155.4472 H   0  0  0  0  0  0  0  0  0  0  0  0
  150.7676  139.6719  156.5638 H   0  0  0  0  0  0  0  0  0  0  0  0
  153.0845  139.2925  160.3775 H   0  0  0  0  0  0  0  0  0  0  0  0
  151.6306  138.9681  159.4547 H   0  0  0  0  0  0  0  0  0  0  0  0
  153.2956  137.5787  157.8825 H   0  0  0  0  0  0  0  0  0  0  0  0
  151.6583  137.0284  159.7419 H   0  0  0  0  0  0  0  0  0  0  0  0
  155.1421  136.5065  159.1880 H   0  0  0  0  0  0  0  0  0  0  0  0
  155.4246  138.2064  159.0525 H   0  0  0  0  0  0  0  0  0  0  0  0
  156.2986  140.5040  163.7730 H   0  0  0  0  0  0  0  0  0  0  0  0
  154.5680  140.8478  163.7365 H   0  0  0  0  0  0  0  0  0  0  0  0
  155.5505  141.1075  162.2995 H   0  0  0  0  0  0  0  0  0  0  0  0
  154.8420  137.3847  165.7860 H   0  0  0  0  0  0  0  0  0  0  0  0
  154.3236  139.0251  165.4331 H   0  0  0  0  0  0  0  0  0  0  0  0
  156.0435  138.6121  165.4073 H   0  0  0  0  0  0  0  0  0  0  0  0
  154.2645  140.9738  160.4524 H   0  0  0  0  0  0  0  0  0  0  0  0
  153.0246  141.4265  161.6228 H   0  0  0  0  0  0  0  0  0  0  0  0
  154.1446  142.6373  160.9856 H   0  0  0  0  0  0  0  0  0  0  0  0
  1  2  1  0  0  0  0
  1 26  1  0  0  0  0
  1 27  1  0  0  0  0
  1 28  1  0  0  0  0
  2 24  1  0  0  0  0
  2  3  2  0  0  0  0
  3  4  1  0  0  0  0
  3 29  1  0  0  0  0
  4  5  2  0  0  0  0
  4 30  1  0  0  0  0
  5  6  1  0  0  0  0
  5  7  1  0  0  0  0
  6 31  1  0  0  0  0
  6 32  1  0  0  0  0
  6 33  1  0  0  0  0
  7  8  1  0  0  0  0
  7 24  2  0  0  0  0
  8  9  1  0  0  0  0
  9 10  1  0  0  0  0
  9 34  1  0  0  0  0
  9 35  1  0  0  0  0
 10 11  1  0  0  0  0
 10 12  1  0  0  0  0
 10 36  1  0  0  0  0
 11 37  1  0  0  0  0
 12 13  1  0  0  0  0
 12 38  1  0  0  0  0
 12 39  1  0  0  0  0
 13 22  1  0  0  0  0
 13 14  1  0  0  0  0
 14 15  2  0  0  0  0
 15 16  1  0  0  0  0
 15 17  1  0  0  0  0
 16 40  1  0  0  0  0
 16 41  1  0  0  0  0
 16 42  1  0  0  0  0
 17 18  1  0  0  0  0
 17 19  2  0  0  0  0
 18 43  1  0  0  0  0
 18 44  1  0  0  0  0
 18 45  1  0  0  0  0
 19 20  1  0  0  0  0
 19 22  1  0  0  0  0
 20 21  3  0  0  0  0
 22 23  2  0  0  0  0
 24 25  1  0  0  0  0
 25 46  1  0  0  0  0
 25 47  1  0  0  0  0
 25 48  1  0  0  0  0
M  END
> <s_m_source_file>
AV-unprocessed.smi

> <i_m_source_file_index>
1611

> <i_lp_mmshare_version>
43012

> <i_f3d_flags>
0

> <s_epik_input>
W0NIM11jMVtjSF1bY0hdYyhbQ0gzXSljKGMxW0NIM10pT1tDSDJdW0NASF0oW09IXSlbQ0gyXW4ybmMoW0NIM10pYyhbQ0gzXSljKEMjTiljMj1P

> <s_epik_cmdline>
J2VwaWtfcHl0aG9uJywgJy1waCcsICc3LjAnLCAnLXRuJywgJzgnLCAnLW1hJywgJzIwMCcsICctbWV0YWxfYmluZGluZycsICctaW1hZScsICc8aW5maWxlLm1hZT4nLCAnLW9tYWUnLCAnPG91dGZpbGUubWFlPic=

> <r_lp_tautomer_probability>
1

> <r_epik_Ionization_Penalty>
1.17331e-07

> <r_epik_Ionization_Penalty_Charging>
1.57223e-10

> <r_epik_Ionization_Penalty_Neutral>
1.17174e-07

> <r_epik_State_Penalty>
-0

> <r_epik_Charging_Adjusted_Penalty>
1.57223e-10

> <i_epik_Tot_Q>
0

> <i_epik_Tot_abs_Q>
0

> <r_epik_Metal_State_Penalty>
-0

> <b_epik_Metal_Only>
0

> <s_lp_Force_Field>
OPLS_2005

> <r_lp_Energy>
36.6232

> <b_lp_Chiralities_Consistent>
1

> <s_lp_Variant>
AV-unprocessed.smi:1611-1

> <Gold.Version>
5.8.1

> <Gold.Id.Protein>
6NUR|6NUR_protein|mol2

> <Gold.PLP.Fitness>
51.8890

> <Gold.PLP.PLP>
-47.7103

> <Gold.PLP.part.hbond>
-2.6297

> <Gold.PLP.part.metal>
0.0000

> <Gold.PLP.part.buried>
-6.1199

> <Gold.PLP.part.nonpolar>
-38.7372

> <Gold.PLP.part.repulsive>
0.0859

> <Gold.PLP.ligand.clash>
0.0000

> <Gold.PLP.ligand.torsion>
0.8191

> <Gold.PLP.Chemscore.Hbond>
1.9040

> <Gold.PLP.Chemscore.CHOScore>
0.0000

> <Gold.PLP.Chemscore.Metal>
0.0000

> <Gold.Chemscore.Hbonds>
donor molecule, donor type, donor heavy atom, donor atom, acceptor molecule, acceptor atom, score
      P1  H  6896  6909       L1    11  0.83
      P1  H  7997  8010       L1     8  0.81

> <Gold.PLP.Chemscore.Internal.Correction>
0.1049

> <Gold.Rescore>
     Score         DG    S(hbond)    S(metal)    S(lipo)     H(rot)  DE(clash)    DE(int)     intcor
     17.52     -20.47       1.47        0.00     135.96       2.27       0.31       2.63       ----

> <Gold.Chemscore.Fitness>
17.5223

> <Gold.Chemscore.DG>
-20.4684

> <Gold.Chemscore.ZeroCoef>
-5.4800

> <Gold.Chemscore.Hbond>
1.4653

> <Gold.Chemscore.Metal>
0.0000

> <Gold.Chemscore.Lipo>
135.9566

> <Gold.Chemscore.Internal_Hbond>
0.0000

> <Gold.Chemscore.DEClash>
0.3136

> <Gold.Chemscore.DEInternal>
2.6325

> <Gold.Chemscore.Rot>
2.2706

> <Gold.Chemscore.Internal.Correction>
   9.000000E+99

> <Gold.Chemscore.Hbonds>
donor molecule, donor type, donor heavy atom, donor atom, acceptor molecule, acceptor atom, score
      P1  H  6896  6909       L1    11  0.14
      P1  H  7997  8010       L1     8  0.71

> <Gold.Chemscore.Hbond.Weighted>
-4.8941

> <Gold.Chemscore.Metal.Weighted>
-0.0000

> <Gold.Chemscore.Lipo.Weighted>
-15.9069

> <Gold.Chemscore.Internal_Hbond.Weighted>
0.0000

> <Gold.Chemscore.DEClash.Weighted>
0.3136

> <Gold.Chemscore.DEInternal.Weighted>
2.6325

> <Gold.Chemscore.Rot.Weighted>
5.8127

> <Gold.Chemscore.Internal.Correction.Weighted>
   9.000000E+99

> <Gold.Protein.RotatedTorsions>
[ 6907 6896 6895 6894 ] final  155.59 input  -60.11 | X-H torsion
[ 7974 7965 7964 7962 ] final   67.22 input  175.53 | X-H torsion
[ 8008 7997 7996 7995 ] final   18.00 input   59.86 | X-H torsion
[ 10167 10162 10161 10158 ] final  -29.90 input  -65.29 | X-H torsion
[ 10718 10713 10712 10709 ] final  -12.83 input   66.30 | X-H torsion
[ 10763 10752 10751 10750 ] final  -14.80 input  -60.55 | X-H torsion
[ 11005 11000 10999 10996 ] final -140.33 input  -57.11 | X-H torsion

> <Gold.Protein.ActiveResidues>
 VAL166  LYS551  ARG553  GLY616  TRP617  ASP618  TYR619  PRO620  LYS621  CYS622 
 ASP623  PHE694  ASN695  SER759  ASP760  ASP761  ALA762  ILE779  LEU786  VAL792 
 PHE793  MET794  SER795  GLU796  ALA797  LYS798  CYS799  TRP800  GLU811  SER814 

> <Gold.Protein.RotatedAtoms>
  152.0419  133.3981  159.4340 H   0  0  0  0  0  0  0  0  0  0  0  0  # atno 6907 bound_to 6896
  150.6875  134.3405  159.4875 H   0  0  0  0  0  0  0  0  0  0  0  0  # atno 6908 bound_to 6896
  152.1205  134.9209  160.0614 H   0  0  0  0  0  0  0  0  0  0  0  0  # atno 6909 bound_to 6896
  145.8172  139.3065  143.1064 H   0  0  0  0  0  0  0  0  0  0  0  0  # atno 7974 bound_to 7965
  154.8996  140.2999  155.5325 H   0  0  0  0  0  0  0  0  0  0  0  0  # atno 8008 bound_to 7997
  156.3019  140.2409  156.3957 H   0  0  0  0  0  0  0  0  0  0  0  0  # atno 8009 bound_to 7997
  154.8534  140.0408  157.1608 H   0  0  0  0  0  0  0  0  0  0  0  0  # atno 8010 bound_to 7997
  140.7255  143.3891  151.1461 H   0  0  0  0  0  0  0  0  0  0  0  0  # atno 10167 bound_to 10162
  156.6389  130.4922  149.6102 H   0  0  0  0  0  0  0  0  0  0  0  0  # atno 10718 bound_to 10713
  153.5338  135.7014  153.5670 H   0  0  0  0  0  0  0  0  0  0  0  0  # atno 10763 bound_to 10752
  153.3666  135.3955  155.1758 H   0  0  0  0  0  0  0  0  0  0  0  0  # atno 10764 bound_to 10752
  154.8681  135.3802  154.4836 H   0  0  0  0  0  0  0  0  0  0  0  0  # atno 10765 bound_to 10752
  140.8433  134.2375  157.4799 H   0  0  0  0  0  0  0  0  0  0  0  0  # atno 11005 bound_to 11000
  145.9713  140.8757  143.0161 LP  0  0  0  0  0  0  0  0  0  0  0  0  # atno 17320 bound_to 7965
  144.6751  140.1950  143.7393 LP  0  0  0  0  0  0  0  0  0  0  0  0  # atno 17321 bound_to 7965
  139.7493  143.8803  152.3072 LP  0  0  0  0  0  0  0  0  0  0  0  0  # atno 17342 bound_to 10162
  139.8651  144.7097  150.9053 LP  0  0  0  0  0  0  0  0  0  0  0  0  # atno 17343 bound_to 10162
  156.2174  130.6716  151.1333 LP  0  0  0  0  0  0  0  0  0  0  0  0  # atno 17370 bound_to 10713
  157.7177  131.0700  150.6262 LP  0  0  0  0  0  0  0  0  0  0  0  0  # atno 17371 bound_to 10713
  139.8703  134.9646  156.4502 LP  0  0  0  0  0  0  0  0  0  0  0  0  # atno 17394 bound_to 11000
  140.8871  133.7875  155.9531 LP  0  0  0  0  0  0  0  0  0  0  0  0  # atno 17395 bound_to 11000

$$$$
