AV-unprocessed.smi:2159|AV-procd|sdf|8796|dock9
  -GOLD-   2272011583D 1   1.00000     0.00000
 Structure written by MMmdl.
 48 50  0  0  0  0  0  0  0  0  2 V2000
  149.7392  136.9811  156.6122 O   0  0  0  0  0  0  0  0  0  0  0  0
  149.8131  137.0086  155.3831 C   0  0  0  0  0  0  0  0  0  0  0  0
  150.1436  138.3125  154.6512 C   0  0  0  0  0  0  0  0  0  0  0  0
  151.5677  138.8233  154.9481 C   0  0  0  0  0  0  0  0  0  0  0  0
  151.5574  139.8582  155.9849 N   0  0  0  0  0  0  0  0  0  0  0  0
  152.3763  139.8709  157.0538 C   0  0  0  0  0  0  0  0  0  0  0  0
  153.1723  138.9959  157.3929 O   0  0  0  0  0  0  0  0  0  0  0  0
  152.2451  141.2132  157.7585 C   0  0  2  0  0  0  0  0  0  0  0  0
  152.3511  141.3612  159.2769 C   0  0  0  0  0  0  0  0  0  0  0  0
  152.1796  142.8711  159.5928 C   0  0  0  0  0  0  0  0  0  0  0  0
  150.9261  143.5184  158.9325 C   0  0  0  0  0  0  0  0  0  0  0  0
  150.7600  143.1783  157.4276 C   0  0  0  0  0  0  0  0  0  0  0  0
  150.8688  141.6579  157.3037 C   0  0  1  0  0  0  0  0  0  0  0  0
  150.7462  140.9332  155.9719 C   0  0  0  0  0  0  0  0  0  0  0  0
  149.9734  141.2717  155.0760 O   0  0  0  0  0  0  0  0  0  0  0  0
  149.6032  135.9294  154.6134 N   0  0  0  0  0  0  0  0  0  0  0  0
  149.2680  134.6017  155.1149 C   0  0  0  0  0  0  0  0  0  0  0  0
  149.7254  133.4990  154.1449 C   0  0  0  0  0  0  0  0  0  0  0  0
  148.5597  132.8357  153.4381 C   0  0  0  0  0  0  0  0  0  0  0  0
  148.2027  131.4898  153.6722 C   0  0  0  0  0  0  0  0  0  0  0  0
  147.1036  130.9388  152.9805 C   0  0  0  0  0  0  0  0  0  0  0  0
  146.3858  131.7436  152.0714 C   0  0  0  0  0  0  0  0  0  0  0  0
  146.7851  133.0818  151.8772 C   0  0  0  0  0  0  0  0  0  0  0  0
  147.8430  133.5733  152.5591 N   0  3  0  0  0  0  0  0  0  0  0  0
  150.0242  138.1644  153.5767 H   0  0  0  0  0  0  0  0  0  0  0  0
  149.4086  139.0618  154.9474 H   0  0  0  0  0  0  0  0  0  0  0  0
  152.2103  137.9997  155.2655 H   0  0  0  0  0  0  0  0  0  0  0  0
  152.0216  139.2169  154.0366 H   0  0  0  0  0  0  0  0  0  0  0  0
  153.0119  141.8462  157.3058 H   0  0  0  0  0  0  0  0  0  0  0  0
  151.5831  140.7717  159.7798 H   0  0  0  0  0  0  0  0  0  0  0  0
  153.3169  141.0039  159.6357 H   0  0  0  0  0  0  0  0  0  0  0  0
  152.1482  143.0217  160.6723 H   0  0  0  0  0  0  0  0  0  0  0  0
  153.0658  143.4025  159.2431 H   0  0  0  0  0  0  0  0  0  0  0  0
  150.0388  143.1759  159.4667 H   0  0  0  0  0  0  0  0  0  0  0  0
  150.9554  144.6002  159.0657 H   0  0  0  0  0  0  0  0  0  0  0  0
  149.7948  143.5302  157.0617 H   0  0  0  0  0  0  0  0  0  0  0  0
  151.5289  143.6729  156.8324 H   0  0  0  0  0  0  0  0  0  0  0  0
  150.1010  141.2129  157.9412 H   0  0  0  0  0  0  0  0  0  0  0  0
  149.6834  136.0363  153.6124 H   0  0  0  0  0  0  0  0  0  0  0  0
  149.7524  134.4696  156.0829 H   0  0  0  0  0  0  0  0  0  0  0  0
  148.1935  134.5356  155.2950 H   0  0  0  0  0  0  0  0  0  0  0  0
  150.3974  133.9108  153.3905 H   0  0  0  0  0  0  0  0  0  0  0  0
  150.2968  132.7419  154.6837 H   0  0  0  0  0  0  0  0  0  0  0  0
  148.7620  130.8858  154.3719 H   0  0  0  0  0  0  0  0  0  0  0  0
  146.8145  129.9110  153.1449 H   0  0  0  0  0  0  0  0  0  0  0  0
  145.5416  131.3400  151.5313 H   0  0  0  0  0  0  0  0  0  0  0  0
  146.2950  133.7683  151.2020 H   0  0  0  0  0  0  0  0  0  0  0  0
  148.1154  134.5444  152.4027 H   0  0  0  0  0  0  0  0  0  0  0  0
  1  2  2  0  0  0  0
  2  3  1  0  0  0  0
  2 16  1  0  0  0  0
  3  4  1  0  0  0  0
  3 25  1  0  0  0  0
  3 26  1  0  0  0  0
  4  5  1  0  0  0  0
  4 27  1  0  0  0  0
  4 28  1  0  0  0  0
  5 14  1  0  0  0  0
  5  6  1  0  0  0  0
  6  7  2  0  0  0  0
  6  8  1  0  0  0  0
  8 13  1  0  0  0  0
  8  9  1  0  0  0  0
  8 29  1  0  0  0  0
  9 10  1  0  0  0  0
  9 30  1  0  0  0  0
  9 31  1  0  0  0  0
 10 11  1  0  0  0  0
 10 32  1  0  0  0  0
 10 33  1  0  0  0  0
 11 12  1  0  0  0  0
 11 34  1  0  0  0  0
 11 35  1  0  0  0  0
 12 13  1  0  0  0  0
 12 36  1  0  0  0  0
 12 37  1  0  0  0  0
 13 14  1  0  0  0  0
 13 38  1  0  0  0  0
 14 15  2  0  0  0  0
 16 17  1  0  0  0  0
 16 39  1  0  0  0  0
 17 18  1  0  0  0  0
 17 40  1  0  0  0  0
 17 41  1  0  0  0  0
 18 19  1  0  0  0  0
 18 42  1  0  0  0  0
 18 43  1  0  0  0  0
 19 24  1  0  0  0  0
 19 20  2  0  0  0  0
 20 21  1  0  0  0  0
 20 44  1  0  0  0  0
 21 22  2  0  0  0  0
 21 45  1  0  0  0  0
 22 23  1  0  0  0  0
 22 46  1  0  0  0  0
 23 24  2  0  0  0  0
 23 47  1  0  0  0  0
 24 48  1  0  0  0  0
M  CHG  1  24   1
M  END
> <s_m_source_file>
AV-unprocessed.smi

> <i_m_source_file_index>
2159

> <i_lp_mmshare_version>
43012

> <i_f3d_flags>
0

> <s_epik_input>
bjFbY0hdW2NIXVtjSF1bY0hdYzFbQ0gyXVtDSDJdW05IXUMoPU8pW0NIMl1bQ0gyXU4oQzI9TylDKD1PKVtDQEhdKFtDQEBIXTIzKVtDSDJdW0NIMl1bQ0gyXVtDSDJdMw==

> <s_epik_cmdline>
J2VwaWtfcHl0aG9uJywgJy1waCcsICc3LjAnLCAnLXRuJywgJzgnLCAnLW1hJywgJzIwMCcsICctbWV0YWxfYmluZGluZycsICctaW1hZScsICc8aW5maWxlLm1hZT4nLCAnLW9tYWUnLCAnPG91dGZpbGUubWFlPic=

> <r_lp_tautomer_probability>
1

> <r_epik_Ionization_Penalty>
1.85146

> <r_epik_Ionization_Penalty_Charging>
1.85146

> <r_epik_Ionization_Penalty_Neutral>
2.95922e-08

> <r_epik_State_Penalty>
1.96899

> <r_epik_Charging_Adjusted_Penalty>
3.82044

> <i_epik_Tot_Q>
1

> <i_epik_Tot_abs_Q>
1

> <r_epik_Metal_State_Penalty>
1.99467

> <b_epik_Metal_Only>
0

> <s_lp_Force_Field>
OPLS_2005

> <r_lp_Energy>
35.9889

> <b_lp_Chiralities_Consistent>
1

> <s_lp_Variant>
AV-unprocessed.smi:2159-6

> <Gold.Version>
5.8.1

> <Gold.Id.Protein>
6NUR|6NUR_protein|mol2

> <Gold.PLP.Fitness>
53.6003

> <Gold.PLP.PLP>
-44.0643

> <Gold.PLP.part.hbond>
-4.0000

> <Gold.PLP.part.metal>
0.0000

> <Gold.PLP.part.buried>
-0.4687

> <Gold.PLP.part.nonpolar>
-38.2048

> <Gold.PLP.part.repulsive>
0.1894

> <Gold.PLP.ligand.clash>
0.0000

> <Gold.PLP.ligand.torsion>
0.9788

> <Gold.PLP.Chemscore.Hbond>
3.8066

> <Gold.PLP.Chemscore.CHOScore>
0.0000

> <Gold.PLP.Chemscore.Metal>
0.0000

> <Gold.Chemscore.Hbonds>
donor molecule, donor type, donor heavy atom, donor atom, acceptor molecule, acceptor atom, score
      L1  H    16    39       P1  7948  1.00
      L1  H    24    48       P1  7948  2.00
      P1  H  7989  7998       L1    15  0.10
      P1  H  7997  8010       L1     7  0.73

> <Gold.PLP.Chemscore.Internal.Correction>
0.0736

> <Gold.Rescore>
     Score         DG    S(hbond)    S(metal)    S(lipo)     H(rot)  DE(clash)    DE(int)     intcor
     17.66     -20.01       2.49        0.00      99.13       2.10       0.05       2.30       ----

> <Gold.Chemscore.Fitness>
17.6584

> <Gold.Chemscore.DG>
-20.0136

> <Gold.Chemscore.ZeroCoef>
-5.4800

> <Gold.Chemscore.Hbond>
2.4853

> <Gold.Chemscore.Metal>
0.0000

> <Gold.Chemscore.Lipo>
99.1303

> <Gold.Chemscore.Internal_Hbond>
0.0000

> <Gold.Chemscore.DEClash>
0.0503

> <Gold.Chemscore.DEInternal>
2.3049

> <Gold.Chemscore.Rot>
2.0959

> <Gold.Chemscore.Internal.Correction>
   9.000000E+99

> <Gold.Chemscore.Hbonds>
donor molecule, donor type, donor heavy atom, donor atom, acceptor molecule, acceptor atom, score
      L1  H    16    39       P1  7948  0.25
      L1  H    24    48       P1  7948  0.30
      P1  H  7989  7998       L1    15  0.01
      P1  H  7997  8010       L1     7  0.10

> <Gold.Chemscore.Hbond.Weighted>
-8.3008

> <Gold.Chemscore.Metal.Weighted>
-0.0000

> <Gold.Chemscore.Lipo.Weighted>
-11.5982

> <Gold.Chemscore.Internal_Hbond.Weighted>
0.0000

> <Gold.Chemscore.DEClash.Weighted>
0.0503

> <Gold.Chemscore.DEInternal.Weighted>
2.3049

> <Gold.Chemscore.Rot.Weighted>
5.3655

> <Gold.Chemscore.Internal.Correction.Weighted>
   9.000000E+99

> <Gold.Protein.RotatedTorsions>
[ 6907 6896 6895 6894 ] final  153.00 input  -60.11 | X-H torsion
[ 7974 7965 7964 7962 ] final -164.69 input  175.53 | X-H torsion
[ 8008 7997 7996 7995 ] final   24.35 input   59.86 | X-H torsion
[ 10167 10162 10161 10158 ] final   34.40 input  -65.29 | X-H torsion
[ 10718 10713 10712 10709 ] final   46.46 input   66.30 | X-H torsion
[ 10763 10752 10751 10750 ] final -100.78 input  -60.55 | X-H torsion
[ 11005 11000 10999 10996 ] final  -77.39 input  -57.11 | X-H torsion

> <Gold.Protein.ActiveResidues>
 VAL166  LYS551  ARG553  GLY616  TRP617  ASP618  TYR619  PRO620  LYS621  CYS622 
 ASP623  PHE694  ASN695  SER759  ASP760  ASP761  ALA762  ILE779  LEU786  VAL792 
 PHE793  MET794  SER795  GLU796  ALA797  LYS798  CYS799  TRP800  GLU811  SER814 

> <Gold.Protein.RotatedAtoms>
  152.0788  133.4142  159.4491 H   0  0  0  0  0  0  0  0  0  0  0  0  # atno 6907 bound_to 6896
  150.6862  134.3006  159.4714 H   0  0  0  0  0  0  0  0  0  0  0  0  # atno 6908 bound_to 6896
  152.0846  134.9448  160.0623 H   0  0  0  0  0  0  0  0  0  0  0  0  # atno 6909 bound_to 6896
  144.7290  140.2923  143.6218 H   0  0  0  0  0  0  0  0  0  0  0  0  # atno 7974 bound_to 7965
  154.9950  140.3118  155.4890 H   0  0  0  0  0  0  0  0  0  0  0  0  # atno 8008 bound_to 7997
  156.2934  140.2242  156.4997 H   0  0  0  0  0  0  0  0  0  0  0  0  # atno 8009 bound_to 7997
  154.7669  140.0455  157.1008 H   0  0  0  0  0  0  0  0  0  0  0  0  # atno 8010 bound_to 7997
  140.4318  144.1313  150.6160 H   0  0  0  0  0  0  0  0  0  0  0  0  # atno 10167 bound_to 10162
  157.4483  130.8123  149.7763 H   0  0  0  0  0  0  0  0  0  0  0  0  # atno 10718 bound_to 10713
  154.7606  135.4922  153.9458 H   0  0  0  0  0  0  0  0  0  0  0  0  # atno 10763 bound_to 10752
  153.1247  135.6739  153.9284 H   0  0  0  0  0  0  0  0  0  0  0  0  # atno 10764 bound_to 10752
  153.9006  135.3110  155.3427 H   0  0  0  0  0  0  0  0  0  0  0  0  # atno 10765 bound_to 10752
  141.1660  133.7020  156.7813 H   0  0  0  0  0  0  0  0  0  0  0  0  # atno 11005 bound_to 11000
  145.7842  139.1903  143.2140 LP  0  0  0  0  0  0  0  0  0  0  0  0  # atno 17320 bound_to 7965
  146.0809  140.7765  142.9642 LP  0  0  0  0  0  0  0  0  0  0  0  0  # atno 17321 bound_to 7965
  140.4418  143.2523  151.9463 LP  0  0  0  0  0  0  0  0  0  0  0  0  # atno 17342 bound_to 10162
  139.4785  144.5647  151.8184 LP  0  0  0  0  0  0  0  0  0  0  0  0  # atno 17343 bound_to 10162
  155.9976  130.3899  150.2732 LP  0  0  0  0  0  0  0  0  0  0  0  0  # atno 17370 bound_to 10713
  157.0902  131.0167  151.3124 LP  0  0  0  0  0  0  0  0  0  0  0  0  # atno 17371 bound_to 10713
  140.2393  134.8626  157.3557 LP  0  0  0  0  0  0  0  0  0  0  0  0  # atno 17394 bound_to 11000
  140.1812  134.4487  155.7771 LP  0  0  0  0  0  0  0  0  0  0  0  0  # atno 17395 bound_to 11000

$$$$
