AV-unprocessed.smi:1840|AV-procd|sdf|7491|dock9
  -GOLD-   22720 9193D 1   1.00000     0.00000
 Structure written by MMmdl.
 43 44  0  0  0  0  0  0  0  0  1 V2000
  150.2079  144.6882  160.3234 C   0  0  0  0  0  0  0  0  0  0  0  0
  150.9721  144.9927  159.0279 C   0  0  1  0  0  0  0  0  0  0  0  0
  152.4749  144.6646  159.1685 C   0  0  0  0  0  0  0  0  0  0  0  0
  152.7262  143.5610  160.0793 N   0  0  0  0  0  0  0  0  0  0  0  0
  153.1618  142.2863  159.7815 C   0  0  0  0  0  0  0  0  0  0  0  0
  153.2815  141.6115  160.9622 C   0  0  0  0  0  0  0  0  0  0  0  0
  152.8850  142.5676  161.9386 C   0  0  0  0  0  0  0  0  0  0  0  0
  152.5497  143.7322  161.4069 N   0  0  0  0  0  0  0  0  0  0  0  0
  150.3801  144.2259  157.9325 N   0  0  0  0  0  0  0  0  0  0  0  0
  150.0762  142.9205  157.9735 C   0  0  0  0  0  0  0  0  0  0  0  0
  150.3459  142.1740  158.9144 O   0  0  0  0  0  0  0  0  0  0  0  0
  149.3981  142.5378  156.8837 N   0  0  0  0  0  0  0  0  0  0  0  0
  148.8210  141.2104  156.6682 C   0  0  1  0  0  0  0  0  0  0  0  0
  147.2906  141.2957  156.4647 C   0  0  0  0  0  0  0  0  0  0  0  0
  146.9209  141.9694  155.1327 C   0  0  0  0  0  0  0  0  0  0  0  0
  147.5909  141.2567  153.9487 C   0  0  0  0  0  0  0  0  0  0  0  0
  149.1153  141.1746  154.1320 C   0  0  0  0  0  0  0  0  0  0  0  0
  149.4943  140.5000  155.4677 C   0  0  1  0  0  0  0  0  0  0  0  0
  151.0196  140.3755  155.6260 C   0  0  0  0  0  0  0  0  0  0  0  0
  150.6069  145.2653  161.1579 H   0  0  0  0  0  0  0  0  0  0  0  0
  150.2754  143.6321  160.5870 H   0  0  0  0  0  0  0  0  0  0  0  0
  149.1516  144.9412  160.2247 H   0  0  0  0  0  0  0  0  0  0  0  0
  150.8645  146.0616  158.8342 H   0  0  0  0  0  0  0  0  0  0  0  0
  152.8958  144.4042  158.1961 H   0  0  0  0  0  0  0  0  0  0  0  0
  153.0255  145.5380  159.5205 H   0  0  0  0  0  0  0  0  0  0  0  0
  153.3596  141.9732  158.7670 H   0  0  0  0  0  0  0  0  0  0  0  0
  153.6062  140.5920  161.1069 H   0  0  0  0  0  0  0  0  0  0  0  0
  152.8323  142.4510  163.0110 H   0  0  0  0  0  0  0  0  0  0  0  0
  150.1191  144.7453  157.1073 H   0  0  0  0  0  0  0  0  0  0  0  0
  149.2257  143.2263  156.1659 H   0  0  0  0  0  0  0  0  0  0  0  0
  149.0141  140.6147  157.5624 H   0  0  0  0  0  0  0  0  0  0  0  0
  146.8728  140.2882  156.4813 H   0  0  0  0  0  0  0  0  0  0  0  0
  146.8186  141.8267  157.2923 H   0  0  0  0  0  0  0  0  0  0  0  0
  145.8383  141.9658  155.0039 H   0  0  0  0  0  0  0  0  0  0  0  0
  147.2237  143.0172  155.1515 H   0  0  0  0  0  0  0  0  0  0  0  0
  147.1813  140.2505  153.8504 H   0  0  0  0  0  0  0  0  0  0  0  0
  147.3558  141.7777  153.0201 H   0  0  0  0  0  0  0  0  0  0  0  0
  149.5499  140.6202  153.2997 H   0  0  0  0  0  0  0  0  0  0  0  0
  149.5416  142.1776  154.0861 H   0  0  0  0  0  0  0  0  0  0  0  0
  149.1003  139.4828  155.4373 H   0  0  0  0  0  0  0  0  0  0  0  0
  151.5096  141.3495  155.6130 H   0  0  0  0  0  0  0  0  0  0  0  0
  151.4482  139.7821  154.8179 H   0  0  0  0  0  0  0  0  0  0  0  0
  151.2768  139.8852  156.5652 H   0  0  0  0  0  0  0  0  0  0  0  0
  1  2  1  0  0  0  0
  1 20  1  0  0  0  0
  1 21  1  0  0  0  0
  1 22  1  0  0  0  0
  2  3  1  0  0  0  0
  2  9  1  0  0  0  0
  2 23  1  0  0  0  0
  3  4  1  0  0  0  0
  3 24  1  0  0  0  0
  3 25  1  0  0  0  0
  4  8  1  0  0  0  0
  4  5  1  0  0  0  0
  5  6  2  0  0  0  0
  5 26  1  0  0  0  0
  6  7  1  0  0  0  0
  6 27  1  0  0  0  0
  7  8  2  0  0  0  0
  7 28  1  0  0  0  0
  9 10  1  0  0  0  0
  9 29  1  0  0  0  0
 10 11  2  0  0  0  0
 10 12  1  0  0  0  0
 12 13  1  0  0  0  0
 12 30  1  0  0  0  0
 13 18  1  0  0  0  0
 13 14  1  0  0  0  0
 13 31  1  0  0  0  0
 14 15  1  0  0  0  0
 14 32  1  0  0  0  0
 14 33  1  0  0  0  0
 15 16  1  0  0  0  0
 15 34  1  0  0  0  0
 15 35  1  0  0  0  0
 16 17  1  0  0  0  0
 16 36  1  0  0  0  0
 16 37  1  0  0  0  0
 17 18  1  0  0  0  0
 17 38  1  0  0  0  0
 17 39  1  0  0  0  0
 18 19  1  0  0  0  0
 18 40  1  0  0  0  0
 19 41  1  0  0  0  0
 19 42  1  0  0  0  0
 19 43  1  0  0  0  0
M  END
> <s_m_source_file>
AV-unprocessed.smi

> <i_m_source_file_index>
1840

> <i_lp_mmshare_version>
43012

> <i_f3d_flags>
0

> <s_epik_input>
bjFbY0hdW2NIXVtjSF1uMVtDSDJdW0NAQEhdKFtDSDNdKVtOSF1DKD1PKVtOSF1bQ0BASF0yW0NIMl1bQ0gyXVtDSDJdW0NIMl1bQ0BIXTJbQ0gzXQ==

> <s_epik_cmdline>
J2VwaWtfcHl0aG9uJywgJy1waCcsICc3LjAnLCAnLXRuJywgJzgnLCAnLW1hJywgJzIwMCcsICctbWV0YWxfYmluZGluZycsICctaW1hZScsICc8aW5maWxlLm1hZT4nLCAnLW9tYWUnLCAnPG91dGZpbGUubWFlPic=

> <r_lp_tautomer_probability>
1

> <r_epik_Ionization_Penalty>
7.38659e-05

> <r_epik_Ionization_Penalty_Charging>
0

> <r_epik_Ionization_Penalty_Neutral>
7.38659e-05

> <r_epik_State_Penalty>
-0

> <r_epik_Charging_Adjusted_Penalty>
0

> <i_epik_Tot_Q>
0

> <i_epik_Tot_abs_Q>
0

> <r_epik_Metal_State_Penalty>
-0

> <b_epik_Metal_Only>
0

> <s_lp_Force_Field>
OPLS_2005

> <r_lp_Energy>
6.83703

> <b_lp_Chiralities_Consistent>
1

> <s_lp_Variant>
AV-unprocessed.smi:1840-4

> <Gold.Version>
5.8.1

> <Gold.Id.Protein>
6NUR|6NUR_protein|mol2

> <Gold.PLP.Fitness>
50.0766

> <Gold.PLP.PLP>
-45.8147

> <Gold.PLP.part.hbond>
-3.5629

> <Gold.PLP.part.metal>
0.0000

> <Gold.PLP.part.buried>
-2.5876

> <Gold.PLP.part.nonpolar>
-38.6549

> <Gold.PLP.part.repulsive>
0.2283

> <Gold.PLP.ligand.clash>
0.0000

> <Gold.PLP.ligand.torsion>
0.6533

> <Gold.PLP.Chemscore.Hbond>
1.8480

> <Gold.PLP.Chemscore.CHOScore>
0.0000

> <Gold.PLP.Chemscore.Metal>
0.0000

> <Gold.Chemscore.Hbonds>
donor molecule, donor type, donor heavy atom, donor atom, acceptor molecule, acceptor atom, score
      L1  H     9    29       P1  8028  0.86
      L1  H    12    30       P1  8028  1.00

> <Gold.PLP.Chemscore.Internal.Correction>
0.0246

> <Gold.Rescore>
     Score         DG    S(hbond)    S(metal)    S(lipo)     H(rot)  DE(clash)    DE(int)     intcor
     15.34     -19.04       1.59        0.00     104.65       1.56       0.10       3.59       ----

> <Gold.Chemscore.Fitness>
15.3404

> <Gold.Chemscore.DG>
-19.0360

> <Gold.Chemscore.ZeroCoef>
-5.4800

> <Gold.Chemscore.Hbond>
1.5867

> <Gold.Chemscore.Metal>
0.0000

> <Gold.Chemscore.Lipo>
104.6486

> <Gold.Chemscore.Internal_Hbond>
0.0000

> <Gold.Chemscore.DEClash>
0.1037

> <Gold.Chemscore.DEInternal>
3.5919

> <Gold.Chemscore.Rot>
1.5576

> <Gold.Chemscore.Internal.Correction>
   9.000000E+99

> <Gold.Chemscore.Hbonds>
donor molecule, donor type, donor heavy atom, donor atom, acceptor molecule, acceptor atom, score
      L1  H     9    29       P1  8028  0.25
      L1  H    12    30       P1  8028  0.96

> <Gold.Chemscore.Hbond.Weighted>
-5.2996

> <Gold.Chemscore.Metal.Weighted>
-0.0000

> <Gold.Chemscore.Lipo.Weighted>
-12.2439

> <Gold.Chemscore.Internal_Hbond.Weighted>
0.0000

> <Gold.Chemscore.DEClash.Weighted>
0.1037

> <Gold.Chemscore.DEInternal.Weighted>
3.5919

> <Gold.Chemscore.Rot.Weighted>
3.9875

> <Gold.Chemscore.Internal.Correction.Weighted>
   9.000000E+99

> <Gold.Protein.RotatedTorsions>
[ 6907 6896 6895 6894 ] final   11.14 input  -60.11 | X-H torsion
[ 7974 7965 7964 7962 ] final  -72.96 input  175.53 | X-H torsion
[ 8008 7997 7996 7995 ] final -108.35 input   59.86 | X-H torsion
[ 10167 10162 10161 10158 ] final   35.46 input  -65.29 | X-H torsion
[ 10718 10713 10712 10709 ] final  -16.67 input   66.30 | X-H torsion
[ 10763 10752 10751 10750 ] final   80.01 input  -60.55 | X-H torsion
[ 11005 11000 10999 10996 ] final  -90.60 input  -57.11 | X-H torsion

> <Gold.Protein.ActiveResidues>
 VAL166  LYS551  ARG553  GLY616  TRP617  ASP618  TYR619  PRO620  LYS621  CYS622 
 ASP623  PHE694  ASN695  SER759  ASP760  ASP761  ALA762  ILE779  LEU786  VAL792 
 PHE793  MET794  SER795  GLU796  ALA797  LYS798  CYS799  TRP800  GLU811  SER814 

> <Gold.Protein.RotatedAtoms>
  151.7495  135.0836  160.0328 H   0  0  0  0  0  0  0  0  0  0  0  0  # atno 6907 bound_to 6896
  152.3426  133.6081  159.5896 H   0  0  0  0  0  0  0  0  0  0  0  0  # atno 6908 bound_to 6896
  150.7489  133.9614  159.3558 H   0  0  0  0  0  0  0  0  0  0  0  0  # atno 6909 bound_to 6896
  145.6583  140.9261  143.0947 H   0  0  0  0  0  0  0  0  0  0  0  0  # atno 7974 bound_to 7965
  154.9430  140.0402  157.2106 H   0  0  0  0  0  0  0  0  0  0  0  0  # atno 8008 bound_to 7997
  154.8051  140.2858  155.5871 H   0  0  0  0  0  0  0  0  0  0  0  0  # atno 8009 bound_to 7997
  156.2965  140.2547  156.2927 H   0  0  0  0  0  0  0  0  0  0  0  0  # atno 8010 bound_to 7997
  140.4220  144.1446  150.6149 H   0  0  0  0  0  0  0  0  0  0  0  0  # atno 10167 bound_to 10162
  156.5843  130.4782  149.6306 H   0  0  0  0  0  0  0  0  0  0  0  0  # atno 10718 bound_to 10713
  153.0999  135.4818  154.8847 H   0  0  0  0  0  0  0  0  0  0  0  0  # atno 10763 bound_to 10752
  154.7367  135.3072  154.8802 H   0  0  0  0  0  0  0  0  0  0  0  0  # atno 10764 bound_to 10752
  153.9422  135.6833  153.4797 H   0  0  0  0  0  0  0  0  0  0  0  0  # atno 10765 bound_to 10752
  141.1562  133.7702  156.9760 H   0  0  0  0  0  0  0  0  0  0  0  0  # atno 11005 bound_to 11000
  144.7098  139.8416  143.7418 LP  0  0  0  0  0  0  0  0  0  0  0  0  # atno 17320 bound_to 7965
  146.1146  139.4155  143.0266 LP  0  0  0  0  0  0  0  0  0  0  0  0  # atno 17321 bound_to 7965
  140.4523  143.2482  151.9331 LP  0  0  0  0  0  0  0  0  0  0  0  0  # atno 17342 bound_to 10162
  139.4783  144.5550  151.8328 LP  0  0  0  0  0  0  0  0  0  0  0  0  # atno 17343 bound_to 10162
  156.2604  130.6959  151.1726 LP  0  0  0  0  0  0  0  0  0  0  0  0  # atno 17370 bound_to 10713
  157.7319  131.0604  150.5655 LP  0  0  0  0  0  0  0  0  0  0  0  0  # atno 17371 bound_to 10713
  140.1097  134.9484  157.2047 LP  0  0  0  0  0  0  0  0  0  0  0  0  # atno 17394 bound_to 11000
  140.3209  134.2917  155.7246 LP  0  0  0  0  0  0  0  0  0  0  0  0  # atno 17395 bound_to 11000

$$$$
