#       Name:                AV-unprocessed.smi:1060
#       Creating user name   scv26
#       Creation time:       Fri Mar 27 03:16:35 2020


#       File generated by GOLD software.
#

@<TRIPOS>MOLECULE
AV-unprocessed.smi:1060
    45    46     1
SMALL
NO_CHARGES


@<TRIPOS>ATOM
      1 ****        -1.1186   0.3570  -0.3855 O.2            1 S1                 0.0000
      2 ****        -0.5218  -0.6972  -0.1674 C.2            1 S1                 0.0000
      3 ****         1.0020  -0.6971  -0.0298 C.3            1 S1                 0.0000
      4 ****         1.4848   0.6373  -0.0550 O.3            1 S1                 0.0000
      5 ****         2.8956   0.7126   0.0571 C.3            1 S1                 0.0000
      6 ****         3.3160   2.1872   0.0331 C.3            1 S1                 0.0000
      7 ****         4.8213   2.3974  -0.1031 C.3            1 S1                 0.0000
      8 ****         5.0238   3.7934   0.4603 C.3            1 S1                 0.0000
      9 ****         3.7894   4.0193   1.3392 C.3            1 S1                 0.0000
     10 ****         3.0498   2.8057   1.2819 O.3            1 S1                 0.0000
     11 ****        -1.1016  -1.9045  -0.0191 N.am           1 S1                 0.0000
     12 ****        -2.4571  -2.2686  -0.0996 C.2            1 S1                 0.0000
     13 ****        -3.4519  -1.4805  -0.5862 C.2            1 S1                 0.0000
     14 ****        -4.8327  -1.9296  -0.6476 C.2            1 S1                 0.0000
     15 ****        -5.9483  -1.0080  -1.1164 C.3            1 S1                 0.0000
     16 ****        -6.0969  -1.1122  -2.4361 F              1 S1                 0.0000
     17 ****        -7.1101  -1.3209  -0.5414 F              1 S1                 0.0000
     18 ****        -5.6691   0.2634  -0.8300 F              1 S1                 0.0000
     19 ****        -5.0815  -3.1702  -0.1896 C.2            1 S1                 0.0000
     20 ****        -4.0626  -3.9946   0.2923 N.am           1 S1                 0.0000
     21 ****        -2.7632  -3.6303   0.3702 C.2            1 S1                 0.0000
     22 ****        -1.9241  -4.4156   0.8104 O.2            1 S1                 0.0000
     23 ****        -4.3280  -4.9179   0.6033 H              1 S1                 0.0000
     24 ****         1.2813  -1.1805   0.9080 H              1 S1                 0.0000
     25 ****         1.4347  -1.2734  -0.8489 H              1 S1                 0.0000
     26 ****         3.2426   0.2284   0.9713 H              1 S1                 0.0000
     27 ****         3.3472   0.1876  -0.7860 H              1 S1                 0.0000
     28 ****         2.7949   2.7241  -0.7619 H              1 S1                 0.0000
     29 ****         5.3592   1.6733   0.5105 H              1 S1                 0.0000
     30 ****         5.1729   2.2972  -1.1303 H              1 S1                 0.0000
     31 ****         5.9532   3.8665   1.0255 H              1 S1                 0.0000
     32 ****         5.0569   4.5346  -0.3391 H              1 S1                 0.0000
     33 ****         4.0511   4.2591   2.3699 H              1 S1                 0.0000
     34 ****         3.1814   4.8342   0.9446 H              1 S1                 0.0000
     35 ****        -0.4799  -2.6666   0.2110 H              1 S1                 0.0000
     36 ****        -3.2484  -0.4926  -0.9640 H              1 S1                 0.0000
     37 ****        -6.0632  -3.6188  -0.1500 H              1 S1                 0.0000
     38 ****        -0.6075   1.2121  -0.4726 LP             1 S1                 0.0000
     39 ****        -2.1145   0.3584  -0.4757 LP             1 S1                 0.0000
     40 ****         1.0764   1.1394   0.7073 LP             1 S1                 0.0000
     41 ****         1.2098   1.0605  -0.9184 LP             1 S1                 0.0000
     42 ****         3.3319   2.2011   2.0268 LP             1 S1                 0.0000
     43 ****         2.0722   3.0002   1.3625 LP             1 S1                 0.0000
     44 ****        -0.9638  -4.1420   0.8658 LP             1 S1                 0.0000
     45 ****        -2.2025  -5.3272   1.1126 LP             1 S1                 0.0000
@<TRIPOS>BOND
    1    1    2 2     
    2    2    3 1     
    3    2   11 am    
    4    3    4 1     
    5    3   24 1     
    6    3   25 1     
    7    4    5 1     
    8    5    6 1     
    9    5   26 1     
   10    5   27 1     
   11    6   10 1     
   12    6    7 1     
   13    6   28 1     
   14    7    8 1     
   15    7   29 1     
   16    7   30 1     
   17    8    9 1     
   18    8   31 1     
   19    8   32 1     
   20    9   10 1     
   21    9   33 1     
   22    9   34 1     
   23   11   12 1     
   24   11   35 1     
   25   12   21 1     
   26   12   13 2     
   27   13   14 1     
   28   13   36 1     
   29   14   15 1     
   30   14   19 2     
   31   15   16 1     
   32   15   17 1     
   33   15   18 1     
   34   19   20 1     
   35   19   37 1     
   36   20   23 1     
   37   20   21 am    
   38   21   22 2     
   39    1   38 1     
   40    1   39 1     
   41    4   40 1     
   42    4   41 1     
   43   10   42 1     
   44   10   43 1     
   45   22   44 1     
   46   22   45 1     
@<TRIPOS>SUBSTRUCTURE
      1 S1             1
@<TRIPOS>SET
LONE_PAIRS      STATIC     ATOMS    <user>   **** ""
8 38 39 40 41 42 43 44 45
DONOR_HYDROGENS      STATIC     ATOMS    <user>   **** ""
2 35 23
ATOM$BLUE        STATIC     ATOMS    COLORGROUP SYSTEM
8 38 39 40 41 42 43 44 45
ATOM$RED        STATIC     ATOMS    COLORGROUP SYSTEM
2 35 23
