AV-unprocessed.smi:946|AV-procd|sdf|4234|dock1
  -GOLD-   22720 2143D 1   1.00000     0.00000
 Structure written by MMmdl.
 42 43  0  0  0  0  0  0  0  0  1 V2000
  147.9908  141.5568  154.9702 C   0  0  0  0  0  0  0  0  0  0  0  0
  149.4460  141.3788  154.5118 C   0  0  2  0  0  0  0  0  0  0  0  0
  149.5496  140.0952  153.9023 O   0  0  0  0  0  0  0  0  0  0  0  0
  149.2168  138.9932  154.7388 C   0  0  0  0  0  0  0  0  0  0  0  0
  149.9202  137.7399  154.2027 C   0  0  2  0  0  0  0  0  0  0  0  0
  149.0077  136.4987  154.2571 C   0  0  0  0  0  0  0  0  0  0  0  0
  149.7696  135.2487  153.8012 C   0  0  0  0  0  0  0  0  0  0  0  0
  151.0661  135.1107  154.6065 C   0  0  0  0  0  0  0  0  0  0  0  0
  151.8718  136.4178  154.5473 C   0  0  0  0  0  0  0  0  0  0  0  0
  151.0704  137.4999  155.0111 O   0  0  0  0  0  0  0  0  0  0  0  0
  150.4253  141.4902  155.6916 C   0  0  0  0  0  0  0  0  0  0  0  0
  151.2535  140.5991  155.8833 O   0  0  0  0  0  0  0  0  0  0  0  0
  150.3113  142.6018  156.4426 N   0  0  0  0  0  0  0  0  0  0  0  0
  151.0620  142.9673  157.5909 C   0  0  0  0  0  0  0  0  0  0  0  0
  150.9658  144.3262  157.9633 C   0  0  0  0  0  0  0  0  0  0  0  0
  151.6722  144.7857  159.0908 C   0  0  0  0  0  0  0  0  0  0  0  0
  152.4560  143.8744  159.8202 C   0  0  0  0  0  0  0  0  0  0  0  0
  152.4990  142.5323  159.3864 C   0  0  0  0  0  0  0  0  0  0  0  0
  153.3189  141.4810  160.1208 C   0  0  0  0  0  0  0  0  0  0  0  0
  154.6287  141.6941  159.9872 F   0  0  0  0  0  0  0  0  0  0  0  0
  153.0187  141.5040  161.4196 F   0  0  0  0  0  0  0  0  0  0  0  0
  153.0373  140.2715  159.6359 F   0  0  0  0  0  0  0  0  0  0  0  0
  151.8192  142.0962  158.3018 N   0  0  0  0  0  0  0  0  0  0  0  0
  147.8466  142.5150  155.4706 H   0  0  0  0  0  0  0  0  0  0  0  0
  147.6875  140.7683  155.6602 H   0  0  0  0  0  0  0  0  0  0  0  0
  147.3119  141.5253  154.1177 H   0  0  0  0  0  0  0  0  0  0  0  0
  149.6652  142.1522  153.7727 H   0  0  0  0  0  0  0  0  0  0  0  0
  149.5168  139.1848  155.7703 H   0  0  0  0  0  0  0  0  0  0  0  0
  148.1380  138.8338  154.7350 H   0  0  0  0  0  0  0  0  0  0  0  0
  150.2261  137.9193  153.1703 H   0  0  0  0  0  0  0  0  0  0  0  0
  148.6441  136.3528  155.2751 H   0  0  0  0  0  0  0  0  0  0  0  0
  148.1283  136.6466  153.6294 H   0  0  0  0  0  0  0  0  0  0  0  0
  149.1504  134.3589  153.9192 H   0  0  0  0  0  0  0  0  0  0  0  0
  150.0042  135.3303  152.7393 H   0  0  0  0  0  0  0  0  0  0  0  0
  150.8303  134.8756  155.6451 H   0  0  0  0  0  0  0  0  0  0  0  0
  151.6615  134.2812  154.2245 H   0  0  0  0  0  0  0  0  0  0  0  0
  152.7581  136.3404  155.1770 H   0  0  0  0  0  0  0  0  0  0  0  0
  152.2191  136.6170  153.5323 H   0  0  0  0  0  0  0  0  0  0  0  0
  149.6050  143.2633  156.1553 H   0  0  0  0  0  0  0  0  0  0  0  0
  150.3588  145.0141  157.3926 H   0  0  0  0  0  0  0  0  0  0  0  0
  151.6130  145.8214  159.3908 H   0  0  0  0  0  0  0  0  0  0  0  0
  153.0062  144.2045  160.6891 H   0  0  0  0  0  0  0  0  0  0  0  0
  1  2  1  0  0  0  0
  1 24  1  0  0  0  0
  1 25  1  0  0  0  0
  1 26  1  0  0  0  0
  2  3  1  0  0  0  0
  2 11  1  0  0  0  0
  2 27  1  0  0  0  0
  3  4  1  0  0  0  0
  4  5  1  0  0  0  0
  4 28  1  0  0  0  0
  4 29  1  0  0  0  0
  5 10  1  0  0  0  0
  5  6  1  0  0  0  0
  5 30  1  0  0  0  0
  6  7  1  0  0  0  0
  6 31  1  0  0  0  0
  6 32  1  0  0  0  0
  7  8  1  0  0  0  0
  7 33  1  0  0  0  0
  7 34  1  0  0  0  0
  8  9  1  0  0  0  0
  8 35  1  0  0  0  0
  8 36  1  0  0  0  0
  9 10  1  0  0  0  0
  9 37  1  0  0  0  0
  9 38  1  0  0  0  0
 11 12  2  0  0  0  0
 11 13  1  0  0  0  0
 13 14  1  0  0  0  0
 13 39  1  0  0  0  0
 14 23  1  0  0  0  0
 14 15  2  0  0  0  0
 15 16  1  0  0  0  0
 15 40  1  0  0  0  0
 16 17  2  0  0  0  0
 16 41  1  0  0  0  0
 17 18  1  0  0  0  0
 17 42  1  0  0  0  0
 18 19  1  0  0  0  0
 18 23  2  0  0  0  0
 19 20  1  0  0  0  0
 19 21  1  0  0  0  0
 19 22  1  0  0  0  0
M  END
> <s_m_source_file>
AV-unprocessed.smi

> <i_m_source_file_index>
946

> <i_lp_mmshare_version>
43012

> <i_f3d_flags>
0

> <s_epik_input>
TzFbQ0gyXVtDSDJdW0NIMl1bQ0gyXVtDQEhdMVtDSDJdT1tDQEBIXShbQ0gzXSlDKD1PKVtOSF1jMltjSF1bY0hdW2NIXWMobjIpQyhGKShGKUY=

> <s_epik_cmdline>
J2VwaWtfcHl0aG9uJywgJy1waCcsICc3LjAnLCAnLXRuJywgJzgnLCAnLW1hJywgJzIwMCcsICctbWV0YWxfYmluZGluZycsICctaW1hZScsICc8aW5maWxlLm1hZT4nLCAnLW9tYWUnLCAnPG91dGZpbGUubWFlPic=

> <r_lp_tautomer_probability>
1

> <r_epik_Ionization_Penalty>
1.32683e-06

> <r_epik_Ionization_Penalty_Charging>
0

> <r_epik_Ionization_Penalty_Neutral>
1.32683e-06

> <r_epik_State_Penalty>
-0

> <r_epik_Charging_Adjusted_Penalty>
0

> <i_epik_Tot_Q>
0

> <i_epik_Tot_abs_Q>
0

> <r_epik_Metal_State_Penalty>
-0

> <b_epik_Metal_Only>
0

> <s_lp_Force_Field>
OPLS_2005

> <r_lp_Energy>
15.1486

> <b_lp_Chiralities_Consistent>
1

> <s_lp_Variant>
AV-unprocessed.smi:946-1

> <Gold.Version>
5.8.1

> <Gold.Id.Protein>
6NUR|6NUR_protein|mol2

> <Gold.PLP.Fitness>
46.7424

> <Gold.PLP.PLP>
-45.5564

> <Gold.PLP.part.hbond>
-1.0000

> <Gold.PLP.part.metal>
0.0000

> <Gold.PLP.part.buried>
-3.8536

> <Gold.PLP.part.nonpolar>
-39.8383

> <Gold.PLP.part.repulsive>
0.3770

> <Gold.PLP.ligand.clash>
0.0000

> <Gold.PLP.ligand.torsion>
1.0994

> <Gold.PLP.Chemscore.Hbond>
1.0000

> <Gold.PLP.Chemscore.CHOScore>
0.0000

> <Gold.PLP.Chemscore.Metal>
0.0000

> <Gold.Chemscore.Hbonds>
donor molecule, donor type, donor heavy atom, donor atom, acceptor molecule, acceptor atom, score
      L1  H    13    39       P1  8028  1.00
      P1  H  7989  7998       L1     3  0.02

> <Gold.PLP.Chemscore.Internal.Correction>
0.3848

> <Gold.Rescore>
     Score         DG    S(hbond)    S(metal)    S(lipo)     H(rot)  DE(clash)    DE(int)     intcor
     11.66     -15.23       1.00        0.00      93.28       1.76       0.17       3.40       ----

> <Gold.Chemscore.Fitness>
11.6609

> <Gold.Chemscore.DG>
-15.2313

> <Gold.Chemscore.ZeroCoef>
-5.4800

> <Gold.Chemscore.Hbond>
0.9978

> <Gold.Chemscore.Metal>
0.0000

> <Gold.Chemscore.Lipo>
93.2751

> <Gold.Chemscore.Internal_Hbond>
0.0000

> <Gold.Chemscore.DEClash>
0.1664

> <Gold.Chemscore.DEInternal>
3.4040

> <Gold.Chemscore.Rot>
1.7557

> <Gold.Chemscore.Internal.Correction>
   9.000000E+99

> <Gold.Chemscore.Hbonds>
donor molecule, donor type, donor heavy atom, donor atom, acceptor molecule, acceptor atom, score
      L1  H    13    39       P1  8028  1.00

> <Gold.Chemscore.Hbond.Weighted>
-3.3327

> <Gold.Chemscore.Metal.Weighted>
-0.0000

> <Gold.Chemscore.Lipo.Weighted>
-10.9132

> <Gold.Chemscore.Internal_Hbond.Weighted>
0.0000

> <Gold.Chemscore.DEClash.Weighted>
0.1664

> <Gold.Chemscore.DEInternal.Weighted>
3.4040

> <Gold.Chemscore.Rot.Weighted>
4.4946

> <Gold.Chemscore.Internal.Correction.Weighted>
   9.000000E+99

> <Gold.Protein.RotatedTorsions>
[ 6907 6896 6895 6894 ] final  106.34 input  -60.11 | X-H torsion
[ 7974 7965 7964 7962 ] final -121.84 input  175.53 | X-H torsion
[ 8008 7997 7996 7995 ] final -109.93 input   59.86 | X-H torsion
[ 10167 10162 10161 10158 ] final  158.56 input  -65.29 | X-H torsion
[ 10718 10713 10712 10709 ] final  126.04 input   66.30 | X-H torsion
[ 10763 10752 10751 10750 ] final  160.97 input  -60.55 | X-H torsion
[ 11005 11000 10999 10996 ] final   88.38 input  -57.11 | X-H torsion

> <Gold.Protein.ActiveResidues>
 VAL166  LYS551  ARG553  GLY616  TRP617  ASP618  TYR619  PRO620  LYS621  CYS622 
 ASP623  PHE694  ASN695  SER759  ASP760  ASP761  ALA762  ILE779  LEU786  VAL792 
 PHE793  MET794  SER795  GLU796  ALA797  LYS798  CYS799  TRP800  GLU811  SER814 

> <Gold.Protein.RotatedAtoms>
  152.5197  133.9395  159.7619 H   0  0  0  0  0  0  0  0  0  0  0  0  # atno 6907 bound_to 6896
  150.9728  133.6317  159.2742 H   0  0  0  0  0  0  0  0  0  0  0  0  # atno 6908 bound_to 6896
  151.3522  135.0892  159.9460 H   0  0  0  0  0  0  0  0  0  0  0  0  # atno 6909 bound_to 6896
  145.0360  140.8106  143.4295 H   0  0  0  0  0  0  0  0  0  0  0  0  # atno 7974 bound_to 7965
  154.9668  140.0398  157.2216 H   0  0  0  0  0  0  0  0  0  0  0  0  # atno 8008 bound_to 7997
  154.7838  140.2823  155.6021 H   0  0  0  0  0  0  0  0  0  0  0  0  # atno 8009 bound_to 7997
  156.2940  140.2586  156.2670 H   0  0  0  0  0  0  0  0  0  0  0  0  # atno 8010 bound_to 7997
  139.4827  144.4813  151.8440 H   0  0  0  0  0  0  0  0  0  0  0  0  # atno 10167 bound_to 10162
  157.5452  131.1096  150.8793 H   0  0  0  0  0  0  0  0  0  0  0  0  # atno 10718 bound_to 10713
  154.2556  135.2770  155.2799 H   0  0  0  0  0  0  0  0  0  0  0  0  # atno 10763 bound_to 10752
  154.5427  135.5698  153.6857 H   0  0  0  0  0  0  0  0  0  0  0  0  # atno 10764 bound_to 10752
  152.9972  135.6255  154.2705 H   0  0  0  0  0  0  0  0  0  0  0  0  # atno 10765 bound_to 10752
  139.8898  134.8484  156.2992 H   0  0  0  0  0  0  0  0  0  0  0  0  # atno 11005 bound_to 11000
  145.1709  139.2405  143.5342 LP  0  0  0  0  0  0  0  0  0  0  0  0  # atno 17320 bound_to 7965
  146.3504  140.1460  142.8593 LP  0  0  0  0  0  0  0  0  0  0  0  0  # atno 17321 bound_to 7965
  140.4289  144.2142  150.5887 LP  0  0  0  0  0  0  0  0  0  0  0  0  # atno 17342 bound_to 10162
  140.4799  143.2383  151.8970 LP  0  0  0  0  0  0  0  0  0  0  0  0  # atno 17343 bound_to 10162
  156.9334  130.5358  149.5279 LP  0  0  0  0  0  0  0  0  0  0  0  0  # atno 17370 bound_to 10713
  156.0530  130.5596  150.9030 LP  0  0  0  0  0  0  0  0  0  0  0  0  # atno 17371 bound_to 10713
  140.9924  133.7200  156.0835 LP  0  0  0  0  0  0  0  0  0  0  0  0  # atno 17394 bound_to 11000
  140.7607  134.3942  157.5526 LP  0  0  0  0  0  0  0  0  0  0  0  0  # atno 17395 bound_to 11000

$$$$
