AV-unprocessed.smi:3303|AV-procd|sdf|12670|dock4
  -GOLD-   2272019 03D 1   1.00000     0.00000
 Structure written by MMmdl.
 45 46  0  0  0  0  0  0  0  0  3 V2000
  143.5886  132.7256  148.8812 C   0  0  0  0  0  0  0  0  0  0  0  0
  144.3577  132.3821  150.1692 C   0  0  1  0  0  0  0  0  0  0  0  0
  145.7616  131.8376  149.8138 C   0  0  0  0  0  0  0  0  0  0  0  0
  146.5685  131.5071  151.0167 N   0  3  2  0  0  0  0  0  0  0  0  0
  146.1335  130.2500  151.6775 C   0  0  0  0  0  0  0  0  0  0  0  0
  146.7174  132.6878  151.9152 C   0  0  2  0  0  0  0  0  0  0  0  0
  147.6390  132.4156  153.1166 C   0  0  0  0  0  0  0  0  0  0  0  0
  145.3427  133.2428  152.3408 C   0  0  0  0  0  0  0  0  0  0  0  0
  144.4703  133.5962  151.1219 C   0  0  2  0  0  0  0  0  0  0  0  0
  143.1328  134.0351  151.5823 N   0  3  0  0  0  0  0  0  0  0  0  0
  143.1399  135.2057  152.4825 C   0  0  0  0  0  0  0  0  0  0  0  0
  141.9742  135.1408  153.4783 C   0  0  0  0  0  0  0  0  0  0  0  0
  141.1438  136.4098  153.4729 C   0  0  0  0  0  0  0  0  0  0  0  0
  139.7663  136.3721  153.7768 C   0  0  0  0  0  0  0  0  0  0  0  0
  139.0411  137.5792  153.7518 C   0  0  0  0  0  0  0  0  0  0  0  0
  139.7178  138.7699  153.4243 C   0  0  0  0  0  0  0  0  0  0  0  0
  141.0951  138.7007  153.1346 C   0  0  0  0  0  0  0  0  0  0  0  0
  141.7996  137.5480  153.1543 N   0  0  0  0  0  0  0  0  0  0  0  0
  144.0758  133.5310  148.3305 H   0  0  0  0  0  0  0  0  0  0  0  0
  142.5663  133.0388  149.0934 H   0  0  0  0  0  0  0  0  0  0  0  0
  143.5291  131.8614  148.2190 H   0  0  0  0  0  0  0  0  0  0  0  0
  143.8032  131.5929  150.6791 H   0  0  0  0  0  0  0  0  0  0  0  0
  145.6805  130.9574  149.1744 H   0  0  0  0  0  0  0  0  0  0  0  0
  146.3072  132.5821  149.2316 H   0  0  0  0  0  0  0  0  0  0  0  0
  145.1689  130.3580  152.1725 H   0  0  0  0  0  0  0  0  0  0  0  0
  146.8610  129.9200  152.4185 H   0  0  0  0  0  0  0  0  0  0  0  0
  146.0456  129.4462  150.9459 H   0  0  0  0  0  0  0  0  0  0  0  0
  147.2111  133.4588  151.3209 H   0  0  0  0  0  0  0  0  0  0  0  0
  147.8504  133.3386  153.6572 H   0  0  0  0  0  0  0  0  0  0  0  0
  148.5949  132.0004  152.7952 H   0  0  0  0  0  0  0  0  0  0  0  0
  147.1904  131.7225  153.8289 H   0  0  0  0  0  0  0  0  0  0  0  0
  144.8269  132.5201  152.9746 H   0  0  0  0  0  0  0  0  0  0  0  0
  145.4840  134.1336  152.9545 H   0  0  0  0  0  0  0  0  0  0  0  0
  144.9579  134.4125  150.5849 H   0  0  0  0  0  0  0  0  0  0  0  0
  142.5756  134.2621  150.7708 H   0  0  0  0  0  0  0  0  0  0  0  0
  144.0909  135.2391  153.0160 H   0  0  0  0  0  0  0  0  0  0  0  0
  143.0684  136.1181  151.8887 H   0  0  0  0  0  0  0  0  0  0  0  0
  141.3305  134.2916  153.2449 H   0  0  0  0  0  0  0  0  0  0  0  0
  142.3519  134.9715  154.4879 H   0  0  0  0  0  0  0  0  0  0  0  0
  139.2737  135.4430  154.0238 H   0  0  0  0  0  0  0  0  0  0  0  0
  137.9852  137.5917  153.9783 H   0  0  0  0  0  0  0  0  0  0  0  0
  139.1940  139.7140  153.3958 H   0  0  0  0  0  0  0  0  0  0  0  0
  141.6451  139.5942  152.8790 H   0  0  0  0  0  0  0  0  0  0  0  0
  142.6911  133.2667  152.0674 H   0  0  0  0  0  0  0  0  0  0  0  0
  147.4969  131.3073  150.6713 H   0  0  0  0  0  0  0  0  0  0  0  0
  1  2  1  0  0  0  0
  1 19  1  0  0  0  0
  1 20  1  0  0  0  0
  1 21  1  0  0  0  0
  2  9  1  0  0  0  0
  2  3  1  0  0  0  0
  2 22  1  0  0  0  0
  3  4  1  0  0  0  0
  3 23  1  0  0  0  0
  3 24  1  0  0  0  0
  4  5  1  0  0  0  0
  4  6  1  0  0  0  0
  4 45  1  0  0  0  0
  5 25  1  0  0  0  0
  5 26  1  0  0  0  0
  5 27  1  0  0  0  0
  6  7  1  0  0  0  0
  6  8  1  0  0  0  0
  6 28  1  0  0  0  0
  7 29  1  0  0  0  0
  7 30  1  0  0  0  0
  7 31  1  0  0  0  0
  8  9  1  0  0  0  0
  8 32  1  0  0  0  0
  8 33  1  0  0  0  0
  9 10  1  0  0  0  0
  9 34  1  0  0  0  0
 10 11  1  0  0  0  0
 10 35  1  0  0  0  0
 10 44  1  0  0  0  0
 11 12  1  0  0  0  0
 11 36  1  0  0  0  0
 11 37  1  0  0  0  0
 12 13  1  0  0  0  0
 12 38  1  0  0  0  0
 12 39  1  0  0  0  0
 13 18  1  0  0  0  0
 13 14  2  0  0  0  0
 14 15  1  0  0  0  0
 14 40  1  0  0  0  0
 15 16  2  0  0  0  0
 15 41  1  0  0  0  0
 16 17  1  0  0  0  0
 16 42  1  0  0  0  0
 17 18  2  0  0  0  0
 17 43  1  0  0  0  0
M  CHG  1   4   1
M  CHG  1  10   1
M  END
> <s_m_source_file>
AV-unprocessed.smi

> <i_m_source_file_index>
3303

> <i_lp_mmshare_version>
43012

> <i_f3d_flags>
0

> <s_epik_input>
W0NIM11bQ0BASF0xW0NIMl1OKFtDSDNdKVtDQEBIXShbQ0gzXSlbQ0gyXVtDQEhdMVtOSF1bQ0gyXVtDSDJdYzJbY0hdW2NIXVtjSF1bY0hdbjI=

> <s_epik_cmdline>
J2VwaWtfcHl0aG9uJywgJy1waCcsICc3LjAnLCAnLXRuJywgJzgnLCAnLW1hJywgJzIwMCcsICctbWV0YWxfYmluZGluZycsICctaW1hZScsICc8aW5maWxlLm1hZT4nLCAnLW9tYWUnLCAnPG91dGZpbGUubWFlPic=

> <r_epik_Ionization_Penalty>
0.0769462

> <r_epik_Ionization_Penalty_Charging>
0.0759813

> <r_epik_Ionization_Penalty_Neutral>
0.000964829

> <r_epik_State_Penalty>
0.0654373

> <r_epik_Charging_Adjusted_Penalty>
0.141419

> <i_epik_Tot_Q>
2

> <i_epik_Tot_abs_Q>
2

> <r_epik_Metal_State_Penalty>
0.0656439

> <b_epik_Metal_Only>
0

> <s_lp_Force_Field>
OPLS_2005

> <r_lp_Energy>
31.8581

> <b_lp_Chiralities_Consistent>
1

> <s_lp_Variant>
AV-unprocessed.smi:3303-14

> <Gold.Version>
5.8.1

> <Gold.Id.Protein>
6NUR|6NUR_protein|mol2

> <Gold.PLP.Fitness>
54.4253

> <Gold.PLP.PLP>
-42.5121

> <Gold.PLP.part.hbond>
-2.0000

> <Gold.PLP.part.metal>
0.0000

> <Gold.PLP.part.buried>
-3.8919

> <Gold.PLP.part.nonpolar>
-36.9758

> <Gold.PLP.part.repulsive>
0.2694

> <Gold.PLP.ligand.clash>
0.0000

> <Gold.PLP.ligand.torsion>
0.9356

> <Gold.PLP.Chemscore.Hbond>
3.0000

> <Gold.PLP.Chemscore.CHOScore>
1.5913

> <Gold.PLP.Chemscore.Metal>
0.0000

> <Gold.Chemscore.Hbonds>
donor molecule, donor type, donor heavy atom, donor atom, acceptor molecule, acceptor atom, score
      L1  H     4    45       P1 10747  1.00
      L1  H    10    35       P1 10186  2.00
      L1  C    17    43       P1 10160  0.51
      L1  C    17    43       P1 10175  1.00

> <Gold.PLP.Chemscore.Internal.Correction>
0.0106

> <Gold.Rescore>
     Score         DG    S(hbond)    S(metal)    S(lipo)     H(rot)  DE(clash)    DE(int)     intcor
     21.61     -22.18       1.91        0.00     118.39       1.37       0.12       0.44       ----

> <Gold.Chemscore.Fitness>
21.6096

> <Gold.Chemscore.DG>
-22.1774

> <Gold.Chemscore.ZeroCoef>
-5.4800

> <Gold.Chemscore.Hbond>
1.9055

> <Gold.Chemscore.Metal>
0.0000

> <Gold.Chemscore.Lipo>
118.3885

> <Gold.Chemscore.Internal_Hbond>
0.0000

> <Gold.Chemscore.DEClash>
0.1248

> <Gold.Chemscore.DEInternal>
0.4430

> <Gold.Chemscore.Rot>
1.3744

> <Gold.Chemscore.Internal.Correction>
   9.000000E+99

> <Gold.Chemscore.Hbonds>
donor molecule, donor type, donor heavy atom, donor atom, acceptor molecule, acceptor atom, score
      L1  H     4    45       P1 10747  0.98
      L1  H    10    35       P1 10186  0.38

> <Gold.Chemscore.Hbond.Weighted>
-6.3644

> <Gold.Chemscore.Metal.Weighted>
-0.0000

> <Gold.Chemscore.Lipo.Weighted>
-13.8515

> <Gold.Chemscore.Internal_Hbond.Weighted>
0.0000

> <Gold.Chemscore.DEClash.Weighted>
0.1248

> <Gold.Chemscore.DEInternal.Weighted>
0.4430

> <Gold.Chemscore.Rot.Weighted>
3.5185

> <Gold.Chemscore.Internal.Correction.Weighted>
   9.000000E+99

> <Gold.Protein.RotatedTorsions>
[ 6907 6896 6895 6894 ] final -121.02 input  -60.11 | X-H torsion
[ 7974 7965 7964 7962 ] final  118.89 input  175.53 | X-H torsion
[ 8008 7997 7996 7995 ] final  118.64 input   59.86 | X-H torsion
[ 10167 10162 10161 10158 ] final   76.43 input  -65.29 | X-H torsion
[ 10718 10713 10712 10709 ] final   95.11 input   66.30 | X-H torsion
[ 10763 10752 10751 10750 ] final  -56.27 input  -60.55 | X-H torsion
[ 11005 11000 10999 10996 ] final  -40.87 input  -57.11 | X-H torsion

> <Gold.Protein.ActiveResidues>
 VAL166  LYS551  ARG553  GLY616  TRP617  ASP618  TYR619  PRO620  LYS621  CYS622 
 ASP623  PHE694  ASN695  SER759  ASP760  ASP761  ALA762  ILE779  LEU786  VAL792 
 PHE793  MET794  SER795  GLU796  ALA797  LYS798  CYS799  TRP800  GLU811  SER814 

> <Gold.Protein.RotatedAtoms>
  150.8445  133.7883  159.3047 H   0  0  0  0  0  0  0  0  0  0  0  0  # atno 6907 bound_to 6896
  151.5574  135.1064  159.9974 H   0  0  0  0  0  0  0  0  0  0  0  0  # atno 6908 bound_to 6896
  152.4502  133.7572  159.6782 H   0  0  0  0  0  0  0  0  0  0  0  0  # atno 6909 bound_to 6896
  145.1497  139.3218  143.4573 H   0  0  0  0  0  0  0  0  0  0  0  0  # atno 7974 bound_to 7965
  156.2556  140.2870  156.0866 H   0  0  0  0  0  0  0  0  0  0  0  0  # atno 8008 bound_to 7997
  155.1508  140.0397  157.2838 H   0  0  0  0  0  0  0  0  0  0  0  0  # atno 8009 bound_to 7997
  154.6462  140.2534  155.7272 H   0  0  0  0  0  0  0  0  0  0  0  0  # atno 8010 bound_to 7997
  139.9923  144.5747  150.7807 H   0  0  0  0  0  0  0  0  0  0  0  0  # atno 10167 bound_to 10162
  157.6942  131.0535  150.4289 H   0  0  0  0  0  0  0  0  0  0  0  0  # atno 10718 bound_to 10713
  154.2040  135.6406  153.5095 H   0  0  0  0  0  0  0  0  0  0  0  0  # atno 10763 bound_to 10752
  153.0005  135.5458  154.6285 H   0  0  0  0  0  0  0  0  0  0  0  0  # atno 10764 bound_to 10752
  154.5705  135.2916  155.0805 H   0  0  0  0  0  0  0  0  0  0  0  0  # atno 10765 bound_to 10752
  141.0206  133.6865  156.2380 H   0  0  0  0  0  0  0  0  0  0  0  0  # atno 11005 bound_to 11000
  146.3496  140.1566  142.8591 LP  0  0  0  0  0  0  0  0  0  0  0  0  # atno 17320 bound_to 7965
  145.0444  140.8970  143.5033 LP  0  0  0  0  0  0  0  0  0  0  0  0  # atno 17321 bound_to 7965
  140.7450  143.2869  151.3439 LP  0  0  0  0  0  0  0  0  0  0  0  0  # atno 17342 bound_to 10162
  139.6331  144.0683  152.2493 LP  0  0  0  0  0  0  0  0  0  0  0  0  # atno 17343 bound_to 10162
  156.4657  130.4041  149.6549 LP  0  0  0  0  0  0  0  0  0  0  0  0  # atno 17370 bound_to 10713
  156.3647  130.7500  151.2476 LP  0  0  0  0  0  0  0  0  0  0  0  0  # atno 17371 bound_to 10713
  140.6580  134.4997  157.5582 LP  0  0  0  0  0  0  0  0  0  0  0  0  # atno 17394 bound_to 11000
  139.9143  134.8278  156.1418 LP  0  0  0  0  0  0  0  0  0  0  0  0  # atno 17395 bound_to 11000

$$$$
