AV-unprocessed.smi:723|AV-procd|sdf|3505|dock1
  -GOLD-   22720 0503D 1   1.00000     0.00000
 Structure written by MMmdl.
 42 44  0  0  0  0  0  0  0  0  1 V2000
  145.2691  136.1131  150.9613 C   0  0  0  0  0  0  0  0  0  0  0  0
  145.3419  136.5710  152.2997 O   0  0  0  0  0  0  0  0  0  0  0  0
  145.9368  137.8545  152.4043 C   0  0  0  0  0  0  0  0  0  0  0  0
  146.5097  138.0533  153.8147 C   0  0  0  0  0  0  0  0  0  0  0  0
  147.1950  139.3250  153.9543 N   0  0  0  0  0  0  0  0  0  0  0  0
  147.8556  139.8188  155.0616 C   0  0  0  0  0  0  0  0  0  0  0  0
  148.3223  141.0467  154.7000 C   0  0  0  0  0  0  0  0  0  0  0  0
  149.0574  141.9147  155.5458 N   0  0  0  0  0  0  0  0  0  0  0  0
  149.4886  141.6614  156.7921 C   0  0  0  0  0  0  0  0  0  0  0  0
  149.2718  140.6235  157.4180 O   0  0  0  0  0  0  0  0  0  0  0  0
  150.1978  142.6889  157.2783 N   0  0  0  0  0  0  0  0  0  0  0  0
  150.8164  142.7316  158.5635 C   0  0  2  0  0  0  0  0  0  0  0  0
  151.4283  144.0550  159.0000 C   0  0  1  0  0  0  0  0  0  0  0  0
  151.3159  144.4776  160.4579 C   0  0  0  0  0  0  0  0  0  0  0  0
  152.4535  143.9356  161.3385 C   0  0  0  0  0  0  0  0  0  0  0  0
  152.7074  142.4442  161.0845 C   0  0  0  0  0  0  0  0  0  0  0  0
  153.1864  142.2105  159.6429 C   0  0  0  0  0  0  0  0  0  0  0  0
  152.3149  142.8932  158.6000 C   0  0  1  0  0  0  0  0  0  0  0  0
  147.9133  141.2353  153.3495 C   0  0  0  0  0  0  0  0  0  0  0  0
  147.2314  140.1885  152.9093 N   0  0  0  0  0  0  0  0  0  0  0  0
  144.8072  135.1262  150.9362 H   0  0  0  0  0  0  0  0  0  0  0  0
  146.2624  136.0309  150.5179 H   0  0  0  0  0  0  0  0  0  0  0  0
  144.6655  136.7830  150.3476 H   0  0  0  0  0  0  0  0  0  0  0  0
  146.7354  137.9548  151.6677 H   0  0  0  0  0  0  0  0  0  0  0  0
  145.1972  138.6278  152.1900 H   0  0  0  0  0  0  0  0  0  0  0  0
  145.7128  137.9934  154.5574 H   0  0  0  0  0  0  0  0  0  0  0  0
  147.2160  137.2557  154.0479 H   0  0  0  0  0  0  0  0  0  0  0  0
  147.9294  139.2671  155.9872 H   0  0  0  0  0  0  0  0  0  0  0  0
  149.3031  142.8108  155.1514 H   0  0  0  0  0  0  0  0  0  0  0  0
  150.3207  143.5002  156.6902 H   0  0  0  0  0  0  0  0  0  0  0  0
  150.3763  142.1165  159.3471 H   0  0  0  0  0  0  0  0  0  0  0  0
  151.3549  144.8777  158.2906 H   0  0  0  0  0  0  0  0  0  0  0  0
  151.2958  145.5664  160.5124 H   0  0  0  0  0  0  0  0  0  0  0  0
  150.3549  144.1338  160.8426 H   0  0  0  0  0  0  0  0  0  0  0  0
  153.3681  144.4963  161.1409 H   0  0  0  0  0  0  0  0  0  0  0  0
  152.2137  144.1007  162.3892 H   0  0  0  0  0  0  0  0  0  0  0  0
  153.4563  142.0695  161.7827 H   0  0  0  0  0  0  0  0  0  0  0  0
  151.7973  141.8757  161.2782 H   0  0  0  0  0  0  0  0  0  0  0  0
  154.2008  142.5964  159.5366 H   0  0  0  0  0  0  0  0  0  0  0  0
  153.2343  141.1434  159.4255 H   0  0  0  0  0  0  0  0  0  0  0  0
  152.7982  142.9685  157.6272 H   0  0  0  0  0  0  0  0  0  0  0  0
  148.0759  142.0699  152.6841 H   0  0  0  0  0  0  0  0  0  0  0  0
  1  2  1  0  0  0  0
  1 21  1  0  0  0  0
  1 22  1  0  0  0  0
  1 23  1  0  0  0  0
  2  3  1  0  0  0  0
  3  4  1  0  0  0  0
  3 24  1  0  0  0  0
  3 25  1  0  0  0  0
  4  5  1  0  0  0  0
  4 26  1  0  0  0  0
  4 27  1  0  0  0  0
  5 20  1  0  0  0  0
  5  6  1  0  0  0  0
  6  7  2  0  0  0  0
  6 28  1  0  0  0  0
  7  8  1  0  0  0  0
  7 19  1  0  0  0  0
  8  9  1  0  0  0  0
  8 29  1  0  0  0  0
  9 10  2  0  0  0  0
  9 11  1  0  0  0  0
 11 12  1  0  0  0  0
 11 30  1  0  0  0  0
 12 18  1  0  0  0  0
 12 13  1  0  0  0  0
 12 31  1  0  0  0  0
 13 18  1  0  0  0  0
 13 14  1  0  0  0  0
 13 32  1  0  0  0  0
 14 15  1  0  0  0  0
 14 33  1  0  0  0  0
 14 34  1  0  0  0  0
 15 16  1  0  0  0  0
 15 35  1  0  0  0  0
 15 36  1  0  0  0  0
 16 17  1  0  0  0  0
 16 37  1  0  0  0  0
 16 38  1  0  0  0  0
 17 18  1  0  0  0  0
 17 39  1  0  0  0  0
 17 40  1  0  0  0  0
 18 41  1  0  0  0  0
 19 20  2  0  0  0  0
 19 42  1  0  0  0  0
M  END
> <s_m_source_file>
AV-unprocessed.smi

> <i_m_source_file_index>
723

> <i_lp_mmshare_version>
43012

> <i_f3d_flags>
0

> <s_epik_input>
W0NIM11PW0NIMl1bQ0gyXW4xW2NIXWMoW2NIXW4xKVtOSF1DKD1PKVtOSF1bQ0BIXTJbQ0BASF0oW0NAQEhdMjMpW0NIMl1bQ0gyXVtDSDJdW0NIMl0z

> <s_epik_cmdline>
J2VwaWtfcHl0aG9uJywgJy1waCcsICc3LjAnLCAnLXRuJywgJzgnLCAnLW1hJywgJzIwMCcsICctbWV0YWxfYmluZGluZycsICctaW1hZScsICc8aW5maWxlLm1hZT4nLCAnLW9tYWUnLCAnPG91dGZpbGUubWFlPic=

> <r_lp_tautomer_probability>
1

> <r_epik_Ionization_Penalty>
0.00031755

> <r_epik_Ionization_Penalty_Charging>
0

> <r_epik_Ionization_Penalty_Neutral>
0.00031755

> <r_epik_State_Penalty>
-0

> <r_epik_Charging_Adjusted_Penalty>
0

> <i_epik_Tot_Q>
0

> <i_epik_Tot_abs_Q>
0

> <r_epik_Metal_State_Penalty>
-0

> <b_epik_Metal_Only>
0

> <s_lp_Force_Field>
OPLS_2005

> <r_lp_Energy>
35.4859

> <b_lp_Chiralities_Consistent>
1

> <s_lp_Variant>
AV-unprocessed.smi:723-1

> <Gold.Version>
5.8.1

> <Gold.Id.Protein>
6NUR|6NUR_protein|mol2

> <Gold.PLP.Fitness>
44.2510

> <Gold.PLP.PLP>
-38.7994

> <Gold.PLP.part.hbond>
-2.0000

> <Gold.PLP.part.metal>
0.0000

> <Gold.PLP.part.buried>
-6.3615

> <Gold.PLP.part.nonpolar>
-31.5840

> <Gold.PLP.part.repulsive>
0.7822

> <Gold.PLP.ligand.clash>
0.0000

> <Gold.PLP.ligand.torsion>
0.1605

> <Gold.PLP.Chemscore.Hbond>
1.8960

> <Gold.PLP.Chemscore.CHOScore>
0.0000

> <Gold.PLP.Chemscore.Metal>
0.0000

> <Gold.Chemscore.Hbonds>
donor molecule, donor type, donor heavy atom, donor atom, acceptor molecule, acceptor atom, score
      L1  H     8    29       P1  8028  0.69
      L1  H    11    30       P1  8028  0.46

> <Gold.PLP.Chemscore.Internal.Correction>
0.0846

> <Gold.Rescore>
     Score         DG    S(hbond)    S(metal)    S(lipo)     H(rot)  DE(clash)    DE(int)     intcor
     18.91     -20.40       1.89        0.00     107.77       1.56       0.05       1.44       ----

> <Gold.Chemscore.Fitness>
18.9071

> <Gold.Chemscore.DG>
-20.3952

> <Gold.Chemscore.ZeroCoef>
-5.4800

> <Gold.Chemscore.Hbond>
1.8881

> <Gold.Chemscore.Metal>
0.0000

> <Gold.Chemscore.Lipo>
107.7717

> <Gold.Chemscore.Internal_Hbond>
0.0000

> <Gold.Chemscore.DEClash>
0.0462

> <Gold.Chemscore.DEInternal>
1.4418

> <Gold.Chemscore.Rot>
1.5627

> <Gold.Chemscore.Internal.Correction>
   9.000000E+99

> <Gold.Chemscore.Hbonds>
donor molecule, donor type, donor heavy atom, donor atom, acceptor molecule, acceptor atom, score
      L1  H     8    29       P1  8028  0.65
      L1  H    11    30       P1  8028  0.47

> <Gold.Chemscore.Hbond.Weighted>
-6.3063

> <Gold.Chemscore.Metal.Weighted>
-0.0000

> <Gold.Chemscore.Lipo.Weighted>
-12.6093

> <Gold.Chemscore.Internal_Hbond.Weighted>
0.0000

> <Gold.Chemscore.DEClash.Weighted>
0.0462

> <Gold.Chemscore.DEInternal.Weighted>
1.4418

> <Gold.Chemscore.Rot.Weighted>
4.0005

> <Gold.Chemscore.Internal.Correction.Weighted>
   9.000000E+99

> <Gold.Protein.RotatedTorsions>
[ 6907 6896 6895 6894 ] final   81.01 input  -60.11 | X-H torsion
[ 7974 7965 7964 7962 ] final -109.30 input  175.53 | X-H torsion
[ 8008 7997 7996 7995 ] final  139.44 input   59.86 | X-H torsion
[ 10167 10162 10161 10158 ] final  124.45 input  -65.29 | X-H torsion
[ 10718 10713 10712 10709 ] final   44.18 input   66.30 | X-H torsion
[ 10763 10752 10751 10750 ] final    7.51 input  -60.55 | X-H torsion
[ 11005 11000 10999 10996 ] final  -61.06 input  -57.11 | X-H torsion

> <Gold.Protein.ActiveResidues>
 VAL166  LYS551  ARG553  GLY616  TRP617  ASP618  TYR619  PRO620  LYS621  CYS622 
 ASP623  PHE694  ASN695  SER759  ASP760  ASP761  ALA762  ILE779  LEU786  VAL792 
 PHE793  MET794  SER795  GLU796  ALA797  LYS798  CYS799  TRP800  GLU811  SER814 

> <Gold.Protein.RotatedAtoms>
  152.5254  134.3269  159.9168 H   0  0  0  0  0  0  0  0  0  0  0  0  # atno 6907 bound_to 6896
  151.3218  133.4030  159.2663 H   0  0  0  0  0  0  0  0  0  0  0  0  # atno 6908 bound_to 6896
  150.9952  134.9295  159.7980 H   0  0  0  0  0  0  0  0  0  0  0  0  # atno 6909 bound_to 6896
  145.1822  140.8976  143.3473 H   0  0  0  0  0  0  0  0  0  0  0  0  # atno 7974 bound_to 7965
  156.2989  140.2367  156.4238 H   0  0  0  0  0  0  0  0  0  0  0  0  # atno 8008 bound_to 7997
  154.8331  140.0432  157.1511 H   0  0  0  0  0  0  0  0  0  0  0  0  # atno 8009 bound_to 7997
  154.9185  140.3000  155.5232 H   0  0  0  0  0  0  0  0  0  0  0  0  # atno 8010 bound_to 7997
  139.5741  144.6954  151.3701 H   0  0  0  0  0  0  0  0  0  0  0  0  # atno 10167 bound_to 10162
  157.4240  130.7985  149.7541 H   0  0  0  0  0  0  0  0  0  0  0  0  # atno 10718 bound_to 10713
  153.2354  135.6897  153.7842 H   0  0  0  0  0  0  0  0  0  0  0  0  # atno 10763 bound_to 10752
  153.6991  135.3300  155.3221 H   0  0  0  0  0  0  0  0  0  0  0  0  # atno 10764 bound_to 10752
  154.8332  135.4563  154.1256 H   0  0  0  0  0  0  0  0  0  0  0  0  # atno 10765 bound_to 10752
  141.1310  133.6627  156.5318 H   0  0  0  0  0  0  0  0  0  0  0  0  # atno 11005 bound_to 11000
  145.0125  139.3497  143.6113 LP  0  0  0  0  0  0  0  0  0  0  0  0  # atno 17320 bound_to 7965
  146.3451  139.9393  142.8743 LP  0  0  0  0  0  0  0  0  0  0  0  0  # atno 17321 bound_to 7965
  140.7024  143.7598  150.7425 LP  0  0  0  0  0  0  0  0  0  0  0  0  # atno 17342 bound_to 10162
  140.1113  143.4697  152.2368 LP  0  0  0  0  0  0  0  0  0  0  0  0  # atno 17343 bound_to 10162
  155.9890  130.3955  150.3093 LP  0  0  0  0  0  0  0  0  0  0  0  0  # atno 17370 bound_to 10713
  157.1243  131.0255  151.2996 LP  0  0  0  0  0  0  0  0  0  0  0  0  # atno 17371 bound_to 10713
  140.4209  134.7188  157.4889 LP  0  0  0  0  0  0  0  0  0  0  0  0  # atno 17394 bound_to 11000
  140.0360  134.6336  155.9043 LP  0  0  0  0  0  0  0  0  0  0  0  0  # atno 17395 bound_to 11000

$$$$
