AV-unprocessed.smi:2531|AV-procd|sdf|9964|dock2
  -GOLD-   2272014 03D 1   1.00000     0.00000
 Structure written by MMmdl.
 46 48  0  0  0  0  0  0  0  0  1 V2000
  151.6234  141.4009  159.8011 O   0  0  0  0  0  0  0  0  0  0  0  0
  151.4830  142.0378  158.7562 C   0  0  0  0  0  0  0  0  0  0  0  0
  152.1971  143.3919  158.5415 C   0  0  0  0  0  0  0  0  0  0  0  0
  153.0900  143.8161  159.7203 C   0  0  0  0  0  0  0  0  0  0  0  0
  152.1650  144.5384  160.7091 C   0  0  0  0  0  0  0  0  0  0  0  0
  150.9439  144.9972  159.8973 C   0  0  0  0  0  0  0  0  0  0  0  0
  151.2020  144.5592  158.4499 C   0  0  0  0  0  0  0  0  0  0  0  0
  150.7365  141.5231  157.6916 N   0  0  0  0  0  0  0  0  0  0  0  0
  151.1605  141.6718  156.3076 C   0  0  0  0  0  0  0  0  0  0  0  0
  150.4050  140.3619  156.0560 C   0  0  0  0  0  0  0  0  0  0  0  0
  151.3608  139.1779  155.0079 S   0  0  0  0  0  0  0  0  0  0  0  0
  150.5971  138.9274  153.7758 O   0  0  0  0  0  0  0  0  0  0  0  0
  152.7668  139.6021  154.9242 O   0  0  0  0  0  0  0  0  0  0  0  0
  151.3147  137.7349  155.9481 N   0  0  0  0  0  0  0  0  0  0  0  0
  150.6145  136.5801  155.3894 C   0  0  0  0  0  0  0  0  0  0  0  0
  150.7215  135.3804  156.3402 C   0  0  0  0  0  0  0  0  0  0  0  0
  150.2969  134.0837  155.6774 C   0  0  0  0  0  0  0  0  0  0  0  0
  149.7029  134.0887  154.3971 C   0  0  0  0  0  0  0  0  0  0  0  0
  149.3336  132.8562  153.8243 C   0  0  0  0  0  0  0  0  0  0  0  0
  149.5722  131.6726  154.5489 C   0  0  0  0  0  0  0  0  0  0  0  0
  150.1724  131.7744  155.8198 C   0  0  0  0  0  0  0  0  0  0  0  0
  150.5299  132.9509  156.3784 N   0  0  0  0  0  0  0  0  0  0  0  0
  150.4868  140.0952  157.5657 C   0  0  0  0  0  0  0  0  0  0  0  0
  152.8000  143.3241  157.6358 H   0  0  0  0  0  0  0  0  0  0  0  0
  153.6298  142.9900  160.1855 H   0  0  0  0  0  0  0  0  0  0  0  0
  153.8453  144.5149  159.3578 H   0  0  0  0  0  0  0  0  0  0  0  0
  151.8486  143.8551  161.4982 H   0  0  0  0  0  0  0  0  0  0  0  0
  152.6742  145.3753  161.1881 H   0  0  0  0  0  0  0  0  0  0  0  0
  150.0459  144.5112  160.2802 H   0  0  0  0  0  0  0  0  0  0  0  0
  150.7862  146.0738  159.9665 H   0  0  0  0  0  0  0  0  0  0  0  0
  151.6629  145.3790  157.8975 H   0  0  0  0  0  0  0  0  0  0  0  0
  150.2764  144.3089  157.9296 H   0  0  0  0  0  0  0  0  0  0  0  0
  150.7409  142.5426  155.8029 H   0  0  0  0  0  0  0  0  0  0  0  0
  152.2397  141.5815  156.1687 H   0  0  0  0  0  0  0  0  0  0  0  0
  149.3932  140.5168  155.6775 H   0  0  0  0  0  0  0  0  0  0  0  0
  152.2520  137.4758  156.2552 H   0  0  0  0  0  0  0  0  0  0  0  0
  149.5691  136.8405  155.2203 H   0  0  0  0  0  0  0  0  0  0  0  0
  151.0506  136.3364  154.4198 H   0  0  0  0  0  0  0  0  0  0  0  0
  151.7474  135.2742  156.6965 H   0  0  0  0  0  0  0  0  0  0  0  0
  150.1057  135.5494  157.2249 H   0  0  0  0  0  0  0  0  0  0  0  0
  149.5349  135.0132  153.8643 H   0  0  0  0  0  0  0  0  0  0  0  0
  148.8765  132.8195  152.8465 H   0  0  0  0  0  0  0  0  0  0  0  0
  149.3028  130.7097  154.1406 H   0  0  0  0  0  0  0  0  0  0  0  0
  150.3707  130.8874  156.4032 H   0  0  0  0  0  0  0  0  0  0  0  0
  151.3340  139.4813  157.8761 H   0  0  0  0  0  0  0  0  0  0  0  0
  149.5496  139.7715  158.0189 H   0  0  0  0  0  0  0  0  0  0  0  0
  1  2  2  0  0  0  0
  2  3  1  0  0  0  0
  2  8  1  0  0  0  0
  3  7  1  0  0  0  0
  3  4  1  0  0  0  0
  3 24  1  0  0  0  0
  4  5  1  0  0  0  0
  4 25  1  0  0  0  0
  4 26  1  0  0  0  0
  5  6  1  0  0  0  0
  5 27  1  0  0  0  0
  5 28  1  0  0  0  0
  6  7  1  0  0  0  0
  6 29  1  0  0  0  0
  6 30  1  0  0  0  0
  7 31  1  0  0  0  0
  7 32  1  0  0  0  0
  8 23  1  0  0  0  0
  8  9  1  0  0  0  0
  9 10  1  0  0  0  0
  9 33  1  0  0  0  0
  9 34  1  0  0  0  0
 10 11  1  0  0  0  0
 10 23  1  0  0  0  0
 10 35  1  0  0  0  0
 11 12  2  0  0  0  0
 11 13  2  0  0  0  0
 11 14  1  0  0  0  0
 14 15  1  0  0  0  0
 14 36  1  0  0  0  0
 15 16  1  0  0  0  0
 15 37  1  0  0  0  0
 15 38  1  0  0  0  0
 16 17  1  0  0  0  0
 16 39  1  0  0  0  0
 16 40  1  0  0  0  0
 17 22  1  0  0  0  0
 17 18  2  0  0  0  0
 18 19  1  0  0  0  0
 18 41  1  0  0  0  0
 19 20  2  0  0  0  0
 19 42  1  0  0  0  0
 20 21  1  0  0  0  0
 20 43  1  0  0  0  0
 21 22  2  0  0  0  0
 21 44  1  0  0  0  0
 23 45  1  0  0  0  0
 23 46  1  0  0  0  0
M  END
> <s_m_source_file>
AV-unprocessed.smi

> <i_m_source_file_index>
2531

> <i_lp_mmshare_version>
43012

> <i_f3d_flags>
0

> <s_epik_input>
W0NIMl0xW0NIMl1bQ0gyXVtDSDJdW0NIXTFDKD1PKU4yW0NIMl1bQ0hdKFtDSDJdMilTKD1PKSg9TylbTkhdW0NIMl1bQ0gyXWMzW2NIXVtjSF1bY0hdW2NIXW4z

> <s_epik_cmdline>
J2VwaWtfcHl0aG9uJywgJy1waCcsICc3LjAnLCAnLXRuJywgJzgnLCAnLW1hJywgJzIwMCcsICctbWV0YWxfYmluZGluZycsICctaW1hZScsICc8aW5maWxlLm1hZT4nLCAnLW9tYWUnLCAnPG91dGZpbGUubWFlPic=

> <r_epik_Ionization_Penalty>
0.0203172

> <r_epik_Ionization_Penalty_Charging>
0

> <r_epik_Ionization_Penalty_Neutral>
0.0203172

> <r_epik_State_Penalty>
0.0162494

> <r_epik_Charging_Adjusted_Penalty>
0.0162494

> <i_epik_Tot_Q>
0

> <i_epik_Tot_abs_Q>
0

> <r_epik_Metal_State_Penalty>
0.0444853

> <b_epik_Metal_Only>
0

> <s_lp_Force_Field>
OPLS_2005

> <r_lp_Energy>
30.9959

> <b_lp_Chiralities_Consistent>
1

> <s_lp_Variant>
AV-unprocessed.smi:2531-1

> <Gold.Version>
5.8.1

> <Gold.Id.Protein>
6NUR|6NUR_protein|mol2

> <Gold.PLP.Fitness>
48.9162

> <Gold.PLP.PLP>
-46.6934

> <Gold.PLP.part.hbond>
-3.4413

> <Gold.PLP.part.metal>
0.0000

> <Gold.PLP.part.buried>
-6.2019

> <Gold.PLP.part.nonpolar>
-37.1633

> <Gold.PLP.part.repulsive>
1.1656

> <Gold.PLP.ligand.clash>
0.0000

> <Gold.PLP.ligand.torsion>
1.2826

> <Gold.PLP.Chemscore.Hbond>
1.0000

> <Gold.PLP.Chemscore.CHOScore>
0.0000

> <Gold.PLP.Chemscore.Metal>
0.0000

> <Gold.Chemscore.Hbonds>
donor molecule, donor type, donor heavy atom, donor atom, acceptor molecule, acceptor atom, score
      P1  H  7997  8010       L1    13  1.00

> <Gold.PLP.Chemscore.Internal.Correction>
1.7881

> <Gold.Rescore>
     Score         DG    S(hbond)    S(metal)    S(lipo)     H(rot)  DE(clash)    DE(int)     intcor
     15.77     -17.24       1.00        0.00     112.53       1.85       0.22       1.25       ----

> <Gold.Chemscore.Fitness>
15.7714

> <Gold.Chemscore.DG>
-17.2405

> <Gold.Chemscore.ZeroCoef>
-5.4800

> <Gold.Chemscore.Hbond>
0.9966

> <Gold.Chemscore.Metal>
0.0000

> <Gold.Chemscore.Lipo>
112.5343

> <Gold.Chemscore.Internal_Hbond>
0.0000

> <Gold.Chemscore.DEClash>
0.2231

> <Gold.Chemscore.DEInternal>
1.2460

> <Gold.Chemscore.Rot>
1.8494

> <Gold.Chemscore.Internal.Correction>
   9.000000E+99

> <Gold.Chemscore.Hbonds>
donor molecule, donor type, donor heavy atom, donor atom, acceptor molecule, acceptor atom, score
      P1  H  7997  8010       L1    13  0.93

> <Gold.Chemscore.Hbond.Weighted>
-3.3286

> <Gold.Chemscore.Metal.Weighted>
-0.0000

> <Gold.Chemscore.Lipo.Weighted>
-13.1665

> <Gold.Chemscore.Internal_Hbond.Weighted>
0.0000

> <Gold.Chemscore.DEClash.Weighted>
0.2231

> <Gold.Chemscore.DEInternal.Weighted>
1.2460

> <Gold.Chemscore.Rot.Weighted>
4.7346

> <Gold.Chemscore.Internal.Correction.Weighted>
   9.000000E+99

> <Gold.Protein.RotatedTorsions>
[ 6907 6896 6895 6894 ] final   56.34 input  -60.11 | X-H torsion
[ 7974 7965 7964 7962 ] final   22.32 input  175.53 | X-H torsion
[ 8008 7997 7996 7995 ] final  104.68 input   59.86 | X-H torsion
[ 10167 10162 10161 10158 ] final   55.97 input  -65.29 | X-H torsion
[ 10718 10713 10712 10709 ] final -112.36 input   66.30 | X-H torsion
[ 10763 10752 10751 10750 ] final -101.33 input  -60.55 | X-H torsion
[ 11005 11000 10999 10996 ] final  127.21 input  -57.11 | X-H torsion

> <Gold.Protein.ActiveResidues>
 VAL166  LYS551  ARG553  GLY616  TRP617  ASP618  TYR619  PRO620  LYS621  CYS622 
 ASP623  PHE694  ASN695  SER759  ASP760  ASP761  ALA762  ILE779  LEU786  VAL792 
 PHE793  MET794  SER795  GLU796  ALA797  LYS798  CYS799  TRP800  GLU811  SER814 

> <Gold.Protein.RotatedAtoms>
  152.3627  134.6849  160.0201 H   0  0  0  0  0  0  0  0  0  0  0  0  # atno 6907 bound_to 6896
  151.7167  133.3308  159.3313 H   0  0  0  0  0  0  0  0  0  0  0  0  # atno 6908 bound_to 6896
  150.7616  134.6418  159.6286 H   0  0  0  0  0  0  0  0  0  0  0  0  # atno 6909 bound_to 6896
  146.2034  139.7902  142.8744 H   0  0  0  0  0  0  0  0  0  0  0  0  # atno 7974 bound_to 7965
  156.1594  140.3143  155.8781 H   0  0  0  0  0  0  0  0  0  0  0  0  # atno 8008 bound_to 7997
  155.3813  140.0488  157.3060 H   0  0  0  0  0  0  0  0  0  0  0  0  # atno 8009 bound_to 7997
  154.5132  140.2172  155.9127 H   0  0  0  0  0  0  0  0  0  0  0  0  # atno 8010 bound_to 7997
  140.2137  144.3862  150.6478 H   0  0  0  0  0  0  0  0  0  0  0  0  # atno 10167 bound_to 10162
  156.0701  130.5916  150.8497 H   0  0  0  0  0  0  0  0  0  0  0  0  # atno 10718 bound_to 10713
  154.7649  135.4902  153.9535 H   0  0  0  0  0  0  0  0  0  0  0  0  # atno 10763 bound_to 10752
  153.1296  135.6750  153.9208 H   0  0  0  0  0  0  0  0  0  0  0  0  # atno 10764 bound_to 10752
  153.8915  135.3120  155.3426 H   0  0  0  0  0  0  0  0  0  0  0  0  # atno 10765 bound_to 10752
  139.9496  134.9624  156.8821 H   0  0  0  0  0  0  0  0  0  0  0  0  # atno 11005 bound_to 11000
  145.3406  141.0287  143.3395 LP  0  0  0  0  0  0  0  0  0  0  0  0  # atno 17320 bound_to 7965
  144.8735  139.5004  143.6756 LP  0  0  0  0  0  0  0  0  0  0  0  0  # atno 17321 bound_to 7965
  140.6305  143.2187  151.6505 LP  0  0  0  0  0  0  0  0  0  0  0  0  # atno 17342 bound_to 10162
  139.5170  144.3329  152.0810 LP  0  0  0  0  0  0  0  0  0  0  0  0  # atno 17343 bound_to 10162
  157.5766  131.0946  150.9336 LP  0  0  0  0  0  0  0  0  0  0  0  0  # atno 17370 bound_to 10713
  156.9540  130.5430  149.5283 LP  0  0  0  0  0  0  0  0  0  0  0  0  # atno 17371 bound_to 10713
  140.5752  134.0405  155.7444 LP  0  0  0  0  0  0  0  0  0  0  0  0  # atno 17394 bound_to 11000
  141.1155  133.9547  157.2830 LP  0  0  0  0  0  0  0  0  0  0  0  0  # atno 17395 bound_to 11000

$$$$
