AV-unprocessed.smi:2024|AV-procd|sdf|8192|dock2
  -GOLD-   2272010443D 1   1.00000     0.00000
 Structure written by MMmdl.
 44 45  0  0  0  0  0  0  0  0  2 V2000
  146.0556  132.6955  150.1506 C   0  0  0  0  0  0  0  0  0  0  0  0
  145.5347  131.9943  151.3191 N   0  0  0  0  0  0  0  0  0  0  0  0
  146.0177  132.5389  152.5872 C   0  0  0  0  0  0  0  0  0  0  0  0
  145.4024  133.9186  152.8976 C   0  0  0  0  0  0  0  0  0  0  0  0
  143.9126  133.8406  152.9435 N   0  3  0  0  0  0  0  0  0  0  0  0
  143.2148  135.0797  153.4531 C   0  0  0  0  0  0  0  0  0  0  0  0
  143.4079  136.2664  152.4769 C   0  0  0  0  0  0  0  0  0  0  0  0
  141.6893  134.8369  153.6061 C   0  0  0  0  0  0  0  0  0  0  0  0
  143.7818  135.4229  154.8666 C   0  0  0  0  0  0  0  0  0  0  0  0
  143.2633  134.5815  155.9458 N   0  0  0  0  0  0  0  0  0  0  0  0
  144.0004  133.9815  156.8921 C   0  0  0  0  0  0  0  0  0  0  0  0
  145.2253  134.0841  156.9638 O   0  0  0  0  0  0  0  0  0  0  0  0
  143.2278  133.2738  157.7345 N   0  0  0  0  0  0  0  0  0  0  0  0
  143.6283  132.5237  158.8712 C   0  0  0  0  0  0  0  0  0  0  0  0
  144.8249  132.6284  159.4609 N   0  0  0  0  0  0  0  0  0  0  0  0
  144.9445  131.7728  160.5589 C   0  0  0  0  0  0  0  0  0  0  0  0
  143.8211  131.0198  160.7933 C   0  0  0  0  0  0  0  0  0  0  0  0
  142.5603  131.3570  159.6375 S   0  0  0  0  0  0  0  0  0  0  0  0
  143.4194  133.2873  151.6486 C   0  0  0  0  0  0  0  0  0  0  0  0
  144.0751  131.9231  151.3430 C   0  0  0  0  0  0  0  0  0  0  0  0
  147.1458  132.6725  150.1522 H   0  0  0  0  0  0  0  0  0  0  0  0
  145.7400  133.7373  150.1092 H   0  0  0  0  0  0  0  0  0  0  0  0
  145.7173  132.2062  149.2365 H   0  0  0  0  0  0  0  0  0  0  0  0
  145.7680  131.8395  153.3864 H   0  0  0  0  0  0  0  0  0  0  0  0
  147.1061  132.6050  152.5637 H   0  0  0  0  0  0  0  0  0  0  0  0
  145.8115  134.2505  153.8487 H   0  0  0  0  0  0  0  0  0  0  0  0
  145.7271  134.6480  152.1557 H   0  0  0  0  0  0  0  0  0  0  0  0
  142.7992  137.1238  152.7655 H   0  0  0  0  0  0  0  0  0  0  0  0
  143.1167  136.0062  151.4593 H   0  0  0  0  0  0  0  0  0  0  0  0
  144.4417  136.6119  152.4501 H   0  0  0  0  0  0  0  0  0  0  0  0
  141.1839  135.6814  154.0742 H   0  0  0  0  0  0  0  0  0  0  0  0
  141.4835  133.9581  154.2184 H   0  0  0  0  0  0  0  0  0  0  0  0
  141.1935  134.7057  152.6443 H   0  0  0  0  0  0  0  0  0  0  0  0
  144.8657  135.3033  154.8609 H   0  0  0  0  0  0  0  0  0  0  0  0
  143.6073  136.4639  155.1335 H   0  0  0  0  0  0  0  0  0  0  0  0
  142.2638  134.4400  155.9677 H   0  0  0  0  0  0  0  0  0  0  0  0
  142.2364  133.2755  157.5455 H   0  0  0  0  0  0  0  0  0  0  0  0
  145.8674  131.7647  161.1197 H   0  0  0  0  0  0  0  0  0  0  0  0
  143.6595  130.2905  161.5729 H   0  0  0  0  0  0  0  0  0  0  0  0
  142.3478  133.1020  151.6815 H   0  0  0  0  0  0  0  0  0  0  0  0
  143.5923  133.9963  150.8387 H   0  0  0  0  0  0  0  0  0  0  0  0
  143.7140  131.5330  150.3908 H   0  0  0  0  0  0  0  0  0  0  0  0
  143.7779  131.1997  152.1034 H   0  0  0  0  0  0  0  0  0  0  0  0
  143.6990  133.1265  153.6250 H   0  0  0  0  0  0  0  0  0  0  0  0
  1  2  1  0  0  0  0
  1 21  1  0  0  0  0
  1 22  1  0  0  0  0
  1 23  1  0  0  0  0
  2 20  1  0  0  0  0
  2  3  1  0  0  0  0
  3  4  1  0  0  0  0
  3 24  1  0  0  0  0
  3 25  1  0  0  0  0
  4  5  1  0  0  0  0
  4 26  1  0  0  0  0
  4 27  1  0  0  0  0
  5  6  1  0  0  0  0
  5 19  1  0  0  0  0
  5 44  1  0  0  0  0
  6  7  1  0  0  0  0
  6  8  1  0  0  0  0
  6  9  1  0  0  0  0
  7 28  1  0  0  0  0
  7 29  1  0  0  0  0
  7 30  1  0  0  0  0
  8 31  1  0  0  0  0
  8 32  1  0  0  0  0
  8 33  1  0  0  0  0
  9 10  1  0  0  0  0
  9 34  1  0  0  0  0
  9 35  1  0  0  0  0
 10 11  1  0  0  0  0
 10 36  1  0  0  0  0
 11 12  2  0  0  0  0
 11 13  1  0  0  0  0
 13 14  1  0  0  0  0
 13 37  1  0  0  0  0
 14 18  1  0  0  0  0
 14 15  2  0  0  0  0
 15 16  1  0  0  0  0
 16 17  2  0  0  0  0
 16 38  1  0  0  0  0
 17 18  1  0  0  0  0
 17 39  1  0  0  0  0
 19 20  1  0  0  0  0
 19 40  1  0  0  0  0
 19 41  1  0  0  0  0
 20 42  1  0  0  0  0
 20 43  1  0  0  0  0
M  CHG  1   5   1
M  END
> <s_m_source_file>
AV-unprocessed.smi

> <i_m_source_file_index>
2024

> <i_lp_mmshare_version>
43012

> <i_f3d_flags>
0

> <s_epik_input>
W0NIM11OMVtDSDJdW0NIMl1OKFtDSDJdW0NIMl0xKUMoW0NIM10pKFtDSDNdKVtDSDJdW05IXUMoPU8pW05IXWMybltjSF1bY0hdczI=

> <s_epik_cmdline>
J2VwaWtfcHl0aG9uJywgJy1waCcsICc3LjAnLCAnLXRuJywgJzgnLCAnLW1hJywgJzIwMCcsICctbWV0YWxfYmluZGluZycsICctaW1hZScsICc8aW5maWxlLm1hZT4nLCAnLW9tYWUnLCAnPG91dGZpbGUubWFlPic=

> <r_epik_Ionization_Penalty>
0.100627

> <r_epik_Ionization_Penalty_Charging>
0.0985296

> <r_epik_Ionization_Penalty_Neutral>
0.00209722

> <r_epik_State_Penalty>
1.056

> <r_epik_Charging_Adjusted_Penalty>
1.15453

> <i_epik_Tot_Q>
1

> <i_epik_Tot_abs_Q>
1

> <r_epik_Metal_State_Penalty>
1.08856

> <b_epik_Metal_Only>
0

> <s_lp_Force_Field>
OPLS_2005

> <r_lp_Energy>
25.1468

> <b_lp_Chiralities_Consistent>
1

> <s_lp_Variant>
AV-unprocessed.smi:2024-2

> <Gold.Version>
5.8.1

> <Gold.Id.Protein>
6NUR|6NUR_protein|mol2

> <Gold.PLP.Fitness>
40.5875

> <Gold.PLP.PLP>
-29.4151

> <Gold.PLP.part.hbond>
-4.6462

> <Gold.PLP.part.metal>
0.0000

> <Gold.PLP.part.buried>
-5.0165

> <Gold.PLP.part.nonpolar>
-20.5782

> <Gold.PLP.part.repulsive>
0.1744

> <Gold.PLP.ligand.clash>
0.0000

> <Gold.PLP.ligand.torsion>
0.3851

> <Gold.PLP.Chemscore.Hbond>
3.9500

> <Gold.PLP.Chemscore.CHOScore>
0.0000

> <Gold.PLP.Chemscore.Metal>
0.0000

> <Gold.Chemscore.Hbonds>
donor molecule, donor type, donor heavy atom, donor atom, acceptor molecule, acceptor atom, score
      L1  H     5    44       P1 10957  1.85
      L1  H    10    36       P1 11000  0.96
      L1  H    13    37       P1 11000  0.60

> <Gold.PLP.Chemscore.Internal.Correction>
0.0926

> <Gold.Rescore>
     Score         DG    S(hbond)    S(metal)    S(lipo)     H(rot)  DE(clash)    DE(int)     intcor
     14.41     -16.11       2.09        0.00      66.09       1.60       0.09       1.61       ----

> <Gold.Chemscore.Fitness>
14.4098

> <Gold.Chemscore.DG>
-16.1101

> <Gold.Chemscore.ZeroCoef>
-5.4800

> <Gold.Chemscore.Hbond>
2.0933

> <Gold.Chemscore.Metal>
0.0000

> <Gold.Chemscore.Lipo>
66.0873

> <Gold.Chemscore.Internal_Hbond>
0.0000

> <Gold.Chemscore.DEClash>
0.0856

> <Gold.Chemscore.DEInternal>
1.6147

> <Gold.Chemscore.Rot>
1.5991

> <Gold.Chemscore.Internal.Correction>
   9.000000E+99

> <Gold.Chemscore.Hbonds>
donor molecule, donor type, donor heavy atom, donor atom, acceptor molecule, acceptor atom, score
      L1  H     5    44       P1 10957  0.85
      L1  H    10    36       P1 11000  0.50
      L1  H    13    37       P1 11000  0.29

> <Gold.Chemscore.Hbond.Weighted>
-6.9915

> <Gold.Chemscore.Metal.Weighted>
-0.0000

> <Gold.Chemscore.Lipo.Weighted>
-7.7322

> <Gold.Chemscore.Internal_Hbond.Weighted>
0.0000

> <Gold.Chemscore.DEClash.Weighted>
0.0856

> <Gold.Chemscore.DEInternal.Weighted>
1.6147

> <Gold.Chemscore.Rot.Weighted>
4.0936

> <Gold.Chemscore.Internal.Correction.Weighted>
   9.000000E+99

> <Gold.Protein.RotatedTorsions>
[ 6907 6896 6895 6894 ] final   11.90 input  -60.11 | X-H torsion
[ 7974 7965 7964 7962 ] final  -61.81 input  175.53 | X-H torsion
[ 8008 7997 7996 7995 ] final   54.76 input   59.86 | X-H torsion
[ 10167 10162 10161 10158 ] final   51.79 input  -65.29 | X-H torsion
[ 10718 10713 10712 10709 ] final  -34.94 input   66.30 | X-H torsion
[ 10763 10752 10751 10750 ] final  152.22 input  -60.55 | X-H torsion
[ 11005 11000 10999 10996 ] final  135.52 input  -57.11 | X-H torsion

> <Gold.Protein.ActiveResidues>
 VAL166  LYS551  ARG553  GLY616  TRP617  ASP618  TYR619  PRO620  LYS621  CYS622 
 ASP623  PHE694  ASN695  SER759  ASP760  ASP761  ALA762  ILE779  LEU786  VAL792 
 PHE793  MET794  SER795  GLU796  ALA797  LYS798  CYS799  TRP800  GLU811  SER814 

> <Gold.Protein.RotatedAtoms>
  151.7617  135.0808  160.0346 H   0  0  0  0  0  0  0  0  0  0  0  0  # atno 6907 bound_to 6896
  152.3349  133.5995  159.5843 H   0  0  0  0  0  0  0  0  0  0  0  0  # atno 6908 bound_to 6896
  150.7444  133.9728  159.3593 H   0  0  0  0  0  0  0  0  0  0  0  0  # atno 6909 bound_to 6896
  145.7989  140.8666  143.0241 H   0  0  0  0  0  0  0  0  0  0  0  0  # atno 7974 bound_to 7965
  155.4900  140.3471  155.4353 H   0  0  0  0  0  0  0  0  0  0  0  0  # atno 8008 bound_to 7997
  156.0983  140.1428  156.9529 H   0  0  0  0  0  0  0  0  0  0  0  0  # atno 8009 bound_to 7997
  154.4677  140.0911  156.7042 H   0  0  0  0  0  0  0  0  0  0  0  0  # atno 8010 bound_to 7997
  140.2582  144.3403  150.6326 H   0  0  0  0  0  0  0  0  0  0  0  0  # atno 10167 bound_to 10162
  156.3446  130.4299  149.7757 H   0  0  0  0  0  0  0  0  0  0  0  0  # atno 10718 bound_to 10713
  154.1164  135.2835  155.3218 H   0  0  0  0  0  0  0  0  0  0  0  0  # atno 10763 bound_to 10752
  154.6454  135.5388  153.7841 H   0  0  0  0  0  0  0  0  0  0  0  0  # atno 10764 bound_to 10752
  153.0327  135.6496  154.1320 H   0  0  0  0  0  0  0  0  0  0  0  0  # atno 10765 bound_to 10752
  139.9985  134.9488  157.0019 H   0  0  0  0  0  0  0  0  0  0  0  0  # atno 11005 bound_to 11000
  144.6771  140.0231  143.7483 LP  0  0  0  0  0  0  0  0  0  0  0  0  # atno 17320 bound_to 7965
  145.9898  139.3006  143.0991 LP  0  0  0  0  0  0  0  0  0  0  0  0  # atno 17321 bound_to 7965
  140.5987  143.2167  151.7114 LP  0  0  0  0  0  0  0  0  0  0  0  0  # atno 17342 bound_to 10162
  139.5025  144.3827  152.0360 LP  0  0  0  0  0  0  0  0  0  0  0  0  # atno 17343 bound_to 10162
  156.4981  130.8116  151.3121 LP  0  0  0  0  0  0  0  0  0  0  0  0  # atno 17370 bound_to 10713
  157.7452  130.9954  150.2741 LP  0  0  0  0  0  0  0  0  0  0  0  0  # atno 17371 bound_to 10713
  140.4772  134.1326  155.7211 LP  0  0  0  0  0  0  0  0  0  0  0  0  # atno 17394 bound_to 11000
  141.1623  133.8768  157.1812 LP  0  0  0  0  0  0  0  0  0  0  0  0  # atno 17395 bound_to 11000

$$$$
