AV-unprocessed.smi:1254|AV-procd|sdf|5278|dock2
  -GOLD-   22720 4393D 1   1.00000     0.00000
 Structure written by MMmdl.
 45 46  0  0  0  0  0  0  0  0  3 V2000
  145.2974  133.1856  162.5070 C   0  0  0  0  0  0  0  0  0  0  0  0
  145.9165  134.4932  162.1481 C   0  0  0  0  0  0  0  0  0  0  0  0
  147.0977  134.8264  161.5484 C   0  0  0  0  0  0  0  0  0  0  0  0
  147.0594  136.2473  161.5223 C   0  0  0  0  0  0  0  0  0  0  0  0
  148.0052  137.0515  161.0127 N   0  5  0  0  0  0  0  0  0  0  0  0
  148.4494  136.8642  159.7489 C   0  0  0  0  0  0  0  0  0  0  0  0
  149.2369  135.9948  159.3687 O   0  0  0  0  0  0  0  0  0  0  0  0
  147.9485  137.7396  158.8687 N   0  0  0  0  0  0  0  0  0  0  0  0
  148.2562  137.7659  157.4453 C   0  0  0  0  0  0  0  0  0  0  0  0
  148.7158  139.1661  157.0182 C   0  0  1  0  0  0  0  0  0  0  0  0
  149.8532  139.6956  157.9137 C   0  0  0  0  0  0  0  0  0  0  0  0
  150.3239  141.0181  157.4323 N   0  3  1  0  0  0  0  0  0  0  0  0
  151.3901  141.6164  158.2760 C   0  0  0  0  0  0  0  0  0  0  0  0
  151.4613  143.1548  158.1658 C   0  0  0  0  0  0  0  0  0  0  0  0
  152.7568  143.7153  158.7769 C   0  0  0  0  0  0  0  0  0  0  0  0
  150.2345  143.7993  158.8281 C   0  0  0  0  0  0  0  0  0  0  0  0
  150.7120  140.9389  156.0043 C   0  0  0  0  0  0  0  0  0  0  0  0
  149.5583  140.3672  155.1652 C   0  0  0  0  0  0  0  0  0  0  0  0
  149.1885  139.0941  155.6765 O   0  0  0  0  0  0  0  0  0  0  0  0
  145.9446  136.7330  162.0432 N   0  0  0  0  0  0  0  0  0  0  0  0
  145.2095  135.6145  162.4539 O   0  0  0  0  0  0  0  0  0  0  0  0
  145.3105  132.5060  161.6551 H   0  0  0  0  0  0  0  0  0  0  0  0
  144.2613  133.3138  162.8208 H   0  0  0  0  0  0  0  0  0  0  0  0
  145.8426  132.7139  163.3247 H   0  0  0  0  0  0  0  0  0  0  0  0
  147.8688  134.1614  161.1891 H   0  0  0  0  0  0  0  0  0  0  0  0
  147.3042  138.4344  159.2164 H   0  0  0  0  0  0  0  0  0  0  0  0
  149.0423  137.0363  157.2452 H   0  0  0  0  0  0  0  0  0  0  0  0
  147.3803  137.4636  156.8689 H   0  0  0  0  0  0  0  0  0  0  0  0
  147.8653  139.8494  157.0698 H   0  0  0  0  0  0  0  0  0  0  0  0
  149.4946  139.7715  158.9395 H   0  0  0  0  0  0  0  0  0  0  0  0
  150.6865  138.9908  157.9185 H   0  0  0  0  0  0  0  0  0  0  0  0
  151.2393  141.3111  159.3126 H   0  0  0  0  0  0  0  0  0  0  0  0
  152.3574  141.2082  157.9783 H   0  0  0  0  0  0  0  0  0  0  0  0
  151.4351  143.4405  157.1147 H   0  0  0  0  0  0  0  0  0  0  0  0
  152.8431  143.4544  159.8323 H   0  0  0  0  0  0  0  0  0  0  0  0
  152.7871  144.8028  158.7016 H   0  0  0  0  0  0  0  0  0  0  0  0
  153.6393  143.3310  158.2652 H   0  0  0  0  0  0  0  0  0  0  0  0
  150.1893  143.5674  159.8928 H   0  0  0  0  0  0  0  0  0  0  0  0
  149.3092  143.4465  158.3713 H   0  0  0  0  0  0  0  0  0  0  0  0
  150.2560  144.8848  158.7255 H   0  0  0  0  0  0  0  0  0  0  0  0
  150.9755  141.9306  155.6346 H   0  0  0  0  0  0  0  0  0  0  0  0
  151.5980  140.3105  155.8998 H   0  0  0  0  0  0  0  0  0  0  0  0
  148.6995  141.0404  155.1692 H   0  0  0  0  0  0  0  0  0  0  0  0
  149.8688  140.2536  154.1264 H   0  0  0  0  0  0  0  0  0  0  0  0
  149.5349  141.6474  157.4758 H   0  0  0  0  0  0  0  0  0  0  0  0
  1  2  1  0  0  0  0
  1 22  1  0  0  0  0
  1 23  1  0  0  0  0
  1 24  1  0  0  0  0
  2 21  1  0  0  0  0
  2  3  2  0  0  0  0
  3  4  1  0  0  0  0
  3 25  1  0  0  0  0
  4  5  1  0  0  0  0
  4 20  2  0  0  0  0
  5  6  1  0  0  0  0
  6  7  2  0  0  0  0
  6  8  1  0  0  0  0
  8  9  1  0  0  0  0
  8 26  1  0  0  0  0
  9 10  1  0  0  0  0
  9 27  1  0  0  0  0
  9 28  1  0  0  0  0
 10 19  1  0  0  0  0
 10 11  1  0  0  0  0
 10 29  1  0  0  0  0
 11 12  1  0  0  0  0
 11 30  1  0  0  0  0
 11 31  1  0  0  0  0
 12 13  1  0  0  0  0
 12 17  1  0  0  0  0
 12 45  1  0  0  0  0
 13 14  1  0  0  0  0
 13 32  1  0  0  0  0
 13 33  1  0  0  0  0
 14 15  1  0  0  0  0
 14 16  1  0  0  0  0
 14 34  1  0  0  0  0
 15 35  1  0  0  0  0
 15 36  1  0  0  0  0
 15 37  1  0  0  0  0
 16 38  1  0  0  0  0
 16 39  1  0  0  0  0
 16 40  1  0  0  0  0
 17 18  1  0  0  0  0
 17 41  1  0  0  0  0
 17 42  1  0  0  0  0
 18 19  1  0  0  0  0
 18 43  1  0  0  0  0
 18 44  1  0  0  0  0
 20 21  1  0  0  0  0
M  CHG  1   5  -1
M  CHG  1  12   1
M  END
> <s_m_source_file>
AV-unprocessed.smi

> <i_m_source_file_index>
1254

> <i_lp_mmshare_version>
43012

> <i_f3d_flags>
0

> <s_epik_input>
W0NIM11jMVtjSF1jKG5vMSlbTkhdQyg9TylbTkhdW0NIMl1bQ0BASF0yW0NIMl1OKFtDSDJdW0NIMl1PMilbQ0gyXVtDSF0oW0NIM10pW0NIM10=

> <s_epik_cmdline>
J2VwaWtfcHl0aG9uJywgJy1waCcsICc3LjAnLCAnLXRuJywgJzgnLCAnLW1hJywgJzIwMCcsICctbWV0YWxfYmluZGluZycsICctaW1hZScsICc8aW5maWxlLm1hZT4nLCAnLW9tYWUnLCAnPG91dGZpbGUubWFlPic=

> <r_epik_Ionization_Penalty>
6.33139

> <r_epik_Ionization_Penalty_Charging>
6.33128

> <r_epik_Ionization_Penalty_Neutral>
0.000104968

> <r_epik_State_Penalty>
6.32522

> <r_epik_Charging_Adjusted_Penalty>
12.6565

> <i_epik_Tot_Q>
0

> <i_epik_Tot_abs_Q>
2

> <r_epik_Metal_State_Penalty>
2.26285

> <b_epik_Metal_Only>
1

> <s_lp_Force_Field>
OPLS_2005

> <r_lp_Energy>
6.3285

> <b_lp_Chiralities_Consistent>
1

> <s_lp_Variant>
AV-unprocessed.smi:1254-10

> <Gold.Version>
5.8.1

> <Gold.Id.Protein>
6NUR|6NUR_protein|mol2

> <Gold.PLP.Fitness>
44.0064

> <Gold.PLP.PLP>
-33.7626

> <Gold.PLP.part.hbond>
-3.0000

> <Gold.PLP.part.metal>
0.0000

> <Gold.PLP.part.buried>
-4.3996

> <Gold.PLP.part.nonpolar>
-27.1375

> <Gold.PLP.part.repulsive>
0.2396

> <Gold.PLP.ligand.clash>
0.0000

> <Gold.PLP.ligand.torsion>
1.5310

> <Gold.PLP.Chemscore.Hbond>
4.3794

> <Gold.PLP.Chemscore.CHOScore>
0.0000

> <Gold.PLP.Chemscore.Metal>
0.0000

> <Gold.Chemscore.Hbonds>
donor molecule, donor type, donor heavy atom, donor atom, acceptor molecule, acceptor atom, score
      P1  H  6896  6908       L1     7  1.00
      P1  H  6931  6943       L1     5  2.00
      P1  H  6934  6947       L1     5  1.12

> <Gold.PLP.Chemscore.Internal.Correction>
0.1676

> <Gold.Rescore>
     Score         DG    S(hbond)    S(metal)    S(lipo)     H(rot)  DE(clash)    DE(int)     intcor
     16.56     -17.94       2.04        0.00      85.39       1.69       0.02       1.37       ----

> <Gold.Chemscore.Fitness>
16.5560

> <Gold.Chemscore.DG>
-17.9422

> <Gold.Chemscore.ZeroCoef>
-5.4800

> <Gold.Chemscore.Hbond>
2.0374

> <Gold.Chemscore.Metal>
0.0000

> <Gold.Chemscore.Lipo>
85.3882

> <Gold.Chemscore.Internal_Hbond>
0.0000

> <Gold.Chemscore.DEClash>
0.0177

> <Gold.Chemscore.DEInternal>
1.3685

> <Gold.Chemscore.Rot>
1.6926

> <Gold.Chemscore.Internal.Correction>
   9.000000E+99

> <Gold.Chemscore.Hbonds>
donor molecule, donor type, donor heavy atom, donor atom, acceptor molecule, acceptor atom, score
      P1  H  6896  6908       L1     7  0.98
      P1  H  6931  6943       L1     5  0.75
      P1  H  6934  6947       L1     5  0.15

> <Gold.Chemscore.Hbond.Weighted>
-6.8048

> <Gold.Chemscore.Metal.Weighted>
-0.0000

> <Gold.Chemscore.Lipo.Weighted>
-9.9904

> <Gold.Chemscore.Internal_Hbond.Weighted>
0.0000

> <Gold.Chemscore.DEClash.Weighted>
0.0177

> <Gold.Chemscore.DEInternal.Weighted>
1.3685

> <Gold.Chemscore.Rot.Weighted>
4.3330

> <Gold.Chemscore.Internal.Correction.Weighted>
   9.000000E+99

> <Gold.Protein.RotatedTorsions>
[ 6907 6896 6895 6894 ] final -179.71 input  -60.11 | X-H torsion
[ 7974 7965 7964 7962 ] final  147.59 input  175.53 | X-H torsion
[ 8008 7997 7996 7995 ] final   58.40 input   59.86 | X-H torsion
[ 10167 10162 10161 10158 ] final  -20.80 input  -65.29 | X-H torsion
[ 10718 10713 10712 10709 ] final   40.20 input   66.30 | X-H torsion
[ 10763 10752 10751 10750 ] final   82.85 input  -60.55 | X-H torsion
[ 11005 11000 10999 10996 ] final   91.54 input  -57.11 | X-H torsion

> <Gold.Protein.ActiveResidues>
 VAL166  LYS551  ARG553  GLY616  TRP617  ASP618  TYR619  PRO620  LYS621  CYS622 
 ASP623  PHE694  ASN695  SER759  ASP760  ASP761  ALA762  ILE779  LEU786  VAL792 
 PHE793  MET794  SER795  GLU796  ALA797  LYS798  CYS799  TRP800  GLU811  SER814 

> <Gold.Protein.RotatedAtoms>
  151.6578  133.3318  159.3166 H   0  0  0  0  0  0  0  0  0  0  0  0  # atno 6907 bound_to 6896
  150.7928  134.6970  159.6538 H   0  0  0  0  0  0  0  0  0  0  0  0  # atno 6908 bound_to 6896
  152.4011  134.6288  160.0121 H   0  0  0  0  0  0  0  0  0  0  0  0  # atno 6909 bound_to 6896
  144.8579  139.6048  143.5944 H   0  0  0  0  0  0  0  0  0  0  0  0  # atno 7974 bound_to 7965
  155.5494  140.3486  155.4465 H   0  0  0  0  0  0  0  0  0  0  0  0  # atno 8008 bound_to 7997
  156.0594  140.1336  156.9985 H   0  0  0  0  0  0  0  0  0  0  0  0  # atno 8009 bound_to 7997
  154.4472  140.0988  156.6479 H   0  0  0  0  0  0  0  0  0  0  0  0  # atno 8010 bound_to 7997
  140.7278  143.4688  151.0275 H   0  0  0  0  0  0  0  0  0  0  0  0  # atno 10167 bound_to 10162
  157.3794  130.7745  149.7181 H   0  0  0  0  0  0  0  0  0  0  0  0  # atno 10718 bound_to 10713
  153.1239  135.4713  154.9241 H   0  0  0  0  0  0  0  0  0  0  0  0  # atno 10763 bound_to 10752
  154.7602  135.3129  154.8396 H   0  0  0  0  0  0  0  0  0  0  0  0  # atno 10764 bound_to 10752
  153.8954  135.6880  153.4812 H   0  0  0  0  0  0  0  0  0  0  0  0  # atno 10765 bound_to 10752
  139.8837  134.8680  156.3443 H   0  0  0  0  0  0  0  0  0  0  0  0  # atno 11005 bound_to 11000
  146.2838  139.6948  142.9210 LP  0  0  0  0  0  0  0  0  0  0  0  0  # atno 17320 bound_to 7965
  145.4369  141.0419  143.2879 LP  0  0  0  0  0  0  0  0  0  0  0  0  # atno 17321 bound_to 7965
  139.8379  143.7603  152.3180 LP  0  0  0  0  0  0  0  0  0  0  0  0  # atno 17342 bound_to 10162
  139.7742  144.7466  151.0181 LP  0  0  0  0  0  0  0  0  0  0  0  0  # atno 17343 bound_to 10162
  155.9772  130.4065  150.3725 LP  0  0  0  0  0  0  0  0  0  0  0  0  # atno 17370 bound_to 10713
  157.1827  131.0396  151.2740 LP  0  0  0  0  0  0  0  0  0  0  0  0  # atno 17371 bound_to 10713
  140.9637  133.7372  156.0437 LP  0  0  0  0  0  0  0  0  0  0  0  0  # atno 17394 bound_to 11000
  140.7957  134.3566  157.5453 LP  0  0  0  0  0  0  0  0  0  0  0  0  # atno 17395 bound_to 11000

$$$$
