AV-unprocessed.smi:2855|AV-procd|sdf|10980|dock3
  -GOLD-   2272015433D 1   1.00000     0.00000
 Structure written by MMmdl.
 47 48  0  0  0  0  0  0  0  0  1 V2000
  151.5850  145.6001  159.7817 C   0  0  0  0  0  0  0  0  0  0  0  0
  152.0783  144.2289  159.2982 C   0  0  1  0  0  0  0  0  0  0  0  0
  152.5642  143.3594  160.4701 C   0  0  0  0  0  0  0  0  0  0  0  0
  153.0667  141.9903  159.9865 C   0  0  0  0  0  0  0  0  0  0  0  0
  151.9852  141.2274  159.1854 C   0  0  2  0  0  0  0  0  0  0  0  0
  152.4293  139.7962  158.7552 C   0  0  0  0  0  0  0  0  0  0  0  0
  151.2360  138.8487  158.5425 C   0  0  0  0  0  0  0  0  0  0  0  0
  153.4735  139.1542  159.6872 C   0  0  0  0  0  0  0  0  0  0  0  0
  151.4830  142.1096  158.0097 C   0  0  1  0  0  0  0  0  0  0  0  0
  150.4025  141.4430  157.2863 N   0  0  0  0  0  0  0  0  0  0  0  0
  150.5339  140.7607  156.1388 C   0  0  0  0  0  0  0  0  0  0  0  0
  151.5967  140.6670  155.5233 O   0  0  0  0  0  0  0  0  0  0  0  0
  149.2608  140.0945  155.5997 C   0  0  0  0  0  0  0  0  0  0  0  0
  148.1987  141.0657  155.2998 N   0  0  0  0  0  0  0  0  0  0  0  0
  147.8162  141.3067  153.9879 C   0  0  0  0  0  0  0  0  0  0  0  0
  146.8371  142.1771  153.6449 C   0  0  0  0  0  0  0  0  0  0  0  0
  146.1182  142.9230  154.6723 C   0  0  0  0  0  0  0  0  0  0  0  0
  145.2177  143.7324  154.4619 O   0  0  0  0  0  0  0  0  0  0  0  0
  146.5314  142.6527  155.9796 N   0  0  0  0  0  0  0  0  0  0  0  0
  147.5392  141.7569  156.3403 C   0  0  0  0  0  0  0  0  0  0  0  0
  147.8240  141.5906  157.5261 O   0  0  0  0  0  0  0  0  0  0  0  0
  150.9909  143.4841  158.5047 C   0  0  0  0  0  0  0  0  0  0  0  0
  146.0600  143.1441  156.7252 H   0  0  0  0  0  0  0  0  0  0  0  0
  150.7318  145.5010  160.4534 H   0  0  0  0  0  0  0  0  0  0  0  0
  151.2779  146.2252  158.9428 H   0  0  0  0  0  0  0  0  0  0  0  0
  152.3712  146.1326  160.3178 H   0  0  0  0  0  0  0  0  0  0  0  0
  152.9245  144.4009  158.6313 H   0  0  0  0  0  0  0  0  0  0  0  0
  153.3644  143.8707  161.0065 H   0  0  0  0  0  0  0  0  0  0  0  0
  151.7545  143.2177  161.1874 H   0  0  0  0  0  0  0  0  0  0  0  0
  153.9558  142.1365  159.3729 H   0  0  0  0  0  0  0  0  0  0  0  0
  153.3822  141.4122  160.8541 H   0  0  0  0  0  0  0  0  0  0  0  0
  151.1350  141.0944  159.8569 H   0  0  0  0  0  0  0  0  0  0  0  0
  152.9020  139.8795  157.7764 H   0  0  0  0  0  0  0  0  0  0  0  0
  150.7359  138.6055  159.4797 H   0  0  0  0  0  0  0  0  0  0  0  0
  151.5623  137.9079  158.0981 H   0  0  0  0  0  0  0  0  0  0  0  0
  150.4971  139.2868  157.8710 H   0  0  0  0  0  0  0  0  0  0  0  0
  153.0767  138.9899  160.6887 H   0  0  0  0  0  0  0  0  0  0  0  0
  154.3700  139.7672  159.7751 H   0  0  0  0  0  0  0  0  0  0  0  0
  153.7897  138.1847  159.3013 H   0  0  0  0  0  0  0  0  0  0  0  0
  152.3222  142.2846  157.3348 H   0  0  0  0  0  0  0  0  0  0  0  0
  149.4876  141.4746  157.7125 H   0  0  0  0  0  0  0  0  0  0  0  0
  149.4898  139.5099  154.7060 H   0  0  0  0  0  0  0  0  0  0  0  0
  148.9205  139.3694  156.3404 H   0  0  0  0  0  0  0  0  0  0  0  0
  148.3180  140.7738  153.1927 H   0  0  0  0  0  0  0  0  0  0  0  0
  146.5829  142.3209  152.6046 H   0  0  0  0  0  0  0  0  0  0  0  0
  150.1054  143.3552  159.1292 H   0  0  0  0  0  0  0  0  0  0  0  0
  150.6807  144.0910  157.6529 H   0  0  0  0  0  0  0  0  0  0  0  0
  1  2  1  0  0  0  0
  1 24  1  0  0  0  0
  1 25  1  0  0  0  0
  1 26  1  0  0  0  0
  2 22  1  0  0  0  0
  2  3  1  0  0  0  0
  2 27  1  0  0  0  0
  3  4  1  0  0  0  0
  3 28  1  0  0  0  0
  3 29  1  0  0  0  0
  4  5  1  0  0  0  0
  4 30  1  0  0  0  0
  4 31  1  0  0  0  0
  5  6  1  0  0  0  0
  5  9  1  0  0  0  0
  5 32  1  0  0  0  0
  6  7  1  0  0  0  0
  6  8  1  0  0  0  0
  6 33  1  0  0  0  0
  7 34  1  0  0  0  0
  7 35  1  0  0  0  0
  7 36  1  0  0  0  0
  8 37  1  0  0  0  0
  8 38  1  0  0  0  0
  8 39  1  0  0  0  0
  9 10  1  0  0  0  0
  9 22  1  0  0  0  0
  9 40  1  0  0  0  0
 10 11  1  0  0  0  0
 10 41  1  0  0  0  0
 11 12  2  0  0  0  0
 11 13  1  0  0  0  0
 13 14  1  0  0  0  0
 13 42  1  0  0  0  0
 13 43  1  0  0  0  0
 14 20  1  0  0  0  0
 14 15  1  0  0  0  0
 15 16  2  0  0  0  0
 15 44  1  0  0  0  0
 16 17  1  0  0  0  0
 16 45  1  0  0  0  0
 17 18  2  0  0  0  0
 17 19  1  0  0  0  0
 19 23  1  0  0  0  0
 19 20  1  0  0  0  0
 20 21  2  0  0  0  0
 22 46  1  0  0  0  0
 22 47  1  0  0  0  0
M  END
> <s_m_source_file>
AV-unprocessed.smi

> <i_m_source_file_index>
2855

> <i_lp_mmshare_version>
43012

> <i_f3d_flags>
0

> <s_epik_input>
W0NIM11bQ0BASF0xW0NIMl1bQ0gyXVtDQEBIXShbQ0hdKFtDSDNdKVtDSDNdKVtDQEhdKFtDSDJdMSlbTkhdQyg9TylbQ0gyXW4yW2NIXVtjSF1jKD1PKVtuSF1jMj1P

> <s_epik_cmdline>
J2VwaWtfcHl0aG9uJywgJy1waCcsICc3LjAnLCAnLXRuJywgJzgnLCAnLW1hJywgJzIwMCcsICctbWV0YWxfYmluZGluZycsICctaW1hZScsICc8aW5maWxlLm1hZT4nLCAnLW9tYWUnLCAnPG91dGZpbGUubWFlPic=

> <r_lp_tautomer_probability>
0.999537

> <r_epik_Ionization_Penalty>
0.00306256

> <r_epik_Ionization_Penalty_Charging>
0.00306254

> <r_epik_Ionization_Penalty_Neutral>
2.0223e-08

> <r_epik_State_Penalty>
0.0021533

> <r_epik_Charging_Adjusted_Penalty>
0.00521583

> <i_epik_Tot_Q>
0

> <i_epik_Tot_abs_Q>
0

> <r_epik_Metal_State_Penalty>
0.362116

> <b_epik_Metal_Only>
0

> <s_lp_Force_Field>
OPLS_2005

> <r_lp_Energy>
14.1485

> <b_lp_Chiralities_Consistent>
1

> <s_lp_Variant>
AV-unprocessed.smi:2855-4

> <Gold.Version>
5.8.1

> <Gold.Id.Protein>
6NUR|6NUR_protein|mol2

> <Gold.PLP.Fitness>
46.6867

> <Gold.PLP.PLP>
-43.3545

> <Gold.PLP.part.hbond>
-1.6787

> <Gold.PLP.part.metal>
0.0000

> <Gold.PLP.part.buried>
-6.5921

> <Gold.PLP.part.nonpolar>
-35.9506

> <Gold.PLP.part.repulsive>
0.3622

> <Gold.PLP.ligand.clash>
0.0000

> <Gold.PLP.ligand.torsion>
0.9413

> <Gold.PLP.Chemscore.Hbond>
0.7200

> <Gold.PLP.Chemscore.CHOScore>
1.0000

> <Gold.PLP.Chemscore.Metal>
0.0000

> <Gold.Chemscore.Hbonds>
donor molecule, donor type, donor heavy atom, donor atom, acceptor molecule, acceptor atom, score
      P1  H  7989  7998       L1    12  0.72
      L1  C    15    44       P1  7957  1.00

> <Gold.PLP.Chemscore.Internal.Correction>
0.0549

> <Gold.Rescore>
     Score         DG    S(hbond)    S(metal)    S(lipo)     H(rot)  DE(clash)    DE(int)     intcor
     13.64     -16.44       0.86        0.00     109.56       1.85       0.03       2.78       ----

> <Gold.Chemscore.Fitness>
13.6400

> <Gold.Chemscore.DG>
-16.4408

> <Gold.Chemscore.ZeroCoef>
-5.4800

> <Gold.Chemscore.Hbond>
0.8646

> <Gold.Chemscore.Metal>
0.0000

> <Gold.Chemscore.Lipo>
109.5635

> <Gold.Chemscore.Internal_Hbond>
0.0000

> <Gold.Chemscore.DEClash>
0.0258

> <Gold.Chemscore.DEInternal>
2.7751

> <Gold.Chemscore.Rot>
1.8539

> <Gold.Chemscore.Internal.Correction>
   9.000000E+99

> <Gold.Chemscore.Hbonds>
donor molecule, donor type, donor heavy atom, donor atom, acceptor molecule, acceptor atom, score
      P1  H  7989  7998       L1    12  0.67

> <Gold.Chemscore.Hbond.Weighted>
-2.8879

> <Gold.Chemscore.Metal.Weighted>
-0.0000

> <Gold.Chemscore.Lipo.Weighted>
-12.8189

> <Gold.Chemscore.Internal_Hbond.Weighted>
0.0000

> <Gold.Chemscore.DEClash.Weighted>
0.0258

> <Gold.Chemscore.DEInternal.Weighted>
2.7751

> <Gold.Chemscore.Rot.Weighted>
4.7460

> <Gold.Chemscore.Internal.Correction.Weighted>
   9.000000E+99

> <Gold.Protein.RotatedTorsions>
[ 6907 6896 6895 6894 ] final  108.44 input  -60.11 | X-H torsion
[ 7974 7965 7964 7962 ] final   17.63 input  175.53 | X-H torsion
[ 8008 7997 7996 7995 ] final  127.21 input   59.86 | X-H torsion
[ 10167 10162 10161 10158 ] final  -11.20 input  -65.29 | X-H torsion
[ 10718 10713 10712 10709 ] final  161.78 input   66.30 | X-H torsion
[ 10763 10752 10751 10750 ] final  173.16 input  -60.55 | X-H torsion
[ 11005 11000 10999 10996 ] final -139.14 input  -57.11 | X-H torsion

> <Gold.Protein.ActiveResidues>
 VAL166  LYS551  ARG553  GLY616  TRP617  ASP618  TYR619  PRO620  LYS621  CYS622 
 ASP623  PHE694  ASN695  SER759  ASP760  ASP761  ALA762  ILE779  LEU786  VAL792 
 PHE793  MET794  SER795  GLU796  ALA797  LYS798  CYS799  TRP800  GLU811  SER814 

> <Gold.Protein.RotatedAtoms>
  152.5112  133.9089  159.7477 H   0  0  0  0  0  0  0  0  0  0  0  0  # atno 6907 bound_to 6896
  150.9487  133.6565  159.2783 H   0  0  0  0  0  0  0  0  0  0  0  0  # atno 6908 bound_to 6896
  151.3852  135.0951  159.9561 H   0  0  0  0  0  0  0  0  0  0  0  0  # atno 6909 bound_to 6896
  146.2212  139.8574  142.8611 H   0  0  0  0  0  0  0  0  0  0  0  0  # atno 7974 bound_to 7965
  156.2885  140.2674  156.2237 H   0  0  0  0  0  0  0  0  0  0  0  0  # atno 8008 bound_to 7997
  155.0142  140.0387  157.2430 H   0  0  0  0  0  0  0  0  0  0  0  0  # atno 8009 bound_to 7997
  154.7491  140.2739  155.6312 H   0  0  0  0  0  0  0  0  0  0  0  0  # atno 8010 bound_to 7997
  140.7132  143.5666  150.9138 H   0  0  0  0  0  0  0  0  0  0  0  0  # atno 10167 bound_to 10162
  157.1318  131.0518  151.2368 H   0  0  0  0  0  0  0  0  0  0  0  0  # atno 10718 bound_to 10713
  154.4362  135.2761  155.1879 H   0  0  0  0  0  0  0  0  0  0  0  0  # atno 10763 bound_to 10752
  154.3764  135.6097  153.5771 H   0  0  0  0  0  0  0  0  0  0  0  0  # atno 10764 bound_to 10752
  152.9838  135.5870  154.4682 H   0  0  0  0  0  0  0  0  0  0  0  0  # atno 10765 bound_to 10752
  140.8548  134.2241  157.4740 H   0  0  0  0  0  0  0  0  0  0  0  0  # atno 11005 bound_to 11000
  145.2739  141.0117  143.3756 LP  0  0  0  0  0  0  0  0  0  0  0  0  # atno 17320 bound_to 7965
  144.9202  139.4421  143.6545 LP  0  0  0  0  0  0  0  0  0  0  0  0  # atno 17321 bound_to 7965
  139.9391  143.6403  152.3058 LP  0  0  0  0  0  0  0  0  0  0  0  0  # atno 17342 bound_to 10162
  139.6881  144.7649  151.1488 LP  0  0  0  0  0  0  0  0  0  0  0  0  # atno 17343 bound_to 10162
  157.4385  130.7531  149.7050 LP  0  0  0  0  0  0  0  0  0  0  0  0  # atno 17370 bound_to 10713
  155.9806  130.4027  150.3517 LP  0  0  0  0  0  0  0  0  0  0  0  0  # atno 17371 bound_to 10713
  139.8705  134.9701  156.4689 LP  0  0  0  0  0  0  0  0  0  0  0  0  # atno 17394 bound_to 11000
  140.8749  133.7960  155.9404 LP  0  0  0  0  0  0  0  0  0  0  0  0  # atno 17395 bound_to 11000

$$$$
