AV-unprocessed.smi:3303|AV-procd|sdf|12696|dock10
  -GOLD-   2272019 33D 1   1.00000     0.00000
 Structure written by MMmdl.
 44 45  0  0  0  0  0  0  0  0  2 V2000
  150.9106  137.9049  155.0295 C   0  0  0  0  0  0  0  0  0  0  0  0
  150.1545  139.0736  154.3733 C   0  0  1  0  0  0  0  0  0  0  0  0
  148.7601  138.6056  153.9110 C   0  0  0  0  0  0  0  0  0  0  0  0
  147.9856  139.6945  153.2613 N   0  3  1  0  0  0  0  0  0  0  0  0
  146.7217  139.1754  152.6842 C   0  0  0  0  0  0  0  0  0  0  0  0
  147.8047  140.8644  154.1708 C   0  0  2  0  0  0  0  0  0  0  0  0
  147.0121  142.0131  153.5159 C   0  0  0  0  0  0  0  0  0  0  0  0
  149.1780  141.3854  154.6367 C   0  0  0  0  0  0  0  0  0  0  0  0
  150.0180  140.2907  155.3142 C   0  0  2  0  0  0  0  0  0  0  0  0
  151.3305  140.8623  155.5934 N   0  0  0  0  0  0  0  0  0  0  0  0
  151.9658  140.1990  156.7217 C   0  0  0  0  0  0  0  0  0  0  0  0
  151.2730  140.6208  158.0246 C   0  0  0  0  0  0  0  0  0  0  0  0
  151.6301  142.0380  158.4302 C   0  0  0  0  0  0  0  0  0  0  0  0
  151.2994  143.1308  157.6005 C   0  0  0  0  0  0  0  0  0  0  0  0
  151.6551  144.4260  158.0241 C   0  0  0  0  0  0  0  0  0  0  0  0
  152.3253  144.5778  159.2533 C   0  0  0  0  0  0  0  0  0  0  0  0
  152.6120  143.4225  160.0075 C   0  0  0  0  0  0  0  0  0  0  0  0
  152.2751  142.1761  159.6107 N   0  0  0  0  0  0  0  0  0  0  0  0
  150.4182  137.5773  155.9458 H   0  0  0  0  0  0  0  0  0  0  0  0
  151.9343  138.1818  155.2824 H   0  0  0  0  0  0  0  0  0  0  0  0
  150.9674  137.0477  154.3579 H   0  0  0  0  0  0  0  0  0  0  0  0
  150.7144  139.3784  153.4871 H   0  0  0  0  0  0  0  0  0  0  0  0
  148.8771  137.7805  153.2069 H   0  0  0  0  0  0  0  0  0  0  0  0
  148.1925  138.2161  154.7581 H   0  0  0  0  0  0  0  0  0  0  0  0
  146.0128  138.9098  153.4695 H   0  0  0  0  0  0  0  0  0  0  0  0
  146.9071  138.2862  152.0807 H   0  0  0  0  0  0  0  0  0  0  0  0
  146.2528  139.9051  152.0249 H   0  0  0  0  0  0  0  0  0  0  0  0
  147.2478  140.5286  155.0474 H   0  0  0  0  0  0  0  0  0  0  0  0
  146.9840  142.8864  154.1682 H   0  0  0  0  0  0  0  0  0  0  0  0
  145.9752  141.7387  153.3233 H   0  0  0  0  0  0  0  0  0  0  0  0
  147.4631  142.3226  152.5724 H   0  0  0  0  0  0  0  0  0  0  0  0
  149.7183  141.7888  153.7782 H   0  0  0  0  0  0  0  0  0  0  0  0
  149.0394  142.2164  155.3301 H   0  0  0  0  0  0  0  0  0  0  0  0
  149.5177  139.9856  156.2355 H   0  0  0  0  0  0  0  0  0  0  0  0
  151.2362  141.8463  155.8015 H   0  0  0  0  0  0  0  0  0  0  0  0
  151.8960  139.1178  156.5939 H   0  0  0  0  0  0  0  0  0  0  0  0
  153.0242  140.4593  156.7581 H   0  0  0  0  0  0  0  0  0  0  0  0
  150.1904  140.5419  157.9145 H   0  0  0  0  0  0  0  0  0  0  0  0
  151.5501  139.9441  158.8346 H   0  0  0  0  0  0  0  0  0  0  0  0
  150.7851  142.9825  156.6622 H   0  0  0  0  0  0  0  0  0  0  0  0
  151.4186  145.2875  157.4171 H   0  0  0  0  0  0  0  0  0  0  0  0
  152.6138  145.5558  159.6095 H   0  0  0  0  0  0  0  0  0  0  0  0
  153.1262  143.5013  160.9540 H   0  0  0  0  0  0  0  0  0  0  0  0
  148.5436  140.0154  152.4828 H   0  0  0  0  0  0  0  0  0  0  0  0
  1  2  1  0  0  0  0
  1 19  1  0  0  0  0
  1 20  1  0  0  0  0
  1 21  1  0  0  0  0
  2  9  1  0  0  0  0
  2  3  1  0  0  0  0
  2 22  1  0  0  0  0
  3  4  1  0  0  0  0
  3 23  1  0  0  0  0
  3 24  1  0  0  0  0
  4  5  1  0  0  0  0
  4  6  1  0  0  0  0
  4 44  1  0  0  0  0
  5 25  1  0  0  0  0
  5 26  1  0  0  0  0
  5 27  1  0  0  0  0
  6  7  1  0  0  0  0
  6  8  1  0  0  0  0
  6 28  1  0  0  0  0
  7 29  1  0  0  0  0
  7 30  1  0  0  0  0
  7 31  1  0  0  0  0
  8  9  1  0  0  0  0
  8 32  1  0  0  0  0
  8 33  1  0  0  0  0
  9 10  1  0  0  0  0
  9 34  1  0  0  0  0
 10 11  1  0  0  0  0
 10 35  1  0  0  0  0
 11 12  1  0  0  0  0
 11 36  1  0  0  0  0
 11 37  1  0  0  0  0
 12 13  1  0  0  0  0
 12 38  1  0  0  0  0
 12 39  1  0  0  0  0
 13 18  1  0  0  0  0
 13 14  2  0  0  0  0
 14 15  1  0  0  0  0
 14 40  1  0  0  0  0
 15 16  2  0  0  0  0
 15 41  1  0  0  0  0
 16 17  1  0  0  0  0
 16 42  1  0  0  0  0
 17 18  2  0  0  0  0
 17 43  1  0  0  0  0
M  CHG  1   4   1
M  END
> <s_m_source_file>
AV-unprocessed.smi

> <i_m_source_file_index>
3303

> <i_lp_mmshare_version>
43012

> <i_f3d_flags>
0

> <s_epik_input>
W0NIM11bQ0BASF0xW0NIMl1OKFtDSDNdKVtDQEBIXShbQ0gzXSlbQ0gyXVtDQEhdMVtOSF1bQ0gyXVtDSDJdYzJbY0hdW2NIXVtjSF1bY0hdbjI=

> <s_epik_cmdline>
J2VwaWtfcHl0aG9uJywgJy1waCcsICc3LjAnLCAnLXRuJywgJzgnLCAnLW1hJywgJzIwMCcsICctbWV0YWxfYmluZGluZycsICctaW1hZScsICc8aW5maWxlLm1hZT4nLCAnLW9tYWUnLCAnPG91dGZpbGUubWFlPic=

> <r_epik_Ionization_Penalty>
2.31085

> <r_epik_Ionization_Penalty_Charging>
0.000313057

> <r_epik_Ionization_Penalty_Neutral>
2.31054

> <r_epik_State_Penalty>
2.4087

> <r_epik_Charging_Adjusted_Penalty>
2.40902

> <i_epik_Tot_Q>
1

> <i_epik_Tot_abs_Q>
1

> <r_epik_Metal_State_Penalty>
2.30979

> <b_epik_Metal_Only>
0

> <s_lp_Force_Field>
OPLS_2005

> <r_lp_Energy>
23.6085

> <b_lp_Chiralities_Consistent>
1

> <s_lp_Variant>
AV-unprocessed.smi:3303-40

> <Gold.Version>
5.8.1

> <Gold.Id.Protein>
6NUR|6NUR_protein|mol2

> <Gold.PLP.Fitness>
45.3557

> <Gold.PLP.PLP>
-42.4353

> <Gold.PLP.part.hbond>
-2.0000

> <Gold.PLP.part.metal>
0.0000

> <Gold.PLP.part.buried>
-4.0111

> <Gold.PLP.part.nonpolar>
-37.0895

> <Gold.PLP.part.repulsive>
0.0767

> <Gold.PLP.ligand.clash>
0.0000

> <Gold.PLP.ligand.torsion>
0.4002

> <Gold.PLP.Chemscore.Hbond>
1.2370

> <Gold.PLP.Chemscore.CHOScore>
0.0000

> <Gold.PLP.Chemscore.Metal>
0.0000

> <Gold.Chemscore.Hbonds>
donor molecule, donor type, donor heavy atom, donor atom, acceptor molecule, acceptor atom, score
      L1  H     4    44       P1  7957  1.00
      P1  H  7989  7998       L1    10  0.22

> <Gold.PLP.Chemscore.Internal.Correction>
0.0098

> <Gold.Rescore>
     Score         DG    S(hbond)    S(metal)    S(lipo)     H(rot)  DE(clash)    DE(int)     intcor
     18.82     -20.15       1.00        0.00     125.75       1.33       0.12       1.21       ----

> <Gold.Chemscore.Fitness>
18.8183

> <Gold.Chemscore.DG>
-20.1500

> <Gold.Chemscore.ZeroCoef>
-5.4800

> <Gold.Chemscore.Hbond>
1.0046

> <Gold.Chemscore.Metal>
0.0000

> <Gold.Chemscore.Lipo>
125.7450

> <Gold.Chemscore.Internal_Hbond>
0.0000

> <Gold.Chemscore.DEClash>
0.1239

> <Gold.Chemscore.DEInternal>
1.2077

> <Gold.Chemscore.Rot>
1.3272

> <Gold.Chemscore.Internal.Correction>
   9.000000E+99

> <Gold.Chemscore.Hbonds>
donor molecule, donor type, donor heavy atom, donor atom, acceptor molecule, acceptor atom, score
      L1  H     4    44       P1  7957  1.00

> <Gold.Chemscore.Hbond.Weighted>
-3.3555

> <Gold.Chemscore.Metal.Weighted>
-0.0000

> <Gold.Chemscore.Lipo.Weighted>
-14.7122

> <Gold.Chemscore.Internal_Hbond.Weighted>
0.0000

> <Gold.Chemscore.DEClash.Weighted>
0.1239

> <Gold.Chemscore.DEInternal.Weighted>
1.2077

> <Gold.Chemscore.Rot.Weighted>
3.3976

> <Gold.Chemscore.Internal.Correction.Weighted>
   9.000000E+99

> <Gold.Protein.RotatedTorsions>
[ 6907 6896 6895 6894 ] final -157.27 input  -60.11 | X-H torsion
[ 7974 7965 7964 7962 ] final -104.07 input  175.53 | X-H torsion
[ 8008 7997 7996 7995 ] final   29.38 input   59.86 | X-H torsion
[ 10167 10162 10161 10158 ] final    6.91 input  -65.29 | X-H torsion
[ 10718 10713 10712 10709 ] final  -62.53 input   66.30 | X-H torsion
[ 10763 10752 10751 10750 ] final  -12.52 input  -60.55 | X-H torsion
[ 11005 11000 10999 10996 ] final  -82.39 input  -57.11 | X-H torsion

> <Gold.Protein.ActiveResidues>
 VAL166  LYS551  ARG553  GLY616  TRP617  ASP618  TYR619  PRO620  LYS621  CYS622 
 ASP623  PHE694  ASN695  SER759  ASP760  ASP761  ALA762  ILE779  LEU786  VAL792 
 PHE793  MET794  SER795  GLU796  ALA797  LYS798  CYS799  TRP800  GLU811  SER814 

> <Gold.Protein.RotatedAtoms>
  151.3003  133.4125  159.2639 H   0  0  0  0  0  0  0  0  0  0  0  0  # atno 6907 bound_to 6896
  151.0201  134.9463  159.8065 H   0  0  0  0  0  0  0  0  0  0  0  0  # atno 6908 bound_to 6896
  152.5322  134.2966  159.9115 H   0  0  0  0  0  0  0  0  0  0  0  0  # atno 6909 bound_to 6896
  145.2478  140.9227  143.3112 H   0  0  0  0  0  0  0  0  0  0  0  0  # atno 7974 bound_to 7965
  155.0736  140.3203  155.4623 H   0  0  0  0  0  0  0  0  0  0  0  0  # atno 8008 bound_to 7997
  156.2784  140.2107  156.5809 H   0  0  0  0  0  0  0  0  0  0  0  0  # atno 8009 bound_to 7997
  154.7035  140.0505  157.0468 H   0  0  0  0  0  0  0  0  0  0  0  0  # atno 8010 bound_to 7997
  140.6401  143.7794  150.7416 H   0  0  0  0  0  0  0  0  0  0  0  0  # atno 10167 bound_to 10162
  156.0849  130.4210  150.1148 H   0  0  0  0  0  0  0  0  0  0  0  0  # atno 10718 bound_to 10713
  153.4998  135.7017  153.5838 H   0  0  0  0  0  0  0  0  0  0  0  0  # atno 10763 bound_to 10752
  153.3975  135.3880  155.1965 H   0  0  0  0  0  0  0  0  0  0  0  0  # atno 10764 bound_to 10752
  154.8711  135.3873  154.4467 H   0  0  0  0  0  0  0  0  0  0  0  0  # atno 10765 bound_to 10752
  141.1663  133.7242  156.8565 H   0  0  0  0  0  0  0  0  0  0  0  0  # atno 11005 bound_to 11000
  144.9530  139.4062  143.6393 LP  0  0  0  0  0  0  0  0  0  0  0  0  # atno 17320 bound_to 7965
  146.3311  139.8547  142.8867 LP  0  0  0  0  0  0  0  0  0  0  0  0  # atno 17321 bound_to 7965
  140.1423  143.4430  152.2185 LP  0  0  0  0  0  0  0  0  0  0  0  0  # atno 17342 bound_to 10162
  139.5611  144.7406  151.4154 LP  0  0  0  0  0  0  0  0  0  0  0  0  # atno 17343 bound_to 10162
  156.9171  130.9670  151.3554 LP  0  0  0  0  0  0  0  0  0  0  0  0  # atno 17370 bound_to 10713
  157.5980  130.8492  149.8759 LP  0  0  0  0  0  0  0  0  0  0  0  0  # atno 17371 bound_to 10713
  140.1879  134.8987  157.3025 LP  0  0  0  0  0  0  0  0  0  0  0  0  # atno 17394 bound_to 11000
  140.2323  134.3894  155.7516 LP  0  0  0  0  0  0  0  0  0  0  0  0  # atno 17395 bound_to 11000

$$$$
