AV-unprocessed.smi:670|AV-procd|sdf|3268|dock7
  -GOLD-   22720 0223D 1   1.00000     0.00000
 Structure written by MMmdl.
 44 45  0  0  0  0  0  0  0  0  2 V2000
  150.5073  142.0255  157.0894 C   0  0  0  0  0  0  0  0  0  0  0  0
  151.7401  142.1044  158.0041 C   0  0  1  0  0  0  0  0  0  0  0  0
  151.7563  143.4343  158.7854 C   0  0  0  0  0  0  0  0  0  0  0  0
  152.9778  143.5373  159.7118 C   0  0  0  0  0  0  0  0  0  0  0  0
  153.0372  142.3458  160.6771 C   0  0  0  0  0  0  0  0  0  0  0  0
  153.0329  141.0191  159.9064 C   0  0  0  0  0  0  0  0  0  0  0  0
  151.8109  140.9022  158.9723 C   0  0  2  0  0  0  0  0  0  0  0  0
  151.9495  139.7175  158.2005 O   0  0  0  0  0  0  0  0  0  0  0  0
  152.1220  138.5341  158.9670 C   0  0  0  0  0  0  0  0  0  0  0  0
  151.3560  137.3962  158.2860 C   0  0  0  0  0  0  0  0  0  0  0  0
  150.0010  137.3368  158.8186 N   0  0  0  0  0  0  0  0  0  0  0  0
  149.1733  136.2804  158.7807 C   0  0  0  0  0  0  0  0  0  0  0  0
  149.4981  135.1888  158.3136 O   0  0  0  0  0  0  0  0  0  0  0  0
  147.7506  136.4689  159.3360 C   0  0  0  0  0  0  0  0  0  0  0  0
  147.4269  135.6250  160.4990 N   0  0  0  0  0  0  0  0  0  0  0  0
  147.4564  134.1919  160.2199 N   0  5  0  0  0  0  0  0  0  0  0  0
  147.1907  133.3154  161.2245 C   0  0  0  0  0  0  0  0  0  0  0  0
  147.2172  132.0969  161.0701 O   0  0  0  0  0  0  0  0  0  0  0  0
  146.8609  133.8541  162.5335 C   0  0  0  0  0  0  0  0  0  0  0  0
  146.8360  135.1819  162.7616 C   0  0  0  0  0  0  0  0  0  0  0  0
  147.1414  136.1571  161.7220 C   0  0  0  0  0  0  0  0  0  0  0  0
  147.1472  137.3700  161.9313 O   0  0  0  0  0  0  0  0  0  0  0  0
  149.5833  142.0301  157.6684 H   0  0  0  0  0  0  0  0  0  0  0  0
  150.5179  141.1165  156.4873 H   0  0  0  0  0  0  0  0  0  0  0  0
  150.4744  142.8714  156.4024 H   0  0  0  0  0  0  0  0  0  0  0  0
  152.6269  142.0803  157.3685 H   0  0  0  0  0  0  0  0  0  0  0  0
  151.7559  144.2751  158.0909 H   0  0  0  0  0  0  0  0  0  0  0  0
  150.8450  143.5243  159.3783 H   0  0  0  0  0  0  0  0  0  0  0  0
  153.8897  143.5698  159.1142 H   0  0  0  0  0  0  0  0  0  0  0  0
  152.9423  144.4706  160.2743 H   0  0  0  0  0  0  0  0  0  0  0  0
  153.9318  142.4119  161.2968 H   0  0  0  0  0  0  0  0  0  0  0  0
  152.1844  142.3783  161.3563 H   0  0  0  0  0  0  0  0  0  0  0  0
  153.9426  140.9469  159.3101 H   0  0  0  0  0  0  0  0  0  0  0  0
  153.0639  140.1899  160.6128 H   0  0  0  0  0  0  0  0  0  0  0  0
  150.8910  140.8695  159.5600 H   0  0  0  0  0  0  0  0  0  0  0  0
  153.1734  138.2589  159.0607 H   0  0  0  0  0  0  0  0  0  0  0  0
  151.7431  138.7039  159.9752 H   0  0  0  0  0  0  0  0  0  0  0  0
  151.3501  137.5584  157.2072 H   0  0  0  0  0  0  0  0  0  0  0  0
  151.8528  136.4418  158.4623 H   0  0  0  0  0  0  0  0  0  0  0  0
  149.6444  138.1843  159.2385 H   0  0  0  0  0  0  0  0  0  0  0  0
  147.6084  137.5211  159.5879 H   0  0  0  0  0  0  0  0  0  0  0  0
  147.0472  136.2702  158.5258 H   0  0  0  0  0  0  0  0  0  0  0  0
  146.6325  133.1747  163.3413 H   0  0  0  0  0  0  0  0  0  0  0  0
  146.5894  135.5374  163.7508 H   0  0  0  0  0  0  0  0  0  0  0  0
  1  2  1  0  0  0  0
  1 23  1  0  0  0  0
  1 24  1  0  0  0  0
  1 25  1  0  0  0  0
  2  7  1  0  0  0  0
  2  3  1  0  0  0  0
  2 26  1  0  0  0  0
  3  4  1  0  0  0  0
  3 27  1  0  0  0  0
  3 28  1  0  0  0  0
  4  5  1  0  0  0  0
  4 29  1  0  0  0  0
  4 30  1  0  0  0  0
  5  6  1  0  0  0  0
  5 31  1  0  0  0  0
  5 32  1  0  0  0  0
  6  7  1  0  0  0  0
  6 33  1  0  0  0  0
  6 34  1  0  0  0  0
  7  8  1  0  0  0  0
  7 35  1  0  0  0  0
  8  9  1  0  0  0  0
  9 10  1  0  0  0  0
  9 36  1  0  0  0  0
  9 37  1  0  0  0  0
 10 11  1  0  0  0  0
 10 38  1  0  0  0  0
 10 39  1  0  0  0  0
 11 12  1  0  0  0  0
 11 40  1  0  0  0  0
 12 13  2  0  0  0  0
 12 14  1  0  0  0  0
 14 41  1  0  0  0  0
 14 42  1  0  0  0  0
 14 15  1  0  0  0  0
 15 16  1  0  0  0  0
 15 21  1  0  0  0  0
 16 17  1  0  0  0  0
 17 18  2  0  0  0  0
 17 19  1  0  0  0  0
 19 43  1  0  0  0  0
 19 20  2  0  0  0  0
 20 44  1  0  0  0  0
 20 21  1  0  0  0  0
 21 22  2  0  0  0  0
M  CHG  1  16  -1
M  END
> <s_m_source_file>
AV-unprocessed.smi

> <i_m_source_file_index>
670

> <i_lp_mmshare_version>
43012

> <i_f3d_flags>
0

> <s_epik_input>
W0NIM11bQ0BASF0xW0NIMl1bQ0gyXVtDSDJdW0NIMl1bQ0BIXTFPW0NIMl1bQ0gyXVtOSF1DKD1PKVtDSDJdbjJbbkhdYyg9TylbY0hdW2NIXWMyPU8=

> <s_epik_cmdline>
J2VwaWtfcHl0aG9uJywgJy1waCcsICc3LjAnLCAnLXRuJywgJzgnLCAnLW1hJywgJzIwMCcsICctbWV0YWxfYmluZGluZycsICctaW1hZScsICc8aW5maWxlLm1hZT4nLCAnLW9tYWUnLCAnPG91dGZpbGUubWFlPic=

> <r_lp_tautomer_probability>
1

> <r_epik_Ionization_Penalty>
0.0975638

> <r_epik_Ionization_Penalty_Charging>
0.0975637

> <r_epik_Ionization_Penalty_Neutral>
2.78599e-08

> <r_epik_State_Penalty>
0.0343507

> <r_epik_Charging_Adjusted_Penalty>
0.131914

> <i_epik_Tot_Q>
-1

> <i_epik_Tot_abs_Q>
1

> <r_epik_Metal_State_Penalty>
0.0343507

> <b_epik_Metal_Only>
0

> <s_lp_Force_Field>
OPLS_2005

> <r_lp_Energy>
24.2447

> <b_lp_Chiralities_Consistent>
1

> <s_lp_Variant>
AV-unprocessed.smi:670-4

> <Gold.Version>
5.8.1

> <Gold.Id.Protein>
6NUR|6NUR_protein|mol2

> <Gold.PLP.Fitness>
51.0344

> <Gold.PLP.PLP>
-44.7264

> <Gold.PLP.part.hbond>
-3.0000

> <Gold.PLP.part.metal>
0.0000

> <Gold.PLP.part.buried>
-6.1787

> <Gold.PLP.part.nonpolar>
-35.6535

> <Gold.PLP.part.repulsive>
0.1775

> <Gold.PLP.ligand.clash>
0.0000

> <Gold.PLP.ligand.torsion>
0.6354

> <Gold.PLP.Chemscore.Hbond>
2.5040

> <Gold.PLP.Chemscore.CHOScore>
0.0000

> <Gold.PLP.Chemscore.Metal>
0.0000

> <Gold.Chemscore.Hbonds>
donor molecule, donor type, donor heavy atom, donor atom, acceptor molecule, acceptor atom, score
      P1  H  6896  6907       L1    13  1.00
      P1  H  6931  6943       L1    22  0.67
      P1  H  6934  6947       L1    22  0.77

> <Gold.PLP.Chemscore.Internal.Correction>
0.0669

> <Gold.Rescore>
     Score         DG    S(hbond)    S(metal)    S(lipo)     H(rot)  DE(clash)    DE(int)     intcor
     18.51     -19.39       2.60        0.00      98.13       2.45       0.00       0.88       ----

> <Gold.Chemscore.Fitness>
18.5083

> <Gold.Chemscore.DG>
-19.3893

> <Gold.Chemscore.ZeroCoef>
-5.4800

> <Gold.Chemscore.Hbond>
2.6041

> <Gold.Chemscore.Metal>
0.0000

> <Gold.Chemscore.Lipo>
98.1283

> <Gold.Chemscore.Internal_Hbond>
0.0000

> <Gold.Chemscore.DEClash>
0.0000

> <Gold.Chemscore.DEInternal>
0.8810

> <Gold.Chemscore.Rot>
2.4490

> <Gold.Chemscore.Internal.Correction>
   9.000000E+99

> <Gold.Chemscore.Hbonds>
donor molecule, donor type, donor heavy atom, donor atom, acceptor molecule, acceptor atom, score
      P1  H  6896  6907       L1    13  0.50
      P1  H  6931  6943       L1    22  0.61
      P1  H  6934  6947       L1    22  0.76

> <Gold.Chemscore.Hbond.Weighted>
-8.6977

> <Gold.Chemscore.Metal.Weighted>
-0.0000

> <Gold.Chemscore.Lipo.Weighted>
-11.4810

> <Gold.Chemscore.Internal_Hbond.Weighted>
0.0000

> <Gold.Chemscore.DEClash.Weighted>
0.0000

> <Gold.Chemscore.DEInternal.Weighted>
0.8810

> <Gold.Chemscore.Rot.Weighted>
6.2694

> <Gold.Chemscore.Internal.Correction.Weighted>
   9.000000E+99

> <Gold.Protein.RotatedTorsions>
[ 6907 6896 6895 6894 ] final  -75.10 input  -60.11 | X-H torsion
[ 7974 7965 7964 7962 ] final  -21.63 input  175.53 | X-H torsion
[ 8008 7997 7996 7995 ] final -134.17 input   59.86 | X-H torsion
[ 10167 10162 10161 10158 ] final   35.91 input  -65.29 | X-H torsion
[ 10718 10713 10712 10709 ] final  175.94 input   66.30 | X-H torsion
[ 10763 10752 10751 10750 ] final -172.02 input  -60.55 | X-H torsion
[ 11005 11000 10999 10996 ] final   -6.44 input  -57.11 | X-H torsion

> <Gold.Protein.ActiveResidues>
 VAL166  LYS551  ARG553  GLY616  TRP617  ASP618  TYR619  PRO620  LYS621  CYS622 
 ASP623  PHE694  ASN695  SER759  ASP760  ASP761  ALA762  ILE779  LEU786  VAL792 
 PHE793  MET794  SER795  GLU796  ALA797  LYS798  CYS799  TRP800  GLU811  SER814 

> <Gold.Protein.RotatedAtoms>
  150.7070  134.4770  159.5452 H   0  0  0  0  0  0  0  0  0  0  0  0  # atno 6907 bound_to 6896
  152.2415  134.8221  160.0468 H   0  0  0  0  0  0  0  0  0  0  0  0  # atno 6908 bound_to 6896
  151.9001  133.3501  159.3864 H   0  0  0  0  0  0  0  0  0  0  0  0  # atno 6909 bound_to 6896
  146.1722  140.4368  142.8528 H   0  0  0  0  0  0  0  0  0  0  0  0  # atno 7974 bound_to 7965
  155.3577  140.0481  157.3046 H   0  0  0  0  0  0  0  0  0  0  0  0  # atno 8008 bound_to 7997
  154.5194  140.2220  155.8968 H   0  0  0  0  0  0  0  0  0  0  0  0  # atno 8009 bound_to 7997
  156.1673  140.3103  155.8917 H   0  0  0  0  0  0  0  0  0  0  0  0  # atno 8010 bound_to 7997
  140.4177  144.1503  150.6145 H   0  0  0  0  0  0  0  0  0  0  0  0  # atno 10167 bound_to 10162
  156.9274  130.9960  151.2993 H   0  0  0  0  0  0  0  0  0  0  0  0  # atno 10718 bound_to 10713
  154.6240  135.2878  155.0293 H   0  0  0  0  0  0  0  0  0  0  0  0  # atno 10763 bound_to 10752
  154.1478  135.6508  153.4960 H   0  0  0  0  0  0  0  0  0  0  0  0  # atno 10764 bound_to 10752
  153.0249  135.5348  154.7041 H   0  0  0  0  0  0  0  0  0  0  0  0  # atno 10765 bound_to 10752
  140.7020  133.8981  155.8690 H   0  0  0  0  0  0  0  0  0  0  0  0  # atno 11005 bound_to 11000
  144.8180  140.6501  143.6371 LP  0  0  0  0  0  0  0  0  0  0  0  0  # atno 17320 bound_to 7965
  145.4310  139.1549  143.4022 LP  0  0  0  0  0  0  0  0  0  0  0  0  # atno 17321 bound_to 7965
  140.4568  143.2464  151.9274 LP  0  0  0  0  0  0  0  0  0  0  0  0  # atno 17342 bound_to 10162
  139.4782  144.5508  151.8389 LP  0  0  0  0  0  0  0  0  0  0  0  0  # atno 17343 bound_to 10162
  157.5869  130.8416  149.8602 LP  0  0  0  0  0  0  0  0  0  0  0  0  # atno 17370 bound_to 10713
  156.0463  130.3727  150.1310 LP  0  0  0  0  0  0  0  0  0  0  0  0  # atno 17371 bound_to 10713
  141.0155  134.0961  157.4176 LP  0  0  0  0  0  0  0  0  0  0  0  0  # atno 17394 bound_to 11000
  139.8894  135.0105  156.6677 LP  0  0  0  0  0  0  0  0  0  0  0  0  # atno 17395 bound_to 11000

$$$$
