AV-unprocessed.smi:1594|AV-procd|sdf|6414|dock3
  -GOLD-   22720 7 53D 1   1.00000     0.00000
 Structure written by MMmdl.
 35 36  0  0  0  0  0  0  0  0  1 V2000
  148.5235  139.6669  156.8114 C   0  0  0  0  0  0  0  0  0  0  0  0
  149.7162  139.4518  155.9248 C   0  0  0  0  0  0  0  0  0  0  0  0
  149.5979  139.6140  154.6177 N   0  0  0  0  0  0  0  0  0  0  0  0
  150.8630  139.3506  154.0834 O   0  0  0  0  0  0  0  0  0  0  0  0
  151.7026  139.0357  155.1023 C   0  0  0  0  0  0  0  0  0  0  0  0
  153.1136  138.7227  154.7356 C   0  0  0  0  0  0  0  0  0  0  0  0
  151.0387  139.0761  156.2973 C   0  0  0  0  0  0  0  0  0  0  0  0
  151.5704  138.7967  157.6819 C   0  0  0  0  0  0  0  0  0  0  0  0
  152.3785  139.9784  158.2322 C   0  0  0  0  0  0  0  0  0  0  0  0
  153.5217  139.8254  158.6659 O   0  0  0  0  0  0  0  0  0  0  0  0
  151.7595  141.1684  158.2049 N   0  0  0  0  0  0  0  0  0  0  0  0
  152.3365  142.4284  158.6640 C   0  0  0  0  0  0  0  0  0  0  0  0
  152.1592  142.5622  160.1839 C   0  0  0  0  0  0  0  0  0  0  0  0
  152.6281  143.9450  160.6659 C   0  0  0  0  0  0  0  0  0  0  0  0
  151.9235  144.9678  159.9703 O   0  0  0  0  0  0  0  0  0  0  0  0
  152.1628  144.9502  158.5671 C   0  0  0  0  0  0  0  0  0  0  0  0
  151.6684  143.6251  157.9651 C   0  0  0  0  0  0  0  0  0  0  0  0
  148.7932  140.2482  157.6933 H   0  0  0  0  0  0  0  0  0  0  0  0
  148.1165  138.7150  157.1530 H   0  0  0  0  0  0  0  0  0  0  0  0
  147.7271  140.2033  156.2940 H   0  0  0  0  0  0  0  0  0  0  0  0
  153.8015  139.0837  155.5003 H   0  0  0  0  0  0  0  0  0  0  0  0
  153.3856  139.1921  153.7902 H   0  0  0  0  0  0  0  0  0  0  0  0
  153.2550  137.6468  154.6335 H   0  0  0  0  0  0  0  0  0  0  0  0
  150.7540  138.5813  158.3725 H   0  0  0  0  0  0  0  0  0  0  0  0
  152.2105  137.9137  157.6852 H   0  0  0  0  0  0  0  0  0  0  0  0
  150.8206  141.2056  157.8351 H   0  0  0  0  0  0  0  0  0  0  0  0
  153.4057  142.4378  158.4431 H   0  0  0  0  0  0  0  0  0  0  0  0
  151.1095  142.4288  160.4496 H   0  0  0  0  0  0  0  0  0  0  0  0
  152.7147  141.7787  160.7004 H   0  0  0  0  0  0  0  0  0  0  0  0
  152.4394  144.0524  161.7341 H   0  0  0  0  0  0  0  0  0  0  0  0
  153.7026  144.0648  160.5194 H   0  0  0  0  0  0  0  0  0  0  0  0
  151.6366  145.7880  158.1094 H   0  0  0  0  0  0  0  0  0  0  0  0
  153.2255  145.0950  158.3669 H   0  0  0  0  0  0  0  0  0  0  0  0
  151.8732  143.6053  156.8941 H   0  0  0  0  0  0  0  0  0  0  0  0
  150.5850  143.5632  158.0770 H   0  0  0  0  0  0  0  0  0  0  0  0
  1  2  1  0  0  0  0
  1 18  1  0  0  0  0
  1 19  1  0  0  0  0
  1 20  1  0  0  0  0
  2  7  1  0  0  0  0
  2  3  2  0  0  0  0
  3  4  1  0  0  0  0
  4  5  1  0  0  0  0
  5  6  1  0  0  0  0
  5  7  2  0  0  0  0
  6 21  1  0  0  0  0
  6 22  1  0  0  0  0
  6 23  1  0  0  0  0
  7  8  1  0  0  0  0
  8  9  1  0  0  0  0
  8 24  1  0  0  0  0
  8 25  1  0  0  0  0
  9 10  2  0  0  0  0
  9 11  1  0  0  0  0
 11 12  1  0  0  0  0
 11 26  1  0  0  0  0
 12 17  1  0  0  0  0
 12 13  1  0  0  0  0
 12 27  1  0  0  0  0
 13 14  1  0  0  0  0
 13 28  1  0  0  0  0
 13 29  1  0  0  0  0
 14 15  1  0  0  0  0
 14 30  1  0  0  0  0
 14 31  1  0  0  0  0
 15 16  1  0  0  0  0
 16 17  1  0  0  0  0
 16 32  1  0  0  0  0
 16 33  1  0  0  0  0
 17 34  1  0  0  0  0
 17 35  1  0  0  0  0
M  END
> <s_m_source_file>
AV-unprocessed.smi

> <i_m_source_file_index>
1594

> <i_lp_mmshare_version>
43012

> <i_f3d_flags>
0

> <s_epik_input>
W0NIM11jMW5vYyhbQ0gzXSljMVtDSDJdQyg9TylbTkhdW0NIXTJbQ0gyXVtDSDJdT1tDSDJdW0NIMl0y

> <s_epik_cmdline>
J2VwaWtfcHl0aG9uJywgJy1waCcsICc3LjAnLCAnLXRuJywgJzgnLCAnLW1hJywgJzIwMCcsICctbWV0YWxfYmluZGluZycsICctaW1hZScsICc8aW5maWxlLm1hZT4nLCAnLW9tYWUnLCAnPG91dGZpbGUubWFlPic=

> <r_lp_tautomer_probability>
1

> <r_epik_Ionization_Penalty>
2.34123e-08

> <r_epik_Ionization_Penalty_Charging>
0

> <r_epik_Ionization_Penalty_Neutral>
2.34123e-08

> <r_epik_State_Penalty>
-0

> <r_epik_Charging_Adjusted_Penalty>
0

> <i_epik_Tot_Q>
0

> <i_epik_Tot_abs_Q>
0

> <r_epik_Metal_State_Penalty>
-0

> <b_epik_Metal_Only>
0

> <s_lp_Force_Field>
OPLS_2005

> <r_lp_Energy>
1.65601

> <b_lp_Chiralities_Consistent>
1

> <s_lp_Variant>
AV-unprocessed.smi:1594-1

> <Gold.Version>
5.8.1

> <Gold.Id.Protein>
6NUR|6NUR_protein|mol2

> <Gold.PLP.Fitness>
35.1308

> <Gold.PLP.PLP>
-30.4044

> <Gold.PLP.part.hbond>
-2.0000

> <Gold.PLP.part.metal>
0.0000

> <Gold.PLP.part.buried>
-4.3069

> <Gold.PLP.part.nonpolar>
-24.0645

> <Gold.PLP.part.repulsive>
0.4698

> <Gold.PLP.ligand.clash>
0.0000

> <Gold.PLP.ligand.torsion>
0.6380

> <Gold.PLP.Chemscore.Hbond>
2.0000

> <Gold.PLP.Chemscore.CHOScore>
0.0000

> <Gold.PLP.Chemscore.Metal>
0.0000

> <Gold.Chemscore.Hbonds>
donor molecule, donor type, donor heavy atom, donor atom, acceptor molecule, acceptor atom, score
      P1  H  7989  7998       L1     4  1.00
      P1  H  7997  8009       L1    10  1.00

> <Gold.PLP.Chemscore.Internal.Correction>
0.0023

> <Gold.Rescore>
     Score         DG    S(hbond)    S(metal)    S(lipo)     H(rot)  DE(clash)    DE(int)     intcor
     15.21     -15.79       1.01        0.00      89.37       1.38       0.05       0.53       ----

> <Gold.Chemscore.Fitness>
15.2107

> <Gold.Chemscore.DG>
-15.7856

> <Gold.Chemscore.ZeroCoef>
-5.4800

> <Gold.Chemscore.Hbond>
1.0116

> <Gold.Chemscore.Metal>
0.0000

> <Gold.Chemscore.Lipo>
89.3699

> <Gold.Chemscore.Internal_Hbond>
0.0000

> <Gold.Chemscore.DEClash>
0.0456

> <Gold.Chemscore.DEInternal>
0.5292

> <Gold.Chemscore.Rot>
1.3786

> <Gold.Chemscore.Internal.Correction>
   9.000000E+99

> <Gold.Chemscore.Hbonds>
donor molecule, donor type, donor heavy atom, donor atom, acceptor molecule, acceptor atom, score
      P1  H  7989  7998       L1     4  0.23
      P1  H  7997  8009       L1    10  0.64

> <Gold.Chemscore.Hbond.Weighted>
-3.3786

> <Gold.Chemscore.Metal.Weighted>
-0.0000

> <Gold.Chemscore.Lipo.Weighted>
-10.4563

> <Gold.Chemscore.Internal_Hbond.Weighted>
0.0000

> <Gold.Chemscore.DEClash.Weighted>
0.0456

> <Gold.Chemscore.DEInternal.Weighted>
0.5292

> <Gold.Chemscore.Rot.Weighted>
3.5293

> <Gold.Chemscore.Internal.Correction.Weighted>
   9.000000E+99

> <Gold.Protein.RotatedTorsions>
[ 6907 6896 6895 6894 ] final   41.59 input  -60.11 | X-H torsion
[ 7974 7965 7964 7962 ] final  171.60 input  175.53 | X-H torsion
[ 8008 7997 7996 7995 ] final  141.58 input   59.86 | X-H torsion
[ 10167 10162 10161 10158 ] final   40.27 input  -65.29 | X-H torsion
[ 10718 10713 10712 10709 ] final   50.61 input   66.30 | X-H torsion
[ 10763 10752 10751 10750 ] final -110.23 input  -60.55 | X-H torsion
[ 11005 11000 10999 10996 ] final  167.56 input  -57.11 | X-H torsion

> <Gold.Protein.ActiveResidues>
 VAL166  LYS551  ARG553  GLY616  TRP617  ASP618  TYR619  PRO620  LYS621  CYS622 
 ASP623  PHE694  ASN695  SER759  ASP760  ASP761  ALA762  ILE779  LEU786  VAL792 
 PHE793  MET794  SER795  GLU796  ALA797  LYS798  CYS799  TRP800  GLU811  SER814 

> <Gold.Protein.RotatedAtoms>
  152.1972  134.8620  160.0511 H   0  0  0  0  0  0  0  0  0  0  0  0  # atno 6907 bound_to 6896
  151.9486  133.3654  159.4000 H   0  0  0  0  0  0  0  0  0  0  0  0  # atno 6908 bound_to 6896
  150.6947  134.4288  159.5282 H   0  0  0  0  0  0  0  0  0  0  0  0  # atno 6909 bound_to 6896
  144.7290  139.9374  143.6427 H   0  0  0  0  0  0  0  0  0  0  0  0  # atno 7974 bound_to 7965
  156.2963  140.2311  156.4588 H   0  0  0  0  0  0  0  0  0  0  0  0  # atno 8008 bound_to 7997
  154.8036  140.0447  157.1312 H   0  0  0  0  0  0  0  0  0  0  0  0  # atno 8009 bound_to 7997
  154.9504  140.3041  155.5081 H   0  0  0  0  0  0  0  0  0  0  0  0  # atno 8010 bound_to 7997
  140.3758  144.2045  150.6131 H   0  0  0  0  0  0  0  0  0  0  0  0  # atno 10167 bound_to 10162
  157.4901  130.8370  149.8192 H   0  0  0  0  0  0  0  0  0  0  0  0  # atno 10718 bound_to 10713
  154.8237  135.4571  154.0854 H   0  0  0  0  0  0  0  0  0  0  0  0  # atno 10763 bound_to 10752
  153.2186  135.6891  153.8033 H   0  0  0  0  0  0  0  0  0  0  0  0  # atno 10764 bound_to 10752
  153.7458  135.3305  155.3289 H   0  0  0  0  0  0  0  0  0  0  0  0  # atno 10765 bound_to 10752
  140.2780  134.7773  157.3734 H   0  0  0  0  0  0  0  0  0  0  0  0  # atno 11005 bound_to 11000
  146.0811  139.3799  143.0464 LP  0  0  0  0  0  0  0  0  0  0  0  0  # atno 17320 bound_to 7965
  145.7839  140.9844  143.1084 LP  0  0  0  0  0  0  0  0  0  0  0  0  # atno 17321 bound_to 7965
  140.4988  143.2324  151.8710 LP  0  0  0  0  0  0  0  0  0  0  0  0  # atno 17342 bound_to 10162
  139.4799  144.5083  151.8967 LP  0  0  0  0  0  0  0  0  0  0  0  0  # atno 17343 bound_to 10162
  156.0168  130.3810  150.2084 LP  0  0  0  0  0  0  0  0  0  0  0  0  # atno 17370 bound_to 10713
  157.0273  130.9997  151.3322 LP  0  0  0  0  0  0  0  0  0  0  0  0  # atno 17371 bound_to 10713
  140.1310  134.5095  155.8106 LP  0  0  0  0  0  0  0  0  0  0  0  0  # atno 17394 bound_to 11000
  141.2167  133.6790  156.7039 LP  0  0  0  0  0  0  0  0  0  0  0  0  # atno 17395 bound_to 11000

$$$$
