AV-unprocessed.smi:47|AV-procd|sdf|426|dock5
  -GOLD-   2262016303D 1   1.00000     0.00000
 Structure written by MMmdl.
 32 34  0  0  0  0  0  0  0  0  2 V2000
  145.0895  140.2679  154.9609 O   0  0  0  0  0  0  0  0  0  0  0  0
  146.3363  140.9164  155.0948 C   0  0  2  0  0  0  0  0  0  0  0  0
  146.3395  142.3011  154.4502 C   0  0  0  0  0  0  0  0  0  0  0  0
  147.7536  142.5801  154.1414 N   0  3  0  0  0  0  0  0  0  0  0  0
  148.4818  141.2942  154.0542 C   0  0  1  0  0  0  0  0  0  0  0  0
  149.6288  141.2604  155.0176 C   0  0  0  0  0  0  0  0  0  0  0  0
  150.5333  140.2885  154.9667 N   0  0  0  0  0  0  0  0  0  0  0  0
  151.3348  140.6007  156.0058 N   0  0  0  0  0  0  0  0  0  0  0  0
  150.8860  141.6990  156.6267 C   0  0  0  0  0  0  0  0  0  0  0  0
  151.5144  142.3119  157.7990 C   0  0  0  0  0  0  0  0  0  0  0  0
  151.4275  143.7076  158.0113 C   0  0  0  0  0  0  0  0  0  0  0  0
  152.0322  144.2979  159.1380 C   0  0  0  0  0  0  0  0  0  0  0  0
  152.7294  143.4998  160.0640 C   0  0  0  0  0  0  0  0  0  0  0  0
  152.8214  142.1100  159.8624 C   0  0  0  0  0  0  0  0  0  0  0  0
  152.2175  141.5186  158.7358 C   0  0  0  0  0  0  0  0  0  0  0  0
  149.7836  142.1607  156.0348 N   0  0  0  0  0  0  0  0  0  0  0  0
  147.4469  140.1931  154.3373 C   0  0  0  0  0  0  0  0  0  0  0  0
  146.5979  140.9964  156.1511 H   0  0  0  0  0  0  0  0  0  0  0  0
  148.8715  141.1826  153.0413 H   0  0  0  0  0  0  0  0  0  0  0  0
  152.1465  140.0530  156.2548 H   0  0  0  0  0  0  0  0  0  0  0  0
  144.7221  140.4865  154.1176 H   0  0  0  0  0  0  0  0  0  0  0  0
  145.7840  142.2868  153.5110 H   0  0  0  0  0  0  0  0  0  0  0  0
  145.9045  143.0690  155.0901 H   0  0  0  0  0  0  0  0  0  0  0  0
  147.8376  143.1059  153.2837 H   0  0  0  0  0  0  0  0  0  0  0  0
  150.8979  144.3399  157.3142 H   0  0  0  0  0  0  0  0  0  0  0  0
  151.9608  145.3646  159.2917 H   0  0  0  0  0  0  0  0  0  0  0  0
  153.1931  143.9527  160.9281 H   0  0  0  0  0  0  0  0  0  0  0  0
  153.3562  141.4965  160.5726 H   0  0  0  0  0  0  0  0  0  0  0  0
  152.3014  140.4503  158.6010 H   0  0  0  0  0  0  0  0  0  0  0  0
  147.8529  139.3350  154.8747 H   0  0  0  0  0  0  0  0  0  0  0  0
  147.0546  139.8264  153.3870 H   0  0  0  0  0  0  0  0  0  0  0  0
  148.1540  143.1075  154.9047 H   0  0  0  0  0  0  0  0  0  0  0  0
  1  2  1  0  0  0  0
  1 21  1  0  0  0  0
  2 18  1  0  0  0  0
  2 17  1  0  0  0  0
  2  3  1  0  0  0  0
  3  4  1  0  0  0  0
  3 22  1  0  0  0  0
  3 23  1  0  0  0  0
  4  5  1  0  0  0  0
  4 24  1  0  0  0  0
  4 32  1  0  0  0  0
  5 19  1  0  0  0  0
  5  6  1  0  0  0  0
  5 17  1  0  0  0  0
  6 16  1  0  0  0  0
  6  7  2  0  0  0  0
  7  8  1  0  0  0  0
  8 20  1  0  0  0  0
  8  9  1  0  0  0  0
  9 10  1  0  0  0  0
  9 16  2  0  0  0  0
 10 15  1  0  0  0  0
 10 11  2  0  0  0  0
 11 12  1  0  0  0  0
 11 25  1  0  0  0  0
 12 13  2  0  0  0  0
 12 26  1  0  0  0  0
 13 14  1  0  0  0  0
 13 27  1  0  0  0  0
 14 15  2  0  0  0  0
 14 28  1  0  0  0  0
 15 29  1  0  0  0  0
 17 30  1  0  0  0  0
 17 31  1  0  0  0  0
M  CHG  1   4   1
M  END
> <s_m_source_file>
AV-unprocessed.smi

> <i_m_source_file_index>
47

> <i_lp_mmshare_version>
43012

> <i_f3d_flags>
0

> <s_epik_input>
W09IXVtDQEhdMVtDSDJdW05IXVtDQEBIXShbQ0gyXTEpYzJuW25IXWMobjIpLWMzW2NIXVtjSF1bY0hdW2NIXVtjSF0z

> <s_epik_cmdline>
J2VwaWtfcHl0aG9uJywgJy1waCcsICc3LjAnLCAnLXRuJywgJzgnLCAnLW1hJywgJzIwMCcsICctbWV0YWxfYmluZGluZycsICctaW1hZScsICc8aW5maWxlLm1hZT4nLCAnLW9tYWUnLCAnPG91dGZpbGUubWFlPic=

> <r_lp_tautomer_probability>
0.948284

> <r_epik_Ionization_Penalty>
0.163822

> <r_epik_Ionization_Penalty_Charging>
0.0371552

> <r_epik_Ionization_Penalty_Neutral>
0.126667

> <r_epik_State_Penalty>
0.318338

> <r_epik_Charging_Adjusted_Penalty>
0.355493

> <i_epik_Tot_Q>
1

> <i_epik_Tot_abs_Q>
1

> <r_epik_Metal_State_Penalty>
0.81572

> <b_epik_Metal_Only>
0

> <s_lp_Force_Field>
OPLS_2005

> <r_lp_Energy>
24.5404

> <b_lp_Chiralities_Consistent>
1

> <s_lp_Variant>
AV-unprocessed.smi:47-4

> <Gold.Version>
5.8.1

> <Gold.Id.Protein>
6NUR|6NUR_protein|mol2

> <Gold.PLP.Fitness>
46.5593

> <Gold.PLP.PLP>
-35.8880

> <Gold.PLP.part.hbond>
-3.0000

> <Gold.PLP.part.metal>
0.0000

> <Gold.PLP.part.buried>
-5.3108

> <Gold.PLP.part.nonpolar>
-30.7619

> <Gold.PLP.part.repulsive>
2.9781

> <Gold.PLP.ligand.clash>
0.0000

> <Gold.PLP.ligand.torsion>
0.6718

> <Gold.PLP.Chemscore.Hbond>
4.0000

> <Gold.PLP.Chemscore.CHOScore>
0.0000

> <Gold.PLP.Chemscore.Metal>
0.0000

> <Gold.Chemscore.Hbonds>
donor molecule, donor type, donor heavy atom, donor atom, acceptor molecule, acceptor atom, score
      L1  H     1    21       P1 10175  1.00
      L1  H     4    32       P1  8028  2.00
      P1  H  7989  7998       L1     7  1.00

> <Gold.PLP.Chemscore.Internal.Correction>
0.0148

> <Gold.Rescore>
     Score         DG    S(hbond)    S(metal)    S(lipo)     H(rot)  DE(clash)    DE(int)     intcor
     16.79     -18.75       2.11        0.00      85.91       1.50       1.48       0.48       ----

> <Gold.Chemscore.Fitness>
16.7874

> <Gold.Chemscore.DG>
-18.7488

> <Gold.Chemscore.ZeroCoef>
-5.4800

> <Gold.Chemscore.Hbond>
2.1103

> <Gold.Chemscore.Metal>
0.0000

> <Gold.Chemscore.Lipo>
85.9116

> <Gold.Chemscore.Internal_Hbond>
0.0000

> <Gold.Chemscore.DEClash>
1.4846

> <Gold.Chemscore.DEInternal>
0.4769

> <Gold.Chemscore.Rot>
1.4966

> <Gold.Chemscore.Internal.Correction>
   9.000000E+99

> <Gold.Chemscore.Hbonds>
donor molecule, donor type, donor heavy atom, donor atom, acceptor molecule, acceptor atom, score
      L1  H     1    21       P1 10175  0.99
      L1  H     4    32       P1  8028  0.92
      P1  H  7989  7998       L1     7  0.08

> <Gold.Chemscore.Hbond.Weighted>
-7.0484

> <Gold.Chemscore.Metal.Weighted>
-0.0000

> <Gold.Chemscore.Lipo.Weighted>
-10.0517

> <Gold.Chemscore.Internal_Hbond.Weighted>
0.0000

> <Gold.Chemscore.DEClash.Weighted>
1.4846

> <Gold.Chemscore.DEInternal.Weighted>
0.4769

> <Gold.Chemscore.Rot.Weighted>
3.8312

> <Gold.Chemscore.Internal.Correction.Weighted>
   9.000000E+99

> <Gold.Protein.RotatedTorsions>
[ 6907 6896 6895 6894 ] final -172.89 input  -60.11 | X-H torsion
[ 7974 7965 7964 7962 ] final   86.49 input  175.53 | X-H torsion
[ 8008 7997 7996 7995 ] final    2.93 input   59.86 | X-H torsion
[ 10167 10162 10161 10158 ] final   88.83 input  -65.29 | X-H torsion
[ 10718 10713 10712 10709 ] final -118.14 input   66.30 | X-H torsion
[ 10763 10752 10751 10750 ] final   47.26 input  -60.55 | X-H torsion
[ 11005 11000 10999 10996 ] final   94.82 input  -57.11 | X-H torsion

> <Gold.Protein.ActiveResidues>
 VAL166  LYS551  ARG553  GLY616  TRP617  ASP618  TYR619  PRO620  LYS621  CYS622 
 ASP623  PHE694  ASN695  SER759  ASP760  ASP761  ALA762  ILE779  LEU786  VAL792 
 PHE793  MET794  SER795  GLU796  ALA797  LYS798  CYS799  TRP800  GLU811  SER814 

> <Gold.Protein.RotatedAtoms>
  151.5474  133.3423  159.2946 H   0  0  0  0  0  0  0  0  0  0  0  0  # atno 6907 bound_to 6896
  150.8499  134.7823  159.7011 H   0  0  0  0  0  0  0  0  0  0  0  0  # atno 6908 bound_to 6896
  152.4548  134.5324  159.9866 H   0  0  0  0  0  0  0  0  0  0  0  0  # atno 6909 bound_to 6896
  145.5716  139.2314  143.2403 H   0  0  0  0  0  0  0  0  0  0  0  0  # atno 7974 bound_to 7965
  154.6975  140.2666  155.6751 H   0  0  0  0  0  0  0  0  0  0  0  0  # atno 8008 bound_to 7997
  156.2754  140.2779  156.1498 H   0  0  0  0  0  0  0  0  0  0  0  0  # atno 8009 bound_to 7997
  155.0810  140.0372  157.2629 H   0  0  0  0  0  0  0  0  0  0  0  0  # atno 8010 bound_to 7997
  139.8633  144.6532  150.9033 H   0  0  0  0  0  0  0  0  0  0  0  0  # atno 10167 bound_to 10162
  156.1084  130.6229  150.9253 H   0  0  0  0  0  0  0  0  0  0  0  0  # atno 10718 bound_to 10713
  152.9802  135.5982  154.3733 H   0  0  0  0  0  0  0  0  0  0  0  0  # atno 10763 bound_to 10752
  154.3405  135.2768  155.2427 H   0  0  0  0  0  0  0  0  0  0  0  0  # atno 10764 bound_to 10752
  154.4511  135.5989  153.6247 H   0  0  0  0  0  0  0  0  0  0  0  0  # atno 10765 bound_to 10752
  139.8795  134.8866  156.3920 H   0  0  0  0  0  0  0  0  0  0  0  0  # atno 11005 bound_to 11000
  146.1780  140.6542  142.9202 LP  0  0  0  0  0  0  0  0  0  0  0  0  # atno 17320 bound_to 7965
  144.7435  140.5006  143.6852 LP  0  0  0  0  0  0  0  0  0  0  0  0  # atno 17321 bound_to 7965
  140.7772  143.3725  151.1622 LP  0  0  0  0  0  0  0  0  0  0  0  0  # atno 17342 bound_to 10162
  139.7353  143.9009  152.3033 LP  0  0  0  0  0  0  0  0  0  0  0  0  # atno 17343 bound_to 10162
  157.6263  131.0925  150.8527 LP  0  0  0  0  0  0  0  0  0  0  0  0  # atno 17370 bound_to 10713
  156.8642  130.5123  149.5301 LP  0  0  0  0  0  0  0  0  0  0  0  0  # atno 17371 bound_to 10713
  140.9326  133.7569  156.0044 LP  0  0  0  0  0  0  0  0  0  0  0  0  # atno 17394 bound_to 11000
  140.8313  134.3175  157.5348 LP  0  0  0  0  0  0  0  0  0  0  0  0  # atno 17395 bound_to 11000

$$$$
