#       Name:                AV-unprocessed.smi:950
#       Creating user name   scv26
#       Creation time:       Fri Mar 27 02:15:38 2020


#       File generated by GOLD software.
#

@<TRIPOS>MOLECULE
AV-unprocessed.smi:950
    37    38     1
SMALL
NO_CHARGES


@<TRIPOS>ATOM
      1 ****        -3.4489   0.3420   0.0296 C.3            1 S1                 0.0000
      2 ****        -3.0540  -0.0009   1.4700 C.3            1 S1                 0.0000
      3 ****        -2.0880  -1.1351   1.5420 C.2            1 S1                 0.0000
      4 ****        -0.7634  -0.9762   1.4928 N.2            1 S1                 0.0000
      5 ****        -0.0705  -2.1911   1.5258 C.2            1 S1                 0.0000
      6 ****         1.4308  -2.2055   1.4677 C.3            1 S1                 0.0000
      7 ****         1.9992  -2.1527   0.0343 C.3            1 S1                 0.0000
      8 ****         1.4963  -1.0217  -0.7394 N.am           1 S1                 0.0000
      9 ****         1.8903   0.2511  -0.5894 C.2            1 S1                 0.0000
     10 ****         2.7743   0.5952   0.1962 O.2            1 S1                 0.0000
     11 ****         1.1631   1.2830  -1.4606 C.3            1 S1                 0.0000
     12 ****         2.0457   2.4181  -2.0118 C.3            1 S1                 0.0000
     13 ****         0.9441   3.4074  -1.6197 C.3            1 S1                 0.0000
     14 ****         0.3997   2.3488  -0.6564 C.3            1 S1                 0.0000
     15 ****        -0.9004  -3.2822   1.5997 C.2            1 S1                 0.0000
     16 ****        -2.5808  -2.8221   1.6220 S.3            1 S1                 0.0000
     17 ****        -4.1473   1.1785   0.0069 H              1 S1                 0.0000
     18 ****        -3.9286  -0.5068  -0.4587 H              1 S1                 0.0000
     19 ****        -2.5764   0.6194  -0.5625 H              1 S1                 0.0000
     20 ****        -2.6110   0.8712   1.9523 H              1 S1                 0.0000
     21 ****        -3.9414  -0.2602   2.0478 H              1 S1                 0.0000
     22 ****         1.8276  -1.3677   2.0424 H              1 S1                 0.0000
     23 ****         1.8106  -3.0996   1.9631 H              1 S1                 0.0000
     24 ****         3.0897  -2.1323   0.0595 H              1 S1                 0.0000
     25 ****         1.7209  -3.0624  -0.4983 H              1 S1                 0.0000
     26 ****         0.7651  -1.2156  -1.4082 H              1 S1                 0.0000
     27 ****         0.5421   0.8346  -2.2385 H              1 S1                 0.0000
     28 ****         2.9726   2.5830  -1.4598 H              1 S1                 0.0000
     29 ****         2.2290   2.3638  -3.0852 H              1 S1                 0.0000
     30 ****         1.3002   4.3193  -1.1395 H              1 S1                 0.0000
     31 ****         0.2585   3.6219  -2.4408 H              1 S1                 0.0000
     32 ****        -0.6848   2.2416  -0.6825 H              1 S1                 0.0000
     33 ****         0.7618   2.4805   0.3651 H              1 S1                 0.0000
     34 ****        -0.6266  -4.3261   1.6350 H              1 S1                 0.0000
     35 ****        -0.3145  -0.0843   1.4382 LP             1 S1                 0.0000
     36 ****         3.2357  -0.0893   0.7607 LP             1 S1                 0.0000
     37 ****         3.0306   1.5590   0.2695 LP             1 S1                 0.0000
@<TRIPOS>BOND
    1    1    2 1     
    2    1   17 1     
    3    1   18 1     
    4    1   19 1     
    5    2    3 1     
    6    2   20 1     
    7    2   21 1     
    8    3   16 1     
    9    3    4 2     
   10    4    5 1     
   11    5    6 1     
   12    5   15 2     
   13    6    7 1     
   14    6   22 1     
   15    6   23 1     
   16    7    8 1     
   17    7   24 1     
   18    7   25 1     
   19    8    9 am    
   20    8   26 1     
   21    9   10 2     
   22    9   11 1     
   23   11   14 1     
   24   11   12 1     
   25   11   27 1     
   26   12   13 1     
   27   12   28 1     
   28   12   29 1     
   29   13   14 1     
   30   13   30 1     
   31   13   31 1     
   32   14   32 1     
   33   14   33 1     
   34   15   16 1     
   35   15   34 1     
   36    4   35 1     
   37   10   36 1     
   38   10   37 1     
@<TRIPOS>SUBSTRUCTURE
      1 S1             1
@<TRIPOS>SET
LONE_PAIRS      STATIC     ATOMS    <user>   **** ""
3 35 36 37
DONOR_HYDROGENS      STATIC     ATOMS    <user>   **** ""
1 26
ATOM$BLUE        STATIC     ATOMS    COLORGROUP SYSTEM
3 35 36 37
ATOM$RED        STATIC     ATOMS    COLORGROUP SYSTEM
1 26
