#       Name:                AV-unprocessed.smi:1767
#       Creating user name   scv26
#       Creation time:       Fri Mar 27 08:38:12 2020


#       File generated by GOLD software.
#

@<TRIPOS>MOLECULE
AV-unprocessed.smi:1767
    35    37     1
SMALL
NO_CHARGES


@<TRIPOS>ATOM
      1 ****        -1.3785   1.6782   0.6708 O.3            1 S1                 0.0000
      2 ****        -0.8797   0.3544   0.6700 C.3            1 S1                 0.0000
      3 ****         0.6613   0.3810   0.6443 C.3            1 S1                 0.0000
      4 ****         1.1996   1.0992  -0.5181 N.pl3          1 S1                 0.0000
      5 ****         1.6309   2.3849  -0.6293 C.2            1 S1                 0.0000
      6 ****         2.0351   2.5724  -1.9164 N.pl3          1 S1                 1.0000
      7 ****         1.8578   1.3899  -2.6382 C.ar           1 S1                 0.0000
      8 ****         2.1198   1.0860  -3.9708 C.ar           1 S1                 0.0000
      9 ****         1.8185  -0.2263  -4.3917 C.ar           1 S1                 0.0000
     10 ****         1.2789  -1.1780  -3.5019 C.ar           1 S1                 0.0000
     11 ****         1.0178  -0.8593  -2.1527 C.ar           1 S1                 0.0000
     12 ****         1.3195   0.4394  -1.7452 C.ar           1 S1                 0.0000
     13 ****        -1.3972  -0.4581   1.8464 C.ar           1 S1                 0.0000
     14 ****        -1.8704  -1.7719   1.6402 C.ar           1 S1                 0.0000
     15 ****        -2.3429  -2.5351   2.7257 C.ar           1 S1                 0.0000
     16 ****        -2.3428  -1.9899   4.0240 C.ar           1 S1                 0.0000
     17 ****        -2.7967  -2.7244   5.0669 F              1 S1                 0.0000
     18 ****        -1.8686  -0.6812   4.2367 C.ar           1 S1                 0.0000
     19 ****        -1.3963   0.0826   3.1516 C.ar           1 S1                 0.0000
     20 ****        -2.3211   1.6428   0.6093 H              1 S1                 0.0000
     21 ****        -1.2401  -0.1108  -0.2484 H              1 S1                 0.0000
     22 ****         1.0494   0.8697   1.5393 H              1 S1                 0.0000
     23 ****         1.0693  -0.6307   0.6435 H              1 S1                 0.0000
     24 ****         1.6459   3.1230   0.1599 H              1 S1                 0.0000
     25 ****         2.5326   1.8131  -4.6548 H              1 S1                 0.0000
     26 ****         2.0043  -0.5083  -5.4179 H              1 S1                 0.0000
     27 ****         1.0606  -2.1732  -3.8615 H              1 S1                 0.0000
     28 ****         0.6037  -1.5944  -1.4785 H              1 S1                 0.0000
     29 ****        -1.8717  -2.2009   0.6489 H              1 S1                 0.0000
     30 ****        -2.7045  -3.5397   2.5623 H              1 S1                 0.0000
     31 ****        -1.8658  -0.2631   5.2326 H              1 S1                 0.0000
     32 ****        -1.0310   1.0842   3.3259 H              1 S1                 0.0000
     33 ****         2.4032   3.4452  -2.2728 H              1 S1                 0.0000
     34 ****        -1.0078   2.1790  -0.1114 LP             1 S1                 0.0000
     35 ****        -1.1126   2.1385   1.5178 LP             1 S1                 0.0000
@<TRIPOS>BOND
    1    1    2 1     
    2    1   20 1     
    3    2    3 1     
    4    2   13 1     
    5    2   21 1     
    6    3    4 1     
    7    3   22 1     
    8    3   23 1     
    9    4   12 1     
   10    4    5 1     
   11    5    6 2     
   12    5   24 1     
   13    6    7 1     
   14    6   33 1     
   15    7   12 ar    
   16    7    8 ar    
   17    8    9 ar    
   18    8   25 1     
   19    9   10 ar    
   20    9   26 1     
   21   10   11 ar    
   22   10   27 1     
   23   11   12 ar    
   24   11   28 1     
   25   13   19 ar    
   26   13   14 ar    
   27   14   15 ar    
   28   14   29 1     
   29   15   16 ar    
   30   15   30 1     
   31   16   17 1     
   32   16   18 ar    
   33   18   19 ar    
   34   18   31 1     
   35   19   32 1     
   36    1   34 1     
   37    1   35 1     
@<TRIPOS>SUBSTRUCTURE
      1 S1             1
@<TRIPOS>SET
LONE_PAIRS      STATIC     ATOMS    <user>   **** ""
2 34 35
DONOR_HYDROGENS      STATIC     ATOMS    <user>   **** ""
2 20 33
ATOM$BLUE        STATIC     ATOMS    COLORGROUP SYSTEM
2 34 35
ATOM$RED        STATIC     ATOMS    COLORGROUP SYSTEM
2 20 33
