AV-unprocessed.smi:772|AV-procd|sdf|3685|dock9
  -GOLD-   22720 1103D 1   1.00000     0.00000
 Structure written by MMmdl.
 46 47  0  0  0  0  0  0  0  0  1 V2000
  143.6489  132.4150  150.9975 C   0  0  0  0  0  0  0  0  0  0  0  0
  144.2213  133.7622  151.3855 C   0  0  0  0  0  0  0  0  0  0  0  0
  143.5290  134.6147  152.2712 C   0  0  0  0  0  0  0  0  0  0  0  0
  144.1011  135.8623  152.5852 C   0  0  0  0  0  0  0  0  0  0  0  0
  145.3379  136.2087  152.0040 C   0  0  0  0  0  0  0  0  0  0  0  0
  145.9740  137.5602  152.2784 C   0  0  0  0  0  0  0  0  0  0  0  0
  146.4617  137.7256  153.7309 C   0  0  0  0  0  0  0  0  0  0  0  0
  147.8624  138.1371  153.7963 N   0  0  0  0  0  0  0  0  0  0  0  0
  148.3334  139.2311  154.4211 C   0  0  0  0  0  0  0  0  0  0  0  0
  147.6015  139.9917  155.0564 O   0  0  0  0  0  0  0  0  0  0  0  0
  149.6598  139.4573  154.2440 N   0  0  0  0  0  0  0  0  0  0  0  0
  150.6261  138.5111  153.6640 C   0  0  0  0  0  0  0  0  0  0  0  0
  151.3334  137.7603  154.8029 C   0  0  0  0  0  0  0  0  0  0  0  0
  152.2790  138.9084  155.8510 S   0  0  0  0  0  0  0  0  0  0  0  0
  151.0009  140.1740  156.1801 C   0  0  1  0  0  0  0  0  0  0  0  0
  151.5510  141.3684  157.0001 C   0  0  0  0  0  0  0  0  0  0  0  0
  152.1794  140.9658  158.3475 C   0  0  0  0  0  0  0  0  0  0  0  0
  150.4931  142.4682  157.1944 C   0  0  0  0  0  0  0  0  0  0  0  0
  150.3296  140.6095  154.8587 C   0  0  0  0  0  0  0  0  0  0  0  0
  145.9516  135.2801  151.1365 C   0  0  0  0  0  0  0  0  0  0  0  0
  145.4098  134.0827  150.8280 N   0  0  0  0  0  0  0  0  0  0  0  0
  142.7836  132.1617  151.6107 H   0  0  0  0  0  0  0  0  0  0  0  0
  144.3958  131.6310  151.1251 H   0  0  0  0  0  0  0  0  0  0  0  0
  143.3357  132.4264  149.9532 H   0  0  0  0  0  0  0  0  0  0  0  0
  142.5786  134.3260  152.6951 H   0  0  0  0  0  0  0  0  0  0  0  0
  143.5928  136.5454  153.2497 H   0  0  0  0  0  0  0  0  0  0  0  0
  146.8098  137.6996  151.5921 H   0  0  0  0  0  0  0  0  0  0  0  0
  145.2547  138.3457  152.0424 H   0  0  0  0  0  0  0  0  0  0  0  0
  145.8258  138.4376  154.2598 H   0  0  0  0  0  0  0  0  0  0  0  0
  146.3592  136.7786  154.2607 H   0  0  0  0  0  0  0  0  0  0  0  0
  148.5239  137.5690  153.2877 H   0  0  0  0  0  0  0  0  0  0  0  0
  150.1703  137.7985  152.9767 H   0  0  0  0  0  0  0  0  0  0  0  0
  151.3587  139.0503  153.0617 H   0  0  0  0  0  0  0  0  0  0  0  0
  150.6065  137.2308  155.4200 H   0  0  0  0  0  0  0  0  0  0  0  0
  152.0164  137.0126  154.3997 H   0  0  0  0  0  0  0  0  0  0  0  0
  150.2363  139.6886  156.7890 H   0  0  0  0  0  0  0  0  0  0  0  0
  152.3474  141.8180  156.4056 H   0  0  0  0  0  0  0  0  0  0  0  0
  151.4462  140.5201  159.0199 H   0  0  0  0  0  0  0  0  0  0  0  0
  152.5982  141.8359  158.8537 H   0  0  0  0  0  0  0  0  0  0  0  0
  152.9917  140.2516  158.2171 H   0  0  0  0  0  0  0  0  0  0  0  0
  149.6615  142.1247  157.8097 H   0  0  0  0  0  0  0  0  0  0  0  0
  150.0863  142.7973  156.2378 H   0  0  0  0  0  0  0  0  0  0  0  0
  150.9234  143.3425  157.6837 H   0  0  0  0  0  0  0  0  0  0  0  0
  151.0675  141.0138  154.1650 H   0  0  0  0  0  0  0  0  0  0  0  0
  149.6296  141.4267  155.0401 H   0  0  0  0  0  0  0  0  0  0  0  0
  146.8948  135.5098  150.6628 H   0  0  0  0  0  0  0  0  0  0  0  0
  1  2  1  0  0  0  0
  1 22  1  0  0  0  0
  1 23  1  0  0  0  0
  1 24  1  0  0  0  0
  2 21  1  0  0  0  0
  2  3  2  0  0  0  0
  3  4  1  0  0  0  0
  3 25  1  0  0  0  0
  4  5  2  0  0  0  0
  4 26  1  0  0  0  0
  5  6  1  0  0  0  0
  5 20  1  0  0  0  0
  6  7  1  0  0  0  0
  6 27  1  0  0  0  0
  6 28  1  0  0  0  0
  7  8  1  0  0  0  0
  7 29  1  0  0  0  0
  7 30  1  0  0  0  0
  8  9  1  0  0  0  0
  8 31  1  0  0  0  0
  9 10  2  0  0  0  0
  9 11  1  0  0  0  0
 11 19  1  0  0  0  0
 11 12  1  0  0  0  0
 12 13  1  0  0  0  0
 12 32  1  0  0  0  0
 12 33  1  0  0  0  0
 13 14  1  0  0  0  0
 13 34  1  0  0  0  0
 13 35  1  0  0  0  0
 14 15  1  0  0  0  0
 15 16  1  0  0  0  0
 15 19  1  0  0  0  0
 15 36  1  0  0  0  0
 16 17  1  0  0  0  0
 16 18  1  0  0  0  0
 16 37  1  0  0  0  0
 17 38  1  0  0  0  0
 17 39  1  0  0  0  0
 17 40  1  0  0  0  0
 18 41  1  0  0  0  0
 18 42  1  0  0  0  0
 18 43  1  0  0  0  0
 19 44  1  0  0  0  0
 19 45  1  0  0  0  0
 20 21  2  0  0  0  0
 20 46  1  0  0  0  0
M  END
> <s_m_source_file>
AV-unprocessed.smi

> <i_m_source_file_index>
772

> <i_lp_mmshare_version>
43012

> <i_f3d_flags>
0

> <s_epik_input>
W0NIM11jMVtjSF1bY0hdYyhbY0hdbjEpW0NIMl1bQ0gyXVtOSF1DKD1PKU4yW0NIMl1bQ0gyXVNbQ0BIXShbQ0gyXTIpW0NIXShbQ0gzXSlbQ0gzXQ==

> <s_epik_cmdline>
J2VwaWtfcHl0aG9uJywgJy1waCcsICc3LjAnLCAnLXRuJywgJzgnLCAnLW1hJywgJzIwMCcsICctbWV0YWxfYmluZGluZycsICctaW1hZScsICc8aW5maWxlLm1hZT4nLCAnLW9tYWUnLCAnPG91dGZpbGUubWFlPic=

> <r_epik_Ionization_Penalty>
0.0566916

> <r_epik_Ionization_Penalty_Charging>
0

> <r_epik_Ionization_Penalty_Neutral>
0.0566916

> <r_epik_State_Penalty>
0.0488669

> <r_epik_Charging_Adjusted_Penalty>
0.0488669

> <i_epik_Tot_Q>
0

> <i_epik_Tot_abs_Q>
0

> <r_epik_Metal_State_Penalty>
0.0445784

> <b_epik_Metal_Only>
0

> <s_lp_Force_Field>
OPLS_2005

> <r_lp_Energy>
25.3974

> <b_lp_Chiralities_Consistent>
1

> <s_lp_Variant>
AV-unprocessed.smi:772-1

> <Gold.Version>
5.8.1

> <Gold.Id.Protein>
6NUR|6NUR_protein|mol2

> <Gold.PLP.Fitness>
42.2761

> <Gold.PLP.PLP>
-37.2925

> <Gold.PLP.part.hbond>
-1.0000

> <Gold.PLP.part.metal>
0.0000

> <Gold.PLP.part.buried>
-3.6449

> <Gold.PLP.part.nonpolar>
-33.1067

> <Gold.PLP.part.repulsive>
0.2093

> <Gold.PLP.ligand.clash>
0.0000

> <Gold.PLP.ligand.torsion>
0.4841

> <Gold.PLP.Chemscore.Hbond>
1.0000

> <Gold.PLP.Chemscore.CHOScore>
0.9535

> <Gold.PLP.Chemscore.Metal>
0.0000

> <Gold.Chemscore.Hbonds>
donor molecule, donor type, donor heavy atom, donor atom, acceptor molecule, acceptor atom, score
      L1  H     8    31       P1  7948  1.00
      L1  C    20    46       P1  7948  0.93

> <Gold.PLP.Chemscore.Internal.Correction>
0.0914

> <Gold.Rescore>
     Score         DG    S(hbond)    S(metal)    S(lipo)     H(rot)  DE(clash)    DE(int)     intcor
     15.54     -16.33       0.86        0.00      97.18       1.32       0.35       0.44       ----

> <Gold.Chemscore.Fitness>
15.5417

> <Gold.Chemscore.DG>
-16.3288

> <Gold.Chemscore.ZeroCoef>
-5.4800

> <Gold.Chemscore.Hbond>
0.8581

> <Gold.Chemscore.Metal>
0.0000

> <Gold.Chemscore.Lipo>
97.1828

> <Gold.Chemscore.Internal_Hbond>
0.0000

> <Gold.Chemscore.DEClash>
0.3467

> <Gold.Chemscore.DEInternal>
0.4404

> <Gold.Chemscore.Rot>
1.3233

> <Gold.Chemscore.Internal.Correction>
   9.000000E+99

> <Gold.Chemscore.Hbonds>
donor molecule, donor type, donor heavy atom, donor atom, acceptor molecule, acceptor atom, score
      L1  H     8    31       P1  7948  0.93

> <Gold.Chemscore.Hbond.Weighted>
-2.8660

> <Gold.Chemscore.Metal.Weighted>
-0.0000

> <Gold.Chemscore.Lipo.Weighted>
-11.3704

> <Gold.Chemscore.Internal_Hbond.Weighted>
0.0000

> <Gold.Chemscore.DEClash.Weighted>
0.3467

> <Gold.Chemscore.DEInternal.Weighted>
0.4404

> <Gold.Chemscore.Rot.Weighted>
3.3876

> <Gold.Chemscore.Internal.Correction.Weighted>
   9.000000E+99

> <Gold.Protein.RotatedTorsions>
[ 6907 6896 6895 6894 ] final  -73.62 input  -60.11 | X-H torsion
[ 7974 7965 7964 7962 ] final   22.79 input  175.53 | X-H torsion
[ 8008 7997 7996 7995 ] final   10.53 input   59.86 | X-H torsion
[ 10167 10162 10161 10158 ] final   74.31 input  -65.29 | X-H torsion
[ 10718 10713 10712 10709 ] final  176.71 input   66.30 | X-H torsion
[ 10763 10752 10751 10750 ] final  -54.59 input  -60.55 | X-H torsion
[ 11005 11000 10999 10996 ] final  -44.77 input  -57.11 | X-H torsion

> <Gold.Protein.ActiveResidues>
 VAL166  LYS551  ARG553  GLY616  TRP617  ASP618  TYR619  PRO620  LYS621  CYS622 
 ASP623  PHE694  ASN695  SER759  ASP760  ASP761  ALA762  ILE779  LEU786  VAL792 
 PHE793  MET794  SER795  GLU796  ALA797  LYS798  CYS799  TRP800  GLU811  SER814 

> <Gold.Protein.RotatedAtoms>
  150.7123  134.4990  159.5551 H   0  0  0  0  0  0  0  0  0  0  0  0  # atno 6907 bound_to 6896
  152.2591  134.8050  160.0442 H   0  0  0  0  0  0  0  0  0  0  0  0  # atno 6908 bound_to 6896
  151.8770  133.3452  159.3790 H   0  0  0  0  0  0  0  0  0  0  0  0  # atno 6909 bound_to 6896
  146.2013  139.7835  142.8759 H   0  0  0  0  0  0  0  0  0  0  0  0  # atno 7974 bound_to 7965
  154.7946  140.2841  155.5966 H   0  0  0  0  0  0  0  0  0  0  0  0  # atno 8008 bound_to 7997
  156.2969  140.2598  156.2730 H   0  0  0  0  0  0  0  0  0  0  0  0  # atno 8009 bound_to 7997
  154.9630  140.0377  157.2188 H   0  0  0  0  0  0  0  0  0  0  0  0  # atno 8010 bound_to 7997
  140.0151  144.5584  150.7627 H   0  0  0  0  0  0  0  0  0  0  0  0  # atno 10167 bound_to 10162
  156.9161  130.9925  151.3012 H   0  0  0  0  0  0  0  0  0  0  0  0  # atno 10718 bound_to 10713
  154.1773  135.6449  153.5025 H   0  0  0  0  0  0  0  0  0  0  0  0  # atno 10763 bound_to 10752
  153.0068  135.5397  154.6551 H   0  0  0  0  0  0  0  0  0  0  0  0  # atno 10764 bound_to 10752
  154.5906  135.2934  155.0612 H   0  0  0  0  0  0  0  0  0  0  0  0  # atno 10765 bound_to 10752
  141.0472  133.6756  156.2919 H   0  0  0  0  0  0  0  0  0  0  0  0  # atno 11005 bound_to 11000
  145.3474  141.0300  143.3358 LP  0  0  0  0  0  0  0  0  0  0  0  0  # atno 17320 bound_to 7965
  144.8690  139.5065  143.6776 LP  0  0  0  0  0  0  0  0  0  0  0  0  # atno 17321 bound_to 7965
  140.7366  143.2755  151.3757 LP  0  0  0  0  0  0  0  0  0  0  0  0  # atno 17342 bound_to 10162
  139.6178  144.0967  152.2362 LP  0  0  0  0  0  0  0  0  0  0  0  0  # atno 17343 bound_to 10162
  157.5937  130.8462  149.8697 LP  0  0  0  0  0  0  0  0  0  0  0  0  # atno 17370 bound_to 10713
  156.0513  130.3717  150.1195 LP  0  0  0  0  0  0  0  0  0  0  0  0  # atno 17371 bound_to 10713
  140.6124  134.5445  157.5535 LP  0  0  0  0  0  0  0  0  0  0  0  0  # atno 17394 bound_to 11000
  139.9321  134.7944  156.0902 LP  0  0  0  0  0  0  0  0  0  0  0  0  # atno 17395 bound_to 11000

$$$$
