AV-unprocessed.smi:170|AV-procd|sdf|1413|dock4
  -GOLD-   2262019173D 1   1.00000     0.00000
 Structure written by MMmdl.
 57 61  0  0  0  0  0  0  0  0  1 V2000
  156.4053  136.2614  155.0733 O   0  0  0  0  0  0  0  0  0  0  0  0
  157.7321  136.7465  155.1620 C   0  0  1  0  0  0  0  0  0  0  0  0
  158.4597  136.0228  156.3129 C   0  0  0  0  0  0  0  0  0  0  0  0
  157.8878  136.3339  157.6111 N   0  0  0  0  0  0  0  0  0  0  0  0
  158.4252  137.1547  158.5774 C   0  0  0  0  0  0  0  0  0  0  0  0
  157.7173  137.2671  159.6686 N   0  0  0  0  0  0  0  0  0  0  0  0
  156.6089  136.4638  159.4334 C   0  0  0  0  0  0  0  0  0  0  0  0
  155.4591  136.1229  160.1931 C   0  0  0  0  0  0  0  0  0  0  0  0
  155.2506  136.6223  161.4345 N   0  0  0  0  0  0  0  0  0  0  0  0
  156.1890  136.0209  162.3761 C   0  0  0  0  0  0  0  0  0  0  0  0
  155.8550  136.4452  163.8115 C   0  0  0  0  0  0  0  0  0  0  0  0
  155.8695  137.8637  163.8835 O   0  0  0  0  0  0  0  0  0  0  0  0
  154.8769  138.4451  163.0465 C   0  0  0  0  0  0  0  0  0  0  0  0
  155.1260  138.0815  161.5627 C   0  0  2  0  0  0  0  0  0  0  0  0
  154.0056  138.6533  160.6535 C   0  0  0  0  0  0  0  0  0  0  0  0
  154.1160  140.1539  160.3907 C   0  0  0  0  0  0  0  0  0  0  0  0
  153.9572  141.1424  161.5560 C   0  0  0  0  0  0  0  0  0  0  0  0
  153.2797  142.1103  160.5821 C   0  0  0  0  0  0  0  0  0  0  0  0
  152.9610  140.8977  159.7032 C   0  0  0  0  0  0  0  0  0  0  0  0
  154.5457  135.2916  159.6237 N   0  0  0  0  0  0  0  0  0  0  0  0
  154.7556  134.8096  158.3950 C   0  0  0  0  0  0  0  0  0  0  0  0
  155.7859  135.0312  157.5753 N   0  0  0  0  0  0  0  0  0  0  0  0
  156.6966  135.8738  158.1421 C   0  0  0  0  0  0  0  0  0  0  0  0
  158.4305  136.5392  153.8051 C   0  0  1  0  0  0  0  0  0  0  0  0
  158.5250  135.0778  153.3612 C   0  0  0  0  0  0  0  0  0  0  0  0
  158.6456  135.2192  151.8616 C   0  0  0  0  0  0  0  0  0  0  0  0
  157.6942  136.3783  151.5842 C   0  0  0  0  0  0  0  0  0  0  0  0
  157.6992  137.1815  152.7620 O   0  0  0  0  0  0  0  0  0  0  0  0
  156.4167  135.4393  154.6078 H   0  0  0  0  0  0  0  0  0  0  0  0
  157.6850  137.8140  155.3811 H   0  0  0  0  0  0  0  0  0  0  0  0
  158.4281  134.9422  156.1661 H   0  0  0  0  0  0  0  0  0  0  0  0
  159.5133  136.3036  156.3329 H   0  0  0  0  0  0  0  0  0  0  0  0
  159.3681  137.6662  158.4494 H   0  0  0  0  0  0  0  0  0  0  0  0
  156.1558  134.9330  162.2997 H   0  0  0  0  0  0  0  0  0  0  0  0
  157.2050  136.3303  162.1256 H   0  0  0  0  0  0  0  0  0  0  0  0
  154.8827  136.0575  164.1201 H   0  0  0  0  0  0  0  0  0  0  0  0
  156.5953  136.0454  164.5043 H   0  0  0  0  0  0  0  0  0  0  0  0
  153.8862  138.1185  163.3672 H   0  0  0  0  0  0  0  0  0  0  0  0
  154.9175  139.5241  163.1915 H   0  0  0  0  0  0  0  0  0  0  0  0
  156.0783  138.5247  161.2675 H   0  0  0  0  0  0  0  0  0  0  0  0
  154.0038  138.1398  159.6926 H   0  0  0  0  0  0  0  0  0  0  0  0
  153.0353  138.4318  161.0994 H   0  0  0  0  0  0  0  0  0  0  0  0
  155.0453  140.3930  159.8704 H   0  0  0  0  0  0  0  0  0  0  0  0
  153.2779  140.7831  162.3309 H   0  0  0  0  0  0  0  0  0  0  0  0
  154.8951  141.5020  161.9803 H   0  0  0  0  0  0  0  0  0  0  0  0
  152.4072  142.6268  160.9829 H   0  0  0  0  0  0  0  0  0  0  0  0
  153.9825  142.8005  160.1128 H   0  0  0  0  0  0  0  0  0  0  0  0
  153.0951  141.0586  158.6333 H   0  0  0  0  0  0  0  0  0  0  0  0
  151.9854  140.4618  159.9251 H   0  0  0  0  0  0  0  0  0  0  0  0
  153.9883  134.1516  158.0145 H   0  0  0  0  0  0  0  0  0  0  0  0
  159.4313  136.9742  153.8228 H   0  0  0  0  0  0  0  0  0  0  0  0
  159.3678  134.5503  153.8088 H   0  0  0  0  0  0  0  0  0  0  0  0
  157.6107  134.5376  153.6119 H   0  0  0  0  0  0  0  0  0  0  0  0
  159.6662  135.4953  151.5930 H   0  0  0  0  0  0  0  0  0  0  0  0
  158.3813  134.3106  151.3199 H   0  0  0  0  0  0  0  0  0  0  0  0
  157.9883  136.9548  150.7065 H   0  0  0  0  0  0  0  0  0  0  0  0
  156.6803  136.0092  151.4232 H   0  0  0  0  0  0  0  0  0  0  0  0
  1  2  1  0  0  0  0
  1 29  1  0  0  0  0
  2  3  1  0  0  0  0
  2 24  1  0  0  0  0
  2 30  1  0  0  0  0
  3  4  1  0  0  0  0
  3 31  1  0  0  0  0
  3 32  1  0  0  0  0
  4 23  1  0  0  0  0
  4  5  1  0  0  0  0
  5  6  2  0  0  0  0
  5 33  1  0  0  0  0
  6  7  1  0  0  0  0
  7 23  2  0  0  0  0
  7  8  1  0  0  0  0
  8  9  1  0  0  0  0
  8 20  2  0  0  0  0
  9 14  1  0  0  0  0
  9 10  1  0  0  0  0
 10 11  1  0  0  0  0
 10 34  1  0  0  0  0
 10 35  1  0  0  0  0
 11 12  1  0  0  0  0
 11 36  1  0  0  0  0
 11 37  1  0  0  0  0
 12 13  1  0  0  0  0
 13 14  1  0  0  0  0
 13 38  1  0  0  0  0
 13 39  1  0  0  0  0
 14 15  1  0  0  0  0
 14 40  1  0  0  0  0
 15 16  1  0  0  0  0
 15 41  1  0  0  0  0
 15 42  1  0  0  0  0
 16 19  1  0  0  0  0
 16 17  1  0  0  0  0
 16 43  1  0  0  0  0
 17 18  1  0  0  0  0
 17 44  1  0  0  0  0
 17 45  1  0  0  0  0
 18 19  1  0  0  0  0
 18 46  1  0  0  0  0
 18 47  1  0  0  0  0
 19 48  1  0  0  0  0
 19 49  1  0  0  0  0
 20 21  1  0  0  0  0
 21 22  2  0  0  0  0
 21 50  1  0  0  0  0
 22 23  1  0  0  0  0
 24 28  1  0  0  0  0
 24 25  1  0  0  0  0
 24 51  1  0  0  0  0
 25 26  1  0  0  0  0
 25 52  1  0  0  0  0
 25 53  1  0  0  0  0
 26 27  1  0  0  0  0
 26 54  1  0  0  0  0
 26 55  1  0  0  0  0
 27 28  1  0  0  0  0
 27 56  1  0  0  0  0
 27 57  1  0  0  0  0
M  END
> <s_m_source_file>
AV-unprocessed.smi

> <i_m_source_file_index>
170

> <i_lp_mmshare_version>
43012

> <i_f3d_flags>
0

> <s_epik_input>
TzFbQ0gyXVtDSDJdW0NIMl1bQ0BIXTFbQ0BIXShbT0hdKVtDSDJdbihbY0hdbjIpYyhjMjMpbltjSF1uYzNONFtDSDJdW0NIMl1PW0NIMl1bQ0BIXTRbQ0gyXVtDSF01W0NIMl1bQ0gyXVtDSDJdNQ==

> <s_epik_cmdline>
J2VwaWtfcHl0aG9uJywgJy1waCcsICc3LjAnLCAnLXRuJywgJzgnLCAnLW1hJywgJzIwMCcsICctbWV0YWxfYmluZGluZycsICctaW1hZScsICc8aW5maWxlLm1hZT4nLCAnLW9tYWUnLCAnPG91dGZpbGUubWFlPic=

> <r_lp_tautomer_probability>
1

> <r_epik_Ionization_Penalty>
4.98275e-05

> <r_epik_Ionization_Penalty_Charging>
0

> <r_epik_Ionization_Penalty_Neutral>
4.98275e-05

> <r_epik_State_Penalty>
-0

> <r_epik_Charging_Adjusted_Penalty>
0

> <i_epik_Tot_Q>
0

> <i_epik_Tot_abs_Q>
0

> <r_epik_Metal_State_Penalty>
-0

> <b_epik_Metal_Only>
0

> <s_lp_Force_Field>
OPLS_2005

> <r_lp_Energy>
50.2735

> <b_lp_Chiralities_Consistent>
1

> <s_lp_Variant>
AV-unprocessed.smi:170-8

> <Gold.Version>
5.8.1

> <Gold.Id.Protein>
6NUR|6NUR_protein|mol2

> <Gold.PLP.Fitness>
43.6686

> <Gold.PLP.PLP>
-38.6356

> <Gold.PLP.part.hbond>
-3.0000

> <Gold.PLP.part.metal>
0.0000

> <Gold.PLP.part.buried>
-3.0690

> <Gold.PLP.part.nonpolar>
-32.5444

> <Gold.PLP.part.repulsive>
0.9577

> <Gold.PLP.ligand.clash>
0.0000

> <Gold.PLP.ligand.torsion>
0.4848

> <Gold.PLP.Chemscore.Hbond>
1.9120

> <Gold.PLP.Chemscore.CHOScore>
0.0000

> <Gold.PLP.Chemscore.Metal>
0.0000

> <Gold.Chemscore.Hbonds>
donor molecule, donor type, donor heavy atom, donor atom, acceptor molecule, acceptor atom, score
      P1  H  6896  6908       L1    20  0.60

> <Gold.PLP.Chemscore.Internal.Correction>
0.2665

> <Gold.Rescore>
     Score         DG    S(hbond)    S(metal)    S(lipo)     H(rot)  DE(clash)    DE(int)     intcor
     13.57     -16.89       1.43        0.00     113.90       2.61       0.52       2.80       ----

> <Gold.Chemscore.Fitness>
13.5701

> <Gold.Chemscore.DG>
-16.8892

> <Gold.Chemscore.ZeroCoef>
-5.4800

> <Gold.Chemscore.Hbond>
1.4298

> <Gold.Chemscore.Metal>
0.0000

> <Gold.Chemscore.Lipo>
113.9040

> <Gold.Chemscore.Internal_Hbond>
0.0000

> <Gold.Chemscore.DEClash>
0.5161

> <Gold.Chemscore.DEInternal>
2.8029

> <Gold.Chemscore.Rot>
2.6144

> <Gold.Chemscore.Internal.Correction>
   9.000000E+99

> <Gold.Chemscore.Hbonds>
donor molecule, donor type, donor heavy atom, donor atom, acceptor molecule, acceptor atom, score
      P1  H  6896  6908       L1    20  0.13

> <Gold.Chemscore.Hbond.Weighted>
-4.7754

> <Gold.Chemscore.Metal.Weighted>
-0.0000

> <Gold.Chemscore.Lipo.Weighted>
-13.3268

> <Gold.Chemscore.Internal_Hbond.Weighted>
0.0000

> <Gold.Chemscore.DEClash.Weighted>
0.5161

> <Gold.Chemscore.DEInternal.Weighted>
2.8029

> <Gold.Chemscore.Rot.Weighted>
6.6929

> <Gold.Chemscore.Internal.Correction.Weighted>
   9.000000E+99

> <Gold.Protein.RotatedTorsions>
[ 6907 6896 6895 6894 ] final  -48.89 input  -60.11 | X-H torsion
[ 7974 7965 7964 7962 ] final  -17.07 input  175.53 | X-H torsion
[ 8008 7997 7996 7995 ] final   25.48 input   59.86 | X-H torsion
[ 10167 10162 10161 10158 ] final  170.14 input  -65.29 | X-H torsion
[ 10718 10713 10712 10709 ] final   32.61 input   66.30 | X-H torsion
[ 10763 10752 10751 10750 ] final  -59.90 input  -60.55 | X-H torsion
[ 11005 11000 10999 10996 ] final  -14.15 input  -57.11 | X-H torsion

> <Gold.Protein.ActiveResidues>
 VAL166  LYS551  ARG553  GLY616  TRP617  ASP618  TYR619  PRO620  LYS621  CYS622 
 ASP623  PHE694  ASN695  SER759  ASP760  ASP761  ALA762  ILE779  LEU786  VAL792 
 PHE793  MET794  SER795  GLU796  ALA797  LYS798  CYS799  TRP800  GLU811  SER814 

> <Gold.Protein.RotatedAtoms>
  150.8860  134.8258  159.7259 H   0  0  0  0  0  0  0  0  0  0  0  0  # atno 6907 bound_to 6896
  152.4808  134.4722  159.9649 H   0  0  0  0  0  0  0  0  0  0  0  0  # atno 6908 bound_to 6896
  151.4790  133.3512  159.2870 H   0  0  0  0  0  0  0  0  0  0  0  0  # atno 6909 bound_to 6896
  146.1958  140.3726  142.8441 H   0  0  0  0  0  0  0  0  0  0  0  0  # atno 7974 bound_to 7965
  155.0124  140.3138  155.4825 H   0  0  0  0  0  0  0  0  0  0  0  0  # atno 8008 bound_to 7997
  156.2907  140.2212  156.5180 H   0  0  0  0  0  0  0  0  0  0  0  0  # atno 8009 bound_to 7997
  154.7523  140.0465  157.0892 H   0  0  0  0  0  0  0  0  0  0  0  0  # atno 8010 bound_to 7997
  139.5010  144.3630  151.9805 H   0  0  0  0  0  0  0  0  0  0  0  0  # atno 10167 bound_to 10162
  157.2874  130.7285  149.6591 H   0  0  0  0  0  0  0  0  0  0  0  0  # atno 10718 bound_to 10713
  154.2608  135.6308  153.5274 H   0  0  0  0  0  0  0  0  0  0  0  0  # atno 10763 bound_to 10752
  152.9896  135.5587  154.5706 H   0  0  0  0  0  0  0  0  0  0  0  0  # atno 10764 bound_to 10752
  154.5254  135.2885  155.1201 H   0  0  0  0  0  0  0  0  0  0  0  0  # atno 10765 bound_to 10752
  140.7835  133.8344  155.9313 H   0  0  0  0  0  0  0  0  0  0  0  0  # atno 11005 bound_to 11000
  144.8578  140.7096  143.6127 LP  0  0  0  0  0  0  0  0  0  0  0  0  # atno 17320 bound_to 7965
  145.3647  139.1673  143.4364 LP  0  0  0  0  0  0  0  0  0  0  0  0  # atno 17321 bound_to 7965
  140.3066  144.3586  150.6045 LP  0  0  0  0  0  0  0  0  0  0  0  0  # atno 17342 bound_to 10162
  140.5832  143.2171  151.7390 LP  0  0  0  0  0  0  0  0  0  0  0  0  # atno 17343 bound_to 10162
  155.9666  130.4319  150.4942 LP  0  0  0  0  0  0  0  0  0  0  0  0  # atno 17370 bound_to 10713
  157.2897  131.0624  151.2142 LP  0  0  0  0  0  0  0  0  0  0  0  0  # atno 17371 bound_to 10713
  140.9460  134.1840  157.4763 LP  0  0  0  0  0  0  0  0  0  0  0  0  # atno 17394 bound_to 11000
  139.8739  134.9890  156.5439 LP  0  0  0  0  0  0  0  0  0  0  0  0  # atno 17395 bound_to 11000

$$$$
