AV-unprocessed.smi:1466|AV-procd|sdf|5954|dock8
  -GOLD-   22720 6 43D 1   1.00000     0.00000
 Structure written by MMmdl.
 48 49  0  0  0  0  0  0  0  0  1 V2000
  151.9902  145.3695  159.4420 C   0  0  0  0  0  0  0  0  0  0  0  0
  152.0270  144.0263  158.8769 N   0  0  0  0  0  0  0  0  0  0  0  0
  151.5491  143.7953  157.5175 C   0  0  0  0  0  0  0  0  0  0  0  0
  152.5563  142.9522  159.6286 C   0  0  0  0  0  0  0  0  0  0  0  0
  153.0453  143.1399  160.9452 C   0  0  0  0  0  0  0  0  0  0  0  0
  153.5629  142.0387  161.6544 C   0  0  0  0  0  0  0  0  0  0  0  0
  153.5878  140.7705  161.0300 C   0  0  0  0  0  0  0  0  0  0  0  0
  154.0631  139.5792  161.6422 N   0  0  0  0  0  0  0  0  0  0  0  0
  153.7583  138.3032  161.3500 C   0  0  0  0  0  0  0  0  0  0  0  0
  152.9599  137.9396  160.4869 O   0  0  0  0  0  0  0  0  0  0  0  0
  154.4276  137.4540  162.1426 N   0  0  0  0  0  0  0  0  0  0  0  0
  154.3161  136.0011  162.0956 C   0  0  0  0  0  0  0  0  0  0  0  0
  155.4115  135.3232  162.9395 C   0  0  0  0  0  0  0  0  0  0  0  0
  155.0538  133.9395  163.2723 N   0  0  0  0  0  0  0  0  0  0  0  0
  155.2579  133.5377  164.6731 C   0  0  0  0  0  0  0  0  0  0  0  0
  153.9431  133.3283  165.4591 C   0  0  0  0  0  0  0  0  0  0  0  0
  152.7292  132.8473  164.6395 C   0  0  0  0  0  0  0  0  0  0  0  0
  152.9811  131.5983  163.7690 C   0  0  0  0  0  0  0  0  0  0  0  0
  154.1749  131.6674  162.7863 C   0  0  0  0  0  0  0  0  0  0  0  0
  154.5527  133.0901  162.3419 C   0  0  0  0  0  0  0  0  0  0  0  0
  154.3874  133.4070  161.1638 O   0  0  0  0  0  0  0  0  0  0  0  0
  153.0684  140.6785  159.7243 C   0  0  0  0  0  0  0  0  0  0  0  0
  152.5727  141.7307  159.0413 N   0  0  0  0  0  0  0  0  0  0  0  0
  152.9955  145.7060  159.6969 H   0  0  0  0  0  0  0  0  0  0  0  0
  151.3752  145.3906  160.3423 H   0  0  0  0  0  0  0  0  0  0  0  0
  151.5694  146.0859  158.7363 H   0  0  0  0  0  0  0  0  0  0  0  0
  152.3545  143.4177  156.8868 H   0  0  0  0  0  0  0  0  0  0  0  0
  151.1742  144.7135  157.0656 H   0  0  0  0  0  0  0  0  0  0  0  0
  150.7369  143.0677  157.5161 H   0  0  0  0  0  0  0  0  0  0  0  0
  153.0301  144.1046  161.4289 H   0  0  0  0  0  0  0  0  0  0  0  0
  153.9136  142.1898  162.6630 H   0  0  0  0  0  0  0  0  0  0  0  0
  154.6768  139.7170  162.4319 H   0  0  0  0  0  0  0  0  0  0  0  0
  155.0605  137.8401  162.8278 H   0  0  0  0  0  0  0  0  0  0  0  0
  153.3224  135.6915  162.4238 H   0  0  0  0  0  0  0  0  0  0  0  0
  154.4078  135.6928  161.0538 H   0  0  0  0  0  0  0  0  0  0  0  0
  156.3614  135.3472  162.4036 H   0  0  0  0  0  0  0  0  0  0  0  0
  155.5877  135.8906  163.8553 H   0  0  0  0  0  0  0  0  0  0  0  0
  155.8510  132.6235  164.6989 H   0  0  0  0  0  0  0  0  0  0  0  0
  155.8779  134.2640  165.2001 H   0  0  0  0  0  0  0  0  0  0  0  0
  154.1303  132.6332  166.2782 H   0  0  0  0  0  0  0  0  0  0  0  0
  153.6691  134.2717  165.9325 H   0  0  0  0  0  0  0  0  0  0  0  0
  151.9053  132.6390  165.3227 H   0  0  0  0  0  0  0  0  0  0  0  0
  152.3726  133.6633  164.0091 H   0  0  0  0  0  0  0  0  0  0  0  0
  153.1197  130.7353  164.4210 H   0  0  0  0  0  0  0  0  0  0  0  0
  152.0730  131.3915  163.2016 H   0  0  0  0  0  0  0  0  0  0  0  0
  155.0505  131.1917  163.2275 H   0  0  0  0  0  0  0  0  0  0  0  0
  153.9475  131.0660  161.9051 H   0  0  0  0  0  0  0  0  0  0  0  0
  153.0515  139.7306  159.2065 H   0  0  0  0  0  0  0  0  0  0  0  0
  1  2  1  0  0  0  0
  1 24  1  0  0  0  0
  1 25  1  0  0  0  0
  1 26  1  0  0  0  0
  2  3  1  0  0  0  0
  2  4  1  0  0  0  0
  3 27  1  0  0  0  0
  3 28  1  0  0  0  0
  3 29  1  0  0  0  0
  4 23  1  0  0  0  0
  4  5  2  0  0  0  0
  5  6  1  0  0  0  0
  5 30  1  0  0  0  0
  6  7  2  0  0  0  0
  6 31  1  0  0  0  0
  7  8  1  0  0  0  0
  7 22  1  0  0  0  0
  8  9  1  0  0  0  0
  8 32  1  0  0  0  0
  9 10  2  0  0  0  0
  9 11  1  0  0  0  0
 11 12  1  0  0  0  0
 11 33  1  0  0  0  0
 12 13  1  0  0  0  0
 12 34  1  0  0  0  0
 12 35  1  0  0  0  0
 13 14  1  0  0  0  0
 13 36  1  0  0  0  0
 13 37  1  0  0  0  0
 14 20  1  0  0  0  0
 14 15  1  0  0  0  0
 15 16  1  0  0  0  0
 15 38  1  0  0  0  0
 15 39  1  0  0  0  0
 16 17  1  0  0  0  0
 16 40  1  0  0  0  0
 16 41  1  0  0  0  0
 17 18  1  0  0  0  0
 17 42  1  0  0  0  0
 17 43  1  0  0  0  0
 18 19  1  0  0  0  0
 18 44  1  0  0  0  0
 18 45  1  0  0  0  0
 19 20  1  0  0  0  0
 19 46  1  0  0  0  0
 19 47  1  0  0  0  0
 20 21  2  0  0  0  0
 22 23  2  0  0  0  0
 22 48  1  0  0  0  0
M  END
> <s_m_source_file>
AV-unprocessed.smi

> <i_m_source_file_index>
1466

> <i_lp_mmshare_version>
43012

> <i_f3d_flags>
0

> <s_epik_input>
W0NIM11OKFtDSDNdKWMxW2NIXVtjSF1jKFtjSF1uMSlbTkhdQyg9TylbTkhdW0NIMl1bQ0gyXU4yW0NIMl1bQ0gyXVtDSDJdW0NIMl1bQ0gyXUMyPU8=

> <s_epik_cmdline>
J2VwaWtfcHl0aG9uJywgJy1waCcsICc3LjAnLCAnLXRuJywgJzgnLCAnLW1hJywgJzIwMCcsICctbWV0YWxfYmluZGluZycsICctaW1hZScsICc8aW5maWxlLm1hZT4nLCAnLW9tYWUnLCAnPG91dGZpbGUubWFlPic=

> <r_lp_tautomer_probability>
1

> <r_epik_Ionization_Penalty>
0.597116

> <r_epik_Ionization_Penalty_Charging>
0

> <r_epik_Ionization_Penalty_Neutral>
0.597116

> <r_epik_State_Penalty>
0.610079

> <r_epik_Charging_Adjusted_Penalty>
0.610079

> <i_epik_Tot_Q>
0

> <i_epik_Tot_abs_Q>
0

> <r_epik_Metal_State_Penalty>
0.299962

> <b_epik_Metal_Only>
0

> <s_lp_Force_Field>
OPLS_2005

> <r_lp_Energy>
26.5805

> <b_lp_Chiralities_Consistent>
1

> <s_lp_Variant>
AV-unprocessed.smi:1466-2

> <Gold.Version>
5.8.1

> <Gold.Id.Protein>
6NUR|6NUR_protein|mol2

> <Gold.PLP.Fitness>
42.6765

> <Gold.PLP.PLP>
-43.5132

> <Gold.PLP.part.hbond>
0.0000

> <Gold.PLP.part.metal>
0.0000

> <Gold.PLP.part.buried>
-6.0564

> <Gold.PLP.part.nonpolar>
-37.3274

> <Gold.PLP.part.repulsive>
0.0112

> <Gold.PLP.ligand.clash>
0.0000

> <Gold.PLP.ligand.torsion>
0.4290

> <Gold.PLP.Chemscore.Hbond>
0.0000

> <Gold.PLP.Chemscore.CHOScore>
0.0000

> <Gold.PLP.Chemscore.Metal>
0.0000

> <Gold.PLP.Chemscore.Internal.Correction>
0.0214

> <Gold.Rescore>
     Score         DG    S(hbond)    S(metal)    S(lipo)     H(rot)  DE(clash)    DE(int)     intcor
     11.10     -14.01       0.00        0.00     105.29       1.48       0.02       2.89       ----

> <Gold.Chemscore.Fitness>
11.0957

> <Gold.Chemscore.DG>
-14.0077

> <Gold.Chemscore.ZeroCoef>
-5.4800

> <Gold.Chemscore.Hbond>
0.0000

> <Gold.Chemscore.Metal>
0.0000

> <Gold.Chemscore.Lipo>
105.2904

> <Gold.Chemscore.Internal_Hbond>
0.0000

> <Gold.Chemscore.DEClash>
0.0174

> <Gold.Chemscore.DEInternal>
2.8946

> <Gold.Chemscore.Rot>
1.4810

> <Gold.Chemscore.Internal.Correction>
   9.000000E+99

> <Gold.Chemscore.Hbond.Weighted>
-0.0000

> <Gold.Chemscore.Metal.Weighted>
-0.0000

> <Gold.Chemscore.Lipo.Weighted>
-12.3190

> <Gold.Chemscore.Internal_Hbond.Weighted>
0.0000

> <Gold.Chemscore.DEClash.Weighted>
0.0174

> <Gold.Chemscore.DEInternal.Weighted>
2.8946

> <Gold.Chemscore.Rot.Weighted>
3.7912

> <Gold.Chemscore.Internal.Correction.Weighted>
   9.000000E+99

> <Gold.Protein.RotatedTorsions>
[ 6907 6896 6895 6894 ] final  -95.01 input  -60.11 | X-H torsion
[ 7974 7965 7964 7962 ] final -126.99 input  175.53 | X-H torsion
[ 8008 7997 7996 7995 ] final  170.22 input   59.86 | X-H torsion
[ 10167 10162 10161 10158 ] final  -53.70 input  -65.29 | X-H torsion
[ 10718 10713 10712 10709 ] final  102.15 input   66.30 | X-H torsion
[ 10763 10752 10751 10750 ] final -153.97 input  -60.55 | X-H torsion
[ 11005 11000 10999 10996 ] final   62.71 input  -57.11 | X-H torsion

> <Gold.Protein.ActiveResidues>
 VAL166  LYS551  ARG553  GLY616  TRP617  ASP618  TYR619  PRO620  LYS621  CYS622 
 ASP623  PHE694  ASN695  SER759  ASP760  ASP761  ALA762  ILE779  LEU786  VAL792 
 PHE793  MET794  SER795  GLU796  ALA797  LYS798  CYS799  TRP800  GLU811  SER814 

> <Gold.Protein.RotatedAtoms>
  150.6954  134.1723  159.4216 H   0  0  0  0  0  0  0  0  0  0  0  0  # atno 6907 bound_to 6896
  151.9700  135.0079  160.0561 H   0  0  0  0  0  0  0  0  0  0  0  0  # atno 6908 bound_to 6896
  152.1850  133.4698  159.5014 H   0  0  0  0  0  0  0  0  0  0  0  0  # atno 6909 bound_to 6896
  144.9816  140.7646  143.4609 H   0  0  0  0  0  0  0  0  0  0  0  0  # atno 7974 bound_to 7965
  156.1386  140.1544  156.8956 H   0  0  0  0  0  0  0  0  0  0  0  0  # atno 8008 bound_to 7997
  154.4968  140.0836  156.7752 H   0  0  0  0  0  0  0  0  0  0  0  0  # atno 8009 bound_to 7997
  155.4122  140.3419  155.4267 H   0  0  0  0  0  0  0  0  0  0  0  0  # atno 8010 bound_to 7997
  140.6470  143.2542  151.4831 H   0  0  0  0  0  0  0  0  0  0  0  0  # atno 10167 bound_to 10162
  157.6810  131.0745  150.5360 H   0  0  0  0  0  0  0  0  0  0  0  0  # atno 10718 bound_to 10713
  154.7891  135.3200  154.7818 H   0  0  0  0  0  0  0  0  0  0  0  0  # atno 10763 bound_to 10752
  153.8511  135.6862  153.4796 H   0  0  0  0  0  0  0  0  0  0  0  0  # atno 10764 bound_to 10752
  153.1554  135.4682  154.9637 H   0  0  0  0  0  0  0  0  0  0  0  0  # atno 10765 bound_to 10752
  140.0073  134.6350  155.9835 H   0  0  0  0  0  0  0  0  0  0  0  0  # atno 11005 bound_to 11000
  145.2413  139.2071  143.4991 LP  0  0  0  0  0  0  0  0  0  0  0  0  # atno 17320 bound_to 7965
  146.3409  140.2309  142.8593 LP  0  0  0  0  0  0  0  0  0  0  0  0  # atno 17321 bound_to 7965
  139.5682  144.1992  152.1796 LP  0  0  0  0  0  0  0  0  0  0  0  0  # atno 17342 bound_to 10162
  140.1280  144.5314  150.6820 LP  0  0  0  0  0  0  0  0  0  0  0  0  # atno 17343 bound_to 10162
  156.5668  130.4269  149.6037 LP  0  0  0  0  0  0  0  0  0  0  0  0  # atno 17370 bound_to 10713
  156.2774  130.7051  151.1866 LP  0  0  0  0  0  0  0  0  0  0  0  0  # atno 17371 bound_to 10713
  141.1686  133.6537  156.4569 LP  0  0  0  0  0  0  0  0  0  0  0  0  # atno 17394 bound_to 11000
  140.4618  134.6835  157.5089 LP  0  0  0  0  0  0  0  0  0  0  0  0  # atno 17395 bound_to 11000

$$$$
