AV-unprocessed.smi:3303|AV-procd|sdf|12690|dock1
  -GOLD-   2272019 23D 1   1.00000     0.00000
 Structure written by MMmdl.
 44 45  0  0  0  0  0  0  0  0  2 V2000
  145.5774  142.4620  155.0251 C   0  0  0  0  0  0  0  0  0  0  0  0
  146.6470  141.4520  155.4760 C   0  0  1  0  0  0  0  0  0  0  0  0
  146.0788  140.0211  155.5480 C   0  0  0  0  0  0  0  0  0  0  0  0
  145.8216  139.4435  154.2034 N   0  3  2  0  0  0  0  0  0  0  0  0
  145.1181  138.1424  154.3138 C   0  0  0  0  0  0  0  0  0  0  0  0
  147.0602  139.3978  153.3712 C   0  0  1  0  0  0  0  0  0  0  0  0
  146.8144  138.8072  151.9689 C   0  0  0  0  0  0  0  0  0  0  0  0
  147.6732  140.8089  153.2332 C   0  0  0  0  0  0  0  0  0  0  0  0
  147.9086  141.5133  154.5818 C   0  0  2  0  0  0  0  0  0  0  0  0
  149.0817  140.9308  155.2275 N   0  0  0  0  0  0  0  0  0  0  0  0
  149.4516  141.6429  156.4433 C   0  0  0  0  0  0  0  0  0  0  0  0
  150.9347  141.3977  156.7517 C   0  0  0  0  0  0  0  0  0  0  0  0
  151.4592  142.3509  157.8084 C   0  0  0  0  0  0  0  0  0  0  0  0
  152.0265  141.8597  159.0038 C   0  0  0  0  0  0  0  0  0  0  0  0
  152.4868  142.7873  159.9583 C   0  0  0  0  0  0  0  0  0  0  0  0
  152.3607  144.1627  159.6832 C   0  0  0  0  0  0  0  0  0  0  0  0
  151.7773  144.5512  158.4607 C   0  0  0  0  0  0  0  0  0  0  0  0
  151.3330  143.6700  157.5385 N   0  0  0  0  0  0  0  0  0  0  0  0
  145.2114  142.2478  154.0210 H   0  0  0  0  0  0  0  0  0  0  0  0
  145.9750  143.4775  155.0229 H   0  0  0  0  0  0  0  0  0  0  0  0
  144.7192  142.4501  155.6976 H   0  0  0  0  0  0  0  0  0  0  0  0
  146.9104  141.7454  156.4918 H   0  0  0  0  0  0  0  0  0  0  0  0
  146.7743  139.3739  156.0849 H   0  0  0  0  0  0  0  0  0  0  0  0
  145.1564  140.0292  156.1304 H   0  0  0  0  0  0  0  0  0  0  0  0
  145.7809  137.3712  154.7082 H   0  0  0  0  0  0  0  0  0  0  0  0
  144.7334  137.8110  153.3500 H   0  0  0  0  0  0  0  0  0  0  0  0
  144.2582  138.2228  154.9798 H   0  0  0  0  0  0  0  0  0  0  0  0
  147.7818  138.7567  153.8806 H   0  0  0  0  0  0  0  0  0  0  0  0
  147.7126  138.8794  151.3548 H   0  0  0  0  0  0  0  0  0  0  0  0
  146.0164  139.3366  151.4472 H   0  0  0  0  0  0  0  0  0  0  0  0
  146.5517  137.7501  152.0082 H   0  0  0  0  0  0  0  0  0  0  0  0
  148.6074  140.7601  152.6715 H   0  0  0  0  0  0  0  0  0  0  0  0
  147.0043  141.4258  152.6315 H   0  0  0  0  0  0  0  0  0  0  0  0
  148.1463  142.5560  154.3651 H   0  0  0  0  0  0  0  0  0  0  0  0
  149.8640  140.9714  154.5892 H   0  0  0  0  0  0  0  0  0  0  0  0
  149.2726  142.7110  156.3121 H   0  0  0  0  0  0  0  0  0  0  0  0
  148.8448  141.3110  157.2848 H   0  0  0  0  0  0  0  0  0  0  0  0
  151.0834  140.3713  157.0906 H   0  0  0  0  0  0  0  0  0  0  0  0
  151.5322  141.5116  155.8457 H   0  0  0  0  0  0  0  0  0  0  0  0
  152.1054  140.7983  159.1885 H   0  0  0  0  0  0  0  0  0  0  0  0
  152.9270  142.4499  160.8849 H   0  0  0  0  0  0  0  0  0  0  0  0
  152.7017  144.9022  160.3925 H   0  0  0  0  0  0  0  0  0  0  0  0
  151.6633  145.5973  158.2168 H   0  0  0  0  0  0  0  0  0  0  0  0
  145.1828  140.0739  153.7399 H   0  0  0  0  0  0  0  0  0  0  0  0
  1  2  1  0  0  0  0
  1 19  1  0  0  0  0
  1 20  1  0  0  0  0
  1 21  1  0  0  0  0
  2  9  1  0  0  0  0
  2  3  1  0  0  0  0
  2 22  1  0  0  0  0
  3  4  1  0  0  0  0
  3 23  1  0  0  0  0
  3 24  1  0  0  0  0
  4  5  1  0  0  0  0
  4  6  1  0  0  0  0
  4 44  1  0  0  0  0
  5 25  1  0  0  0  0
  5 26  1  0  0  0  0
  5 27  1  0  0  0  0
  6  7  1  0  0  0  0
  6  8  1  0  0  0  0
  6 28  1  0  0  0  0
  7 29  1  0  0  0  0
  7 30  1  0  0  0  0
  7 31  1  0  0  0  0
  8  9  1  0  0  0  0
  8 32  1  0  0  0  0
  8 33  1  0  0  0  0
  9 10  1  0  0  0  0
  9 34  1  0  0  0  0
 10 11  1  0  0  0  0
 10 35  1  0  0  0  0
 11 12  1  0  0  0  0
 11 36  1  0  0  0  0
 11 37  1  0  0  0  0
 12 13  1  0  0  0  0
 12 38  1  0  0  0  0
 12 39  1  0  0  0  0
 13 18  1  0  0  0  0
 13 14  2  0  0  0  0
 14 15  1  0  0  0  0
 14 40  1  0  0  0  0
 15 16  2  0  0  0  0
 15 41  1  0  0  0  0
 16 17  1  0  0  0  0
 16 42  1  0  0  0  0
 17 18  2  0  0  0  0
 17 43  1  0  0  0  0
M  CHG  1   4   1
M  END
> <s_m_source_file>
AV-unprocessed.smi

> <i_m_source_file_index>
3303

> <i_lp_mmshare_version>
43012

> <i_f3d_flags>
0

> <s_epik_input>
W0NIM11bQ0BASF0xW0NIMl1OKFtDSDNdKVtDQEBIXShbQ0gzXSlbQ0gyXVtDQEhdMVtOSF1bQ0gyXVtDSDJdYzJbY0hdW2NIXVtjSF1bY0hdbjI=

> <s_epik_cmdline>
J2VwaWtfcHl0aG9uJywgJy1waCcsICc3LjAnLCAnLXRuJywgJzgnLCAnLW1hJywgJzIwMCcsICctbWV0YWxfYmluZGluZycsICctaW1hZScsICc8aW5maWxlLm1hZT4nLCAnLW9tYWUnLCAnPG91dGZpbGUubWFlPic=

> <r_epik_Ionization_Penalty>
2.31085

> <r_epik_Ionization_Penalty_Charging>
0.000313057

> <r_epik_Ionization_Penalty_Neutral>
2.31054

> <r_epik_State_Penalty>
2.4087

> <r_epik_Charging_Adjusted_Penalty>
2.40902

> <i_epik_Tot_Q>
1

> <i_epik_Tot_abs_Q>
1

> <r_epik_Metal_State_Penalty>
2.30979

> <b_epik_Metal_Only>
0

> <s_lp_Force_Field>
OPLS_2005

> <r_lp_Energy>
25.2606

> <b_lp_Chiralities_Consistent>
1

> <s_lp_Variant>
AV-unprocessed.smi:3303-34

> <Gold.Version>
5.8.1

> <Gold.Id.Protein>
6NUR|6NUR_protein|mol2

> <Gold.PLP.Fitness>
42.7460

> <Gold.PLP.PLP>
-37.0661

> <Gold.PLP.part.hbond>
-1.0000

> <Gold.PLP.part.metal>
0.0000

> <Gold.PLP.part.buried>
-1.9255

> <Gold.PLP.part.nonpolar>
-34.0013

> <Gold.PLP.part.repulsive>
0.1430

> <Gold.PLP.ligand.clash>
0.0000

> <Gold.PLP.ligand.torsion>
0.1806

> <Gold.PLP.Chemscore.Hbond>
2.0000

> <Gold.PLP.Chemscore.CHOScore>
0.0000

> <Gold.PLP.Chemscore.Metal>
0.0000

> <Gold.Chemscore.Hbonds>
donor molecule, donor type, donor heavy atom, donor atom, acceptor molecule, acceptor atom, score
      L1  H     4    44       P1 10175  2.00

> <Gold.PLP.Chemscore.Internal.Correction>
0.0410

> <Gold.Rescore>
     Score         DG    S(hbond)    S(metal)    S(lipo)     H(rot)  DE(clash)    DE(int)     intcor
     17.70     -18.06       0.97        0.00     108.88       1.33       0.21       0.16       ----

> <Gold.Chemscore.Fitness>
17.6954

> <Gold.Chemscore.DG>
-18.0596

> <Gold.Chemscore.ZeroCoef>
-5.4800

> <Gold.Chemscore.Hbond>
0.9694

> <Gold.Chemscore.Metal>
0.0000

> <Gold.Chemscore.Lipo>
108.8846

> <Gold.Chemscore.Internal_Hbond>
0.0000

> <Gold.Chemscore.DEClash>
0.2085

> <Gold.Chemscore.DEInternal>
0.1556

> <Gold.Chemscore.Rot>
1.3272

> <Gold.Chemscore.Internal.Correction>
   9.000000E+99

> <Gold.Chemscore.Hbonds>
donor molecule, donor type, donor heavy atom, donor atom, acceptor molecule, acceptor atom, score
      L1  H     4    44       P1 10175  0.93

> <Gold.Chemscore.Hbond.Weighted>
-3.2377

> <Gold.Chemscore.Metal.Weighted>
-0.0000

> <Gold.Chemscore.Lipo.Weighted>
-12.7395

> <Gold.Chemscore.Internal_Hbond.Weighted>
0.0000

> <Gold.Chemscore.DEClash.Weighted>
0.2085

> <Gold.Chemscore.DEInternal.Weighted>
0.1556

> <Gold.Chemscore.Rot.Weighted>
3.3976

> <Gold.Chemscore.Internal.Correction.Weighted>
   9.000000E+99

> <Gold.Protein.RotatedTorsions>
[ 6907 6896 6895 6894 ] final   78.55 input  -60.11 | X-H torsion
[ 7974 7965 7964 7962 ] final  177.49 input  175.53 | X-H torsion
[ 8008 7997 7996 7995 ] final  125.58 input   59.86 | X-H torsion
[ 10167 10162 10161 10158 ] final   -2.44 input  -65.29 | X-H torsion
[ 10718 10713 10712 10709 ] final   79.46 input   66.30 | X-H torsion
[ 10763 10752 10751 10750 ] final -147.03 input  -60.55 | X-H torsion
[ 11005 11000 10999 10996 ] final    5.09 input  -57.11 | X-H torsion

> <Gold.Protein.ActiveResidues>
 VAL166  LYS551  ARG553  GLY616  TRP617  ASP618  TYR619  PRO620  LYS621  CYS622 
 ASP623  PHE694  ASN695  SER759  ASP760  ASP761  ALA762  ILE779  LEU786  VAL792 
 PHE793  MET794  SER795  GLU796  ALA797  LYS798  CYS799  TRP800  GLU811  SER814 

> <Gold.Protein.RotatedAtoms>
  152.5164  134.3647  159.9296 H   0  0  0  0  0  0  0  0  0  0  0  0  # atno 6907 bound_to 6896
  151.3600  133.3887  159.2696 H   0  0  0  0  0  0  0  0  0  0  0  0  # atno 6908 bound_to 6896
  150.9659  134.9059  159.7817 H   0  0  0  0  0  0  0  0  0  0  0  0  # atno 6909 bound_to 6896
  144.7168  140.0255  143.6439 H   0  0  0  0  0  0  0  0  0  0  0  0  # atno 7974 bound_to 7965
  156.2838  140.2713  156.1972 H   0  0  0  0  0  0  0  0  0  0  0  0  # atno 8008 bound_to 7997
  155.0398  140.0386  157.2523 H   0  0  0  0  0  0  0  0  0  0  0  0  # atno 8009 bound_to 7997
  154.7284  140.2702  155.6483 H   0  0  0  0  0  0  0  0  0  0  0  0  # atno 8010 bound_to 7997
  140.6851  143.6657  150.8228 H   0  0  0  0  0  0  0  0  0  0  0  0  # atno 10167 bound_to 10162
  157.6777  130.9915  150.1935 H   0  0  0  0  0  0  0  0  0  0  0  0  # atno 10718 bound_to 10713
  154.8307  135.3371  154.6754 H   0  0  0  0  0  0  0  0  0  0  0  0  # atno 10763 bound_to 10752
  153.7374  135.6948  153.4979 H   0  0  0  0  0  0  0  0  0  0  0  0  # atno 10764 bound_to 10752
  153.2268  135.4430  155.0503 H   0  0  0  0  0  0  0  0  0  0  0  0  # atno 10765 bound_to 10752
  140.5746  134.0070  155.8022 H   0  0  0  0  0  0  0  0  0  0  0  0  # atno 11005 bound_to 11000
  146.0145  139.3198  143.0850 LP  0  0  0  0  0  0  0  0  0  0  0  0  # atno 17320 bound_to 7965
  145.8642  140.9458  143.0684 LP  0  0  0  0  0  0  0  0  0  0  0  0  # atno 17321 bound_to 7965
  140.0362  143.5392  152.2738 LP  0  0  0  0  0  0  0  0  0  0  0  0  # atno 17342 bound_to 10162
  139.6203  144.7628  151.2755 LP  0  0  0  0  0  0  0  0  0  0  0  0  # atno 17343 bound_to 10162
  156.2641  130.3714  149.8099 LP  0  0  0  0  0  0  0  0  0  0  0  0  # atno 17370 bound_to 10713
  156.5836  130.8476  151.3389 LP  0  0  0  0  0  0  0  0  0  0  0  0  # atno 17371 bound_to 10713
  141.1035  133.9731  157.3038 LP  0  0  0  0  0  0  0  0  0  0  0  0  # atno 17394 bound_to 11000
  139.9345  135.0197  156.8512 LP  0  0  0  0  0  0  0  0  0  0  0  0  # atno 17395 bound_to 11000

$$$$
