AV-unprocessed.smi:937|AV-procd|sdf|4210|dock3
  -GOLD-   22720 2113D 1   1.00000     0.00000
 Structure written by MMmdl.
 45 46  0  0  0  0  0  0  0  0  1 V2000
  145.5932  136.0855  151.0266 C   0  0  0  0  0  0  0  0  0  0  0  0
  145.9944  137.2248  151.9403 C   0  0  0  0  0  0  0  0  0  0  0  0
  145.6712  137.1949  153.3133 C   0  0  0  0  0  0  0  0  0  0  0  0
  146.0730  138.2765  154.1206 C   0  0  0  0  0  0  0  0  0  0  0  0
  146.7805  139.3415  153.5266 C   0  0  0  0  0  0  0  0  0  0  0  0
  147.2349  140.5308  154.3490 C   0  0  0  0  0  0  0  0  0  0  0  0
  148.6993  140.9032  154.0679 C   0  0  0  0  0  0  0  0  0  0  0  0
  149.1587  141.9602  154.9603 N   0  0  0  0  0  0  0  0  0  0  0  0
  150.3050  141.9323  155.6612 C   0  0  0  0  0  0  0  0  0  0  0  0
  151.1095  141.0041  155.6054 O   0  0  0  0  0  0  0  0  0  0  0  0
  150.5162  143.0061  156.4435 N   0  0  0  0  0  0  0  0  0  0  0  0
  151.6533  143.2833  157.3234 C   0  0  1  0  0  0  0  0  0  0  0  0
  151.3608  144.4992  158.2262 C   0  0  0  0  0  0  0  0  0  0  0  0
  152.5119  144.7514  159.2106 C   0  0  0  0  0  0  0  0  0  0  0  0
  152.8073  143.5022  160.0548 C   0  0  0  0  0  0  0  0  0  0  0  0
  153.1106  142.2747  159.1698 C   0  0  1  0  0  0  0  0  0  0  0  0
  153.4184  141.0190  160.0116 C   0  0  0  0  0  0  0  0  0  0  0  0
  153.3493  139.9174  159.2635 F   0  0  0  0  0  0  0  0  0  0  0  0
  154.6409  141.1082  160.5352 F   0  0  0  0  0  0  0  0  0  0  0  0
  152.5446  140.9150  161.0129 F   0  0  0  0  0  0  0  0  0  0  0  0
  151.9518  142.0361  158.1773 C   0  0  0  0  0  0  0  0  0  0  0  0
  147.0528  139.2746  152.1437 C   0  0  0  0  0  0  0  0  0  0  0  0
  146.6721  138.2413  151.3621 N   0  0  0  0  0  0  0  0  0  0  0  0
  144.7197  135.5626  151.4170 H   0  0  0  0  0  0  0  0  0  0  0  0
  146.4107  135.3697  150.9382 H   0  0  0  0  0  0  0  0  0  0  0  0
  145.3484  136.4528  150.0293 H   0  0  0  0  0  0  0  0  0  0  0  0
  145.1292  136.3634  153.7396 H   0  0  0  0  0  0  0  0  0  0  0  0
  145.8408  138.2866  155.1755 H   0  0  0  0  0  0  0  0  0  0  0  0
  146.5845  141.3805  154.1365 H   0  0  0  0  0  0  0  0  0  0  0  0
  147.0993  140.2969  155.4060 H   0  0  0  0  0  0  0  0  0  0  0  0
  149.3430  140.0267  154.1627 H   0  0  0  0  0  0  0  0  0  0  0  0
  148.8039  141.2557  153.0414 H   0  0  0  0  0  0  0  0  0  0  0  0
  148.5582  142.7652  155.0626 H   0  0  0  0  0  0  0  0  0  0  0  0
  149.8076  143.7247  156.4104 H   0  0  0  0  0  0  0  0  0  0  0  0
  152.5384  143.4901  156.7190 H   0  0  0  0  0  0  0  0  0  0  0  0
  151.1971  145.3930  157.6232 H   0  0  0  0  0  0  0  0  0  0  0  0
  150.4383  144.3314  158.7842 H   0  0  0  0  0  0  0  0  0  0  0  0
  153.4074  145.0416  158.6594 H   0  0  0  0  0  0  0  0  0  0  0  0
  152.2655  145.5898  159.8628 H   0  0  0  0  0  0  0  0  0  0  0  0
  153.6495  143.7050  160.7166 H   0  0  0  0  0  0  0  0  0  0  0  0
  151.9534  143.2911  160.6997 H   0  0  0  0  0  0  0  0  0  0  0  0
  154.0042  142.5012  158.5858 H   0  0  0  0  0  0  0  0  0  0  0  0
  151.0553  141.7459  158.7276 H   0  0  0  0  0  0  0  0  0  0  0  0
  152.1937  141.1982  157.5224 H   0  0  0  0  0  0  0  0  0  0  0  0
  147.5895  140.0715  151.6500 H   0  0  0  0  0  0  0  0  0  0  0  0
  1  2  1  0  0  0  0
  1 24  1  0  0  0  0
  1 25  1  0  0  0  0
  1 26  1  0  0  0  0
  2 23  1  0  0  0  0
  2  3  2  0  0  0  0
  3  4  1  0  0  0  0
  3 27  1  0  0  0  0
  4  5  2  0  0  0  0
  4 28  1  0  0  0  0
  5  6  1  0  0  0  0
  5 22  1  0  0  0  0
  6  7  1  0  0  0  0
  6 29  1  0  0  0  0
  6 30  1  0  0  0  0
  7  8  1  0  0  0  0
  7 31  1  0  0  0  0
  7 32  1  0  0  0  0
  8  9  1  0  0  0  0
  8 33  1  0  0  0  0
  9 10  2  0  0  0  0
  9 11  1  0  0  0  0
 11 12  1  0  0  0  0
 11 34  1  0  0  0  0
 12 21  1  0  0  0  0
 12 13  1  0  0  0  0
 12 35  1  0  0  0  0
 13 14  1  0  0  0  0
 13 36  1  0  0  0  0
 13 37  1  0  0  0  0
 14 15  1  0  0  0  0
 14 38  1  0  0  0  0
 14 39  1  0  0  0  0
 15 16  1  0  0  0  0
 15 40  1  0  0  0  0
 15 41  1  0  0  0  0
 16 17  1  0  0  0  0
 16 21  1  0  0  0  0
 16 42  1  0  0  0  0
 17 18  1  0  0  0  0
 17 19  1  0  0  0  0
 17 20  1  0  0  0  0
 21 43  1  0  0  0  0
 21 44  1  0  0  0  0
 22 23  2  0  0  0  0
 22 45  1  0  0  0  0
M  END
> <s_m_source_file>
AV-unprocessed.smi

> <i_m_source_file_index>
937

> <i_lp_mmshare_version>
43012

> <i_f3d_flags>
0

> <s_epik_input>
W0NIM11jMVtjSF1bY0hdYyhbY0hdbjEpW0NIMl1bQ0gyXVtOSF1DKD1PKVtOSF1bQ0BASF0yW0NIMl1bQ0gyXVtDSDJdW0NAQEhdKEMoRikoRilGKVtDSDJdMg==

> <s_epik_cmdline>
J2VwaWtfcHl0aG9uJywgJy1waCcsICc3LjAnLCAnLXRuJywgJzgnLCAnLW1hJywgJzIwMCcsICctbWV0YWxfYmluZGluZycsICctaW1hZScsICc8aW5maWxlLm1hZT4nLCAnLW9tYWUnLCAnPG91dGZpbGUubWFlPic=

> <r_epik_Ionization_Penalty>
0.0563445

> <r_epik_Ionization_Penalty_Charging>
0

> <r_epik_Ionization_Penalty_Neutral>
0.0563445

> <r_epik_State_Penalty>
0.0485409

> <r_epik_Charging_Adjusted_Penalty>
0.0485409

> <i_epik_Tot_Q>
0

> <i_epik_Tot_abs_Q>
0

> <r_epik_Metal_State_Penalty>
0.0443056

> <b_epik_Metal_Only>
0

> <s_lp_Force_Field>
OPLS_2005

> <r_lp_Energy>
17.7613

> <b_lp_Chiralities_Consistent>
1

> <s_lp_Variant>
AV-unprocessed.smi:937-2

> <Gold.Version>
5.8.1

> <Gold.Id.Protein>
6NUR|6NUR_protein|mol2

> <Gold.PLP.Fitness>
53.2185

> <Gold.PLP.PLP>
-43.2610

> <Gold.PLP.part.hbond>
-3.6337

> <Gold.PLP.part.metal>
0.0000

> <Gold.PLP.part.buried>
-0.7594

> <Gold.PLP.part.nonpolar>
-38.7589

> <Gold.PLP.part.repulsive>
1.0404

> <Gold.PLP.ligand.clash>
0.0000

> <Gold.PLP.ligand.torsion>
0.7875

> <Gold.PLP.Chemscore.Hbond>
2.9335

> <Gold.PLP.Chemscore.CHOScore>
0.8972

> <Gold.PLP.Chemscore.Metal>
0.0000

> <Gold.Chemscore.Hbonds>
donor molecule, donor type, donor heavy atom, donor atom, acceptor molecule, acceptor atom, score
      L1  H     8    33       P1  8028  0.65
      L1  H    11    34       P1  8028  1.00
      P1  H  7954  7966       L1    23  0.76
      P1  H  7989  7998       L1    10  0.44
      L1  C    22    45       P1  7957  0.92

> <Gold.PLP.Chemscore.Internal.Correction>
0.0406

> <Gold.Rescore>
     Score         DG    S(hbond)    S(metal)    S(lipo)     H(rot)  DE(clash)    DE(int)     intcor
     20.55     -25.29       2.59        0.00     130.05       1.58       2.93       1.81       ----

> <Gold.Chemscore.Fitness>
20.5459

> <Gold.Chemscore.DG>
-25.2862

> <Gold.Chemscore.ZeroCoef>
-5.4800

> <Gold.Chemscore.Hbond>
2.5893

> <Gold.Chemscore.Metal>
0.0000

> <Gold.Chemscore.Lipo>
130.0468

> <Gold.Chemscore.Internal_Hbond>
0.0000

> <Gold.Chemscore.DEClash>
2.9336

> <Gold.Chemscore.DEInternal>
1.8068

> <Gold.Chemscore.Rot>
1.5849

> <Gold.Chemscore.Internal.Correction>
   9.000000E+99

> <Gold.Chemscore.Hbonds>
donor molecule, donor type, donor heavy atom, donor atom, acceptor molecule, acceptor atom, score
      L1  H     8    33       P1  8028  0.61
      L1  H    11    34       P1  8028  0.92
      P1  H  7954  7966       L1    23  0.51
      P1  H  7989  7998       L1    10  0.20

> <Gold.Chemscore.Hbond.Weighted>
-8.6482

> <Gold.Chemscore.Metal.Weighted>
-0.0000

> <Gold.Chemscore.Lipo.Weighted>
-15.2155

> <Gold.Chemscore.Internal_Hbond.Weighted>
0.0000

> <Gold.Chemscore.DEClash.Weighted>
2.9336

> <Gold.Chemscore.DEInternal.Weighted>
1.8068

> <Gold.Chemscore.Rot.Weighted>
4.0574

> <Gold.Chemscore.Internal.Correction.Weighted>
   9.000000E+99

> <Gold.Protein.RotatedTorsions>
[ 6907 6896 6895 6894 ] final -105.05 input  -60.11 | X-H torsion
[ 7974 7965 7964 7962 ] final -107.72 input  175.53 | X-H torsion
[ 8008 7997 7996 7995 ] final   40.28 input   59.86 | X-H torsion
[ 10167 10162 10161 10158 ] final  176.03 input  -65.29 | X-H torsion
[ 10718 10713 10712 10709 ] final  136.02 input   66.30 | X-H torsion
[ 10763 10752 10751 10750 ] final    2.81 input  -60.55 | X-H torsion
[ 11005 11000 10999 10996 ] final -116.58 input  -57.11 | X-H torsion

> <Gold.Protein.ActiveResidues>
 VAL166  LYS551  ARG553  GLY616  TRP617  ASP618  TYR619  PRO620  LYS621  CYS622 
 ASP623  PHE694  ASN695  SER759  ASP760  ASP761  ALA762  ILE779  LEU786  VAL792 
 PHE793  MET794  SER795  GLU796  ALA797  LYS798  CYS799  TRP800  GLU811  SER814 

> <Gold.Protein.RotatedAtoms>
  150.7317  134.0186  159.3693 H   0  0  0  0  0  0  0  0  0  0  0  0  # atno 6907 bound_to 6896
  151.8149  135.0667  160.0427 H   0  0  0  0  0  0  0  0  0  0  0  0  # atno 6908 bound_to 6896
  152.3046  133.5653  159.5677 H   0  0  0  0  0  0  0  0  0  0  0  0  # atno 6909 bound_to 6896
  145.2018  140.9059  143.3365 H   0  0  0  0  0  0  0  0  0  0  0  0  # atno 7974 bound_to 7965
  155.2505  140.3352  155.4282 H   0  0  0  0  0  0  0  0  0  0  0  0  # atno 8008 bound_to 7997
  156.2218  140.1812  156.7503 H   0  0  0  0  0  0  0  0  0  0  0  0  # atno 8009 bound_to 7997
  154.5836  140.0649  156.9125 H   0  0  0  0  0  0  0  0  0  0  0  0  # atno 8010 bound_to 7997
  139.5199  144.2963  152.0419 H   0  0  0  0  0  0  0  0  0  0  0  0  # atno 10167 bound_to 10162
  157.4510  131.1066  151.0033 H   0  0  0  0  0  0  0  0  0  0  0  0  # atno 10718 bound_to 10713
  153.2910  135.6948  153.7293 H   0  0  0  0  0  0  0  0  0  0  0  0  # atno 10763 bound_to 10752
  153.6244  135.3421  155.3022 H   0  0  0  0  0  0  0  0  0  0  0  0  # atno 10764 bound_to 10752
  154.8524  135.4394  154.1992 H   0  0  0  0  0  0  0  0  0  0  0  0  # atno 10765 bound_to 10752
  141.0413  133.9832  157.2990 H   0  0  0  0  0  0  0  0  0  0  0  0  # atno 11005 bound_to 11000
  144.9940  139.3662  143.6200 LP  0  0  0  0  0  0  0  0  0  0  0  0  # atno 17320 bound_to 7965
  146.3416  139.9135  142.8777 LP  0  0  0  0  0  0  0  0  0  0  0  0  # atno 17321 bound_to 7965
  140.2412  144.4267  150.6259 LP  0  0  0  0  0  0  0  0  0  0  0  0  # atno 17342 bound_to 10162
  140.6289  143.2185  151.6537 LP  0  0  0  0  0  0  0  0  0  0  0  0  # atno 17343 bound_to 10162
  157.0863  130.5924  149.5430 LP  0  0  0  0  0  0  0  0  0  0  0  0  # atno 17370 bound_to 10713
  155.9987  130.5061  150.7580 LP  0  0  0  0  0  0  0  0  0  0  0  0  # atno 17371 bound_to 10713
  139.9278  135.0201  156.8294 LP  0  0  0  0  0  0  0  0  0  0  0  0  # atno 17394 bound_to 11000
  140.6230  133.9977  155.7627 LP  0  0  0  0  0  0  0  0  0  0  0  0  # atno 17395 bound_to 11000

$$$$
