AV-unprocessed.smi:261|AV-procd|sdf|1988|dock9
  -GOLD-   2262021173D 1   1.00000     0.00000
 Structure written by MMmdl.
 51 54  0  0  0  0  0  0  0  0  1 V2000
  151.9198  144.7184  158.8067 C   0  0  0  0  0  0  0  0  0  0  0  0
  150.8668  143.9915  158.1949 O   0  0  0  0  0  0  0  0  0  0  0  0
  151.3058  142.8300  157.5055 C   0  0  2  0  0  0  0  0  0  0  0  0
  150.1604  141.9950  156.9250 C   0  0  0  0  0  0  0  0  0  0  0  0
  150.7399  140.5743  156.8193 C   0  0  1  0  0  0  0  0  0  0  0  0
  151.3950  140.3241  155.4492 C   0  0  0  0  0  0  0  0  0  0  0  0
  152.6662  139.9164  155.4576 N   0  0  0  0  0  0  0  0  0  0  0  0
  150.7673  140.4808  154.4027 O   0  0  0  0  0  0  0  0  0  0  0  0
  151.7162  140.5269  157.9110 N   0  0  0  0  0  0  0  0  0  0  0  0
  152.1373  139.3708  158.4947 C   0  0  0  0  0  0  0  0  0  0  0  0
  151.6869  138.1912  157.9892 N   0  0  0  0  0  0  0  0  0  0  0  0
  152.0699  137.0277  158.5205 C   0  0  0  0  0  0  0  0  0  0  0  0
  152.8878  136.8118  159.5504 N   0  0  0  0  0  0  0  0  0  0  0  0
  153.3460  137.9861  160.0684 C   0  0  0  0  0  0  0  0  0  0  0  0
  153.0277  139.2979  159.6092 C   0  0  0  0  0  0  0  0  0  0  0  0
  153.6935  140.2341  160.3948 N   0  0  0  0  0  0  0  0  0  0  0  0
  154.3591  139.5221  161.2614 C   0  0  0  0  0  0  0  0  0  0  0  0
  154.2021  138.1616  161.1405 N   0  0  0  0  0  0  0  0  0  0  0  0
  154.8136  137.1372  161.9677 C   0  0  0  0  0  0  0  0  0  0  0  0
  154.4601  135.7028  161.5196 C   0  0  1  0  0  0  0  0  0  0  0  0
  155.1089  135.4785  160.2839 O   0  0  0  0  0  0  0  0  0  0  0  0
  154.8788  134.6005  162.5180 C   0  0  2  0  0  0  0  0  0  0  0  0
  154.5465  133.1767  162.0672 C   0  0  0  0  0  0  0  0  0  0  0  0
  154.4984  132.3933  163.3685 C   0  0  0  0  0  0  0  0  0  0  0  0
  154.3147  133.4706  164.4400 C   0  0  0  0  0  0  0  0  0  0  0  0
  154.1312  134.6828  163.7225 O   0  0  0  0  0  0  0  0  0  0  0  0
  151.9759  141.8480  158.4674 C   0  0  0  0  0  0  0  0  0  0  0  0
  152.0136  143.0930  156.7169 H   0  0  0  0  0  0  0  0  0  0  0  0
  149.9401  139.8489  156.9790 H   0  0  0  0  0  0  0  0  0  0  0  0
  151.5071  145.5676  159.3512 H   0  0  0  0  0  0  0  0  0  0  0  0
  152.6209  145.1068  158.0675 H   0  0  0  0  0  0  0  0  0  0  0  0
  152.4673  144.0986  159.5177 H   0  0  0  0  0  0  0  0  0  0  0  0
  149.3201  141.9905  157.6209 H   0  0  0  0  0  0  0  0  0  0  0  0
  149.7932  142.3861  155.9751 H   0  0  0  0  0  0  0  0  0  0  0  0
  153.1421  139.7320  154.5867 H   0  0  0  0  0  0  0  0  0  0  0  0
  153.1445  139.7885  156.3374 H   0  0  0  0  0  0  0  0  0  0  0  0
  151.6624  136.1434  158.0533 H   0  0  0  0  0  0  0  0  0  0  0  0
  154.9797  139.9737  162.0214 H   0  0  0  0  0  0  0  0  0  0  0  0
  155.8941  137.2847  161.9425 H   0  0  0  0  0  0  0  0  0  0  0  0
  154.5014  137.2979  163.0007 H   0  0  0  0  0  0  0  0  0  0  0  0
  153.3867  135.6333  161.3402 H   0  0  0  0  0  0  0  0  0  0  0  0
  156.0195  135.7130  160.3762 H   0  0  0  0  0  0  0  0  0  0  0  0
  155.9428  134.6782  162.7499 H   0  0  0  0  0  0  0  0  0  0  0  0
  153.5652  133.1540  161.5910 H   0  0  0  0  0  0  0  0  0  0  0  0
  155.2728  132.7759  161.3599 H   0  0  0  0  0  0  0  0  0  0  0  0
  153.6796  131.6728  163.3663 H   0  0  0  0  0  0  0  0  0  0  0  0
  155.4274  131.8469  163.5345 H   0  0  0  0  0  0  0  0  0  0  0  0
  153.4621  133.2736  165.0902 H   0  0  0  0  0  0  0  0  0  0  0  0
  155.2070  133.5514  165.0619 H   0  0  0  0  0  0  0  0  0  0  0  0
  153.0429  142.0556  158.5524 H   0  0  0  0  0  0  0  0  0  0  0  0
  151.5265  141.9102  159.4598 H   0  0  0  0  0  0  0  0  0  0  0  0
  1  2  1  0  0  0  0
  1 30  1  0  0  0  0
  1 31  1  0  0  0  0
  1 32  1  0  0  0  0
  2  3  1  0  0  0  0
  3 28  1  0  0  0  0
  3 27  1  0  0  0  0
  3  4  1  0  0  0  0
  4  5  1  0  0  0  0
  4 33  1  0  0  0  0
  4 34  1  0  0  0  0
  5 29  1  0  0  0  0
  5  6  1  0  0  0  0
  5  9  1  0  0  0  0
  6  7  1  0  0  0  0
  6  8  2  0  0  0  0
  7 35  1  0  0  0  0
  7 36  1  0  0  0  0
  9 10  1  0  0  0  0
  9 27  1  0  0  0  0
 10 15  1  0  0  0  0
 10 11  2  0  0  0  0
 11 12  1  0  0  0  0
 12 13  2  0  0  0  0
 12 37  1  0  0  0  0
 13 14  1  0  0  0  0
 14 18  1  0  0  0  0
 14 15  2  0  0  0  0
 15 16  1  0  0  0  0
 16 17  2  0  0  0  0
 17 18  1  0  0  0  0
 17 38  1  0  0  0  0
 18 19  1  0  0  0  0
 19 20  1  0  0  0  0
 19 39  1  0  0  0  0
 19 40  1  0  0  0  0
 20 21  1  0  0  0  0
 20 22  1  0  0  0  0
 20 41  1  0  0  0  0
 21 42  1  0  0  0  0
 22 26  1  0  0  0  0
 22 23  1  0  0  0  0
 22 43  1  0  0  0  0
 23 24  1  0  0  0  0
 23 44  1  0  0  0  0
 23 45  1  0  0  0  0
 24 25  1  0  0  0  0
 24 46  1  0  0  0  0
 24 47  1  0  0  0  0
 25 26  1  0  0  0  0
 25 48  1  0  0  0  0
 25 49  1  0  0  0  0
 27 50  1  0  0  0  0
 27 51  1  0  0  0  0
M  END
> <s_m_source_file>
AV-unprocessed.smi

> <i_m_source_file_index>
261

> <i_lp_mmshare_version>
43012

> <i_f3d_flags>
0

> <s_epik_input>
W0NIM11PW0NASF0xW0NIMl1bQ0BASF0oQyg9TylbTkgyXSlOKFtDSDJdMSljKG5bY0hdbjIpYyhjMjMpbltjSF1uM1tDSDJdW0NASF0oW09IXSlbQ0BASF00W0NIMl1bQ0gyXVtDSDJdTzQ=

> <s_epik_cmdline>
J2VwaWtfcHl0aG9uJywgJy1waCcsICc3LjAnLCAnLXRuJywgJzgnLCAnLW1hJywgJzIwMCcsICctbWV0YWxfYmluZGluZycsICctaW1hZScsICc8aW5maWxlLm1hZT4nLCAnLW9tYWUnLCAnPG91dGZpbGUubWFlPic=

> <r_lp_tautomer_probability>
1

> <r_epik_Ionization_Penalty>
0.000713824

> <r_epik_Ionization_Penalty_Charging>
0

> <r_epik_Ionization_Penalty_Neutral>
0.000713824

> <r_epik_State_Penalty>
0.000402132

> <r_epik_Charging_Adjusted_Penalty>
0.000402132

> <i_epik_Tot_Q>
0

> <i_epik_Tot_abs_Q>
0

> <r_epik_Metal_State_Penalty>
-0

> <b_epik_Metal_Only>
0

> <s_lp_Force_Field>
OPLS_2005

> <r_lp_Energy>
43.323

> <b_lp_Chiralities_Consistent>
1

> <s_lp_Variant>
AV-unprocessed.smi:261-6

> <Gold.Version>
5.8.1

> <Gold.Id.Protein>
6NUR|6NUR_protein|mol2

> <Gold.PLP.Fitness>
45.2784

> <Gold.PLP.PLP>
-41.3908

> <Gold.PLP.part.hbond>
-1.9597

> <Gold.PLP.part.metal>
0.0000

> <Gold.PLP.part.buried>
-5.9032

> <Gold.PLP.part.nonpolar>
-34.6438

> <Gold.PLP.part.repulsive>
1.2423

> <Gold.PLP.ligand.clash>
0.0000

> <Gold.PLP.ligand.torsion>
0.2028

> <Gold.PLP.Chemscore.Hbond>
1.3861

> <Gold.PLP.Chemscore.CHOScore>
0.0000

> <Gold.PLP.Chemscore.Metal>
0.0000

> <Gold.Chemscore.Hbonds>
donor molecule, donor type, donor heavy atom, donor atom, acceptor molecule, acceptor atom, score
      P1  H  6896  6909       L1    13  0.72
      P1  H  7989  7998       L1     8  0.44

> <Gold.PLP.Chemscore.Internal.Correction>
0.1348

> <Gold.Rescore>
     Score         DG    S(hbond)    S(metal)    S(lipo)     H(rot)  DE(clash)    DE(int)     intcor
      6.59     -10.83       0.99        0.00      87.02       3.18       1.60       2.64       ----

> <Gold.Chemscore.Fitness>
6.5856

> <Gold.Chemscore.DG>
-10.8316

> <Gold.Chemscore.ZeroCoef>
-5.4800

> <Gold.Chemscore.Hbond>
0.9937

> <Gold.Chemscore.Metal>
0.0000

> <Gold.Chemscore.Lipo>
87.0208

> <Gold.Chemscore.Internal_Hbond>
0.0000

> <Gold.Chemscore.DEClash>
1.6026

> <Gold.Chemscore.DEInternal>
2.6434

> <Gold.Chemscore.Rot>
3.1831

> <Gold.Chemscore.Internal.Correction>
   9.000000E+99

> <Gold.Chemscore.Hbonds>
donor molecule, donor type, donor heavy atom, donor atom, acceptor molecule, acceptor atom, score
      P1  H  6896  6909       L1    13  0.16
      P1  H  7989  7998       L1     8  0.26

> <Gold.Chemscore.Hbond.Weighted>
-3.3188

> <Gold.Chemscore.Metal.Weighted>
-0.0000

> <Gold.Chemscore.Lipo.Weighted>
-10.1814

> <Gold.Chemscore.Internal_Hbond.Weighted>
0.0000

> <Gold.Chemscore.DEClash.Weighted>
1.6026

> <Gold.Chemscore.DEInternal.Weighted>
2.6434

> <Gold.Chemscore.Rot.Weighted>
8.1486

> <Gold.Chemscore.Internal.Correction.Weighted>
   9.000000E+99

> <Gold.Protein.RotatedTorsions>
[ 6907 6896 6895 6894 ] final  167.74 input  -60.11 | X-H torsion
[ 7974 7965 7964 7962 ] final   67.21 input  175.53 | X-H torsion
[ 8008 7997 7996 7995 ] final -151.87 input   59.86 | X-H torsion
[ 10167 10162 10161 10158 ] final -151.44 input  -65.29 | X-H torsion
[ 10718 10713 10712 10709 ] final    1.84 input   66.30 | X-H torsion
[ 10763 10752 10751 10750 ] final   28.02 input  -60.55 | X-H torsion
[ 11005 11000 10999 10996 ] final -135.50 input  -57.11 | X-H torsion

> <Gold.Protein.ActiveResidues>
 VAL166  LYS551  ARG553  GLY616  TRP617  ASP618  TYR619  PRO620  LYS621  CYS622 
 ASP623  PHE694  ASN695  SER759  ASP760  ASP761  ALA762  ILE779  LEU786  VAL792 
 PHE793  MET794  SER795  GLU796  ALA797  LYS798  CYS799  TRP800  GLU811  SER814 

> <Gold.Protein.RotatedAtoms>
  151.8585  133.3453  159.3695 H   0  0  0  0  0  0  0  0  0  0  0  0  # atno 6907 bound_to 6896
  150.7186  134.5229  159.5672 H   0  0  0  0  0  0  0  0  0  0  0  0  # atno 6908 bound_to 6896
  152.2738  134.7905  160.0460 H   0  0  0  0  0  0  0  0  0  0  0  0  # atno 6909 bound_to 6896
  145.8174  139.3066  143.1063 H   0  0  0  0  0  0  0  0  0  0  0  0  # atno 7974 bound_to 7965
  155.6463  140.0707  157.2602 H   0  0  0  0  0  0  0  0  0  0  0  0  # atno 8008 bound_to 7997
  154.4172  140.1741  156.1676 H   0  0  0  0  0  0  0  0  0  0  0  0  # atno 8009 bound_to 7997
  155.9814  140.3353  155.6670 H   0  0  0  0  0  0  0  0  0  0  0  0  # atno 8010 bound_to 7997
  139.7268  143.8871  152.2522 H   0  0  0  0  0  0  0  0  0  0  0  0  # atno 10167 bound_to 10162
  156.8541  130.5564  149.5667 H   0  0  0  0  0  0  0  0  0  0  0  0  # atno 10718 bound_to 10713
  153.0518  135.6523  154.0674 H   0  0  0  0  0  0  0  0  0  0  0  0  # atno 10763 bound_to 10752
  154.0361  135.2907  155.3363 H   0  0  0  0  0  0  0  0  0  0  0  0  # atno 10764 bound_to 10752
  154.6811  135.5319  153.8331 H   0  0  0  0  0  0  0  0  0  0  0  0  # atno 10765 bound_to 10752
  140.8892  134.1833  157.4539 H   0  0  0  0  0  0  0  0  0  0  0  0  # atno 11005 bound_to 11000
  145.9712  140.8759  143.0162 LP  0  0  0  0  0  0  0  0  0  0  0  0  # atno 17320 bound_to 7965
  144.6751  140.1948  143.7393 LP  0  0  0  0  0  0  0  0  0  0  0  0  # atno 17321 bound_to 7965
  139.8783  144.7031  150.8907 LP  0  0  0  0  0  0  0  0  0  0  0  0  # atno 17342 bound_to 10162
  140.7764  143.3682  151.1699 LP  0  0  0  0  0  0  0  0  0  0  0  0  # atno 17343 bound_to 10162
  156.0812  130.5822  150.9566 LP  0  0  0  0  0  0  0  0  0  0  0  0  # atno 17370 bound_to 10713
  157.6287  131.0923  150.8484 LP  0  0  0  0  0  0  0  0  0  0  0  0  # atno 17371 bound_to 10713
  139.8728  134.9851  156.5268 LP  0  0  0  0  0  0  0  0  0  0  0  0  # atno 17394 bound_to 11000
  140.8367  133.8236  155.9036 LP  0  0  0  0  0  0  0  0  0  0  0  0  # atno 17395 bound_to 11000

$$$$
