AV-unprocessed.smi:2513|AV-procd|sdf|9891|dock1
  -GOLD-   2272013523D 1   1.00000     0.00000
 Structure written by MMmdl.
 35 36  0  0  0  0  0  0  0  0  1 V2000
  146.1950  142.8582  153.7187 C   0  0  0  0  0  0  0  0  0  0  0  0
  147.4271  142.6339  154.3882 O   0  0  0  0  0  0  0  0  0  0  0  0
  148.0736  141.4307  154.1821 C   0  0  0  0  0  0  0  0  0  0  0  0
  147.5443  140.3824  153.3867 C   0  0  0  0  0  0  0  0  0  0  0  0
  148.2764  139.1920  153.2374 C   0  0  0  0  0  0  0  0  0  0  0  0
  149.5163  139.0894  153.8888 C   0  0  0  0  0  0  0  0  0  0  0  0
  150.0314  140.0774  154.6464 N   0  0  0  0  0  0  0  0  0  0  0  0
  149.3357  141.2317  154.8003 C   0  0  0  0  0  0  0  0  0  0  0  0
  149.8099  142.3203  155.5838 N   0  0  0  0  0  0  0  0  0  0  0  0
  150.6815  142.2977  156.6072 C   0  0  0  0  0  0  0  0  0  0  0  0
  151.2341  141.2911  157.0520 O   0  0  0  0  0  0  0  0  0  0  0  0
  150.8845  143.5294  157.0970 N   0  0  0  0  0  0  0  0  0  0  0  0
  151.7711  143.8568  158.2095 C   0  0  2  0  0  0  0  0  0  0  0  0
  151.6274  142.8018  159.3165 C   0  0  0  0  0  0  0  0  0  0  0  0
  152.4501  143.2131  160.5427 C   0  0  0  0  0  0  0  0  0  0  0  0
  152.0890  144.6426  160.9764 C   0  0  0  0  0  0  0  0  0  0  0  0
  152.2865  145.5417  159.8905 O   0  0  0  0  0  0  0  0  0  0  0  0
  151.4523  145.2582  158.7717 C   0  0  0  0  0  0  0  0  0  0  0  0
  145.8173  143.8461  153.9828 H   0  0  0  0  0  0  0  0  0  0  0  0
  145.4411  142.1273  154.0147 H   0  0  0  0  0  0  0  0  0  0  0  0
  146.3192  142.8322  152.6353 H   0  0  0  0  0  0  0  0  0  0  0  0
  146.5909  140.4663  152.8879 H   0  0  0  0  0  0  0  0  0  0  0  0
  147.8963  138.3775  152.6386 H   0  0  0  0  0  0  0  0  0  0  0  0
  150.1101  138.1916  153.8005 H   0  0  0  0  0  0  0  0  0  0  0  0
  149.4380  143.2239  155.3309 H   0  0  0  0  0  0  0  0  0  0  0  0
  150.3892  144.2985  156.6703 H   0  0  0  0  0  0  0  0  0  0  0  0
  152.8050  143.8451  157.8592 H   0  0  0  0  0  0  0  0  0  0  0  0
  150.5790  142.7021  159.6023 H   0  0  0  0  0  0  0  0  0  0  0  0
  151.9497  141.8235  158.9575 H   0  0  0  0  0  0  0  0  0  0  0  0
  152.2795  142.5151  161.3626 H   0  0  0  0  0  0  0  0  0  0  0  0
  153.5132  143.1632  160.3042 H   0  0  0  0  0  0  0  0  0  0  0  0
  151.0557  144.6952  161.3231 H   0  0  0  0  0  0  0  0  0  0  0  0
  152.7202  144.9521  161.8095 H   0  0  0  0  0  0  0  0  0  0  0  0
  151.6257  146.0216  158.0126 H   0  0  0  0  0  0  0  0  0  0  0  0
  150.4035  145.3345  159.0635 H   0  0  0  0  0  0  0  0  0  0  0  0
  1  2  1  0  0  0  0
  1 19  1  0  0  0  0
  1 20  1  0  0  0  0
  1 21  1  0  0  0  0
  2  3  1  0  0  0  0
  3  8  1  0  0  0  0
  3  4  2  0  0  0  0
  4  5  1  0  0  0  0
  4 22  1  0  0  0  0
  5  6  2  0  0  0  0
  5 23  1  0  0  0  0
  6  7  1  0  0  0  0
  6 24  1  0  0  0  0
  7  8  2  0  0  0  0
  8  9  1  0  0  0  0
  9 10  1  0  0  0  0
  9 25  1  0  0  0  0
 10 11  2  0  0  0  0
 10 12  1  0  0  0  0
 12 13  1  0  0  0  0
 12 26  1  0  0  0  0
 13 18  1  0  0  0  0
 13 14  1  0  0  0  0
 13 27  1  0  0  0  0
 14 15  1  0  0  0  0
 14 28  1  0  0  0  0
 14 29  1  0  0  0  0
 15 16  1  0  0  0  0
 15 30  1  0  0  0  0
 15 31  1  0  0  0  0
 16 17  1  0  0  0  0
 16 32  1  0  0  0  0
 16 33  1  0  0  0  0
 17 18  1  0  0  0  0
 18 34  1  0  0  0  0
 18 35  1  0  0  0  0
M  END
> <s_m_source_file>
AV-unprocessed.smi

> <i_m_source_file_index>
2513

> <i_lp_mmshare_version>
43012

> <i_f3d_flags>
0

> <s_epik_input>
W0NIM11PYzFbY0hdW2NIXVtjSF1uYzFbTkhdQyg9TylbTkhdW0NAQEhdMltDSDJdW0NIMl1bQ0gyXU9bQ0gyXTI=

> <s_epik_cmdline>
J2VwaWtfcHl0aG9uJywgJy1waCcsICc3LjAnLCAnLXRuJywgJzgnLCAnLW1hJywgJzIwMCcsICctbWV0YWxfYmluZGluZycsICctaW1hZScsICc8aW5maWxlLm1hZT4nLCAnLW9tYWUnLCAnPG91dGZpbGUubWFlPic=

> <r_lp_tautomer_probability>
1

> <r_epik_Ionization_Penalty>
3.98976e-05

> <r_epik_Ionization_Penalty_Charging>
0

> <r_epik_Ionization_Penalty_Neutral>
3.98976e-05

> <r_epik_State_Penalty>
-0

> <r_epik_Charging_Adjusted_Penalty>
0

> <i_epik_Tot_Q>
0

> <i_epik_Tot_abs_Q>
0

> <r_epik_Metal_State_Penalty>
-0

> <b_epik_Metal_Only>
0

> <s_lp_Force_Field>
OPLS_2005

> <r_lp_Energy>
12.9865

> <b_lp_Chiralities_Consistent>
1

> <s_lp_Variant>
AV-unprocessed.smi:2513-1

> <Gold.Version>
5.8.1

> <Gold.Id.Protein>
6NUR|6NUR_protein|mol2

> <Gold.PLP.Fitness>
42.9225

> <Gold.PLP.PLP>
-34.7889

> <Gold.PLP.part.hbond>
-3.0000

> <Gold.PLP.part.metal>
0.0000

> <Gold.PLP.part.buried>
2.8174

> <Gold.PLP.part.nonpolar>
-35.5343

> <Gold.PLP.part.repulsive>
1.6958

> <Gold.PLP.ligand.clash>
0.0000

> <Gold.PLP.ligand.torsion>
0.3768

> <Gold.PLP.Chemscore.Hbond>
2.9600

> <Gold.PLP.Chemscore.CHOScore>
0.0000

> <Gold.PLP.Chemscore.Metal>
0.0000

> <Gold.Chemscore.Hbonds>
donor molecule, donor type, donor heavy atom, donor atom, acceptor molecule, acceptor atom, score
      L1  H     9    25       P1  8028  1.00
      L1  H    12    26       P1  8028  0.90
      P1  H  7989  7998       L1     7  0.66

> <Gold.PLP.Chemscore.Internal.Correction>
0.0072

> <Gold.Rescore>
     Score         DG    S(hbond)    S(metal)    S(lipo)     H(rot)  DE(clash)    DE(int)     intcor
     15.89     -19.27       1.90        0.00      90.97       1.25       0.51       2.88       ----

> <Gold.Chemscore.Fitness>
15.8886

> <Gold.Chemscore.DG>
-19.2702

> <Gold.Chemscore.ZeroCoef>
-5.4800

> <Gold.Chemscore.Hbond>
1.9034

> <Gold.Chemscore.Metal>
0.0000

> <Gold.Chemscore.Lipo>
90.9690

> <Gold.Chemscore.Internal_Hbond>
0.0000

> <Gold.Chemscore.DEClash>
0.5057

> <Gold.Chemscore.DEInternal>
2.8758

> <Gold.Chemscore.Rot>
1.2542

> <Gold.Chemscore.Internal.Correction>
   9.000000E+99

> <Gold.Chemscore.Hbonds>
donor molecule, donor type, donor heavy atom, donor atom, acceptor molecule, acceptor atom, score
      L1  H     9    25       P1  8028  0.97
      L1  H    12    26       P1  8028  0.87
      P1  H  7989  7998       L1     7  0.05

> <Gold.Chemscore.Hbond.Weighted>
-6.3575

> <Gold.Chemscore.Metal.Weighted>
-0.0000

> <Gold.Chemscore.Lipo.Weighted>
-10.6434

> <Gold.Chemscore.Internal_Hbond.Weighted>
0.0000

> <Gold.Chemscore.DEClash.Weighted>
0.5057

> <Gold.Chemscore.DEInternal.Weighted>
2.8758

> <Gold.Chemscore.Rot.Weighted>
3.2107

> <Gold.Chemscore.Internal.Correction.Weighted>
   9.000000E+99

> <Gold.Protein.RotatedTorsions>
[ 6907 6896 6895 6894 ] final   -5.46 input  -60.11 | X-H torsion
[ 7974 7965 7964 7962 ] final  -61.90 input  175.53 | X-H torsion
[ 8008 7997 7996 7995 ] final  -22.84 input   59.86 | X-H torsion
[ 10167 10162 10161 10158 ] final -125.19 input  -65.29 | X-H torsion
[ 10718 10713 10712 10709 ] final -105.94 input   66.30 | X-H torsion
[ 10763 10752 10751 10750 ] final  -51.18 input  -60.55 | X-H torsion
[ 11005 11000 10999 10996 ] final  -14.80 input  -57.11 | X-H torsion

> <Gold.Protein.ActiveResidues>
 VAL166  LYS551  ARG553  GLY616  TRP617  ASP618  TYR619  PRO620  LYS621  CYS622 
 ASP623  PHE694  ASN695  SER759  ASP760  ASP761  ALA762  ILE779  LEU786  VAL792 
 PHE793  MET794  SER795  GLU796  ALA797  LYS798  CYS799  TRP800  GLU811  SER814 

> <Gold.Protein.RotatedAtoms>
  151.4812  135.1052  159.9777 H   0  0  0  0  0  0  0  0  0  0  0  0  # atno 6907 bound_to 6896
  152.4778  133.8177  159.7047 H   0  0  0  0  0  0  0  0  0  0  0  0  # atno 6908 bound_to 6896
  150.8828  133.7287  159.2953 H   0  0  0  0  0  0  0  0  0  0  0  0  # atno 6909 bound_to 6896
  145.7978  140.8672  143.0247 H   0  0  0  0  0  0  0  0  0  0  0  0  # atno 7974 bound_to 7965
  154.4620  140.1997  156.0219 H   0  0  0  0  0  0  0  0  0  0  0  0  # atno 8008 bound_to 7997
  156.0857  140.3265  155.7722 H   0  0  0  0  0  0  0  0  0  0  0  0  # atno 8009 bound_to 7997
  155.5038  140.0556  157.2925 H   0  0  0  0  0  0  0  0  0  0  0  0  # atno 8010 bound_to 7997
  139.9848  143.5704  152.2365 H   0  0  0  0  0  0  0  0  0  0  0  0  # atno 10167 bound_to 10162
  156.0368  130.5588  150.7610 H   0  0  0  0  0  0  0  0  0  0  0  0  # atno 10718 bound_to 10713
  154.1224  135.6532  153.4905 H   0  0  0  0  0  0  0  0  0  0  0  0  # atno 10763 bound_to 10752
  153.0221  135.5273  154.7083 H   0  0  0  0  0  0  0  0  0  0  0  0  # atno 10764 bound_to 10752
  154.6295  135.2974  155.0204 H   0  0  0  0  0  0  0  0  0  0  0  0  # atno 10765 bound_to 10752
  140.7901  133.8294  155.9372 H   0  0  0  0  0  0  0  0  0  0  0  0  # atno 11005 bound_to 11000
  144.6773  140.0216  143.7483 LP  0  0  0  0  0  0  0  0  0  0  0  0  # atno 17320 bound_to 7965
  145.9909  139.3014  143.0985 LP  0  0  0  0  0  0  0  0  0  0  0  0  # atno 17321 bound_to 7965
  139.6383  144.7652  151.2391 LP  0  0  0  0  0  0  0  0  0  0  0  0  # atno 17342 bound_to 10162
  140.7476  143.6360  150.8379 LP  0  0  0  0  0  0  0  0  0  0  0  0  # atno 17343 bound_to 10162
  157.5129  131.0926  151.0175 LP  0  0  0  0  0  0  0  0  0  0  0  0  # atno 17370 bound_to 10713
  157.0526  130.5793  149.5373 LP  0  0  0  0  0  0  0  0  0  0  0  0  # atno 17371 bound_to 10713
  140.9398  134.1916  157.4806 LP  0  0  0  0  0  0  0  0  0  0  0  0  # atno 17394 bound_to 11000
  139.8732  134.9867  156.5336 LP  0  0  0  0  0  0  0  0  0  0  0  0  # atno 17395 bound_to 11000

$$$$
