AV-unprocessed.smi:2060|AV-procd|sdf|8357|dock5
  -GOLD-   2272011 23D 1   1.00000     0.00000
 Structure written by MMmdl.
 46 47  0  0  0  0  0  0  0  0  2 V2000
  145.2429  141.9891  157.2388 C   0  0  0  0  0  0  0  0  0  0  0  0
  145.7476  142.4128  155.8474 C   0  0  0  0  0  0  0  0  0  0  0  0
  146.9264  141.5692  155.2711 C   0  0  2  0  0  0  0  0  0  0  0  0
  147.0664  141.9383  153.7706 C   0  0  0  0  0  0  0  0  0  0  0  0
  146.5833  140.0524  155.4083 C   0  0  0  0  0  0  0  0  0  0  0  0
  145.2458  139.7037  154.9292 N   0  0  0  0  0  0  0  0  0  0  0  0
  144.3576  138.9390  155.5814 C   0  0  0  0  0  0  0  0  0  0  0  0
  144.5810  138.4196  156.6751 O   0  0  0  0  0  0  0  0  0  0  0  0
  143.2142  138.8186  154.8859 N   0  0  0  0  0  0  0  0  0  0  0  0
  142.0576  138.0811  155.2455 C   0  0  0  0  0  0  0  0  0  0  0  0
  140.8526  138.2101  154.5054 C   0  0  0  0  0  0  0  0  0  0  0  0
  140.0016  137.3587  155.1522 C   0  0  0  0  0  0  0  0  0  0  0  0
  138.5759  136.9864  154.9276 C   0  0  0  0  0  0  0  0  0  0  0  0
  140.6351  136.7583  156.1962 O   0  0  0  0  0  0  0  0  0  0  0  0
  141.9535  137.2257  156.2511 N   0  0  0  0  0  0  0  0  0  0  0  0
  148.2073  141.8926  156.0006 N   0  3  0  0  0  0  0  0  0  0  0  0
  148.2125  141.6118  157.4647 C   0  0  0  0  0  0  0  0  0  0  0  0
  149.4860  142.1743  158.1166 C   0  0  0  0  0  0  0  0  0  0  0  0
  150.6296  141.6035  157.4967 O   0  0  0  0  0  0  0  0  0  0  0  0
  150.6941  141.9265  156.1149 C   0  0  0  0  0  0  0  0  0  0  0  0
  149.4602  141.3634  155.3896 C   0  0  0  0  0  0  0  0  0  0  0  0
  144.4236  142.6338  157.5572 H   0  0  0  0  0  0  0  0  0  0  0  0
  146.0242  142.0651  157.9945 H   0  0  0  0  0  0  0  0  0  0  0  0
  144.8683  140.9657  157.2424 H   0  0  0  0  0  0  0  0  0  0  0  0
  144.9075  142.4195  155.1535 H   0  0  0  0  0  0  0  0  0  0  0  0
  146.0478  143.4591  155.9148 H   0  0  0  0  0  0  0  0  0  0  0  0
  146.1012  141.9441  153.2632 H   0  0  0  0  0  0  0  0  0  0  0  0
  147.6903  141.2263  153.2301 H   0  0  0  0  0  0  0  0  0  0  0  0
  147.5047  142.9272  153.6352 H   0  0  0  0  0  0  0  0  0  0  0  0
  147.3259  139.4354  154.9018 H   0  0  0  0  0  0  0  0  0  0  0  0
  146.6117  139.7488  156.4540 H   0  0  0  0  0  0  0  0  0  0  0  0
  144.9728  140.0852  154.0353 H   0  0  0  0  0  0  0  0  0  0  0  0
  143.1636  139.3070  154.0040 H   0  0  0  0  0  0  0  0  0  0  0  0
  140.6431  138.8251  153.6428 H   0  0  0  0  0  0  0  0  0  0  0  0
  138.0507  137.7712  154.3831 H   0  0  0  0  0  0  0  0  0  0  0  0
  138.0598  136.8307  155.8753 H   0  0  0  0  0  0  0  0  0  0  0  0
  138.5047  136.0662  154.3477 H   0  0  0  0  0  0  0  0  0  0  0  0
  147.3557  142.0603  157.9629 H   0  0  0  0  0  0  0  0  0  0  0  0
  148.1642  140.5378  157.6455 H   0  0  0  0  0  0  0  0  0  0  0  0
  149.5164  143.2625  158.0403 H   0  0  0  0  0  0  0  0  0  0  0  0
  149.5030  141.9290  159.1787 H   0  0  0  0  0  0  0  0  0  0  0  0
  150.7630  143.0076  155.9835 H   0  0  0  0  0  0  0  0  0  0  0  0
  151.6039  141.4969  155.6952 H   0  0  0  0  0  0  0  0  0  0  0  0
  149.4756  140.2746  155.4407 H   0  0  0  0  0  0  0  0  0  0  0  0
  149.5449  141.6374  154.3399 H   0  0  0  0  0  0  0  0  0  0  0  0
  148.2882  142.8966  155.9257 H   0  0  0  0  0  0  0  0  0  0  0  0
  1  2  1  0  0  0  0
  1 22  1  0  0  0  0
  1 23  1  0  0  0  0
  1 24  1  0  0  0  0
  2  3  1  0  0  0  0
  2 25  1  0  0  0  0
  2 26  1  0  0  0  0
  3  4  1  0  0  0  0
  3  5  1  0  0  0  0
  3 16  1  0  0  0  0
  4 27  1  0  0  0  0
  4 28  1  0  0  0  0
  4 29  1  0  0  0  0
  5  6  1  0  0  0  0
  5 30  1  0  0  0  0
  5 31  1  0  0  0  0
  6  7  1  0  0  0  0
  6 32  1  0  0  0  0
  7  8  2  0  0  0  0
  7  9  1  0  0  0  0
  9 10  1  0  0  0  0
  9 33  1  0  0  0  0
 10 15  2  0  0  0  0
 10 11  1  0  0  0  0
 11 12  2  0  0  0  0
 11 34  1  0  0  0  0
 12 13  1  0  0  0  0
 12 14  1  0  0  0  0
 13 35  1  0  0  0  0
 13 36  1  0  0  0  0
 13 37  1  0  0  0  0
 14 15  1  0  0  0  0
 16 21  1  0  0  0  0
 16 17  1  0  0  0  0
 16 46  1  0  0  0  0
 17 18  1  0  0  0  0
 17 38  1  0  0  0  0
 17 39  1  0  0  0  0
 18 19  1  0  0  0  0
 18 40  1  0  0  0  0
 18 41  1  0  0  0  0
 19 20  1  0  0  0  0
 20 21  1  0  0  0  0
 20 42  1  0  0  0  0
 20 43  1  0  0  0  0
 21 44  1  0  0  0  0
 21 45  1  0  0  0  0
M  CHG  1  16   1
M  END
> <s_m_source_file>
AV-unprocessed.smi

> <i_m_source_file_index>
2060

> <i_lp_mmshare_version>
43012

> <i_f3d_flags>
0

> <s_epik_input>
W0NIMl0xW0NIMl1PW0NIMl1bQ0gyXU4xW0NAQF0oW0NIM10pKFtDSDJdW0NIM10pW0NIMl1bTkhdQyg9TylbTkhdYzJbY0hdYyhbQ0gzXSlvbjI=

> <s_epik_cmdline>
J2VwaWtfcHl0aG9uJywgJy1waCcsICc3LjAnLCAnLXRuJywgJzgnLCAnLW1hJywgJzIwMCcsICctbWV0YWxfYmluZGluZycsICctaW1hZScsICc8aW5maWxlLm1hZT4nLCAnLW9tYWUnLCAnPG91dGZpbGUubWFlPic=

> <r_epik_Ionization_Penalty>
0.563843

> <r_epik_Ionization_Penalty_Charging>
0.563819

> <r_epik_Ionization_Penalty_Neutral>
2.4442e-05

> <r_epik_State_Penalty>
0.575199

> <r_epik_Charging_Adjusted_Penalty>
1.13902

> <i_epik_Tot_Q>
1

> <i_epik_Tot_abs_Q>
1

> <r_epik_Metal_State_Penalty>
0.577669

> <b_epik_Metal_Only>
0

> <s_lp_Force_Field>
OPLS_2005

> <r_lp_Energy>
25.7644

> <b_lp_Chiralities_Consistent>
1

> <s_lp_Variant>
AV-unprocessed.smi:2060-4

> <Gold.Version>
5.8.1

> <Gold.Id.Protein>
6NUR|6NUR_protein|mol2

> <Gold.PLP.Fitness>
40.4553

> <Gold.PLP.PLP>
-27.6755

> <Gold.PLP.part.hbond>
-4.0000

> <Gold.PLP.part.metal>
0.0000

> <Gold.PLP.part.buried>
-6.0330

> <Gold.PLP.part.nonpolar>
-18.3665

> <Gold.PLP.part.repulsive>
0.1214

> <Gold.PLP.ligand.clash>
0.0000

> <Gold.PLP.ligand.torsion>
0.3677

> <Gold.PLP.Chemscore.Hbond>
4.4234

> <Gold.PLP.Chemscore.CHOScore>
0.0000

> <Gold.PLP.Chemscore.Metal>
0.0000

> <Gold.Chemscore.Hbonds>
donor molecule, donor type, donor heavy atom, donor atom, acceptor molecule, acceptor atom, score
      L1  H     6    32       P1 10175  0.93
      L1  H     9    33       P1 10175  1.00
      L1  H    16    46       P1  8028  2.00
      P1  H 11000 11005       L1    14  0.53

> <Gold.PLP.Chemscore.Internal.Correction>
0.2450

> <Gold.Rescore>
     Score         DG    S(hbond)    S(metal)    S(lipo)     H(rot)  DE(clash)    DE(int)     intcor
     15.75     -18.85       3.37        0.00      56.60       1.77       0.57       2.53       ----

> <Gold.Chemscore.Fitness>
15.7459

> <Gold.Chemscore.DG>
-18.8482

> <Gold.Chemscore.ZeroCoef>
-5.4800

> <Gold.Chemscore.Hbond>
3.3742

> <Gold.Chemscore.Metal>
0.0000

> <Gold.Chemscore.Lipo>
56.5958

> <Gold.Chemscore.Internal_Hbond>
0.0000

> <Gold.Chemscore.DEClash>
0.5742

> <Gold.Chemscore.DEInternal>
2.5280

> <Gold.Chemscore.Rot>
1.7670

> <Gold.Chemscore.Internal.Correction>
   9.000000E+99

> <Gold.Chemscore.Hbonds>
donor molecule, donor type, donor heavy atom, donor atom, acceptor molecule, acceptor atom, score
      L1  H     6    32       P1 10175  0.87
      L1  H     9    33       P1 10175  0.99
      L1  H    16    46       P1  8028  0.92
      P1  H 11000 11005       L1    14  0.28

> <Gold.Chemscore.Hbond.Weighted>
-11.2700

> <Gold.Chemscore.Metal.Weighted>
-0.0000

> <Gold.Chemscore.Lipo.Weighted>
-6.6217

> <Gold.Chemscore.Internal_Hbond.Weighted>
0.0000

> <Gold.Chemscore.DEClash.Weighted>
0.5742

> <Gold.Chemscore.DEInternal.Weighted>
2.5280

> <Gold.Chemscore.Rot.Weighted>
4.5235

> <Gold.Chemscore.Internal.Correction.Weighted>
   9.000000E+99

> <Gold.Protein.RotatedTorsions>
[ 6907 6896 6895 6894 ] final -176.41 input  -60.11 | X-H torsion
[ 7974 7965 7964 7962 ] final  -28.57 input  175.53 | X-H torsion
[ 8008 7997 7996 7995 ] final  135.12 input   59.86 | X-H torsion
[ 10167 10162 10161 10158 ] final  -63.58 input  -65.29 | X-H torsion
[ 10718 10713 10712 10709 ] final  -74.08 input   66.30 | X-H torsion
[ 10763 10752 10751 10750 ] final -160.13 input  -60.55 | X-H torsion
[ 11005 11000 10999 10996 ] final   88.79 input  -57.11 | X-H torsion

> <Gold.Protein.ActiveResidues>
 VAL166  LYS551  ARG553  GLY616  TRP617  ASP618  TYR619  PRO620  LYS621  CYS622 
 ASP623  PHE694  ASN695  SER759  ASP760  ASP761  ALA762  ILE779  LEU786  VAL792 
 PHE793  MET794  SER795  GLU796  ALA797  LYS798  CYS799  TRP800  GLU811  SER814 

> <Gold.Protein.RotatedAtoms>
  151.6044  133.3353  159.3053 H   0  0  0  0  0  0  0  0  0  0  0  0  # atno 6907 bound_to 6896
  150.8190  134.7391  159.6767 H   0  0  0  0  0  0  0  0  0  0  0  0  # atno 6908 bound_to 6896
  152.4285  134.5829  160.0004 H   0  0  0  0  0  0  0  0  0  0  0  0  # atno 6909 bound_to 6896
  146.1279  140.5299  142.8706 H   0  0  0  0  0  0  0  0  0  0  0  0  # atno 7974 bound_to 7965
  156.3002  140.2479  156.3529 H   0  0  0  0  0  0  0  0  0  0  0  0  # atno 8008 bound_to 7997
  154.8948  140.0408  157.1879 H   0  0  0  0  0  0  0  0  0  0  0  0  # atno 8009 bound_to 7997
  154.8560  140.2913  155.5572 H   0  0  0  0  0  0  0  0  0  0  0  0  # atno 8010 bound_to 7997
  140.5861  143.2334  151.6240 H   0  0  0  0  0  0  0  0  0  0  0  0  # atno 10167 bound_to 10162
  156.0256  130.4408  150.2838 H   0  0  0  0  0  0  0  0  0  0  0  0  # atno 10718 bound_to 10713
  154.7417  135.3070  154.8717 H   0  0  0  0  0  0  0  0  0  0  0  0  # atno 10763 bound_to 10752
  153.9530  135.6762  153.4748 H   0  0  0  0  0  0  0  0  0  0  0  0  # atno 10764 bound_to 10752
  153.1015  135.4909  154.8800 H   0  0  0  0  0  0  0  0  0  0  0  0  # atno 10765 bound_to 10752
  139.8889  134.8510  156.3051 H   0  0  0  0  0  0  0  0  0  0  0  0  # atno 11005 bound_to 11000
  144.7660  140.5532  143.6702 LP  0  0  0  0  0  0  0  0  0  0  0  0  # atno 17320 bound_to 7965
  145.5325  139.1475  143.3491 LP  0  0  0  0  0  0  0  0  0  0  0  0  # atno 17321 bound_to 7965
  139.5198  144.3242  152.0884 LP  0  0  0  0  0  0  0  0  0  0  0  0  # atno 17342 bound_to 10162
  140.2399  144.4280  150.6264 LP  0  0  0  0  0  0  0  0  0  0  0  0  # atno 17343 bound_to 10162
  157.0941  131.0178  151.3110 LP  0  0  0  0  0  0  0  0  0  0  0  0  # atno 17370 bound_to 10713
  157.4831  130.7777  149.7433 LP  0  0  0  0  0  0  0  0  0  0  0  0  # atno 17371 bound_to 10713
  140.9888  133.7222  156.0782 LP  0  0  0  0  0  0  0  0  0  0  0  0  # atno 17394 bound_to 11000
  140.7653  134.3893  157.5518 LP  0  0  0  0  0  0  0  0  0  0  0  0  # atno 17395 bound_to 11000

$$$$
