AV-unprocessed.smi:1419|AV-procd|sdf|5785|dock6
  -GOLD-   22720 5433D 1   1.00000     0.00000
 Structure written by MMmdl.
 41 42  0  0  0  0  0  0  0  0  1 V2000
  149.0662  140.0102  157.2017 C   0  0  0  0  0  0  0  0  0  0  0  0
  150.3969  140.2025  156.4560 C   0  0  1  0  0  0  0  0  0  0  0  0
  150.2180  140.7727  155.0315 C   0  0  0  0  0  0  0  0  0  0  0  0
  148.8805  140.5682  154.5085 N   0  0  0  0  0  0  0  0  0  0  0  0
  147.9295  141.5409  154.2290 C   0  0  0  0  0  0  0  0  0  0  0  0
  146.8205  140.8799  153.7513 C   0  0  0  0  0  0  0  0  0  0  0  0
  147.0669  139.5092  153.7242 N   0  0  0  0  0  0  0  0  0  0  0  0
  148.3069  139.4014  154.1838 C   0  0  0  0  0  0  0  0  0  0  0  0
  151.2598  141.0770  157.2440 N   0  0  0  0  0  0  0  0  0  0  0  0
  150.9971  142.3548  157.5669 C   0  0  0  0  0  0  0  0  0  0  0  0
  149.9654  142.9233  157.2068 O   0  0  0  0  0  0  0  0  0  0  0  0
  151.9517  142.9565  158.3193 N   0  0  0  0  0  0  0  0  0  0  0  0
  152.8850  142.3084  159.2502 C   0  0  0  0  0  0  0  0  0  0  0  0
  152.4875  142.7051  160.6849 C   0  0  1  0  0  0  0  0  0  0  0  0
  153.4505  142.1303  161.7293 C   0  0  0  0  0  0  0  0  0  0  0  0
  152.5032  144.1299  160.8076 O   0  0  0  0  0  0  0  0  0  0  0  0
  151.6997  144.8445  159.8625 C   0  0  2  0  0  0  0  0  0  0  0  0
  150.2003  144.7117  160.1869 C   0  0  0  0  0  0  0  0  0  0  0  0
  152.0717  144.4123  158.4280 C   0  0  0  0  0  0  0  0  0  0  0  0
  148.4246  139.2878  156.6966 H   0  0  0  0  0  0  0  0  0  0  0  0
  148.5160  140.9484  157.2781 H   0  0  0  0  0  0  0  0  0  0  0  0
  149.2341  139.6392  158.2133 H   0  0  0  0  0  0  0  0  0  0  0  0
  150.8739  139.2232  156.3832 H   0  0  0  0  0  0  0  0  0  0  0  0
  150.4326  141.8423  155.0225 H   0  0  0  0  0  0  0  0  0  0  0  0
  150.9230  140.3082  154.3404 H   0  0  0  0  0  0  0  0  0  0  0  0
  148.1140  142.5927  154.3913 H   0  0  0  0  0  0  0  0  0  0  0  0
  145.8724  141.2822  153.4265 H   0  0  0  0  0  0  0  0  0  0  0  0
  148.8095  138.4510  154.2897 H   0  0  0  0  0  0  0  0  0  0  0  0
  152.1265  140.6790  157.5751 H   0  0  0  0  0  0  0  0  0  0  0  0
  152.9174  141.2227  159.1592 H   0  0  0  0  0  0  0  0  0  0  0  0
  153.8992  142.6484  159.0339 H   0  0  0  0  0  0  0  0  0  0  0  0
  151.4869  142.3309  160.9036 H   0  0  0  0  0  0  0  0  0  0  0  0
  153.4691  141.0410  161.6895 H   0  0  0  0  0  0  0  0  0  0  0  0
  153.1500  142.4209  162.7362 H   0  0  0  0  0  0  0  0  0  0  0  0
  154.4676  142.4890  161.5687 H   0  0  0  0  0  0  0  0  0  0  0  0
  151.9596  145.8976  159.9731 H   0  0  0  0  0  0  0  0  0  0  0  0
  149.6042  145.3327  159.5177 H   0  0  0  0  0  0  0  0  0  0  0  0
  149.9946  145.0352  161.2073 H   0  0  0  0  0  0  0  0  0  0  0  0
  149.8405  143.6884  160.0843 H   0  0  0  0  0  0  0  0  0  0  0  0
  153.1008  144.7008  158.2093 H   0  0  0  0  0  0  0  0  0  0  0  0
  151.4560  144.9465  157.7029 H   0  0  0  0  0  0  0  0  0  0  0  0
  1  2  1  0  0  0  0
  1 20  1  0  0  0  0
  1 21  1  0  0  0  0
  1 22  1  0  0  0  0
  2  3  1  0  0  0  0
  2  9  1  0  0  0  0
  2 23  1  0  0  0  0
  3  4  1  0  0  0  0
  3 24  1  0  0  0  0
  3 25  1  0  0  0  0
  4  8  1  0  0  0  0
  4  5  1  0  0  0  0
  5  6  2  0  0  0  0
  5 26  1  0  0  0  0
  6  7  1  0  0  0  0
  6 27  1  0  0  0  0
  7  8  2  0  0  0  0
  8 28  1  0  0  0  0
  9 10  1  0  0  0  0
  9 29  1  0  0  0  0
 10 11  2  0  0  0  0
 10 12  1  0  0  0  0
 12 19  1  0  0  0  0
 12 13  1  0  0  0  0
 13 14  1  0  0  0  0
 13 30  1  0  0  0  0
 13 31  1  0  0  0  0
 14 15  1  0  0  0  0
 14 16  1  0  0  0  0
 14 32  1  0  0  0  0
 15 33  1  0  0  0  0
 15 34  1  0  0  0  0
 15 35  1  0  0  0  0
 16 17  1  0  0  0  0
 17 18  1  0  0  0  0
 17 19  1  0  0  0  0
 17 36  1  0  0  0  0
 18 37  1  0  0  0  0
 18 38  1  0  0  0  0
 18 39  1  0  0  0  0
 19 40  1  0  0  0  0
 19 41  1  0  0  0  0
M  END
> <s_m_source_file>
AV-unprocessed.smi

> <i_m_source_file_index>
1419

> <i_lp_mmshare_version>
43012

> <i_f3d_flags>
0

> <s_epik_input>
W2NIXTFuW2NIXVtjSF1uMVtDSDJdW0NAQEhdKFtDSDNdKVtOSF1DKD1PKU4yW0NIMl1bQ0BASF0oW0NIM10pT1tDQEBIXShbQ0gzXSlbQ0gyXTI=

> <s_epik_cmdline>
J2VwaWtfcHl0aG9uJywgJy1waCcsICc3LjAnLCAnLXRuJywgJzgnLCAnLW1hJywgJzIwMCcsICctbWV0YWxfYmluZGluZycsICctaW1hZScsICc8aW5maWxlLm1hZT4nLCAnLW9tYWUnLCAnPG91dGZpbGUubWFlPic=

> <r_lp_tautomer_probability>
1

> <r_epik_Ionization_Penalty>
0.625124

> <r_epik_Ionization_Penalty_Charging>
0.625093

> <r_epik_Ionization_Penalty_Neutral>
3.17415e-05

> <r_epik_State_Penalty>
0.641455

> <r_epik_Charging_Adjusted_Penalty>
1.26655

> <i_epik_Tot_Q>
0

> <i_epik_Tot_abs_Q>
0

> <r_epik_Metal_State_Penalty>
0.307717

> <b_epik_Metal_Only>
0

> <s_lp_Force_Field>
OPLS_2005

> <r_lp_Energy>
31.3243

> <b_lp_Chiralities_Consistent>
1

> <s_lp_Variant>
AV-unprocessed.smi:1419-12

> <Gold.Version>
5.8.1

> <Gold.Id.Protein>
6NUR|6NUR_protein|mol2

> <Gold.PLP.Fitness>
42.8887

> <Gold.PLP.PLP>
-38.5214

> <Gold.PLP.part.hbond>
0.0000

> <Gold.PLP.part.metal>
0.0000

> <Gold.PLP.part.buried>
-3.6625

> <Gold.PLP.part.nonpolar>
-38.7084

> <Gold.PLP.part.repulsive>
3.8866

> <Gold.PLP.ligand.clash>
0.0000

> <Gold.PLP.ligand.torsion>
0.8302

> <Gold.PLP.Chemscore.Hbond>
0.0000

> <Gold.PLP.Chemscore.CHOScore>
1.9976

> <Gold.PLP.Chemscore.Metal>
0.0000

> <Gold.Chemscore.Hbonds>
donor molecule, donor type, donor heavy atom, donor atom, acceptor molecule, acceptor atom, score
      L1  C     5    26       P1  8028  0.92
      L1  C     6    27       P1 10175  1.00

> <Gold.PLP.Chemscore.Internal.Correction>
0.0350

> <Gold.Rescore>
     Score         DG    S(hbond)    S(metal)    S(lipo)     H(rot)  DE(clash)    DE(int)     intcor
      9.10     -12.49       0.00        0.00      94.44       1.58       1.54       1.85       ----

> <Gold.Chemscore.Fitness>
9.1014

> <Gold.Chemscore.DG>
-12.4926

> <Gold.Chemscore.ZeroCoef>
-5.4800

> <Gold.Chemscore.Hbond>
0.0000

> <Gold.Chemscore.Metal>
0.0000

> <Gold.Chemscore.Lipo>
94.4406

> <Gold.Chemscore.Internal_Hbond>
0.0000

> <Gold.Chemscore.DEClash>
1.5407

> <Gold.Chemscore.DEInternal>
1.8505

> <Gold.Chemscore.Rot>
1.5769

> <Gold.Chemscore.Internal.Correction>
   9.000000E+99

> <Gold.Chemscore.Hbond.Weighted>
-0.0000

> <Gold.Chemscore.Metal.Weighted>
-0.0000

> <Gold.Chemscore.Lipo.Weighted>
-11.0495

> <Gold.Chemscore.Internal_Hbond.Weighted>
0.0000

> <Gold.Chemscore.DEClash.Weighted>
1.5407

> <Gold.Chemscore.DEInternal.Weighted>
1.8505

> <Gold.Chemscore.Rot.Weighted>
4.0369

> <Gold.Chemscore.Internal.Correction.Weighted>
   9.000000E+99

> <Gold.Protein.RotatedTorsions>
[ 6907 6896 6895 6894 ] final   61.76 input  -60.11 | X-H torsion
[ 7974 7965 7964 7962 ] final  118.70 input  175.53 | X-H torsion
[ 8008 7997 7996 7995 ] final  164.34 input   59.86 | X-H torsion
[ 10167 10162 10161 10158 ] final   45.47 input  -65.29 | X-H torsion
[ 10718 10713 10712 10709 ] final  -27.54 input   66.30 | X-H torsion
[ 10763 10752 10751 10750 ] final -155.45 input  -60.55 | X-H torsion
[ 11005 11000 10999 10996 ] final   12.01 input  -57.11 | X-H torsion

> <Gold.Protein.ActiveResidues>
 VAL166  LYS551  ARG553  GLY616  TRP617  ASP618  TYR619  PRO620  LYS621  CYS622 
 ASP623  PHE694  ASN695  SER759  ASP760  ASP761  ALA762  ILE779  LEU786  VAL792 
 PHE793  MET794  SER795  GLU796  ALA797  LYS798  CYS799  TRP800  GLU811  SER814 

> <Gold.Protein.RotatedAtoms>
  152.4116  134.6114  160.0026 H   0  0  0  0  0  0  0  0  0  0  0  0  # atno 6907 bound_to 6896
  151.6290  133.3328  159.3112 H   0  0  0  0  0  0  0  0  0  0  0  0  # atno 6908 bound_to 6896
  150.8007  134.7138  159.6664 H   0  0  0  0  0  0  0  0  0  0  0  0  # atno 6909 bound_to 6896
  145.1521  139.3204  143.4561 H   0  0  0  0  0  0  0  0  0  0  0  0  # atno 7974 bound_to 7965
  156.1887  140.1699  156.8134 H   0  0  0  0  0  0  0  0  0  0  0  0  # atno 8008 bound_to 7997
  154.5445  140.0730  156.8599 H   0  0  0  0  0  0  0  0  0  0  0  0  # atno 8009 bound_to 7997
  155.3148  140.3370  155.4245 H   0  0  0  0  0  0  0  0  0  0  0  0  # atno 8010 bound_to 7997
  140.3238  144.2673  150.6178 H   0  0  0  0  0  0  0  0  0  0  0  0  # atno 10167 bound_to 10162
  156.4368  130.4456  149.7080 H   0  0  0  0  0  0  0  0  0  0  0  0  # atno 10718 bound_to 10713
  154.7786  135.3167  154.8039 H   0  0  0  0  0  0  0  0  0  0  0  0  # atno 10763 bound_to 10752
  153.8756  135.6840  153.4775 H   0  0  0  0  0  0  0  0  0  0  0  0  # atno 10764 bound_to 10752
  153.1416  135.4737  154.9441 H   0  0  0  0  0  0  0  0  0  0  0  0  # atno 10765 bound_to 10752
  140.4968  134.0785  155.7784 H   0  0  0  0  0  0  0  0  0  0  0  0  # atno 11005 bound_to 11000
  146.3493  140.1599  142.8591 LP  0  0  0  0  0  0  0  0  0  0  0  0  # atno 17320 bound_to 7965
  145.0420  140.8952  143.5047 LP  0  0  0  0  0  0  0  0  0  0  0  0  # atno 17321 bound_to 7965
  140.5460  143.2215  151.8007 LP  0  0  0  0  0  0  0  0  0  0  0  0  # atno 17342 bound_to 10162
  139.4869  144.4539  151.9621 LP  0  0  0  0  0  0  0  0  0  0  0  0  # atno 17343 bound_to 10162
  156.3960  130.7651  151.2655 LP  0  0  0  0  0  0  0  0  0  0  0  0  # atno 17370 bound_to 10713
  157.7507  131.0254  150.3916 LP  0  0  0  0  0  0  0  0  0  0  0  0  # atno 17371 bound_to 10713
  141.1456  133.9061  157.2223 LP  0  0  0  0  0  0  0  0  0  0  0  0  # atno 17394 bound_to 11000
  139.9737  135.0120  156.9576 LP  0  0  0  0  0  0  0  0  0  0  0  0  # atno 17395 bound_to 11000

$$$$
