AV-unprocessed.smi:3048|AV-procd|sdf|11625|dock6
  -GOLD-   2272017 13D 1   1.00000     0.00000
 Structure written by MMmdl.
 38 39  0  0  0  0  0  0  0  0  2 V2000
  148.2448  137.1748  155.2112 C   0  0  0  0  0  0  0  0  0  0  0  0
  149.2457  138.2918  155.1421 C   0  0  0  0  0  0  0  0  0  0  0  0
  150.2918  138.4714  154.1929 C   0  0  0  0  0  0  0  0  0  0  0  0
  150.9984  139.5691  154.4087 N   0  0  0  0  0  0  0  0  0  0  0  0
  150.4343  140.1236  155.5027 N   0  0  0  0  0  0  0  0  0  0  0  0
  150.9531  141.3742  156.0275 C   0  0  0  0  0  0  0  0  0  0  0  0
  150.2880  141.7584  157.3584 C   0  0  0  0  0  0  0  0  0  0  0  0
  150.2372  143.2235  157.5350 N   0  3  0  0  0  0  0  0  0  0  0  0
  151.5457  143.8951  157.4184 C   0  0  0  0  0  0  0  0  0  0  0  0
  152.2713  143.9195  158.7709 C   0  0  2  0  0  0  0  0  0  0  0  0
  152.6754  142.5061  159.2328 C   0  0  0  0  0  0  0  0  0  0  0  0
  153.3100  142.5551  160.6275 C   0  0  0  0  0  0  0  0  0  0  0  0
  152.3769  143.2893  161.5960 C   0  0  0  0  0  0  0  0  0  0  0  0
  151.9759  144.6558  161.0187 C   0  0  0  0  0  0  0  0  0  0  0  0
  151.3839  144.4845  159.7344 O   0  0  0  0  0  0  0  0  0  0  0  0
  149.3740  139.3740  155.9660 C   0  0  0  0  0  0  0  0  0  0  0  0
  148.3881  136.4506  154.4089 H   0  0  0  0  0  0  0  0  0  0  0  0
  147.2227  137.5450  155.1294 H   0  0  0  0  0  0  0  0  0  0  0  0
  148.3160  136.6292  156.1522 H   0  0  0  0  0  0  0  0  0  0  0  0
  150.5550  137.8408  153.3564 H   0  0  0  0  0  0  0  0  0  0  0  0
  152.0286  141.2619  156.1696 H   0  0  0  0  0  0  0  0  0  0  0  0
  150.8166  142.1613  155.2839 H   0  0  0  0  0  0  0  0  0  0  0  0
  149.2775  141.3492  157.3969 H   0  0  0  0  0  0  0  0  0  0  0  0
  150.8417  141.3209  158.1898 H   0  0  0  0  0  0  0  0  0  0  0  0
  149.6041  143.6137  156.8518 H   0  0  0  0  0  0  0  0  0  0  0  0
  152.1575  143.3821  156.6749 H   0  0  0  0  0  0  0  0  0  0  0  0
  151.3866  144.9130  157.0599 H   0  0  0  0  0  0  0  0  0  0  0  0
  153.1633  144.5435  158.6872 H   0  0  0  0  0  0  0  0  0  0  0  0
  151.7963  141.8606  159.2561 H   0  0  0  0  0  0  0  0  0  0  0  0
  153.3722  142.0595  158.5230 H   0  0  0  0  0  0  0  0  0  0  0  0
  153.5162  141.5469  160.9881 H   0  0  0  0  0  0  0  0  0  0  0  0
  154.2687  143.0728  160.5773 H   0  0  0  0  0  0  0  0  0  0  0  0
  151.4815  142.6906  161.7683 H   0  0  0  0  0  0  0  0  0  0  0  0
  152.8611  143.4151  162.5649 H   0  0  0  0  0  0  0  0  0  0  0  0
  151.2558  145.1432  161.6761 H   0  0  0  0  0  0  0  0  0  0  0  0
  152.8403  145.3177  160.9478 H   0  0  0  0  0  0  0  0  0  0  0  0
  148.8009  139.6714  156.8322 H   0  0  0  0  0  0  0  0  0  0  0  0
  149.8691  143.4139  158.4569 H   0  0  0  0  0  0  0  0  0  0  0  0
  1  2  1  0  0  0  0
  1 17  1  0  0  0  0
  1 18  1  0  0  0  0
  1 19  1  0  0  0  0
  2 16  2  0  0  0  0
  2  3  1  0  0  0  0
  3  4  2  0  0  0  0
  3 20  1  0  0  0  0
  4  5  1  0  0  0  0
  5  6  1  0  0  0  0
  5 16  1  0  0  0  0
  6  7  1  0  0  0  0
  6 21  1  0  0  0  0
  6 22  1  0  0  0  0
  7  8  1  0  0  0  0
  7 23  1  0  0  0  0
  7 24  1  0  0  0  0
  8  9  1  0  0  0  0
  8 25  1  0  0  0  0
  8 38  1  0  0  0  0
  9 10  1  0  0  0  0
  9 26  1  0  0  0  0
  9 27  1  0  0  0  0
 10 15  1  0  0  0  0
 10 11  1  0  0  0  0
 10 28  1  0  0  0  0
 11 12  1  0  0  0  0
 11 29  1  0  0  0  0
 11 30  1  0  0  0  0
 12 13  1  0  0  0  0
 12 31  1  0  0  0  0
 12 32  1  0  0  0  0
 13 14  1  0  0  0  0
 13 33  1  0  0  0  0
 13 34  1  0  0  0  0
 14 15  1  0  0  0  0
 14 35  1  0  0  0  0
 14 36  1  0  0  0  0
 16 37  1  0  0  0  0
M  CHG  1   8   1
M  END
> <s_m_source_file>
AV-unprocessed.smi

> <i_m_source_file_index>
3048

> <i_lp_mmshare_version>
43012

> <i_f3d_flags>
0

> <s_epik_input>
W0NIM11jMVtjSF1ubihbY0hdMSlbQ0gyXVtDSDJdW05IXVtDSDJdW0NAQEhdMltDSDJdW0NIMl1bQ0gyXVtDSDJdTzI=

> <s_epik_cmdline>
J2VwaWtfcHl0aG9uJywgJy1waCcsICc3LjAnLCAnLXRuJywgJzgnLCAnLW1hJywgJzIwMCcsICctbWV0YWxfYmluZGluZycsICctaW1hZScsICc8aW5maWxlLm1hZT4nLCAnLW9tYWUnLCAnPG91dGZpbGUubWFlPic=

> <r_lp_tautomer_probability>
1

> <r_epik_Ionization_Penalty>
0.0084937

> <r_epik_Ionization_Penalty_Charging>
0.00848754

> <r_epik_Ionization_Penalty_Neutral>
6.1613e-06

> <r_epik_State_Penalty>
0.00639836

> <r_epik_Charging_Adjusted_Penalty>
0.0148859

> <i_epik_Tot_Q>
1

> <i_epik_Tot_abs_Q>
1

> <r_epik_Metal_State_Penalty>
0.00642541

> <b_epik_Metal_Only>
0

> <s_lp_Force_Field>
OPLS_2005

> <r_lp_Energy>
10.6877

> <b_lp_Chiralities_Consistent>
1

> <s_lp_Variant>
AV-unprocessed.smi:3048-1

> <Gold.Version>
5.8.1

> <Gold.Id.Protein>
6NUR|6NUR_protein|mol2

> <Gold.PLP.Fitness>
48.9492

> <Gold.PLP.PLP>
-37.8063

> <Gold.PLP.part.hbond>
-2.0000

> <Gold.PLP.part.metal>
0.0000

> <Gold.PLP.part.buried>
-5.0345

> <Gold.PLP.part.nonpolar>
-31.3394

> <Gold.PLP.part.repulsive>
0.2197

> <Gold.PLP.ligand.clash>
0.0000

> <Gold.PLP.ligand.torsion>
0.4273

> <Gold.PLP.Chemscore.Hbond>
3.0000

> <Gold.PLP.Chemscore.CHOScore>
0.9919

> <Gold.PLP.Chemscore.Metal>
0.0000

> <Gold.Chemscore.Hbonds>
donor molecule, donor type, donor heavy atom, donor atom, acceptor molecule, acceptor atom, score
      L1  H     8    25       P1  8028  2.00
      P1  H  7989  7998       L1     4  1.00
      L1  C     3    20       P1  7948  0.47
      L1  C     3    20       P1  7949  0.36

> <Gold.PLP.Chemscore.Internal.Correction>
0.0218

> <Gold.Rescore>
     Score         DG    S(hbond)    S(metal)    S(lipo)     H(rot)  DE(clash)    DE(int)     intcor
     19.01     -19.54       1.78        0.00     104.62       1.61       0.09       0.45       ----

> <Gold.Chemscore.Fitness>
19.0122

> <Gold.Chemscore.DG>
-19.5439

> <Gold.Chemscore.ZeroCoef>
-5.4800

> <Gold.Chemscore.Hbond>
1.7835

> <Gold.Chemscore.Metal>
0.0000

> <Gold.Chemscore.Lipo>
104.6238

> <Gold.Chemscore.Internal_Hbond>
0.0000

> <Gold.Chemscore.DEClash>
0.0867

> <Gold.Chemscore.DEInternal>
0.4450

> <Gold.Chemscore.Rot>
1.6149

> <Gold.Chemscore.Internal.Correction>
   9.000000E+99

> <Gold.Chemscore.Hbonds>
donor molecule, donor type, donor heavy atom, donor atom, acceptor molecule, acceptor atom, score
      L1  H     8    25       P1  8028  0.97
      P1  H  7989  7998       L1     4  0.60

> <Gold.Chemscore.Hbond.Weighted>
-5.9570

> <Gold.Chemscore.Metal.Weighted>
-0.0000

> <Gold.Chemscore.Lipo.Weighted>
-12.2410

> <Gold.Chemscore.Internal_Hbond.Weighted>
0.0000

> <Gold.Chemscore.DEClash.Weighted>
0.0867

> <Gold.Chemscore.DEInternal.Weighted>
0.4450

> <Gold.Chemscore.Rot.Weighted>
4.1341

> <Gold.Chemscore.Internal.Correction.Weighted>
   9.000000E+99

> <Gold.Protein.RotatedTorsions>
[ 6907 6896 6895 6894 ] final    0.10 input  -60.11 | X-H torsion
[ 7974 7965 7964 7962 ] final  170.09 input  175.53 | X-H torsion
[ 8008 7997 7996 7995 ] final   75.66 input   59.86 | X-H torsion
[ 10167 10162 10161 10158 ] final   32.46 input  -65.29 | X-H torsion
[ 10718 10713 10712 10709 ] final  151.81 input   66.30 | X-H torsion
[ 10763 10752 10751 10750 ] final  -68.45 input  -60.55 | X-H torsion
[ 11005 11000 10999 10996 ] final   17.00 input  -57.11 | X-H torsion

> <Gold.Protein.ActiveResidues>
 VAL166  LYS551  ARG553  GLY616  TRP617  ASP618  TYR619  PRO620  LYS621  CYS622 
 ASP623  PHE694  ASN695  SER759  ASP760  ASP761  ALA762  ILE779  LEU786  VAL792 
 PHE793  MET794  SER795  GLU796  ALA797  LYS798  CYS799  TRP800  GLU811  SER814 

> <Gold.Protein.RotatedAtoms>
  151.5710  135.1062  159.9994 H   0  0  0  0  0  0  0  0  0  0  0  0  # atno 6907 bound_to 6896
  152.4401  133.7428  159.6661 H   0  0  0  0  0  0  0  0  0  0  0  0  # atno 6908 bound_to 6896
  150.8305  133.8030  159.3124 H   0  0  0  0  0  0  0  0  0  0  0  0  # atno 6909 bound_to 6896
  144.7334  139.9150  143.6417 H   0  0  0  0  0  0  0  0  0  0  0  0  # atno 7974 bound_to 7965
  155.8161  140.3471  155.5486 H   0  0  0  0  0  0  0  0  0  0  0  0  # atno 8008 bound_to 7997
  155.8390  140.0938  157.1766 H   0  0  0  0  0  0  0  0  0  0  0  0  # atno 8009 bound_to 7997
  154.4005  140.1398  156.3693 H   0  0  0  0  0  0  0  0  0  0  0  0  # atno 8010 bound_to 7997
  140.4497  144.1067  150.6189 H   0  0  0  0  0  0  0  0  0  0  0  0  # atno 10167 bound_to 10162
  157.2659  131.0807  151.1634 H   0  0  0  0  0  0  0  0  0  0  0  0  # atno 10718 bound_to 10713
  154.3892  135.6056  153.5833 H   0  0  0  0  0  0  0  0  0  0  0  0  # atno 10763 bound_to 10752
  152.9787  135.5879  154.4318 H   0  0  0  0  0  0  0  0  0  0  0  0  # atno 10764 bound_to 10752
  154.4099  135.2844  155.2021 H   0  0  0  0  0  0  0  0  0  0  0  0  # atno 10765 bound_to 10752
  140.4408  134.1324  155.7690 H   0  0  0  0  0  0  0  0  0  0  0  0  # atno 11005 bound_to 11000
  146.0972  139.3965  143.0369 LP  0  0  0  0  0  0  0  0  0  0  0  0  # atno 17320 bound_to 7965
  145.7629  140.9928  143.1190 LP  0  0  0  0  0  0  0  0  0  0  0  0  # atno 17321 bound_to 7965
  140.4222  143.2606  151.9701 LP  0  0  0  0  0  0  0  0  0  0  0  0  # atno 17342 bound_to 10162
  139.4795  144.5820  151.7916 LP  0  0  0  0  0  0  0  0  0  0  0  0  # atno 17343 bound_to 10162
  157.3125  130.6897  149.6223 LP  0  0  0  0  0  0  0  0  0  0  0  0  # atno 17370 bound_to 10713
  155.9663  130.4359  150.5112 LP  0  0  0  0  0  0  0  0  0  0  0  0  # atno 17371 bound_to 10713
  141.1706  133.8616  157.1581 LP  0  0  0  0  0  0  0  0  0  0  0  0  # atno 17394 bound_to 11000
  140.0071  135.0004  157.0316 LP  0  0  0  0  0  0  0  0  0  0  0  0  # atno 17395 bound_to 11000

$$$$
