AV-unprocessed.smi:1740|AV-procd|sdf|7013|dock10
  -GOLD-   22720 8233D 1   1.00000     0.00000
 Structure written by MMmdl.
 51 53  0  0  0  0  0  0  0  0  3 V2000
  142.5809  132.5575  148.1650 N   0  5  0  0  0  0  0  0  0  0  0  0
  143.7262  132.3392  148.8416 C   0  0  0  0  0  0  0  0  0  0  0  0
  144.8435  132.1139  148.3828 O   0  0  0  0  0  0  0  0  0  0  0  0
  143.5267  132.3937  150.3603 C   0  0  0  0  0  0  0  0  0  0  0  0
  143.5648  133.7953  150.8516 N   0  3  2  0  0  0  0  0  0  0  0  0
  144.8191  134.4915  150.4682 C   0  0  0  0  0  0  0  0  0  0  0  0
  144.7793  135.9776  150.8682 C   0  0  0  0  0  0  0  0  0  0  0  0
  144.4933  136.1613  152.3709 C   0  0  2  0  0  0  0  0  0  0  0  0
  145.6210  135.7174  153.1891 N   0  0  0  0  0  0  0  0  0  0  0  0
  146.5801  136.5087  153.6898 C   0  0  0  0  0  0  0  0  0  0  0  0
  146.6033  137.7292  153.5350 O   0  0  0  0  0  0  0  0  0  0  0  0
  147.4841  135.7891  154.3750 N   0  0  0  0  0  0  0  0  0  0  0  0
  148.6373  136.2324  155.0851 C   0  0  0  0  0  0  0  0  0  0  0  0
  148.9174  137.6062  155.2917 C   0  0  0  0  0  0  0  0  0  0  0  0
  150.1054  137.9777  155.9445 C   0  0  0  0  0  0  0  0  0  0  0  0
  150.9845  136.9626  156.3554 C   0  0  0  0  0  0  0  0  0  0  0  0
  150.7401  135.6525  156.1556 N   0  0  0  0  0  0  0  0  0  0  0  0
  149.5912  135.2777  155.5414 C   0  0  0  0  0  0  0  0  0  0  0  0
  149.3793  133.8902  155.3725 N   0  0  0  0  0  0  0  0  0  0  0  0
  150.1965  132.9787  156.1684 C   0  0  0  0  0  0  0  0  0  0  0  0
  150.4979  131.7718  155.2733 C   0  0  0  0  0  0  0  0  0  0  0  0
  149.4037  131.8264  154.2117 C   0  0  0  0  0  0  0  0  0  0  0  0
  149.1929  133.3276  154.0391 C   0  0  0  0  0  0  0  0  0  0  0  0
  143.2188  135.3876  152.7483 C   0  0  0  0  0  0  0  0  0  0  0  0
  143.2881  133.9135  152.3089 C   0  0  0  0  0  0  0  0  0  0  0  0
  142.6383  132.8238  147.1744 H   0  0  0  0  0  0  0  0  0  0  0  0
  142.5861  131.9178  150.6422 H   0  0  0  0  0  0  0  0  0  0  0  0
  144.3223  131.8068  150.8227 H   0  0  0  0  0  0  0  0  0  0  0  0
  145.6704  133.9939  150.9353 H   0  0  0  0  0  0  0  0  0  0  0  0
  144.9635  134.4179  149.3898 H   0  0  0  0  0  0  0  0  0  0  0  0
  145.7159  136.4645  150.5933 H   0  0  0  0  0  0  0  0  0  0  0  0
  144.0000  136.4790  150.2928 H   0  0  0  0  0  0  0  0  0  0  0  0
  144.3198  137.2201  152.5722 H   0  0  0  0  0  0  0  0  0  0  0  0
  145.6806  134.7281  153.3809 H   0  0  0  0  0  0  0  0  0  0  0  0
  147.2817  134.8046  154.4695 H   0  0  0  0  0  0  0  0  0  0  0  0
  148.2586  138.3856  154.9430 H   0  0  0  0  0  0  0  0  0  0  0  0
  150.3424  139.0175  156.1141 H   0  0  0  0  0  0  0  0  0  0  0  0
  151.9115  137.2082  156.8519 H   0  0  0  0  0  0  0  0  0  0  0  0
  151.1138  133.4513  156.5222 H   0  0  0  0  0  0  0  0  0  0  0  0
  149.6226  132.6604  157.0389 H   0  0  0  0  0  0  0  0  0  0  0  0
  151.4722  131.9009  154.8002 H   0  0  0  0  0  0  0  0  0  0  0  0
  150.5135  130.8299  155.8219 H   0  0  0  0  0  0  0  0  0  0  0  0
  149.6817  131.3268  153.2833 H   0  0  0  0  0  0  0  0  0  0  0  0
  148.4923  131.3615  154.5904 H   0  0  0  0  0  0  0  0  0  0  0  0
  148.2012  133.5552  153.6472 H   0  0  0  0  0  0  0  0  0  0  0  0
  149.9355  133.7192  153.3425 H   0  0  0  0  0  0  0  0  0  0  0  0
  143.0416  135.4509  153.8226 H   0  0  0  0  0  0  0  0  0  0  0  0
  142.3586  135.8599  152.2715 H   0  0  0  0  0  0  0  0  0  0  0  0
  142.3422  133.4287  152.5520 H   0  0  0  0  0  0  0  0  0  0  0  0
  144.0613  133.3869  152.8704 H   0  0  0  0  0  0  0  0  0  0  0  0
  142.8141  134.2683  150.3673 H   0  0  0  0  0  0  0  0  0  0  0  0
  1  2  1  0  0  0  0
  1 26  1  0  0  0  0
  2  3  2  0  0  0  0
  2  4  1  0  0  0  0
  4  5  1  0  0  0  0
  4 27  1  0  0  0  0
  4 28  1  0  0  0  0
  5 25  1  0  0  0  0
  5  6  1  0  0  0  0
  5 51  1  0  0  0  0
  6  7  1  0  0  0  0
  6 29  1  0  0  0  0
  6 30  1  0  0  0  0
  7  8  1  0  0  0  0
  7 31  1  0  0  0  0
  7 32  1  0  0  0  0
  8  9  1  0  0  0  0
  8 24  1  0  0  0  0
  8 33  1  0  0  0  0
  9 10  1  0  0  0  0
  9 34  1  0  0  0  0
 10 11  2  0  0  0  0
 10 12  1  0  0  0  0
 12 13  1  0  0  0  0
 12 35  1  0  0  0  0
 13 18  1  0  0  0  0
 13 14  2  0  0  0  0
 14 15  1  0  0  0  0
 14 36  1  0  0  0  0
 15 16  2  0  0  0  0
 15 37  1  0  0  0  0
 16 17  1  0  0  0  0
 16 38  1  0  0  0  0
 17 18  2  0  0  0  0
 18 19  1  0  0  0  0
 19 23  1  0  0  0  0
 19 20  1  0  0  0  0
 20 21  1  0  0  0  0
 20 39  1  0  0  0  0
 20 40  1  0  0  0  0
 21 22  1  0  0  0  0
 21 41  1  0  0  0  0
 21 42  1  0  0  0  0
 22 23  1  0  0  0  0
 22 43  1  0  0  0  0
 22 44  1  0  0  0  0
 23 45  1  0  0  0  0
 23 46  1  0  0  0  0
 24 25  1  0  0  0  0
 24 47  1  0  0  0  0
 24 48  1  0  0  0  0
 25 49  1  0  0  0  0
 25 50  1  0  0  0  0
M  CHG  1   1  -1
M  CHG  1   5   1
M  END
> <s_m_source_file>
AV-unprocessed.smi

> <i_m_source_file_index>
1740

> <i_lp_mmshare_version>
43012

> <i_f3d_flags>
0

> <s_epik_input>
W05IMl1DKD1PKVtDSDJdTjFbQ0gyXVtDSDJdW0NIXShbQ0gyXVtDSDJdMSlbTkhdQyg9TylbTkhdYzJbY0hdW2NIXVtjSF1uYzJOM1tDSDJdW0NIMl1bQ0gyXVtDSDJdMw==

> <s_epik_cmdline>
J2VwaWtfcHl0aG9uJywgJy1waCcsICc3LjAnLCAnLXRuJywgJzgnLCAnLW1hJywgJzIwMCcsICctbWV0YWxfYmluZGluZycsICctaW1hZScsICc8aW5maWxlLm1hZT4nLCAnLW9tYWUnLCAnPG91dGZpbGUubWFlPic=

> <r_lp_tautomer_probability>
1

> <r_epik_Ionization_Penalty>
5.80652

> <r_epik_Ionization_Penalty_Charging>
5.7288

> <r_epik_Ionization_Penalty_Neutral>
0.0777157

> <r_epik_State_Penalty>
6.60246

> <r_epik_Charging_Adjusted_Penalty>
12.3313

> <i_epik_Tot_Q>
0

> <i_epik_Tot_abs_Q>
2

> <r_epik_Metal_State_Penalty>
2.64988

> <b_epik_Metal_Only>
1

> <s_lp_Force_Field>
OPLS_2005

> <r_lp_Energy>
35.9305

> <b_lp_Chiralities_Consistent>
1

> <s_lp_Variant>
AV-unprocessed.smi:1740-8

> <Gold.Version>
5.8.1

> <Gold.Id.Protein>
6NUR|6NUR_protein|mol2

> <Gold.PLP.Fitness>
44.2235

> <Gold.PLP.PLP>
-36.6726

> <Gold.PLP.part.hbond>
-6.6131

> <Gold.PLP.part.metal>
0.0000

> <Gold.PLP.part.buried>
-1.6510

> <Gold.PLP.part.nonpolar>
-29.3527

> <Gold.PLP.part.repulsive>
0.8322

> <Gold.PLP.ligand.clash>
0.0000

> <Gold.PLP.ligand.torsion>
0.8860

> <Gold.PLP.Chemscore.Hbond>
3.0000

> <Gold.PLP.Chemscore.CHOScore>
0.0000

> <Gold.PLP.Chemscore.Metal>
0.0000

> <Gold.Chemscore.Hbonds>
donor molecule, donor type, donor heavy atom, donor atom, acceptor molecule, acceptor atom, score
      L1  H     1    26       P1 10195  0.99
      L1  H     5    51       P1 10186  2.00

> <Gold.PLP.Chemscore.Internal.Correction>
0.3228

> <Gold.Rescore>
     Score         DG    S(hbond)    S(metal)    S(lipo)     H(rot)  DE(clash)    DE(int)     intcor
     10.70     -14.29       1.81        0.00      70.91       2.16       1.31       2.28       ----

> <Gold.Chemscore.Fitness>
10.6964

> <Gold.Chemscore.DG>
-14.2868

> <Gold.Chemscore.ZeroCoef>
-5.4800

> <Gold.Chemscore.Hbond>
1.8053

> <Gold.Chemscore.Metal>
0.0000

> <Gold.Chemscore.Lipo>
70.9142

> <Gold.Chemscore.Internal_Hbond>
0.0000

> <Gold.Chemscore.DEClash>
1.3077

> <Gold.Chemscore.DEInternal>
2.2826

> <Gold.Chemscore.Rot>
2.1562

> <Gold.Chemscore.Internal.Correction>
   9.000000E+99

> <Gold.Chemscore.Hbonds>
donor molecule, donor type, donor heavy atom, donor atom, acceptor molecule, acceptor atom, score
      L1  H     1    26       P1 10195  0.94
      L1  H     5    51       P1 10186  0.79

> <Gold.Chemscore.Hbond.Weighted>
-6.0296

> <Gold.Chemscore.Metal.Weighted>
-0.0000

> <Gold.Chemscore.Lipo.Weighted>
-8.2970

> <Gold.Chemscore.Internal_Hbond.Weighted>
0.0000

> <Gold.Chemscore.DEClash.Weighted>
1.3077

> <Gold.Chemscore.DEInternal.Weighted>
2.2826

> <Gold.Chemscore.Rot.Weighted>
5.5198

> <Gold.Chemscore.Internal.Correction.Weighted>
   9.000000E+99

> <Gold.Protein.RotatedTorsions>
[ 6907 6896 6895 6894 ] final   -7.23 input  -60.11 | X-H torsion
[ 7974 7965 7964 7962 ] final -135.98 input  175.53 | X-H torsion
[ 8008 7997 7996 7995 ] final   92.60 input   59.86 | X-H torsion
[ 10167 10162 10161 10158 ] final  -56.43 input  -65.29 | X-H torsion
[ 10718 10713 10712 10709 ] final   91.86 input   66.30 | X-H torsion
[ 10763 10752 10751 10750 ] final -143.18 input  -60.55 | X-H torsion
[ 11005 11000 10999 10996 ] final  -64.15 input  -57.11 | X-H torsion

> <Gold.Protein.ActiveResidues>
 VAL166  LYS551  ARG553  GLY616  TRP617  ASP618  TYR619  PRO620  LYS621  CYS622 
 ASP623  PHE694  ASN695  SER759  ASP760  ASP761  ALA762  ILE779  LEU786  VAL792 
 PHE793  MET794  SER795  GLU796  ALA797  LYS798  CYS799  TRP800  GLU811  SER814 

> <Gold.Protein.RotatedAtoms>
  151.4529  135.1031  159.9702 H   0  0  0  0  0  0  0  0  0  0  0  0  # atno 6907 bound_to 6896
  152.4881  133.8423  159.7169 H   0  0  0  0  0  0  0  0  0  0  0  0  # atno 6908 bound_to 6896
  150.9009  133.7059  159.2906 H   0  0  0  0  0  0  0  0  0  0  0  0  # atno 6909 bound_to 6896
  144.8967  140.6716  143.5111 H   0  0  0  0  0  0  0  0  0  0  0  0  # atno 7974 bound_to 7965
  156.0372  140.3323  155.7203 H   0  0  0  0  0  0  0  0  0  0  0  0  # atno 8008 bound_to 7997
  155.5798  140.0636  157.2803 H   0  0  0  0  0  0  0  0  0  0  0  0  # atno 8009 bound_to 7997
  154.4377  140.1846  156.0953 H   0  0  0  0  0  0  0  0  0  0  0  0  # atno 8010 bound_to 7997
  140.6318  143.2463  151.5222 H   0  0  0  0  0  0  0  0  0  0  0  0  # atno 10167 bound_to 10162
  157.6959  131.0423  150.3794 H   0  0  0  0  0  0  0  0  0  0  0  0  # atno 10718 bound_to 10713
  154.8480  135.3475  154.6146 H   0  0  0  0  0  0  0  0  0  0  0  0  # atno 10763 bound_to 10752
  153.6755  135.6983  153.5138 H   0  0  0  0  0  0  0  0  0  0  0  0  # atno 10764 bound_to 10752
  153.2709  135.4293  155.0943 H   0  0  0  0  0  0  0  0  0  0  0  0  # atno 10765 bound_to 10752
  141.1416  133.6661  156.5789 H   0  0  0  0  0  0  0  0  0  0  0  0  # atno 11005 bound_to 11000
  145.3688  139.1664  143.4343 LP  0  0  0  0  0  0  0  0  0  0  0  0  # atno 17320 bound_to 7965
  146.3085  140.3757  142.8679 LP  0  0  0  0  0  0  0  0  0  0  0  0  # atno 17321 bound_to 7965
  139.5531  144.2344  152.1565 LP  0  0  0  0  0  0  0  0  0  0  0  0  # atno 17342 bound_to 10162
  140.1590  144.5044  150.6643 LP  0  0  0  0  0  0  0  0  0  0  0  0  # atno 17343 bound_to 10162
  156.4210  130.3953  149.6825 LP  0  0  0  0  0  0  0  0  0  0  0  0  # atno 17370 bound_to 10713
  156.4076  130.7706  151.2717 LP  0  0  0  0  0  0  0  0  0  0  0  0  # atno 17371 bound_to 10713
  140.3853  134.7487  157.4687 LP  0  0  0  0  0  0  0  0  0  0  0  0  # atno 17394 bound_to 11000
  140.0606  134.6000  155.8753 LP  0  0  0  0  0  0  0  0  0  0  0  0  # atno 17395 bound_to 11000

$$$$
