AV-unprocessed.smi:2597|AV-procd|sdf|10173|dock10
  -GOLD-   2272014183D 1   1.00000     0.00000
 Structure written by MMmdl.
 31 32  0  0  0  0  0  0  0  0  2 V2000
  146.0675  135.4494  152.0941 N   0  3  0  0  0  0  0  0  0  0  0  0
  145.4768  134.3803  151.2667 C   0  0  2  0  0  0  0  0  0  0  0  0
  144.1240  133.9167  151.8445 C   0  0  0  0  0  0  0  0  0  0  0  0
  143.5003  132.8075  150.9826 C   0  0  0  0  0  0  0  0  0  0  0  0
  144.4570  131.6177  150.8090 C   0  0  0  0  0  0  0  0  0  0  0  0
  145.8150  132.0652  150.2360 C   0  0  0  0  0  0  0  0  0  0  0  0
  146.4762  133.2147  151.0321 C   0  0  2  0  0  0  0  0  0  0  0  0
  147.1467  132.7487  152.2471 N   0  0  0  0  0  0  0  0  0  0  0  0
  148.0912  133.4253  152.9935 C   0  0  0  0  0  0  0  0  0  0  0  0
  148.3715  132.5685  154.0194 C   0  0  0  0  0  0  0  0  0  0  0  0
  149.3163  132.7398  155.1693 C   0  0  0  0  0  0  0  0  0  0  0  0
  149.8836  134.0255  155.0390 O   0  0  0  0  0  0  0  0  0  0  0  0
  147.6039  131.4176  153.8582 N   0  0  0  0  0  0  0  0  0  0  0  0
  146.8786  131.5358  152.7922 N   0  0  0  0  0  0  0  0  0  0  0  0
  145.2718  134.8321  150.2951 H   0  0  0  0  0  0  0  0  0  0  0  0
  147.2714  133.6085  150.3968 H   0  0  0  0  0  0  0  0  0  0  0  0
  145.9840  135.2032  153.0704 H   0  0  0  0  0  0  0  0  0  0  0  0
  145.5806  136.3177  151.9236 H   0  0  0  0  0  0  0  0  0  0  0  0
  144.2381  133.5660  152.8698 H   0  0  0  0  0  0  0  0  0  0  0  0
  143.4356  134.7611  151.8942 H   0  0  0  0  0  0  0  0  0  0  0  0
  142.5660  132.4692  151.4316 H   0  0  0  0  0  0  0  0  0  0  0  0
  143.2421  133.2107  150.0026 H   0  0  0  0  0  0  0  0  0  0  0  0
  144.5932  131.1100  151.7631 H   0  0  0  0  0  0  0  0  0  0  0  0
  144.0063  130.8810  150.1434 H   0  0  0  0  0  0  0  0  0  0  0  0
  146.4922  131.2126  150.1708 H   0  0  0  0  0  0  0  0  0  0  0  0
  145.6588  132.4000  149.2095 H   0  0  0  0  0  0  0  0  0  0  0  0
  148.4612  134.4103  152.7488 H   0  0  0  0  0  0  0  0  0  0  0  0
  148.8045  132.6610  156.1290 H   0  0  0  0  0  0  0  0  0  0  0  0
  150.1044  131.9870  155.1487 H   0  0  0  0  0  0  0  0  0  0  0  0
  149.2491  134.5922  154.6275 H   0  0  0  0  0  0  0  0  0  0  0  0
  147.0436  135.5588  151.8587 H   0  0  0  0  0  0  0  0  0  0  0  0
  1  2  1  0  0  0  0
  1 17  1  0  0  0  0
  1 18  1  0  0  0  0
  1 31  1  0  0  0  0
  2 15  1  0  0  0  0
  2  7  1  0  0  0  0
  2  3  1  0  0  0  0
  3  4  1  0  0  0  0
  3 19  1  0  0  0  0
  3 20  1  0  0  0  0
  4  5  1  0  0  0  0
  4 21  1  0  0  0  0
  4 22  1  0  0  0  0
  5  6  1  0  0  0  0
  5 23  1  0  0  0  0
  5 24  1  0  0  0  0
  6  7  1  0  0  0  0
  6 25  1  0  0  0  0
  6 26  1  0  0  0  0
  7 16  1  0  0  0  0
  7  8  1  0  0  0  0
  8 14  1  0  0  0  0
  8  9  1  0  0  0  0
  9 10  2  0  0  0  0
  9 27  1  0  0  0  0
 10 11  1  0  0  0  0
 10 13  1  0  0  0  0
 11 12  1  0  0  0  0
 11 28  1  0  0  0  0
 11 29  1  0  0  0  0
 12 30  1  0  0  0  0
 13 14  2  0  0  0  0
M  CHG  1   1   1
M  END
> <s_m_source_file>
AV-unprocessed.smi

> <i_m_source_file_index>
2597

> <i_lp_mmshare_version>
43012

> <i_f3d_flags>
0

> <s_epik_input>
W05IMl1bQ0BIXTFbQ0gyXVtDSDJdW0NIMl1bQ0gyXVtDQEhdMW4yW2NIXWMobm4yKVtDSDJdW09IXQ==

> <s_epik_cmdline>
J2VwaWtfcHl0aG9uJywgJy1waCcsICc3LjAnLCAnLXRuJywgJzgnLCAnLW1hJywgJzIwMCcsICctbWV0YWxfYmluZGluZycsICctaW1hZScsICc8aW5maWxlLm1hZT4nLCAnLW9tYWUnLCAnPG91dGZpbGUubWFlPic=

> <r_lp_tautomer_probability>
1

> <r_epik_Ionization_Penalty>
0.014346

> <r_epik_Ionization_Penalty_Charging>
0.014316

> <r_epik_Ionization_Penalty_Neutral>
3.00097e-05

> <r_epik_State_Penalty>
0.0111909

> <r_epik_Charging_Adjusted_Penalty>
0.0255069

> <i_epik_Tot_Q>
1

> <i_epik_Tot_abs_Q>
1

> <r_epik_Metal_State_Penalty>
0.011192

> <b_epik_Metal_Only>
0

> <s_lp_Force_Field>
OPLS_2005

> <r_lp_Energy>
16.1833

> <b_lp_Chiralities_Consistent>
1

> <s_lp_Variant>
AV-unprocessed.smi:2597-4

> <Gold.Version>
5.8.1

> <Gold.Id.Protein>
6NUR|6NUR_protein|mol2

> <Gold.PLP.Fitness>
34.9581

> <Gold.PLP.PLP>
-27.5303

> <Gold.PLP.part.hbond>
-1.0000

> <Gold.PLP.part.metal>
0.0000

> <Gold.PLP.part.buried>
-3.3273

> <Gold.PLP.part.nonpolar>
-23.7177

> <Gold.PLP.part.repulsive>
0.2051

> <Gold.PLP.ligand.clash>
0.0000

> <Gold.PLP.ligand.torsion>
0.3264

> <Gold.PLP.Chemscore.Hbond>
2.0000

> <Gold.PLP.Chemscore.CHOScore>
0.6719

> <Gold.PLP.Chemscore.Metal>
0.0000

> <Gold.Chemscore.Hbonds>
donor molecule, donor type, donor heavy atom, donor atom, acceptor molecule, acceptor atom, score
      L1  H     1    31       P1  7948  2.00
      L1  C     9    27       P1  7948  0.83

> <Gold.PLP.Chemscore.Internal.Correction>
0.0649

> <Gold.Rescore>
     Score         DG    S(hbond)    S(metal)    S(lipo)     H(rot)  DE(clash)    DE(int)     intcor
     11.04     -11.76       0.99        0.00      66.09       1.86       0.07       0.66       ----

> <Gold.Chemscore.Fitness>
11.0359

> <Gold.Chemscore.DG>
-11.7586

> <Gold.Chemscore.ZeroCoef>
-5.4800

> <Gold.Chemscore.Hbond>
0.9865

> <Gold.Chemscore.Metal>
0.0000

> <Gold.Chemscore.Lipo>
66.0917

> <Gold.Chemscore.Internal_Hbond>
0.0000

> <Gold.Chemscore.DEClash>
0.0656

> <Gold.Chemscore.DEInternal>
0.6571

> <Gold.Chemscore.Rot>
1.8551

> <Gold.Chemscore.Internal.Correction>
   9.000000E+99

> <Gold.Chemscore.Hbonds>
donor molecule, donor type, donor heavy atom, donor atom, acceptor molecule, acceptor atom, score
      L1  H     1    31       P1  7948  0.97

> <Gold.Chemscore.Hbond.Weighted>
-3.2948

> <Gold.Chemscore.Metal.Weighted>
-0.0000

> <Gold.Chemscore.Lipo.Weighted>
-7.7327

> <Gold.Chemscore.Internal_Hbond.Weighted>
0.0000

> <Gold.Chemscore.DEClash.Weighted>
0.0656

> <Gold.Chemscore.DEInternal.Weighted>
0.6571

> <Gold.Chemscore.Rot.Weighted>
4.7489

> <Gold.Chemscore.Internal.Correction.Weighted>
   9.000000E+99

> <Gold.Protein.RotatedTorsions>
[ 6907 6896 6895 6894 ] final -165.89 input  -60.11 | X-H torsion
[ 7974 7965 7964 7962 ] final   19.48 input  175.53 | X-H torsion
[ 8008 7997 7996 7995 ] final  119.97 input   59.86 | X-H torsion
[ 10167 10162 10161 10158 ] final   69.59 input  -65.29 | X-H torsion
[ 10718 10713 10712 10709 ] final  -33.98 input   66.30 | X-H torsion
[ 10763 10752 10751 10750 ] final  -78.80 input  -60.55 | X-H torsion
[ 11005 11000 10999 10996 ] final  171.01 input  -57.11 | X-H torsion

> <Gold.Protein.ActiveResidues>
 VAL166  LYS551  ARG553  GLY616  TRP617  ASP618  TYR619  PRO620  LYS621  CYS622 
 ASP623  PHE694  ASN695  SER759  ASP760  ASP761  ALA762  ILE779  LEU786  VAL792 
 PHE793  MET794  SER795  GLU796  ALA797  LYS798  CYS799  TRP800  GLU811  SER814 

> <Gold.Protein.RotatedAtoms>
  151.4349  133.3659  159.2773 H   0  0  0  0  0  0  0  0  0  0  0  0  # atno 6907 bound_to 6896
  150.9198  134.8618  159.7492 H   0  0  0  0  0  0  0  0  0  0  0  0  # atno 6908 bound_to 6896
  152.4976  134.4286  159.9556 H   0  0  0  0  0  0  0  0  0  0  0  0  # atno 6909 bound_to 6896
  146.2148  139.8307  142.8660 H   0  0  0  0  0  0  0  0  0  0  0  0  # atno 7974 bound_to 7965
  156.2621  140.2841  156.1075 H   0  0  0  0  0  0  0  0  0  0  0  0  # atno 8008 bound_to 7997
  155.1293  140.0393  157.2788 H   0  0  0  0  0  0  0  0  0  0  0  0  # atno 8009 bound_to 7997
  154.6611  140.2567  155.7114 H   0  0  0  0  0  0  0  0  0  0  0  0  # atno 8010 bound_to 7997
  140.0661  144.5192  150.7259 H   0  0  0  0  0  0  0  0  0  0  0  0  # atno 10167 bound_to 10162
  156.3561  130.4316  149.7663 H   0  0  0  0  0  0  0  0  0  0  0  0  # atno 10718 bound_to 10713
  154.5305  135.5717  153.6755 H   0  0  0  0  0  0  0  0  0  0  0  0  # atno 10763 bound_to 10752
  152.9938  135.6203  154.2635 H   0  0  0  0  0  0  0  0  0  0  0  0  # atno 10764 bound_to 10752
  154.2561  135.2857  155.2777 H   0  0  0  0  0  0  0  0  0  0  0  0  # atno 10765 bound_to 10752
  140.3144  134.7490  157.4016 H   0  0  0  0  0  0  0  0  0  0  0  0  # atno 11005 bound_to 11000
  145.3000  141.0191  143.3614 LP  0  0  0  0  0  0  0  0  0  0  0  0  # atno 17320 bound_to 7965
  144.9013  139.4646  143.6631 LP  0  0  0  0  0  0  0  0  0  0  0  0  # atno 17321 bound_to 7965
  140.7148  143.2535  151.4468 LP  0  0  0  0  0  0  0  0  0  0  0  0  # atno 17342 bound_to 10162
  139.5864  144.1595  152.2034 LP  0  0  0  0  0  0  0  0  0  0  0  0  # atno 17343 bound_to 10162
  156.4845  130.8056  151.3069 LP  0  0  0  0  0  0  0  0  0  0  0  0  # atno 17370 bound_to 10713
  157.7467  130.9995  150.2892 LP  0  0  0  0  0  0  0  0  0  0  0  0  # atno 17371 bound_to 10713
  140.0996  134.5490  155.8365 LP  0  0  0  0  0  0  0  0  0  0  0  0  # atno 17394 bound_to 11000
  141.2101  133.6691  156.6485 LP  0  0  0  0  0  0  0  0  0  0  0  0  # atno 17395 bound_to 11000

$$$$
