AV-unprocessed.smi:1403|AV-procd|sdf|5704|dock10
  -GOLD-   22720 5333D 1   1.00000     0.00000
 Structure written by MMmdl.
 35 36  0  0  0  0  0  0  0  0  2 V2000
  146.2790  130.1659  151.6387 C   0  0  0  0  0  0  0  0  0  0  0  0
  146.1334  131.5570  152.2748 C   0  0  1  0  0  0  0  0  0  0  0  0
  147.4687  132.1047  152.5009 N   0  0  0  0  0  0  0  0  0  0  0  0
  147.7627  133.1589  153.2775 C   0  0  0  0  0  0  0  0  0  0  0  0
  146.9147  133.8022  153.8976 O   0  0  0  0  0  0  0  0  0  0  0  0
  149.2421  133.5633  153.3278 C   0  0  0  0  0  0  0  0  0  0  0  0
  149.9276  133.0842  154.5386 N   0  0  0  0  0  0  0  0  0  0  0  0
  150.4326  134.0479  155.4291 C   0  0  0  0  0  0  0  0  0  0  0  0
  151.0708  133.7015  156.5632 C   0  0  0  0  0  0  0  0  0  0  0  0
  151.2335  132.2835  156.8581 C   0  0  0  0  0  0  0  0  0  0  0  0
  151.8188  131.9488  157.8863 O   0  0  0  0  0  0  0  0  0  0  0  0
  150.7212  131.3865  155.9653 N   0  5  0  0  0  0  0  0  0  0  0  0
  150.0712  131.7533  154.8174 C   0  0  0  0  0  0  0  0  0  0  0  0
  149.6135  130.9273  154.0267 O   0  0  0  0  0  0  0  0  0  0  0  0
  145.3118  132.5239  151.3961 C   0  0  1  0  0  0  0  0  0  0  0  0
  145.6028  132.4233  149.8967 C   0  0  0  0  0  0  0  0  0  0  0  0
  144.3108  132.9250  149.2948 C   0  0  0  0  0  0  0  0  0  0  0  0
  143.2803  132.3168  150.2384 C   0  0  0  0  0  0  0  0  0  0  0  0
  143.9145  132.2524  151.5122 O   0  0  0  0  0  0  0  0  0  0  0  0
  145.3091  129.6901  151.4930 H   0  0  0  0  0  0  0  0  0  0  0  0
  146.8705  129.5059  152.2744 H   0  0  0  0  0  0  0  0  0  0  0  0
  146.7721  130.2218  150.6675 H   0  0  0  0  0  0  0  0  0  0  0  0
  145.6213  131.4302  153.2304 H   0  0  0  0  0  0  0  0  0  0  0  0
  148.2324  131.6458  152.0262 H   0  0  0  0  0  0  0  0  0  0  0  0
  149.7570  133.2002  152.4363 H   0  0  0  0  0  0  0  0  0  0  0  0
  149.2962  134.6509  153.2651 H   0  0  0  0  0  0  0  0  0  0  0  0
  150.2642  135.0747  155.1402 H   0  0  0  0  0  0  0  0  0  0  0  0
  151.4500  134.4542  157.2384 H   0  0  0  0  0  0  0  0  0  0  0  0
  145.4717  133.5539  151.7198 H   0  0  0  0  0  0  0  0  0  0  0  0
  146.4698  133.0092  149.5903 H   0  0  0  0  0  0  0  0  0  0  0  0
  145.7695  131.3853  149.6044 H   0  0  0  0  0  0  0  0  0  0  0  0
  144.2716  134.0140  149.3442 H   0  0  0  0  0  0  0  0  0  0  0  0
  144.1716  132.6218  148.2569 H   0  0  0  0  0  0  0  0  0  0  0  0
  142.3582  132.8969  150.2796 H   0  0  0  0  0  0  0  0  0  0  0  0
  143.0299  131.3022  149.9263 H   0  0  0  0  0  0  0  0  0  0  0  0
  1  2  1  0  0  0  0
  1 20  1  0  0  0  0
  1 21  1  0  0  0  0
  1 22  1  0  0  0  0
  2  3  1  0  0  0  0
  2 15  1  0  0  0  0
  2 23  1  0  0  0  0
  3  4  1  0  0  0  0
  3 24  1  0  0  0  0
  4  5  2  0  0  0  0
  4  6  1  0  0  0  0
  6  7  1  0  0  0  0
  6 25  1  0  0  0  0
  6 26  1  0  0  0  0
  7 13  1  0  0  0  0
  7  8  1  0  0  0  0
  8  9  2  0  0  0  0
  8 27  1  0  0  0  0
  9 10  1  0  0  0  0
  9 28  1  0  0  0  0
 10 11  2  0  0  0  0
 10 12  1  0  0  0  0
 12 13  1  0  0  0  0
 13 14  2  0  0  0  0
 15 19  1  0  0  0  0
 15 16  1  0  0  0  0
 15 29  1  0  0  0  0
 16 17  1  0  0  0  0
 16 30  1  0  0  0  0
 16 31  1  0  0  0  0
 17 18  1  0  0  0  0
 17 32  1  0  0  0  0
 17 33  1  0  0  0  0
 18 19  1  0  0  0  0
 18 34  1  0  0  0  0
 18 35  1  0  0  0  0
M  CHG  1  12  -1
M  END
> <s_m_source_file>
AV-unprocessed.smi

> <i_m_source_file_index>
1403

> <i_lp_mmshare_version>
43012

> <i_f3d_flags>
0

> <s_epik_input>
TzFbQ0gyXVtDSDJdW0NIMl1bQ0BIXTFbQ0BIXShbQ0gzXSlbTkhdQyg9TylbQ0gyXW4yW2NIXVtjSF1jKD1PKVtuSF1jMj1P

> <s_epik_cmdline>
J2VwaWtfcHl0aG9uJywgJy1waCcsICc3LjAnLCAnLXRuJywgJzgnLCAnLW1hJywgJzIwMCcsICctbWV0YWxfYmluZGluZycsICctaW1hZScsICc8aW5maWxlLm1hZT4nLCAnLW9tYWUnLCAnPG91dGZpbGUubWFlPic=

> <r_lp_tautomer_probability>
0.999537

> <r_epik_Ionization_Penalty>
3.07438

> <r_epik_Ionization_Penalty_Charging>
2.82466e-08

> <r_epik_Ionization_Penalty_Neutral>
3.07438

> <r_epik_State_Penalty>
3.07341

> <r_epik_Charging_Adjusted_Penalty>
3.07341

> <i_epik_Tot_Q>
-1

> <i_epik_Tot_abs_Q>
1

> <r_epik_Metal_State_Penalty>
0.45947

> <b_epik_Metal_Only>
1

> <s_lp_Force_Field>
OPLS_2005

> <r_lp_Energy>
26.7212

> <b_lp_Chiralities_Consistent>
1

> <s_lp_Variant>
AV-unprocessed.smi:1403-8

> <Gold.Version>
5.8.1

> <Gold.Id.Protein>
6NUR|6NUR_protein|mol2

> <Gold.PLP.Fitness>
38.4097

> <Gold.PLP.PLP>
-34.2885

> <Gold.PLP.part.hbond>
-2.0000

> <Gold.PLP.part.metal>
0.0000

> <Gold.PLP.part.buried>
-2.6220

> <Gold.PLP.part.nonpolar>
-29.3707

> <Gold.PLP.part.repulsive>
0.3616

> <Gold.PLP.ligand.clash>
0.0000

> <Gold.PLP.ligand.torsion>
0.7926

> <Gold.PLP.Chemscore.Hbond>
1.8960

> <Gold.PLP.Chemscore.CHOScore>
0.0000

> <Gold.PLP.Chemscore.Metal>
0.0000

> <Gold.Chemscore.Hbonds>
donor molecule, donor type, donor heavy atom, donor atom, acceptor molecule, acceptor atom, score
      L1  H     3    24       P1 10747  0.92
      P1  H  6896  6908       L1    11  1.00

> <Gold.PLP.Chemscore.Internal.Correction>
0.0185

> <Gold.Rescore>
     Score         DG    S(hbond)    S(metal)    S(lipo)     H(rot)  DE(clash)    DE(int)     intcor
     14.43     -15.98       1.83        0.00      81.13       1.99       0.54       1.01       ----

> <Gold.Chemscore.Fitness>
14.4320

> <Gold.Chemscore.DG>
-15.9805

> <Gold.Chemscore.ZeroCoef>
-5.4800

> <Gold.Chemscore.Hbond>
1.8304

> <Gold.Chemscore.Metal>
0.0000

> <Gold.Chemscore.Lipo>
81.1251

> <Gold.Chemscore.Internal_Hbond>
0.0000

> <Gold.Chemscore.DEClash>
0.5361

> <Gold.Chemscore.DEInternal>
1.0124

> <Gold.Chemscore.Rot>
1.9940

> <Gold.Chemscore.Internal.Correction>
   9.000000E+99

> <Gold.Chemscore.Hbonds>
donor molecule, donor type, donor heavy atom, donor atom, acceptor molecule, acceptor atom, score
      L1  H     3    24       P1 10747  0.84
      P1  H  6896  6908       L1    11  0.78

> <Gold.Chemscore.Hbond.Weighted>
-6.1136

> <Gold.Chemscore.Metal.Weighted>
-0.0000

> <Gold.Chemscore.Lipo.Weighted>
-9.4916

> <Gold.Chemscore.Internal_Hbond.Weighted>
0.0000

> <Gold.Chemscore.DEClash.Weighted>
0.5361

> <Gold.Chemscore.DEInternal.Weighted>
1.0124

> <Gold.Chemscore.Rot.Weighted>
5.1047

> <Gold.Chemscore.Internal.Correction.Weighted>
   9.000000E+99

> <Gold.Protein.RotatedTorsions>
[ 6907 6896 6895 6894 ] final   63.77 input  -60.11 | X-H torsion
[ 7974 7965 7964 7962 ] final  172.89 input  175.53 | X-H torsion
[ 8008 7997 7996 7995 ] final -144.16 input   59.86 | X-H torsion
[ 10167 10162 10161 10158 ] final   47.23 input  -65.29 | X-H torsion
[ 10718 10713 10712 10709 ] final  149.42 input   66.30 | X-H torsion
[ 10763 10752 10751 10750 ] final   57.77 input  -60.55 | X-H torsion
[ 11005 11000 10999 10996 ] final   47.02 input  -57.11 | X-H torsion

> <Gold.Protein.ActiveResidues>
 VAL166  LYS551  ARG553  GLY616  TRP617  ASP618  TYR619  PRO620  LYS621  CYS622 
 ASP623  PHE694  ASN695  SER759  ASP760  ASP761  ALA762  ILE779  LEU786  VAL792 
 PHE793  MET794  SER795  GLU796  ALA797  LYS798  CYS799  TRP800  GLU811  SER814 

> <Gold.Protein.RotatedAtoms>
  152.4279  134.5833  159.9953 H   0  0  0  0  0  0  0  0  0  0  0  0  # atno 6907 bound_to 6896
  151.5965  133.3355  159.3046 H   0  0  0  0  0  0  0  0  0  0  0  0  # atno 6908 bound_to 6896
  150.8170  134.7393  159.6803 H   0  0  0  0  0  0  0  0  0  0  0  0  # atno 6909 bound_to 6896
  144.7257  139.9565  143.6433 H   0  0  0  0  0  0  0  0  0  0  0  0  # atno 7974 bound_to 7965
  155.5224  140.0592  157.2904 H   0  0  0  0  0  0  0  0  0  0  0  0  # atno 8008 bound_to 7997
  154.4513  140.1950  156.0457 H   0  0  0  0  0  0  0  0  0  0  0  0  # atno 8009 bound_to 7997
  156.0709  140.3260  155.7579 H   0  0  0  0  0  0  0  0  0  0  0  0  # atno 8010 bound_to 7997
  140.3057  144.2880  150.6210 H   0  0  0  0  0  0  0  0  0  0  0  0  # atno 10167 bound_to 10162
  157.2963  131.0862  151.1424 H   0  0  0  0  0  0  0  0  0  0  0  0  # atno 10718 bound_to 10713
  152.9857  135.5630  154.5444 H   0  0  0  0  0  0  0  0  0  0  0  0  # atno 10763 bound_to 10752
  154.4893  135.2792  155.1511 H   0  0  0  0  0  0  0  0  0  0  0  0  # atno 10764 bound_to 10752
  154.2987  135.6311  153.5469 H   0  0  0  0  0  0  0  0  0  0  0  0  # atno 10765 bound_to 10752
  140.1316  134.4698  155.8517 H   0  0  0  0  0  0  0  0  0  0  0  0  # atno 11005 bound_to 11000
  146.0670  139.3661  143.0546 LP  0  0  0  0  0  0  0  0  0  0  0  0  # atno 17320 bound_to 7965
  145.8018  140.9767  143.0995 LP  0  0  0  0  0  0  0  0  0  0  0  0  # atno 17321 bound_to 7965
  140.5612  143.2192  151.7762 LP  0  0  0  0  0  0  0  0  0  0  0  0  # atno 17342 bound_to 10162
  139.4905  144.4346  151.9834 LP  0  0  0  0  0  0  0  0  0  0  0  0  # atno 17343 bound_to 10162
  157.2800  130.6745  149.6061 LP  0  0  0  0  0  0  0  0  0  0  0  0  # atno 17370 bound_to 10713
  155.9669  130.4452  150.5494 LP  0  0  0  0  0  0  0  0  0  0  0  0  # atno 17371 bound_to 10713
  141.2171  133.6798  156.7080 LP  0  0  0  0  0  0  0  0  0  0  0  0  # atno 17394 bound_to 11000
  140.2835  134.8298  157.3954 LP  0  0  0  0  0  0  0  0  0  0  0  0  # atno 17395 bound_to 11000

$$$$
