AV-unprocessed.smi:1554|AV-procd|sdf|6262|dock1
  -GOLD-   22720 6443D 1   1.00000     0.00000
 Structure written by MMmdl.
 49 51  0  0  0  0  0  0  0  0  3 V2000
  146.2457  130.0870  152.1084 C   0  0  0  0  0  0  0  0  0  0  0  0
  146.1070  131.5785  151.8548 C   0  0  0  0  0  0  0  0  0  0  0  0
  144.9699  132.0410  151.1554 C   0  0  0  0  0  0  0  0  0  0  0  0
  144.8704  133.4104  150.9407 C   0  0  0  0  0  0  0  0  0  0  0  0
  143.8867  134.1650  150.2985 N   0  3  0  0  0  0  0  0  0  0  0  0
  144.2269  135.4827  150.3370 C   0  0  0  0  0  0  0  0  0  0  0  0
  145.4123  135.5825  150.9987 N   0  0  0  0  0  0  0  0  0  0  0  0
  146.2137  136.7764  151.3039 C   0  0  0  0  0  0  0  0  0  0  0  0
  145.9697  137.3177  152.7266 C   0  0  2  0  0  0  0  0  0  0  0  0
  144.6172  137.7198  152.8033 O   0  0  0  0  0  0  0  0  0  0  0  0
  146.8683  138.5167  153.1018 C   0  0  0  0  0  0  0  0  0  0  0  0
  148.1840  138.0976  153.6488 N   0  3  2  0  0  0  0  0  0  0  0  0
  148.0515  137.1235  154.7578 C   0  0  0  0  0  0  0  0  0  0  0  0
  149.4380  136.6760  155.2490 C   0  0  0  0  0  0  0  0  0  0  0  0
  150.1918  137.8146  155.6459 O   0  0  0  0  0  0  0  0  0  0  0  0
  150.4088  138.7200  154.5694 C   0  0  2  0  0  0  0  0  0  0  0  0
  151.3030  139.8584  155.0732 C   0  0  0  0  0  0  0  0  0  0  0  0
  149.0477  139.2327  154.0598 C   0  0  0  0  0  0  0  0  0  0  0  0
  145.8542  134.3126  151.3918 C   0  0  0  0  0  0  0  0  0  0  0  0
  146.9816  133.8722  152.0824 C   0  0  0  0  0  0  0  0  0  0  0  0
  147.0996  132.4829  152.3131 C   0  0  0  0  0  0  0  0  0  0  0  0
  148.3175  131.9750  153.0660 C   0  0  0  0  0  0  0  0  0  0  0  0
  145.4142  129.5296  151.6761 H   0  0  0  0  0  0  0  0  0  0  0  0
  146.2641  129.8811  153.1787 H   0  0  0  0  0  0  0  0  0  0  0  0
  147.1665  129.7061  151.6661 H   0  0  0  0  0  0  0  0  0  0  0  0
  144.2101  131.3580  150.8034 H   0  0  0  0  0  0  0  0  0  0  0  0
  143.6590  136.3003  149.9164 H   0  0  0  0  0  0  0  0  0  0  0  0
  147.2687  136.5594  151.1376 H   0  0  0  0  0  0  0  0  0  0  0  0
  145.9418  137.5347  150.5677 H   0  0  0  0  0  0  0  0  0  0  0  0
  146.1150  136.4994  153.4311 H   0  0  0  0  0  0  0  0  0  0  0  0
  144.5670  138.6516  152.6512 H   0  0  0  0  0  0  0  0  0  0  0  0
  147.0408  139.1636  152.2410 H   0  0  0  0  0  0  0  0  0  0  0  0
  146.3420  139.1252  153.8392 H   0  0  0  0  0  0  0  0  0  0  0  0
  147.4924  137.5758  155.5785 H   0  0  0  0  0  0  0  0  0  0  0  0
  147.4849  136.2536  154.4233 H   0  0  0  0  0  0  0  0  0  0  0  0
  149.3360  136.0048  156.1018 H   0  0  0  0  0  0  0  0  0  0  0  0
  149.9688  136.1245  154.4713 H   0  0  0  0  0  0  0  0  0  0  0  0
  150.9305  138.2003  153.7635 H   0  0  0  0  0  0  0  0  0  0  0  0
  151.5073  140.5782  154.2801 H   0  0  0  0  0  0  0  0  0  0  0  0
  152.2603  139.4747  155.4267 H   0  0  0  0  0  0  0  0  0  0  0  0
  150.8343  140.3943  155.8992 H   0  0  0  0  0  0  0  0  0  0  0  0
  149.2107  139.9090  153.2215 H   0  0  0  0  0  0  0  0  0  0  0  0
  148.5468  139.8077  154.8406 H   0  0  0  0  0  0  0  0  0  0  0  0
  147.7400  134.5553  152.4339 H   0  0  0  0  0  0  0  0  0  0  0  0
  148.9840  132.7915  153.3457 H   0  0  0  0  0  0  0  0  0  0  0  0
  148.8863  131.2783  152.4497 H   0  0  0  0  0  0  0  0  0  0  0  0
  148.0164  131.4633  153.9805 H   0  0  0  0  0  0  0  0  0  0  0  0
  148.6632  137.6144  152.9019 H   0  0  0  0  0  0  0  0  0  0  0  0
  143.0460  133.8087  149.8616 H   0  0  0  0  0  0  0  0  0  0  0  0
  1  2  1  0  0  0  0
  1 23  1  0  0  0  0
  1 24  1  0  0  0  0
  1 25  1  0  0  0  0
  2 21  1  0  0  0  0
  2  3  2  0  0  0  0
  3  4  1  0  0  0  0
  3 26  1  0  0  0  0
  4 19  2  0  0  0  0
  4  5  1  0  0  0  0
  5  6  2  0  0  0  0
  5 49  1  0  0  0  0
  6  7  1  0  0  0  0
  6 27  1  0  0  0  0
  7  8  1  0  0  0  0
  7 19  1  0  0  0  0
  8  9  1  0  0  0  0
  8 28  1  0  0  0  0
  8 29  1  0  0  0  0
  9 10  1  0  0  0  0
  9 11  1  0  0  0  0
  9 30  1  0  0  0  0
 10 31  1  0  0  0  0
 11 12  1  0  0  0  0
 11 32  1  0  0  0  0
 11 33  1  0  0  0  0
 12 18  1  0  0  0  0
 12 13  1  0  0  0  0
 12 48  1  0  0  0  0
 13 14  1  0  0  0  0
 13 34  1  0  0  0  0
 13 35  1  0  0  0  0
 14 15  1  0  0  0  0
 14 36  1  0  0  0  0
 14 37  1  0  0  0  0
 15 16  1  0  0  0  0
 16 17  1  0  0  0  0
 16 18  1  0  0  0  0
 16 38  1  0  0  0  0
 17 39  1  0  0  0  0
 17 40  1  0  0  0  0
 17 41  1  0  0  0  0
 18 42  1  0  0  0  0
 18 43  1  0  0  0  0
 19 20  1  0  0  0  0
 20 21  2  0  0  0  0
 20 44  1  0  0  0  0
 21 22  1  0  0  0  0
 22 45  1  0  0  0  0
 22 46  1  0  0  0  0
 22 47  1  0  0  0  0
M  CHG  1   5   1
M  CHG  1  12   1
M  END
> <s_m_source_file>
AV-unprocessed.smi

> <i_m_source_file_index>
1554

> <i_lp_mmshare_version>
43012

> <i_f3d_flags>
0

> <s_epik_input>
W0NIM11jKFtjSF0xKWMoW0NIM10pW2NIXWMoYzEyKW4oW2NIXW4yKVtDSDJdW0NASF0oW09IXSlbQ0gyXU4zW0NIMl1bQ0gyXU9bQ0BASF0oW0NIM10pW0NIMl0z

> <s_epik_cmdline>
J2VwaWtfcHl0aG9uJywgJy1waCcsICc3LjAnLCAnLXRuJywgJzgnLCAnLW1hJywgJzIwMCcsICctbWV0YWxfYmluZGluZycsICctaW1hZScsICc8aW5maWxlLm1hZT4nLCAnLW9tYWUnLCAnPG91dGZpbGUubWFlPic=

> <r_epik_Ionization_Penalty>
1.8848

> <r_epik_Ionization_Penalty_Charging>
1.88479

> <r_epik_Ionization_Penalty_Neutral>
1.42224e-05

> <r_epik_State_Penalty>
1.94551

> <r_epik_Charging_Adjusted_Penalty>
3.8303

> <i_epik_Tot_Q>
2

> <i_epik_Tot_abs_Q>
2

> <r_epik_Metal_State_Penalty>
5.95849

> <b_epik_Metal_Only>
0

> <s_lp_Force_Field>
OPLS_2005

> <r_lp_Energy>
32.1421

> <b_lp_Chiralities_Consistent>
1

> <s_lp_Variant>
AV-unprocessed.smi:1554-23

> <Gold.Version>
5.8.1

> <Gold.Id.Protein>
6NUR|6NUR_protein|mol2

> <Gold.PLP.Fitness>
53.5515

> <Gold.PLP.PLP>
-37.8114

> <Gold.PLP.part.hbond>
-3.8005

> <Gold.PLP.part.metal>
0.0000

> <Gold.PLP.part.buried>
0.8989

> <Gold.PLP.part.nonpolar>
-35.3525

> <Gold.PLP.part.repulsive>
0.0821

> <Gold.PLP.ligand.clash>
0.0000

> <Gold.PLP.ligand.torsion>
0.6541

> <Gold.PLP.Chemscore.Hbond>
4.6560

> <Gold.PLP.Chemscore.CHOScore>
1.0000

> <Gold.PLP.Chemscore.Metal>
0.0000

> <Gold.Chemscore.Hbonds>
donor molecule, donor type, donor heavy atom, donor atom, acceptor molecule, acceptor atom, score
      L1  H     5    49       P1 10186  1.07
      L1  H    10    31       P1 10175  1.00
      L1  H    12    48       P1  7948  2.00
      L1  C     6    27       P1 10171  1.00

> <Gold.PLP.Chemscore.Internal.Correction>
0.0802

> <Gold.Rescore>
     Score         DG    S(hbond)    S(metal)    S(lipo)     H(rot)  DE(clash)    DE(int)     intcor
     19.09     -19.87       2.82        0.00      88.83       2.11       0.12       0.66       ----

> <Gold.Chemscore.Fitness>
19.0922

> <Gold.Chemscore.DG>
-19.8714

> <Gold.Chemscore.ZeroCoef>
-5.4800

> <Gold.Chemscore.Hbond>
2.8159

> <Gold.Chemscore.Metal>
0.0000

> <Gold.Chemscore.Lipo>
88.8334

> <Gold.Chemscore.Internal_Hbond>
0.0000

> <Gold.Chemscore.DEClash>
0.1164

> <Gold.Chemscore.DEInternal>
0.6628

> <Gold.Chemscore.Rot>
2.1122

> <Gold.Chemscore.Internal.Correction>
   9.000000E+99

> <Gold.Chemscore.Hbonds>
donor molecule, donor type, donor heavy atom, donor atom, acceptor molecule, acceptor atom, score
      L1  H     5    49       P1 10186  0.52
      L1  H    10    31       P1 10175  0.93
      L1  H    12    48       P1  7948  0.98

> <Gold.Chemscore.Hbond.Weighted>
-9.4052

> <Gold.Chemscore.Metal.Weighted>
-0.0000

> <Gold.Chemscore.Lipo.Weighted>
-10.3935

> <Gold.Chemscore.Internal_Hbond.Weighted>
0.0000

> <Gold.Chemscore.DEClash.Weighted>
0.1164

> <Gold.Chemscore.DEInternal.Weighted>
0.6628

> <Gold.Chemscore.Rot.Weighted>
5.4073

> <Gold.Chemscore.Internal.Correction.Weighted>
   9.000000E+99

> <Gold.Protein.RotatedTorsions>
[ 6907 6896 6895 6894 ] final   42.46 input  -60.11 | X-H torsion
[ 7974 7965 7964 7962 ] final  -88.59 input  175.53 | X-H torsion
[ 8008 7997 7996 7995 ] final   64.34 input   59.86 | X-H torsion
[ 10167 10162 10161 10158 ] final  136.40 input  -65.29 | X-H torsion
[ 10718 10713 10712 10709 ] final   70.16 input   66.30 | X-H torsion
[ 10763 10752 10751 10750 ] final  -36.99 input  -60.55 | X-H torsion
[ 11005 11000 10999 10996 ] final  137.85 input  -57.11 | X-H torsion

> <Gold.Protein.ActiveResidues>
 VAL166  LYS551  ARG553  GLY616  TRP617  ASP618  TYR619  PRO620  LYS621  CYS622 
 ASP623  PHE694  ASN695  SER759  ASP760  ASP761  ALA762  ILE779  LEU786  VAL792 
 PHE793  MET794  SER795  GLU796  ALA797  LYS798  CYS799  TRP800  GLU811  SER814 

> <Gold.Protein.RotatedAtoms>
  152.2081  134.8526  160.0500 H   0  0  0  0  0  0  0  0  0  0  0  0  # atno 6907 bound_to 6896
  151.9355  133.3618  159.3954 H   0  0  0  0  0  0  0  0  0  0  0  0  # atno 6908 bound_to 6896
  150.6970  134.4418  159.5339 H   0  0  0  0  0  0  0  0  0  0  0  0  # atno 6909 bound_to 6896
  145.4511  140.9560  143.2021 H   0  0  0  0  0  0  0  0  0  0  0  0  # atno 7974 bound_to 7965
  155.6444  140.3497  155.4726 H   0  0  0  0  0  0  0  0  0  0  0  0  # atno 8008 bound_to 7997
  155.9899  140.1191  157.0671 H   0  0  0  0  0  0  0  0  0  0  0  0  # atno 8009 bound_to 7997
  154.4216  140.1121  156.5537 H   0  0  0  0  0  0  0  0  0  0  0  0  # atno 8010 bound_to 7997
  139.5181  144.6466  151.5421 H   0  0  0  0  0  0  0  0  0  0  0  0  # atno 10167 bound_to 10162
  157.6385  130.9463  150.0613 H   0  0  0  0  0  0  0  0  0  0  0  0  # atno 10718 bound_to 10713
  153.8889  135.6814  153.4762 H   0  0  0  0  0  0  0  0  0  0  0  0  # atno 10763 bound_to 10752
  153.1192  135.4747  154.9165 H   0  0  0  0  0  0  0  0  0  0  0  0  # atno 10764 bound_to 10752
  154.7632  135.3217  154.8290 H   0  0  0  0  0  0  0  0  0  0  0  0  # atno 10765 bound_to 10752
  140.0143  134.9425  157.0342 H   0  0  0  0  0  0  0  0  0  0  0  0  # atno 11005 bound_to 11000
  144.8061  139.6049  143.7050 LP  0  0  0  0  0  0  0  0  0  0  0  0  # atno 17320 bound_to 7965
  146.2503  139.6186  142.9431 LP  0  0  0  0  0  0  0  0  0  0  0  0  # atno 17321 bound_to 7965
  140.6254  143.9179  150.6560 LP  0  0  0  0  0  0  0  0  0  0  0  0  # atno 17342 bound_to 10162
  140.2466  143.3624  152.1442 LP  0  0  0  0  0  0  0  0  0  0  0  0  # atno 17343 bound_to 10162
  156.1645  130.3644  149.9252 LP  0  0  0  0  0  0  0  0  0  0  0  0  # atno 17370 bound_to 10713
  156.7243  130.9018  151.3621 LP  0  0  0  0  0  0  0  0  0  0  0  0  # atno 17371 bound_to 10713
  140.4499  134.1593  155.7180 LP  0  0  0  0  0  0  0  0  0  0  0  0  # atno 17394 bound_to 11000
  141.1732  133.8567  157.1505 LP  0  0  0  0  0  0  0  0  0  0  0  0  # atno 17395 bound_to 11000

$$$$
