AV-unprocessed.smi:1830|AV-procd|sdf|7452|dock5
  -GOLD-   22720 9143D 1   1.00000     0.00000
 Structure written by MMmdl.
 53 56  0  0  0  0  0  0  0  0  2 V2000
  149.2653  133.4303  155.5336 O   0  0  0  0  0  0  0  0  0  0  0  0
  149.1155  134.2106  154.5938 C   0  0  0  0  0  0  0  0  0  0  0  0
  149.6631  135.4330  154.5518 N   0  0  0  0  0  0  0  0  0  0  0  0
  150.5291  135.9971  155.5817 C   0  0  0  0  0  0  0  0  0  0  0  0
  150.7594  137.5039  155.3726 C   0  0  2  0  0  0  0  0  0  0  0  0
  150.8771  138.2629  156.7136 C   0  0  0  0  0  0  0  0  0  0  0  0
  150.9834  139.6871  156.4628 N   0  0  0  0  0  0  0  0  0  0  0  0
  151.0276  140.5544  157.6167 C   0  0  0  0  0  0  0  0  0  0  0  0
  150.7223  141.9529  157.0516 C   0  0  0  0  0  0  0  0  0  0  0  0
  150.0274  141.6791  155.6990 C   0  0  0  0  0  0  0  0  0  0  0  0
  149.8517  140.1598  155.7119 C   0  0  1  0  0  0  0  0  0  0  0  0
  149.7578  139.4406  154.3584 C   0  0  0  0  0  0  0  0  0  0  0  0
  149.6671  138.0359  154.6110 O   0  0  0  0  0  0  0  0  0  0  0  0
  148.4123  133.9552  153.4779 N   0  0  0  0  0  0  0  0  0  0  0  0
  147.7629  132.7450  153.1003 C   0  0  0  0  0  0  0  0  0  0  0  0
  148.1242  131.4997  153.6773 C   0  0  0  0  0  0  0  0  0  0  0  0
  147.4844  130.3178  153.2596 C   0  0  0  0  0  0  0  0  0  0  0  0
  146.4870  130.3972  152.2732 C   0  0  0  0  0  0  0  0  0  0  0  0
  146.1489  131.5980  151.7606 N   0  3  0  0  0  0  0  0  0  0  0  0
  146.7164  132.7730  152.1320 C   0  0  0  0  0  0  0  0  0  0  0  0
  146.2440  133.9545  151.5146 N   0  0  0  0  0  0  0  0  0  0  0  0
  145.3783  133.8790  150.3431 C   0  0  0  0  0  0  0  0  0  0  0  0
  144.8000  135.2824  150.1856 C   0  0  0  0  0  0  0  0  0  0  0  0
  144.6485  135.7386  151.6333 C   0  0  0  0  0  0  0  0  0  0  0  0
  145.8327  135.0798  152.3485 C   0  0  0  0  0  0  0  0  0  0  0  0
  149.4930  136.0080  153.7398 H   0  0  0  0  0  0  0  0  0  0  0  0
  150.0668  135.8214  156.5534 H   0  0  0  0  0  0  0  0  0  0  0  0
  151.4818  135.4649  155.5907 H   0  0  0  0  0  0  0  0  0  0  0  0
  151.6799  137.6548  154.8061 H   0  0  0  0  0  0  0  0  0  0  0  0
  150.0034  138.0576  157.3343 H   0  0  0  0  0  0  0  0  0  0  0  0
  151.7501  137.9168  157.2677 H   0  0  0  0  0  0  0  0  0  0  0  0
  150.2562  140.2676  158.3333 H   0  0  0  0  0  0  0  0  0  0  0  0
  151.9933  140.5057  158.1208 H   0  0  0  0  0  0  0  0  0  0  0  0
  150.0860  142.5198  157.7316 H   0  0  0  0  0  0  0  0  0  0  0  0
  151.6401  142.5219  156.8985 H   0  0  0  0  0  0  0  0  0  0  0  0
  149.0766  142.2032  155.5997 H   0  0  0  0  0  0  0  0  0  0  0  0
  150.6735  141.9866  154.8757 H   0  0  0  0  0  0  0  0  0  0  0  0
  148.9406  139.9382  156.2720 H   0  0  0  0  0  0  0  0  0  0  0  0
  148.8758  139.7671  153.8076 H   0  0  0  0  0  0  0  0  0  0  0  0
  150.6295  139.6523  153.7372 H   0  0  0  0  0  0  0  0  0  0  0  0
  148.4499  134.6677  152.7642 H   0  0  0  0  0  0  0  0  0  0  0  0
  148.8827  131.4291  154.4418 H   0  0  0  0  0  0  0  0  0  0  0  0
  147.7582  129.3650  153.6886 H   0  0  0  0  0  0  0  0  0  0  0  0
  145.9460  129.5451  151.8874 H   0  0  0  0  0  0  0  0  0  0  0  0
  145.9314  133.5670  149.4568 H   0  0  0  0  0  0  0  0  0  0  0  0
  144.5687  133.1680  150.5127 H   0  0  0  0  0  0  0  0  0  0  0  0
  145.5119  135.9246  149.6651 H   0  0  0  0  0  0  0  0  0  0  0  0
  143.8612  135.2960  149.6314 H   0  0  0  0  0  0  0  0  0  0  0  0
  144.6399  136.8237  151.7394 H   0  0  0  0  0  0  0  0  0  0  0  0
  143.7130  135.3540  152.0416 H   0  0  0  0  0  0  0  0  0  0  0  0
  145.5614  134.7680  153.3582 H   0  0  0  0  0  0  0  0  0  0  0  0
  146.6618  135.7845  152.4199 H   0  0  0  0  0  0  0  0  0  0  0  0
  145.4137  131.6240  151.0539 H   0  0  0  0  0  0  0  0  0  0  0  0
  1  2  2  0  0  0  0
  2  3  1  0  0  0  0
  2 14  1  0  0  0  0
  3  4  1  0  0  0  0
  3 26  1  0  0  0  0
  4  5  1  0  0  0  0
  4 27  1  0  0  0  0
  4 28  1  0  0  0  0
  5 13  1  0  0  0  0
  5  6  1  0  0  0  0
  5 29  1  0  0  0  0
  6  7  1  0  0  0  0
  6 30  1  0  0  0  0
  6 31  1  0  0  0  0
  7 11  1  0  0  0  0
  7  8  1  0  0  0  0
  8  9  1  0  0  0  0
  8 32  1  0  0  0  0
  8 33  1  0  0  0  0
  9 10  1  0  0  0  0
  9 34  1  0  0  0  0
  9 35  1  0  0  0  0
 10 11  1  0  0  0  0
 10 36  1  0  0  0  0
 10 37  1  0  0  0  0
 11 12  1  0  0  0  0
 11 38  1  0  0  0  0
 12 13  1  0  0  0  0
 12 39  1  0  0  0  0
 12 40  1  0  0  0  0
 14 15  1  0  0  0  0
 14 41  1  0  0  0  0
 15 20  1  0  0  0  0
 15 16  2  0  0  0  0
 16 17  1  0  0  0  0
 16 42  1  0  0  0  0
 17 18  2  0  0  0  0
 17 43  1  0  0  0  0
 18 19  1  0  0  0  0
 18 44  1  0  0  0  0
 19 20  2  0  0  0  0
 19 53  1  0  0  0  0
 20 21  1  0  0  0  0
 21 25  1  0  0  0  0
 21 22  1  0  0  0  0
 22 23  1  0  0  0  0
 22 45  1  0  0  0  0
 22 46  1  0  0  0  0
 23 24  1  0  0  0  0
 23 47  1  0  0  0  0
 23 48  1  0  0  0  0
 24 25  1  0  0  0  0
 24 49  1  0  0  0  0
 24 50  1  0  0  0  0
 25 51  1  0  0  0  0
 25 52  1  0  0  0  0
M  CHG  1  19   1
M  END
> <s_m_source_file>
AV-unprocessed.smi

> <i_m_source_file_index>
1830

> <i_lp_mmshare_version>
43012

> <i_f3d_flags>
0

> <s_epik_input>
W0NIMl0xW0NIMl1bQ0gyXVtDQEhdKE4xMilbQ0gyXU9bQ0BASF0oW0NIMl0yKVtDSDJdW05IXUMoPU8pW05IXWMzW2NIXVtjSF1bY0hdbmMzTjRbQ0gyXVtDSDJdW0NIMl1bQ0gyXTQ=

> <s_epik_cmdline>
J2VwaWtfcHl0aG9uJywgJy1waCcsICc3LjAnLCAnLXRuJywgJzgnLCAnLW1hJywgJzIwMCcsICctbWV0YWxfYmluZGluZycsICctaW1hZScsICc8aW5maWxlLm1hZT4nLCAnLW9tYWUnLCAnPG91dGZpbGUubWFlPic=

> <r_epik_Ionization_Penalty>
2.19264

> <r_epik_Ionization_Penalty_Charging>
1.12452

> <r_epik_Ionization_Penalty_Neutral>
1.06812

> <r_epik_State_Penalty>
2.334

> <r_epik_Charging_Adjusted_Penalty>
3.45852

> <i_epik_Tot_Q>
1

> <i_epik_Tot_abs_Q>
1

> <r_epik_Metal_State_Penalty>
2.41144

> <b_epik_Metal_Only>
0

> <s_lp_Force_Field>
OPLS_2005

> <r_lp_Energy>
81.6261

> <b_lp_Chiralities_Consistent>
1

> <s_lp_Variant>
AV-unprocessed.smi:1830-21

> <Gold.Version>
5.8.1

> <Gold.Id.Protein>
6NUR|6NUR_protein|mol2

> <Gold.PLP.Fitness>
44.3485

> <Gold.PLP.PLP>
-39.6059

> <Gold.PLP.part.hbond>
-2.1624

> <Gold.PLP.part.metal>
0.0000

> <Gold.PLP.part.buried>
-4.6271

> <Gold.PLP.part.nonpolar>
-32.6495

> <Gold.PLP.part.repulsive>
0.4240

> <Gold.PLP.ligand.clash>
0.0000

> <Gold.PLP.ligand.torsion>
0.8273

> <Gold.PLP.Chemscore.Hbond>
2.0000

> <Gold.PLP.Chemscore.CHOScore>
0.0000

> <Gold.PLP.Chemscore.Metal>
0.0000

> <Gold.Chemscore.Hbonds>
donor molecule, donor type, donor heavy atom, donor atom, acceptor molecule, acceptor atom, score
      L1  H     3    26       P1  7948  1.00
      L1  H    14    41       P1  7948  1.00

> <Gold.PLP.Chemscore.Internal.Correction>
0.3971

> <Gold.Rescore>
     Score         DG    S(hbond)    S(metal)    S(lipo)     H(rot)  DE(clash)    DE(int)     intcor
     14.05     -16.97       1.50        0.00      85.97       1.40       0.01       2.91       ----

> <Gold.Chemscore.Fitness>
14.0457

> <Gold.Chemscore.DG>
-16.9722

> <Gold.Chemscore.ZeroCoef>
-5.4800

> <Gold.Chemscore.Hbond>
1.4991

> <Gold.Chemscore.Metal>
0.0000

> <Gold.Chemscore.Lipo>
85.9725

> <Gold.Chemscore.Internal_Hbond>
0.0000

> <Gold.Chemscore.DEClash>
0.0121

> <Gold.Chemscore.DEInternal>
2.9144

> <Gold.Chemscore.Rot>
1.3959

> <Gold.Chemscore.Internal.Correction>
   9.000000E+99

> <Gold.Chemscore.Hbonds>
donor molecule, donor type, donor heavy atom, donor atom, acceptor molecule, acceptor atom, score
      L1  H     3    26       P1  7948  0.52
      L1  H    14    41       P1  7948  0.30

> <Gold.Chemscore.Hbond.Weighted>
-5.0070

> <Gold.Chemscore.Metal.Weighted>
-0.0000

> <Gold.Chemscore.Lipo.Weighted>
-10.0588

> <Gold.Chemscore.Internal_Hbond.Weighted>
0.0000

> <Gold.Chemscore.DEClash.Weighted>
0.0121

> <Gold.Chemscore.DEInternal.Weighted>
2.9144

> <Gold.Chemscore.Rot.Weighted>
3.5736

> <Gold.Chemscore.Internal.Correction.Weighted>
   9.000000E+99

> <Gold.Protein.RotatedTorsions>
[ 6907 6896 6895 6894 ] final   72.64 input  -60.11 | X-H torsion
[ 7974 7965 7964 7962 ] final  -37.01 input  175.53 | X-H torsion
[ 8008 7997 7996 7995 ] final  -32.74 input   59.86 | X-H torsion
[ 10167 10162 10161 10158 ] final  154.35 input  -65.29 | X-H torsion
[ 10718 10713 10712 10709 ] final    9.50 input   66.30 | X-H torsion
[ 10763 10752 10751 10750 ] final   41.43 input  -60.55 | X-H torsion
[ 11005 11000 10999 10996 ] final  -25.48 input  -57.11 | X-H torsion

> <Gold.Protein.ActiveResidues>
 VAL166  LYS551  ARG553  GLY616  TRP617  ASP618  TYR619  PRO620  LYS621  CYS622 
 ASP623  PHE694  ASN695  SER759  ASP760  ASP761  ALA762  ILE779  LEU786  VAL792 
 PHE793  MET794  SER795  GLU796  ALA797  LYS798  CYS799  TRP800  GLU811  SER814 

> <Gold.Protein.RotatedAtoms>
  152.4879  134.4541  159.9583 H   0  0  0  0  0  0  0  0  0  0  0  0  # atno 6907 bound_to 6896
  151.4534  133.3605  159.2806 H   0  0  0  0  0  0  0  0  0  0  0  0  # atno 6908 bound_to 6896
  150.9006  134.8442  159.7417 H   0  0  0  0  0  0  0  0  0  0  0  0  # atno 6909 bound_to 6896
  146.0612  140.6346  142.8996 H   0  0  0  0  0  0  0  0  0  0  0  0  # atno 7974 bound_to 7965
  154.4170  140.1729  156.1775 H   0  0  0  0  0  0  0  0  0  0  0  0  # atno 8008 bound_to 7997
  155.9709  140.3385  155.6551 H   0  0  0  0  0  0  0  0  0  0  0  0  # atno 8009 bound_to 7997
  155.6626  140.0702  157.2539 H   0  0  0  0  0  0  0  0  0  0  0  0  # atno 8010 bound_to 7997
  139.4823  144.5194  151.7900 H   0  0  0  0  0  0  0  0  0  0  0  0  # atno 10167 bound_to 10162
  156.9673  130.5955  149.5666 H   0  0  0  0  0  0  0  0  0  0  0  0  # atno 10718 bound_to 10713
  152.9908  135.6162  154.2786 H   0  0  0  0  0  0  0  0  0  0  0  0  # atno 10763 bound_to 10752
  154.2516  135.2785  155.2816 H   0  0  0  0  0  0  0  0  0  0  0  0  # atno 10764 bound_to 10752
  154.5283  135.5795  153.6795 H   0  0  0  0  0  0  0  0  0  0  0  0  # atno 10765 bound_to 10752
  140.8942  133.7568  156.0459 H   0  0  0  0  0  0  0  0  0  0  0  0  # atno 11005 bound_to 11000
  144.7176  140.4263  143.7032 LP  0  0  0  0  0  0  0  0  0  0  0  0  # atno 17320 bound_to 7965
  145.6557  139.1572  143.2837 LP  0  0  0  0  0  0  0  0  0  0  0  0  # atno 17321 bound_to 7965
  140.4706  144.1592  150.5917 LP  0  0  0  0  0  0  0  0  0  0  0  0  # atno 17342 bound_to 10162
  140.4386  143.2536  151.9503 LP  0  0  0  0  0  0  0  0  0  0  0  0  # atno 17343 bound_to 10162
  156.0297  130.5389  150.8502 LP  0  0  0  0  0  0  0  0  0  0  0  0  # atno 17370 bound_to 10713
  157.5617  131.0946  150.9549 LP  0  0  0  0  0  0  0  0  0  0  0  0  # atno 17371 bound_to 10713
  140.8310  134.3178  157.5349 LP  0  0  0  0  0  0  0  0  0  0  0  0  # atno 17394 bound_to 11000
  139.8733  134.9363  156.3657 LP  0  0  0  0  0  0  0  0  0  0  0  0  # atno 17395 bound_to 11000

$$$$
