#       Name:                AV-unprocessed.smi:2253
#       Creating user name   scv26
#       Creation time:       Fri Mar 27 12:32:12 2020


#       File generated by GOLD software.
#

@<TRIPOS>MOLECULE
AV-unprocessed.smi:2253
    55    57     1
SMALL
NO_CHARGES


@<TRIPOS>ATOM
      1 ****        -4.7174  -4.3439  -0.0193 C.3            1 S1                 0.0000
      2 ****        -3.2679  -4.0502  -0.0368 N.4            1 S1                 1.0000
      3 ****        -2.8244  -3.3156   1.1699 C.3            1 S1                 0.0000
      4 ****        -1.2965  -3.1367   1.1824 C.3            1 S1                 0.0000
      5 ****        -0.7701  -2.4203  -0.0881 C.3            1 S1                 0.0000
      6 ****         0.7299  -2.3212  -0.1267 N.4            1 S1                 1.0000
      7 ****         1.3895  -1.8808   1.1367 C.3            1 S1                 0.0000
      8 ****         1.1522  -0.3842   1.4132 C.3            1 S1                 0.0000
      9 ****         1.6749   0.4725   0.2472 C.3            1 S1                 0.0000
     10 ****         1.3666   1.8802   0.4837 N.am           1 S1                 0.0000
     11 ****         2.0202   2.9136  -0.0681 C.2            1 S1                 0.0000
     12 ****         2.9430   2.7735  -0.8696 O.2            1 S1                 0.0000
     13 ****         1.5300   4.0862   0.3708 N.am           1 S1                 0.0000
     14 ****         1.9385   5.4164   0.0681 C.ar           1 S1                 0.0000
     15 ****         3.0218   5.7603  -0.7782 C.ar           1 S1                 0.0000
     16 ****         3.3135   7.1242  -0.9822 C.ar           1 S1                 0.0000
     17 ****         2.6152   8.1290  -0.4130 N.ar           1 S1                 0.0000
     18 ****         1.5849   7.7989   0.3934 C.ar           1 S1                 0.0000
     19 ****         1.2096   6.4678   0.6642 C.ar           1 S1                 0.0000
     20 ****         0.1640   6.2077   1.4862 F              1 S1                 0.0000
     21 ****         1.0694  -0.0156  -1.0840 C.3            1 S1                 0.0000
     22 ****         1.2782  -1.5323  -1.2689 C.3            1 S1                 0.0000
     23 ****        -1.3192  -3.1818  -1.3210 C.3            1 S1                 0.0000
     24 ****        -2.8466  -3.3564  -1.2753 C.3            1 S1                 0.0000
     25 ****        -5.3046  -3.4246  -0.0281 H              1 S1                 0.0000
     26 ****        -4.9847  -4.9122   0.8723 H              1 S1                 0.0000
     27 ****        -5.0003  -4.9388  -0.8883 H              1 S1                 0.0000
     28 ****        -3.3172  -2.3426   1.2084 H              1 S1                 0.0000
     29 ****        -3.1330  -3.8619   2.0622 H              1 S1                 0.0000
     30 ****        -1.0524  -2.5674   2.0787 H              1 S1                 0.0000
     31 ****        -0.8171  -4.1113   1.2857 H              1 S1                 0.0000
     32 ****        -1.1875  -1.4133  -0.0915 H              1 S1                 0.0000
     33 ****         1.1003  -2.4918   1.9896 H              1 S1                 0.0000
     34 ****         2.4620  -2.0525   1.0336 H              1 S1                 0.0000
     35 ****         0.0898  -0.1978   1.5757 H              1 S1                 0.0000
     36 ****         1.6575  -0.0981   2.3366 H              1 S1                 0.0000
     37 ****         2.7595   0.3530   0.2035 H              1 S1                 0.0000
     38 ****         0.6192   2.0834   1.1317 H              1 S1                 0.0000
     39 ****         0.7596   4.0225   1.0200 H              1 S1                 0.0000
     40 ****         3.6357   5.0247  -1.2719 H              1 S1                 0.0000
     41 ****         4.1338   7.4158  -1.6214 H              1 S1                 0.0000
     42 ****         1.0436   8.6211   0.8376 H              1 S1                 0.0000
     43 ****         0.0069   0.2254  -1.1257 H              1 S1                 0.0000
     44 ****         1.5297   0.5150  -1.9182 H              1 S1                 0.0000
     45 ****         2.3487  -1.7332  -1.3328 H              1 S1                 0.0000
     46 ****         0.8781  -1.8581  -2.2261 H              1 S1                 0.0000
     47 ****        -1.0854  -2.6586  -2.2463 H              1 S1                 0.0000
     48 ****        -0.8443  -4.1617  -1.3908 H              1 S1                 0.0000
     49 ****        -3.1720  -3.9317  -2.1432 H              1 S1                 0.0000
     50 ****        -3.3388  -2.3843  -1.3371 H              1 S1                 0.0000
     51 ****         1.0477  -3.2691  -0.2722 H              1 S1                 0.0000
     52 ****        -2.7966  -4.9438  -0.0264 H              1 S1                 0.0000
     53 ****         3.2376   1.8562  -1.1377 LP             1 S1                 0.0000
     54 ****         3.3986   3.5769  -1.2530 LP             1 S1                 0.0000
     55 ****         2.8532   9.0853  -0.5830 LP             1 S1                 0.0000
@<TRIPOS>BOND
    1    1    2 1     
    2    1   25 1     
    3    1   26 1     
    4    1   27 1     
    5    2   24 1     
    6    2    3 1     
    7    2   52 1     
    8    3    4 1     
    9    3   28 1     
   10    3   29 1     
   11    4    5 1     
   12    4   30 1     
   13    4   31 1     
   14    5    6 1     
   15    5   23 1     
   16    5   32 1     
   17    6   22 1     
   18    6    7 1     
   19    6   51 1     
   20    7    8 1     
   21    7   33 1     
   22    7   34 1     
   23    8    9 1     
   24    8   35 1     
   25    8   36 1     
   26    9   10 1     
   27    9   21 1     
   28    9   37 1     
   29   10   11 am    
   30   10   38 1     
   31   11   12 2     
   32   11   13 am    
   33   13   14 1     
   34   13   39 1     
   35   14   19 ar    
   36   14   15 ar    
   37   15   16 ar    
   38   15   40 1     
   39   16   17 ar    
   40   16   41 1     
   41   17   18 ar    
   42   18   19 ar    
   43   18   42 1     
   44   19   20 1     
   45   21   22 1     
   46   21   43 1     
   47   21   44 1     
   48   22   45 1     
   49   22   46 1     
   50   23   24 1     
   51   23   47 1     
   52   23   48 1     
   53   24   49 1     
   54   24   50 1     
   55   12   53 1     
   56   12   54 1     
   57   17   55 1     
@<TRIPOS>SUBSTRUCTURE
      1 S1             1
@<TRIPOS>SET
LONE_PAIRS      STATIC     ATOMS    <user>   **** ""
3 53 54 55
DONOR_HYDROGENS      STATIC     ATOMS    <user>   **** ""
4 52 51 38 39
ATOM$BLUE        STATIC     ATOMS    COLORGROUP SYSTEM
3 53 54 55
ATOM$RED        STATIC     ATOMS    COLORGROUP SYSTEM
4 52 51 38 39
