AV-unprocessed.smi:2034|AV-procd|sdf|8267|dock5
  -GOLD-   2272010543D 1   1.00000     0.00000
 Structure written by MMmdl.
 50 52  0  0  0  0  0  0  0  0  1 V2000
  152.3052  144.5996  157.7951 C   0  0  0  0  0  0  0  0  0  0  0  0
  151.4575  143.7276  158.7383 C   0  0  1  0  0  0  0  0  0  0  0  0
  150.5764  142.7030  157.9975 C   0  0  0  0  0  0  0  0  0  0  0  0
  151.3685  141.5724  157.5167 N   0  0  0  0  0  0  0  0  0  0  0  0
  150.7550  140.7400  156.5538 C   0  0  0  0  0  0  0  0  0  0  0  0
  151.5051  139.8959  155.6968 C   0  0  0  0  0  0  0  0  0  0  0  0
  150.8315  139.0975  154.7525 C   0  0  0  0  0  0  0  0  0  0  0  0
  149.4207  139.1544  154.6873 C   0  0  0  0  0  0  0  0  0  0  0  0
  148.6334  138.4170  153.7624 N   0  0  0  0  0  0  0  0  0  0  0  0
  147.2941  138.3646  153.6646 C   0  0  0  0  0  0  0  0  0  0  0  0
  146.5061  139.0229  154.3437 O   0  0  0  0  0  0  0  0  0  0  0  0
  146.9119  137.5094  152.7058 N   0  0  0  0  0  0  0  0  0  0  0  0
  145.5289  137.2071  152.3543 C   0  0  0  0  0  0  0  0  0  0  0  0
  145.4338  135.9632  151.4549 C   0  0  2  0  0  0  0  0  0  0  0  0
  144.0013  135.4789  151.2311 C   0  0  0  0  0  0  0  0  0  0  0  0
  144.2149  134.0132  150.9299 C   0  0  0  0  0  0  0  0  0  0  0  0
  145.3365  133.6643  151.9019 C   0  0  0  0  0  0  0  0  0  0  0  0
  146.1122  134.8515  152.0382 O   0  0  0  0  0  0  0  0  0  0  0  0
  148.7626  140.0337  155.5686 C   0  0  0  0  0  0  0  0  0  0  0  0
  149.4037  140.7986  156.4765 N   0  0  0  0  0  0  0  0  0  0  0  0
  152.2038  140.9601  158.5442 C   0  0  0  0  0  0  0  0  0  0  0  0
  153.0762  142.0223  159.2365 C   0  0  2  0  0  0  0  0  0  0  0  0
  153.8583  141.4364  160.4165 C   0  0  0  0  0  0  0  0  0  0  0  0
  152.2501  143.0743  159.7318 O   0  0  0  0  0  0  0  0  0  0  0  0
  151.6661  145.1912  157.1396 H   0  0  0  0  0  0  0  0  0  0  0  0
  152.9579  144.0055  157.1564 H   0  0  0  0  0  0  0  0  0  0  0  0
  152.9278  145.2927  158.3610 H   0  0  0  0  0  0  0  0  0  0  0  0
  150.7944  144.4043  159.2779 H   0  0  0  0  0  0  0  0  0  0  0  0
  149.8146  142.3175  158.6760 H   0  0  0  0  0  0  0  0  0  0  0  0
  150.0478  143.2063  157.1882 H   0  0  0  0  0  0  0  0  0  0  0  0
  152.5817  139.8377  155.7449 H   0  0  0  0  0  0  0  0  0  0  0  0
  151.4106  138.4717  154.0913 H   0  0  0  0  0  0  0  0  0  0  0  0
  149.1519  137.8972  153.0697 H   0  0  0  0  0  0  0  0  0  0  0  0
  147.6289  137.0170  152.1934 H   0  0  0  0  0  0  0  0  0  0  0  0
  144.9168  137.0847  153.2496 H   0  0  0  0  0  0  0  0  0  0  0  0
  145.1290  138.0714  151.8236 H   0  0  0  0  0  0  0  0  0  0  0  0
  145.8939  136.1626  150.4855 H   0  0  0  0  0  0  0  0  0  0  0  0
  143.4103  135.5878  152.1419 H   0  0  0  0  0  0  0  0  0  0  0  0
  143.4929  136.0123  150.4275 H   0  0  0  0  0  0  0  0  0  0  0  0
  143.3201  133.4073  151.0743 H   0  0  0  0  0  0  0  0  0  0  0  0
  144.5540  133.8863  149.9009 H   0  0  0  0  0  0  0  0  0  0  0  0
  144.9266  133.4064  152.8791 H   0  0  0  0  0  0  0  0  0  0  0  0
  145.9437  132.8274  151.5568 H   0  0  0  0  0  0  0  0  0  0  0  0
  147.6864  140.1257  155.5503 H   0  0  0  0  0  0  0  0  0  0  0  0
  151.5648  140.4591  159.2728 H   0  0  0  0  0  0  0  0  0  0  0  0
  152.8559  140.2060  158.1024 H   0  0  0  0  0  0  0  0  0  0  0  0
  153.7962  142.4247  158.5239 H   0  0  0  0  0  0  0  0  0  0  0  0
  154.5173  140.6320  160.0893 H   0  0  0  0  0  0  0  0  0  0  0  0
  153.1862  141.0320  161.1740 H   0  0  0  0  0  0  0  0  0  0  0  0
  154.4758  142.1987  160.8920 H   0  0  0  0  0  0  0  0  0  0  0  0
  1  2  1  0  0  0  0
  1 25  1  0  0  0  0
  1 26  1  0  0  0  0
  1 27  1  0  0  0  0
  2 24  1  0  0  0  0
  2  3  1  0  0  0  0
  2 28  1  0  0  0  0
  3  4  1  0  0  0  0
  3 29  1  0  0  0  0
  3 30  1  0  0  0  0
  4  5  1  0  0  0  0
  4 21  1  0  0  0  0
  5 20  1  0  0  0  0
  5  6  2  0  0  0  0
  6  7  1  0  0  0  0
  6 31  1  0  0  0  0
  7  8  2  0  0  0  0
  7 32  1  0  0  0  0
  8  9  1  0  0  0  0
  8 19  1  0  0  0  0
  9 10  1  0  0  0  0
  9 33  1  0  0  0  0
 10 11  2  0  0  0  0
 10 12  1  0  0  0  0
 12 13  1  0  0  0  0
 12 34  1  0  0  0  0
 13 14  1  0  0  0  0
 13 35  1  0  0  0  0
 13 36  1  0  0  0  0
 14 18  1  0  0  0  0
 14 15  1  0  0  0  0
 14 37  1  0  0  0  0
 15 16  1  0  0  0  0
 15 38  1  0  0  0  0
 15 39  1  0  0  0  0
 16 17  1  0  0  0  0
 16 40  1  0  0  0  0
 16 41  1  0  0  0  0
 17 18  1  0  0  0  0
 17 42  1  0  0  0  0
 17 43  1  0  0  0  0
 19 20  2  0  0  0  0
 19 44  1  0  0  0  0
 21 22  1  0  0  0  0
 21 45  1  0  0  0  0
 21 46  1  0  0  0  0
 22 23  1  0  0  0  0
 22 24  1  0  0  0  0
 22 47  1  0  0  0  0
 23 48  1  0  0  0  0
 23 49  1  0  0  0  0
 23 50  1  0  0  0  0
M  END
> <s_m_source_file>
AV-unprocessed.smi

> <i_m_source_file_index>
2034

> <i_lp_mmshare_version>
43012

> <i_f3d_flags>
0

> <s_epik_input>
W0NIM11bQ0BASF0xW0NIMl1OKFtDSDJdW0NASF0oTzEpW0NIM10pYzJbY0hdW2NIXWMoW2NIXW4yKVtOSF1DKD1PKVtOSF1bQ0gyXVtDQEBIXTNbQ0gyXVtDSDJdW0NIMl1PMw==

> <s_epik_cmdline>
J2VwaWtfcHl0aG9uJywgJy1waCcsICc3LjAnLCAnLXRuJywgJzgnLCAnLW1hJywgJzIwMCcsICctbWV0YWxfYmluZGluZycsICctaW1hZScsICc8aW5maWxlLm1hZT4nLCAnLW9tYWUnLCAnPG91dGZpbGUubWFlPic=

> <r_lp_tautomer_probability>
1

> <r_epik_Ionization_Penalty>
0.00268225

> <r_epik_Ionization_Penalty_Charging>
0

> <r_epik_Ionization_Penalty_Neutral>
0.00268225

> <r_epik_State_Penalty>
0.00184408

> <r_epik_Charging_Adjusted_Penalty>
0.00184408

> <i_epik_Tot_Q>
0

> <i_epik_Tot_abs_Q>
0

> <r_epik_Metal_State_Penalty>
-0

> <b_epik_Metal_Only>
0

> <s_lp_Force_Field>
OPLS_2005

> <r_lp_Energy>
36.2022

> <b_lp_Chiralities_Consistent>
1

> <s_lp_Variant>
AV-unprocessed.smi:2034-5

> <Gold.Version>
5.8.1

> <Gold.Id.Protein>
6NUR|6NUR_protein|mol2

> <Gold.PLP.Fitness>
49.3026

> <Gold.PLP.PLP>
-44.3952

> <Gold.PLP.part.hbond>
-2.6036

> <Gold.PLP.part.metal>
0.0000

> <Gold.PLP.part.buried>
-6.9863

> <Gold.PLP.part.nonpolar>
-37.0379

> <Gold.PLP.part.repulsive>
1.0922

> <Gold.PLP.ligand.clash>
0.0000

> <Gold.PLP.ligand.torsion>
0.3993

> <Gold.PLP.Chemscore.Hbond>
1.7525

> <Gold.PLP.Chemscore.CHOScore>
0.0000

> <Gold.PLP.Chemscore.Metal>
0.0000

> <Gold.Chemscore.Hbonds>
donor molecule, donor type, donor heavy atom, donor atom, acceptor molecule, acceptor atom, score
      L1  H     9    33       P1  7948  0.81
      L1  H    12    34       P1  7948  1.00

> <Gold.PLP.Chemscore.Internal.Correction>
0.4484

> <Gold.Rescore>
     Score         DG    S(hbond)    S(metal)    S(lipo)     H(rot)  DE(clash)    DE(int)     intcor
     19.34     -21.20       1.85        0.00     111.39       1.37       0.01       1.85       ----

> <Gold.Chemscore.Fitness>
19.3440

> <Gold.Chemscore.DG>
-21.2028

> <Gold.Chemscore.ZeroCoef>
-5.4800

> <Gold.Chemscore.Hbond>
1.8525

> <Gold.Chemscore.Metal>
0.0000

> <Gold.Chemscore.Lipo>
111.3945

> <Gold.Chemscore.Internal_Hbond>
0.0000

> <Gold.Chemscore.DEClash>
0.0067

> <Gold.Chemscore.DEInternal>
1.8521

> <Gold.Chemscore.Rot>
1.3663

> <Gold.Chemscore.Internal.Correction>
   9.000000E+99

> <Gold.Chemscore.Hbonds>
donor molecule, donor type, donor heavy atom, donor atom, acceptor molecule, acceptor atom, score
      L1  H     9    33       P1  7948  0.76
      L1  H    12    34       P1  7948  0.96

> <Gold.Chemscore.Hbond.Weighted>
-6.1873

> <Gold.Chemscore.Metal.Weighted>
-0.0000

> <Gold.Chemscore.Lipo.Weighted>
-13.0332

> <Gold.Chemscore.Internal_Hbond.Weighted>
0.0000

> <Gold.Chemscore.DEClash.Weighted>
0.0067

> <Gold.Chemscore.DEInternal.Weighted>
1.8521

> <Gold.Chemscore.Rot.Weighted>
3.4977

> <Gold.Chemscore.Internal.Correction.Weighted>
   9.000000E+99

> <Gold.Protein.RotatedTorsions>
[ 6907 6896 6895 6894 ] final  -19.18 input  -60.11 | X-H torsion
[ 7974 7965 7964 7962 ] final  146.01 input  175.53 | X-H torsion
[ 8008 7997 7996 7995 ] final  156.68 input   59.86 | X-H torsion
[ 10167 10162 10161 10158 ] final   67.79 input  -65.29 | X-H torsion
[ 10718 10713 10712 10709 ] final  112.68 input   66.30 | X-H torsion
[ 10763 10752 10751 10750 ] final  123.10 input  -60.55 | X-H torsion
[ 11005 11000 10999 10996 ] final   82.20 input  -57.11 | X-H torsion

> <Gold.Protein.ActiveResidues>
 VAL166  LYS551  ARG553  GLY616  TRP617  ASP618  TYR619  PRO620  LYS621  CYS622 
 ASP623  PHE694  ASN695  SER759  ASP760  ASP761  ALA762  ILE779  LEU786  VAL792 
 PHE793  MET794  SER795  GLU796  ALA797  LYS798  CYS799  TRP800  GLU811  SER814 

> <Gold.Protein.RotatedAtoms>
  151.2671  135.0672  159.9119 H   0  0  0  0  0  0  0  0  0  0  0  0  # atno 6907 bound_to 6896
  152.5357  134.0170  159.7974 H   0  0  0  0  0  0  0  0  0  0  0  0  # atno 6908 bound_to 6896
  151.0402  133.5663  159.2683 H   0  0  0  0  0  0  0  0  0  0  0  0  # atno 6909 bound_to 6896
  144.8706  139.5853  143.5889 H   0  0  0  0  0  0  0  0  0  0  0  0  # atno 7974 bound_to 7965
  156.2409  140.1906  156.6992 H   0  0  0  0  0  0  0  0  0  0  0  0  # atno 8008 bound_to 7997
  154.6194  140.0610  156.9623 H   0  0  0  0  0  0  0  0  0  0  0  0  # atno 8009 bound_to 7997
  155.1886  140.3282  155.4365 H   0  0  0  0  0  0  0  0  0  0  0  0  # atno 8010 bound_to 7997
  140.0857  144.5032  150.7132 H   0  0  0  0  0  0  0  0  0  0  0  0  # atno 10167 bound_to 10162
  157.6379  131.0971  150.6931 H   0  0  0  0  0  0  0  0  0  0  0  0  # atno 10718 bound_to 10713
  153.6401  135.3381  155.3069 H   0  0  0  0  0  0  0  0  0  0  0  0  # atno 10763 bound_to 10752
  154.8561  135.4316  154.2013 H   0  0  0  0  0  0  0  0  0  0  0  0  # atno 10764 bound_to 10752
  153.2930  135.7018  153.7349 H   0  0  0  0  0  0  0  0  0  0  0  0  # atno 10765 bound_to 10752
  139.9072  134.8053  156.2142 H   0  0  0  0  0  0  0  0  0  0  0  0  # atno 11005 bound_to 11000
  146.2927  139.7187  142.9149 LP  0  0  0  0  0  0  0  0  0  0  0  0  # atno 17320 bound_to 7965
  145.4138  141.0399  143.3002 LP  0  0  0  0  0  0  0  0  0  0  0  0  # atno 17321 bound_to 7965
  140.7055  143.2465  151.4739 LP  0  0  0  0  0  0  0  0  0  0  0  0  # atno 17342 bound_to 10162
  139.5754  144.1832  152.1895 LP  0  0  0  0  0  0  0  0  0  0  0  0  # atno 17343 bound_to 10162
  156.7259  130.4695  149.5511 LP  0  0  0  0  0  0  0  0  0  0  0  0  # atno 17370 bound_to 10713
  156.1634  130.6389  151.0748 LP  0  0  0  0  0  0  0  0  0  0  0  0  # atno 17371 bound_to 10713
  141.0446  133.6920  156.1660 LP  0  0  0  0  0  0  0  0  0  0  0  0  # atno 17394 bound_to 11000
  140.6904  134.4672  157.5588 LP  0  0  0  0  0  0  0  0  0  0  0  0  # atno 17395 bound_to 11000

$$$$
