#       Name:                AV-unprocessed.smi:2390
#       Creating user name   scv26
#       Creation time:       Fri Mar 27 13:10:33 2020


#       File generated by GOLD software.
#

@<TRIPOS>MOLECULE
AV-unprocessed.smi:2390
    51    52     1
SMALL
NO_CHARGES


@<TRIPOS>ATOM
      1 ****        -4.2692   4.3075  -1.2462 C.3            1 S1                 0.0000
      2 ****        -4.5619   2.8399  -1.0151 C.ar           1 S1                 0.0000
      3 ****        -5.8867   2.3738  -0.9059 C.ar           1 S1                 0.0000
      4 ****        -6.0902   0.9984  -0.6957 C.ar           1 S1                 0.0000
      5 ****        -4.9689   0.1513  -0.6059 C.ar           1 S1                 0.0000
      6 ****        -3.6721   0.6995  -0.7274 C.ar           1 S1                 0.0000
      7 ****        -2.6104  -0.2388  -0.6318 N.am           1 S1                 0.0000
      8 ****        -1.2871  -0.0049  -0.6804 C.2            1 S1                 0.0000
      9 ****        -0.7613   1.1053  -0.7677 O.2            1 S1                 0.0000
     10 ****        -0.5920  -1.1500  -0.6135 N.am           1 S1                 0.0000
     11 ****         0.8660  -1.2629  -0.6382 C.3            1 S1                 0.0000
     12 ****         1.2462  -2.6537  -1.1762 C.3            1 S1                 0.0000
     13 ****         1.5001  -0.9410   0.7546 C.3            1 S1                 0.0000
     14 ****         0.9017  -1.8768   1.8378 C.3            1 S1                 0.0000
     15 ****         2.9828  -0.9332   0.7515 N.3            1 S1                 0.0000
     16 ****         3.5463   0.0160  -0.2156 C.3            1 S1                 0.0000
     17 ****         5.0848   0.0377  -0.2023 C.3            1 S1                 0.0000
     18 ****         5.5516   0.3338   1.1068 O.3            1 S1                 0.0000
     19 ****         5.0890  -0.6085   2.0642 C.3            1 S1                 0.0000
     20 ****         3.5508  -0.6266   2.0689 C.3            1 S1                 0.0000
     21 ****        -3.4863   2.0278  -0.9291 N.ar           1 S1                 0.0000
     22 ****        -5.1592   4.9173  -1.0887 H              1 S1                 0.0000
     23 ****        -3.9224   4.4662  -2.2675 H              1 S1                 0.0000
     24 ****        -3.4948   4.6559  -0.5620 H              1 S1                 0.0000
     25 ****        -6.7261   3.0495  -0.9816 H              1 S1                 0.0000
     26 ****        -7.0894   0.5984  -0.6061 H              1 S1                 0.0000
     27 ****        -5.1080  -0.9083  -0.4464 H              1 S1                 0.0000
     28 ****        -2.8916  -1.2028  -0.5318 H              1 S1                 0.0000
     29 ****        -1.1088  -2.0139  -0.5398 H              1 S1                 0.0000
     30 ****         1.2008  -0.5327  -1.3739 H              1 S1                 0.0000
     31 ****         2.3274  -2.7666  -1.2567 H              1 S1                 0.0000
     32 ****         0.8304  -2.8125  -2.1716 H              1 S1                 0.0000
     33 ****         0.8742  -3.4529  -0.5348 H              1 S1                 0.0000
     34 ****         1.1740   0.0673   1.0150 H              1 S1                 0.0000
     35 ****        -0.1831  -1.9520   1.7748 H              1 S1                 0.0000
     36 ****         1.1045  -1.5134   2.8446 H              1 S1                 0.0000
     37 ****         1.3052  -2.8866   1.7608 H              1 S1                 0.0000
     38 ****         3.2445  -0.2391  -1.2293 H              1 S1                 0.0000
     39 ****         3.1673   1.0191  -0.0138 H              1 S1                 0.0000
     40 ****         5.4865  -0.9217  -0.5321 H              1 S1                 0.0000
     41 ****         5.4581   0.7949  -0.8920 H              1 S1                 0.0000
     42 ****         5.4872  -1.5985   1.8352 H              1 S1                 0.0000
     43 ****         5.4680  -0.3312   3.0479 H              1 S1                 0.0000
     44 ****         3.1787   0.3383   2.4166 H              1 S1                 0.0000
     45 ****         3.2418  -1.3693   2.8025 H              1 S1                 0.0000
     46 ****        -1.3306   1.9264  -0.8084 LP             1 S1                 0.0000
     47 ****         0.2350   1.1857  -0.7979 LP             1 S1                 0.0000
     48 ****         3.2334  -1.8646   0.4874 LP             1 S1                 0.0000
     49 ****         5.2276   1.2434   1.3667 LP             1 S1                 0.0000
     50 ****         6.5516   0.3248   1.1024 LP             1 S1                 0.0000
     51 ****        -2.5627   2.4018  -1.0133 LP             1 S1                 0.0000
@<TRIPOS>BOND
    1    1    2 1     
    2    1   22 1     
    3    1   23 1     
    4    1   24 1     
    5    2   21 ar    
    6    2    3 ar    
    7    3    4 ar    
    8    3   25 1     
    9    4    5 ar    
   10    4   26 1     
   11    5    6 ar    
   12    5   27 1     
   13    6    7 1     
   14    6   21 ar    
   15    7    8 am    
   16    7   28 1     
   17    8    9 2     
   18    8   10 am    
   19   10   11 1     
   20   10   29 1     
   21   11   12 1     
   22   11   13 1     
   23   11   30 1     
   24   12   31 1     
   25   12   32 1     
   26   12   33 1     
   27   13   14 1     
   28   13   15 1     
   29   13   34 1     
   30   14   35 1     
   31   14   36 1     
   32   14   37 1     
   33   15   20 1     
   34   15   16 1     
   35   16   17 1     
   36   16   38 1     
   37   16   39 1     
   38   17   18 1     
   39   17   40 1     
   40   17   41 1     
   41   18   19 1     
   42   19   20 1     
   43   19   42 1     
   44   19   43 1     
   45   20   44 1     
   46   20   45 1     
   47    9   46 1     
   48    9   47 1     
   49   15   48 1     
   50   18   49 1     
   51   18   50 1     
   52   21   51 1     
@<TRIPOS>SUBSTRUCTURE
      1 S1             1
@<TRIPOS>SET
LONE_PAIRS      STATIC     ATOMS    <user>   **** ""
6 46 47 48 49 50 51
DONOR_HYDROGENS      STATIC     ATOMS    <user>   **** ""
2 28 29
ATOM$BLUE        STATIC     ATOMS    COLORGROUP SYSTEM
6 46 47 48 49 50 51
ATOM$RED        STATIC     ATOMS    COLORGROUP SYSTEM
2 28 29
