AV-unprocessed.smi:1724|AV-procd|sdf|6950|dock7
  -GOLD-   22720 8163D 1   1.00000     0.00000
 Structure written by MMmdl.
 38 39  0  0  0  0  0  0  0  0  1 V2000
  151.4319  137.2274  159.8436 O   0  0  0  0  0  0  0  0  0  0  0  0
  150.6110  137.6836  159.0487 C   0  0  0  0  0  0  0  0  0  0  0  0
  150.8562  138.7450  158.2667 N   0  0  0  0  0  0  0  0  0  0  0  0
  152.1020  139.5063  158.2305 C   0  0  0  0  0  0  0  0  0  0  0  0
  151.9357  140.9297  158.8006 C   0  0  1  0  0  0  0  0  0  0  0  0
  153.2788  141.6191  159.1072 C   0  0  0  0  0  0  0  0  0  0  0  0
  153.0419  143.0582  159.5791 C   0  0  0  0  0  0  0  0  0  0  0  0
  152.1621  143.8155  158.5737 C   0  0  0  0  0  0  0  0  0  0  0  0
  150.9369  143.1164  158.3867 O   0  0  0  0  0  0  0  0  0  0  0  0
  151.1169  141.8146  157.8387 C   0  0  0  0  0  0  0  0  0  0  0  0
  149.3703  137.2090  158.8303 N   0  0  0  0  0  0  0  0  0  0  0  0
  148.7009  136.1237  159.4231 C   0  0  0  0  0  0  0  0  0  0  0  0
  148.4473  135.9870  160.7516 C   0  0  0  0  0  0  0  0  0  0  0  0
  147.7444  134.8313  161.2869 C   0  0  0  0  0  0  0  0  0  0  0  0
  147.4638  134.6611  162.7714 C   0  0  0  0  0  0  0  0  0  0  0  0
  148.0150  133.5323  163.2171 F   0  0  0  0  0  0  0  0  0  0  0  0
  147.9910  135.6742  163.4587 F   0  0  0  0  0  0  0  0  0  0  0  0
  146.1558  134.6175  163.0259 F   0  0  0  0  0  0  0  0  0  0  0  0
  147.3500  133.9026  160.3978 C   0  0  0  0  0  0  0  0  0  0  0  0
  147.6000  134.0387  159.0311 N   0  0  0  0  0  0  0  0  0  0  0  0
  148.2488  135.0878  158.4785 C   0  0  0  0  0  0  0  0  0  0  0  0
  148.4285  135.1347  157.2620 O   0  0  0  0  0  0  0  0  0  0  0  0
  147.2699  133.2992  158.4279 H   0  0  0  0  0  0  0  0  0  0  0  0
  150.1240  139.0494  157.6420 H   0  0  0  0  0  0  0  0  0  0  0  0
  152.9026  138.9793  158.7524 H   0  0  0  0  0  0  0  0  0  0  0  0
  152.4128  139.5667  157.1871 H   0  0  0  0  0  0  0  0  0  0  0  0
  151.3758  140.8537  159.7342 H   0  0  0  0  0  0  0  0  0  0  0  0
  153.8316  141.0727  159.8716 H   0  0  0  0  0  0  0  0  0  0  0  0
  153.9037  141.6256  158.2131 H   0  0  0  0  0  0  0  0  0  0  0  0
  152.5535  143.0483  160.5544 H   0  0  0  0  0  0  0  0  0  0  0  0
  153.9939  143.5732  159.7107 H   0  0  0  0  0  0  0  0  0  0  0  0
  151.9433  144.8166  158.9456 H   0  0  0  0  0  0  0  0  0  0  0  0
  152.6759  143.9351  157.6185 H   0  0  0  0  0  0  0  0  0  0  0  0
  151.6015  141.8853  156.8633 H   0  0  0  0  0  0  0  0  0  0  0  0
  150.1329  141.3759  157.6716 H   0  0  0  0  0  0  0  0  0  0  0  0
  148.8345  137.6850  158.1190 H   0  0  0  0  0  0  0  0  0  0  0  0
  148.7539  136.7411  161.4562 H   0  0  0  0  0  0  0  0  0  0  0  0
  146.8215  132.9984  160.6619 H   0  0  0  0  0  0  0  0  0  0  0  0
  1  2  2  0  0  0  0
  2  3  1  0  0  0  0
  2 11  1  0  0  0  0
  3  4  1  0  0  0  0
  3 24  1  0  0  0  0
  4  5  1  0  0  0  0
  4 25  1  0  0  0  0
  4 26  1  0  0  0  0
  5 10  1  0  0  0  0
  5  6  1  0  0  0  0
  5 27  1  0  0  0  0
  6  7  1  0  0  0  0
  6 28  1  0  0  0  0
  6 29  1  0  0  0  0
  7  8  1  0  0  0  0
  7 30  1  0  0  0  0
  7 31  1  0  0  0  0
  8  9  1  0  0  0  0
  8 32  1  0  0  0  0
  8 33  1  0  0  0  0
  9 10  1  0  0  0  0
 10 34  1  0  0  0  0
 10 35  1  0  0  0  0
 11 12  1  0  0  0  0
 11 36  1  0  0  0  0
 12 21  1  0  0  0  0
 12 13  2  0  0  0  0
 13 14  1  0  0  0  0
 13 37  1  0  0  0  0
 14 15  1  0  0  0  0
 14 19  2  0  0  0  0
 15 16  1  0  0  0  0
 15 17  1  0  0  0  0
 15 18  1  0  0  0  0
 19 20  1  0  0  0  0
 19 38  1  0  0  0  0
 20 23  1  0  0  0  0
 20 21  1  0  0  0  0
 21 22  2  0  0  0  0
M  END
> <s_m_source_file>
AV-unprocessed.smi

> <i_m_source_file_index>
1724

> <i_lp_mmshare_version>
43012

> <i_f3d_flags>
0

> <s_epik_input>
Tz1jMVtuSF1bY0hdYyhDKEYpKEYpRilbY0hdYzFbTkhdQyg9TylbTkhdW0NIMl1bQ0BASF0yW0NIMl1bQ0gyXVtDSDJdT1tDSDJdMg==

> <s_epik_cmdline>
J2VwaWtfcHl0aG9uJywgJy1waCcsICc3LjAnLCAnLXRuJywgJzgnLCAnLW1hJywgJzIwMCcsICctbWV0YWxfYmluZGluZycsICctaW1hZScsICc8aW5maWxlLm1hZT4nLCAnLW9tYWUnLCAnPG91dGZpbGUubWFlPic=

> <r_lp_tautomer_probability>
1

> <r_epik_Ionization_Penalty>
0.00384958

> <r_epik_Ionization_Penalty_Charging>
0.00382926

> <r_epik_Ionization_Penalty_Neutral>
2.03186e-05

> <r_epik_State_Penalty>
-0

> <r_epik_Charging_Adjusted_Penalty>
0.00382926

> <i_epik_Tot_Q>
0

> <i_epik_Tot_abs_Q>
0

> <r_epik_Metal_State_Penalty>
0.371494

> <b_epik_Metal_Only>
0

> <s_lp_Force_Field>
OPLS_2005

> <r_lp_Energy>
21.778

> <b_lp_Chiralities_Consistent>
1

> <s_lp_Variant>
AV-unprocessed.smi:1724-2

> <Gold.Version>
5.8.1

> <Gold.Id.Protein>
6NUR|6NUR_protein|mol2

> <Gold.PLP.Fitness>
42.5061

> <Gold.PLP.PLP>
-40.8715

> <Gold.PLP.part.hbond>
-0.9574

> <Gold.PLP.part.metal>
0.0000

> <Gold.PLP.part.buried>
-5.8725

> <Gold.PLP.part.nonpolar>
-34.9869

> <Gold.PLP.part.repulsive>
0.3362

> <Gold.PLP.ligand.clash>
0.0000

> <Gold.PLP.ligand.torsion>
0.6787

> <Gold.PLP.Chemscore.Hbond>
0.9913

> <Gold.PLP.Chemscore.CHOScore>
0.0000

> <Gold.PLP.Chemscore.Metal>
0.0000

> <Gold.Chemscore.Hbonds>
donor molecule, donor type, donor heavy atom, donor atom, acceptor molecule, acceptor atom, score
      P1  H  6896  6908       L1     1  0.93

> <Gold.PLP.Chemscore.Internal.Correction>
0.0183

> <Gold.Rescore>
     Score         DG    S(hbond)    S(metal)    S(lipo)     H(rot)  DE(clash)    DE(int)     intcor
     14.54     -15.13       0.98        0.00      83.60       1.33       0.03       0.56       ----

> <Gold.Chemscore.Fitness>
14.5403

> <Gold.Chemscore.DG>
-15.1262

> <Gold.Chemscore.ZeroCoef>
-5.4800

> <Gold.Chemscore.Hbond>
0.9822

> <Gold.Chemscore.Metal>
0.0000

> <Gold.Chemscore.Lipo>
83.6039

> <Gold.Chemscore.Internal_Hbond>
0.0000

> <Gold.Chemscore.DEClash>
0.0309

> <Gold.Chemscore.DEInternal>
0.5550

> <Gold.Chemscore.Rot>
1.3344

> <Gold.Chemscore.Internal.Correction>
   9.000000E+99

> <Gold.Chemscore.Hbonds>
donor molecule, donor type, donor heavy atom, donor atom, acceptor molecule, acceptor atom, score
      P1  H  6896  6908       L1     1  0.80

> <Gold.Chemscore.Hbond.Weighted>
-3.2805

> <Gold.Chemscore.Metal.Weighted>
-0.0000

> <Gold.Chemscore.Lipo.Weighted>
-9.7817

> <Gold.Chemscore.Internal_Hbond.Weighted>
0.0000

> <Gold.Chemscore.DEClash.Weighted>
0.0309

> <Gold.Chemscore.DEInternal.Weighted>
0.5550

> <Gold.Chemscore.Rot.Weighted>
3.4160

> <Gold.Chemscore.Internal.Correction.Weighted>
   9.000000E+99

> <Gold.Protein.RotatedTorsions>
[ 6907 6896 6895 6894 ] final -126.27 input  -60.11 | X-H torsion
[ 7974 7965 7964 7962 ] final -117.64 input  175.53 | X-H torsion
[ 8008 7997 7996 7995 ] final -164.26 input   59.86 | X-H torsion
[ 10167 10162 10161 10158 ] final   69.56 input  -65.29 | X-H torsion
[ 10718 10713 10712 10709 ] final -112.94 input   66.30 | X-H torsion
[ 10763 10752 10751 10750 ] final -147.42 input  -60.55 | X-H torsion
[ 11005 11000 10999 10996 ] final  -25.33 input  -57.11 | X-H torsion

> <Gold.Protein.ActiveResidues>
 VAL166  LYS551  ARG553  GLY616  TRP617  ASP618  TYR619  PRO620  LYS621  CYS622 
 ASP623  PHE694  ASN695  SER759  ASP760  ASP761  ALA762  ILE779  LEU786  VAL792 
 PHE793  MET794  SER795  GLU796  ALA797  LYS798  CYS799  TRP800  GLU811  SER814 

> <Gold.Protein.RotatedAtoms>
  150.8952  133.7190  159.2893 H   0  0  0  0  0  0  0  0  0  0  0  0  # atno 6907 bound_to 6896
  151.4727  135.1045  159.9765 H   0  0  0  0  0  0  0  0  0  0  0  0  # atno 6908 bound_to 6896
  152.4844  133.8288  159.7148 H   0  0  0  0  0  0  0  0  0  0  0  0  # atno 6909 bound_to 6896
  145.0829  140.8438  143.4028 H   0  0  0  0  0  0  0  0  0  0  0  0  # atno 7974 bound_to 7965
  155.8331  140.0937  157.1780 H   0  0  0  0  0  0  0  0  0  0  0  0  # atno 8008 bound_to 7997
  154.3980  140.1415  156.3699 H   0  0  0  0  0  0  0  0  0  0  0  0  # atno 8009 bound_to 7997
  155.8144  140.3448  155.5479 H   0  0  0  0  0  0  0  0  0  0  0  0  # atno 8010 bound_to 7997
  140.0665  144.5189  150.7257 H   0  0  0  0  0  0  0  0  0  0  0  0  # atno 10167 bound_to 10162
  156.0736  130.5946  150.8575 H   0  0  0  0  0  0  0  0  0  0  0  0  # atno 10718 bound_to 10713
  154.8286  135.3360  154.6815 H   0  0  0  0  0  0  0  0  0  0  0  0  # atno 10763 bound_to 10752
  153.7438  135.6944  153.4965 H   0  0  0  0  0  0  0  0  0  0  0  0  # atno 10764 bound_to 10752
  153.2225  135.4444  155.0456 H   0  0  0  0  0  0  0  0  0  0  0  0  # atno 10765 bound_to 10752
  140.8927  133.7577  156.0442 H   0  0  0  0  0  0  0  0  0  0  0  0  # atno 11005 bound_to 11000
  145.1157  139.2727  143.5614 LP  0  0  0  0  0  0  0  0  0  0  0  0  # atno 17320 bound_to 7965
  146.3531  140.0766  142.8620 LP  0  0  0  0  0  0  0  0  0  0  0  0  # atno 17321 bound_to 7965
  140.7146  143.2534  151.4473 LP  0  0  0  0  0  0  0  0  0  0  0  0  # atno 17342 bound_to 10162
  139.5862  144.1600  152.2031 LP  0  0  0  0  0  0  0  0  0  0  0  0  # atno 17343 bound_to 10162
  157.5820  131.0946  150.9256 LP  0  0  0  0  0  0  0  0  0  0  0  0  # atno 17370 bound_to 10713
  156.9450  130.5398  149.5281 LP  0  0  0  0  0  0  0  0  0  0  0  0  # atno 17371 bound_to 10713
  140.8326  134.3160  157.5343 LP  0  0  0  0  0  0  0  0  0  0  0  0  # atno 17394 bound_to 11000
  139.8732  134.9372  156.3681 LP  0  0  0  0  0  0  0  0  0  0  0  0  # atno 17395 bound_to 11000

$$$$
