#       Name:                AV-unprocessed.smi:2063
#       Creating user name   scv26
#       Creation time:       Fri Mar 27 11:10:11 2020


#       File generated by GOLD software.
#

@<TRIPOS>MOLECULE
AV-unprocessed.smi:2063
    45    46     1
SMALL
NO_CHARGES


@<TRIPOS>ATOM
      1 ****        -6.4230   1.0367  -0.0906 C.3            1 S1                 0.0000
      2 ****        -5.4759   1.5579  -1.1812 C.3            1 S1                 0.0000
      3 ****        -6.0411   1.3933  -2.5994 C.3            1 S1                 0.0000
      4 ****        -4.0986   0.9858  -1.0528 C.2            1 S1                 0.0000
      5 ****        -3.8332  -0.3191  -1.2031 N.2            1 S1                 0.0000
      6 ****        -2.4864  -0.6070  -1.0353 N.2            1 S1                 0.0000
      7 ****        -1.7711   0.4924  -0.7617 C.2            1 S1                 0.0000
      8 ****        -0.3693   0.4866  -0.5369 N.am           1 S1                 0.0000
      9 ****         0.4758  -0.5585  -0.5682 C.2            1 S1                 0.0000
     10 ****         0.1633  -1.7196  -0.8330 O.2            1 S1                 0.0000
     11 ****         1.7265  -0.1759  -0.2732 N.am           1 S1                 0.0000
     12 ****         2.8912  -1.0562  -0.2090 C.3            1 S1                 0.0000
     13 ****         3.5860  -1.0938  -1.5793 C.3            1 S1                 0.0000
     14 ****         3.8418  -0.5813   0.9062 C.3            1 S1                 0.0000
     15 ****         3.2136  -0.5238   2.3000 C.3            1 S1                 0.0000
     16 ****         4.4052  -0.6610   3.2339 C.3            1 S1                 0.0000
     17 ****         5.5241  -1.1969   2.3359 C.3            1 S1                 0.0000
     18 ****         4.8971  -1.5097   1.0997 O.3            1 S1                 0.0000
     19 ****        -2.6945   1.9827  -0.6868 S.3            1 S1                 0.0000
     20 ****        -6.0275   1.2444   0.9042 H              1 S1                 0.0000
     21 ****        -6.5685  -0.0407  -0.1736 H              1 S1                 0.0000
     22 ****        -7.4026   1.5099  -0.1618 H              1 S1                 0.0000
     23 ****        -5.3790   2.6314  -1.0141 H              1 S1                 0.0000
     24 ****        -5.3812   1.8470  -3.3396 H              1 S1                 0.0000
     25 ****        -7.0173   1.8700  -2.6906 H              1 S1                 0.0000
     26 ****        -6.1606   0.3410  -2.8595 H              1 S1                 0.0000
     27 ****         0.0367   1.3842  -0.3181 H              1 S1                 0.0000
     28 ****         1.8882   0.7999  -0.0719 H              1 S1                 0.0000
     29 ****         2.5657  -2.0681   0.0395 H              1 S1                 0.0000
     30 ****         4.4465  -1.7630  -1.5659 H              1 S1                 0.0000
     31 ****         3.9388  -0.1045  -1.8732 H              1 S1                 0.0000
     32 ****         2.9077  -1.4501  -2.3552 H              1 S1                 0.0000
     33 ****         4.2697   0.3914   0.6547 H              1 S1                 0.0000
     34 ****         2.6456   0.3912   2.4699 H              1 S1                 0.0000
     35 ****         2.5393  -1.3694   2.4435 H              1 S1                 0.0000
     36 ****         4.6865   0.3015   3.6623 H              1 S1                 0.0000
     37 ****         4.1821  -1.3424   4.0555 H              1 S1                 0.0000
     38 ****         6.2827  -0.4307   2.1699 H              1 S1                 0.0000
     39 ****         6.0143  -2.0749   2.7573 H              1 S1                 0.0000
     40 ****        -4.5275  -1.0076  -1.4125 LP             1 S1                 0.0000
     41 ****        -2.0964  -1.5248  -1.1096 LP             1 S1                 0.0000
     42 ****        -0.7869  -1.9450  -1.0479 LP             1 S1                 0.0000
     43 ****         0.8598  -2.4372  -0.8331 LP             1 S1                 0.0000
     44 ****         5.5585  -1.4345   0.3534 LP             1 S1                 0.0000
     45 ****         4.5316  -2.4401   1.1287 LP             1 S1                 0.0000
@<TRIPOS>BOND
    1    1    2 1     
    2    1   20 1     
    3    1   21 1     
    4    1   22 1     
    5    2    3 1     
    6    2    4 1     
    7    2   23 1     
    8    3   24 1     
    9    3   25 1     
   10    3   26 1     
   11    4   19 1     
   12    4    5 2     
   13    5    6 1     
   14    6    7 2     
   15    7    8 1     
   16    7   19 1     
   17    8    9 am    
   18    8   27 1     
   19    9   10 2     
   20    9   11 am    
   21   11   12 1     
   22   11   28 1     
   23   12   13 1     
   24   12   14 1     
   25   12   29 1     
   26   13   30 1     
   27   13   31 1     
   28   13   32 1     
   29   14   18 1     
   30   14   15 1     
   31   14   33 1     
   32   15   16 1     
   33   15   34 1     
   34   15   35 1     
   35   16   17 1     
   36   16   36 1     
   37   16   37 1     
   38   17   18 1     
   39   17   38 1     
   40   17   39 1     
   41    5   40 1     
   42    6   41 1     
   43   10   42 1     
   44   10   43 1     
   45   18   44 1     
   46   18   45 1     
@<TRIPOS>SUBSTRUCTURE
      1 S1             1
@<TRIPOS>SET
LONE_PAIRS      STATIC     ATOMS    <user>   **** ""
6 40 41 42 43 44 45
DONOR_HYDROGENS      STATIC     ATOMS    <user>   **** ""
2 27 28
ATOM$BLUE        STATIC     ATOMS    COLORGROUP SYSTEM
6 40 41 42 43 44 45
ATOM$RED        STATIC     ATOMS    COLORGROUP SYSTEM
2 27 28
