AV-unprocessed.smi:199|AV-procd|sdf|1572|dock6
  -GOLD-   2262019453D 1   1.00000     0.00000
 Structure written by MMmdl.
 51 55  0  0  0  0  0  0  0  0  1 V2000
  147.4702  133.5976  162.4581 C   0  0  0  0  0  0  0  0  0  0  0  0
  146.8132  134.9686  162.6829 C   0  0  2  0  0  0  0  0  0  0  0  0
  145.4399  134.7479  162.9932 O   0  0  0  0  0  0  0  0  0  0  0  0
  144.6908  135.8690  162.5604 C   0  0  0  0  0  0  0  0  0  0  0  0
  145.3324  136.1882  161.2189 C   0  0  0  0  0  0  0  0  0  0  0  0
  146.8189  135.9573  161.4819 C   0  0  1  0  0  0  0  0  0  0  0  0
  147.3729  137.1804  161.9365 O   0  0  0  0  0  0  0  0  0  0  0  0
  147.6090  135.5116  160.2230 C   0  0  0  0  0  0  0  0  0  0  0  0
  147.9271  136.6078  159.3198 N   0  0  0  0  0  0  0  0  0  0  0  0
  147.0422  137.3037  158.5282 C   0  0  0  0  0  0  0  0  0  0  0  0
  147.5707  138.2520  157.8053 N   0  0  0  0  0  0  0  0  0  0  0  0
  148.9266  138.1992  158.1065 C   0  0  0  0  0  0  0  0  0  0  0  0
  150.0708  138.9345  157.6824 C   0  0  0  0  0  0  0  0  0  0  0  0
  150.0171  139.9505  156.7803 N   0  0  0  0  0  0  0  0  0  0  0  0
  151.1685  140.7966  156.5097 C   0  0  2  0  0  0  0  0  0  0  0  0
  150.5533  141.9069  155.6399 C   0  0  0  0  0  0  0  0  0  0  0  0
  149.4949  141.1188  154.8487 C   0  0  0  0  0  0  0  0  0  0  0  0
  149.7209  139.6912  155.3789 C   0  0  1  0  0  0  0  0  0  0  0  0
  151.0440  139.1505  154.7795 C   0  0  2  0  0  0  0  0  0  0  0  0
  151.1839  137.6172  154.8406 C   0  0  0  0  0  0  0  0  0  0  0  0
  152.0521  137.1679  153.8223 O   0  0  0  0  0  0  0  0  0  0  0  0
  152.0789  139.9134  155.6320 C   0  0  0  0  0  0  0  0  0  0  0  0
  151.2658  138.6014  158.2385 N   0  0  0  0  0  0  0  0  0  0  0  0
  151.3474  137.6035  159.1227 C   0  0  0  0  0  0  0  0  0  0  0  0
  150.3717  136.8268  159.5955 N   0  0  0  0  0  0  0  0  0  0  0  0
  149.1656  137.1681  159.0598 C   0  0  0  0  0  0  0  0  0  0  0  0
  148.5290  133.6976  162.2194 H   0  0  0  0  0  0  0  0  0  0  0  0
  146.9870  133.0484  161.6500 H   0  0  0  0  0  0  0  0  0  0  0  0
  147.3956  132.9851  163.3567 H   0  0  0  0  0  0  0  0  0  0  0  0
  147.2758  135.4309  163.5574 H   0  0  0  0  0  0  0  0  0  0  0  0
  143.6287  135.6376  162.4772 H   0  0  0  0  0  0  0  0  0  0  0  0
  144.8143  136.6934  163.2645 H   0  0  0  0  0  0  0  0  0  0  0  0
  144.9668  135.4744  160.4796 H   0  0  0  0  0  0  0  0  0  0  0  0
  145.0970  137.1903  160.8575 H   0  0  0  0  0  0  0  0  0  0  0  0
  147.0356  137.3601  162.8008 H   0  0  0  0  0  0  0  0  0  0  0  0
  148.5401  135.0202  160.5084 H   0  0  0  0  0  0  0  0  0  0  0  0
  147.0356  134.7795  159.6540 H   0  0  0  0  0  0  0  0  0  0  0  0
  145.9836  137.0897  158.5082 H   0  0  0  0  0  0  0  0  0  0  0  0
  151.6679  141.1885  157.3966 H   0  0  0  0  0  0  0  0  0  0  0  0
  150.0792  142.6705  156.2578 H   0  0  0  0  0  0  0  0  0  0  0  0
  151.2882  142.3945  154.9988 H   0  0  0  0  0  0  0  0  0  0  0  0
  148.4926  141.4690  155.0988 H   0  0  0  0  0  0  0  0  0  0  0  0
  149.6198  141.2002  153.7684 H   0  0  0  0  0  0  0  0  0  0  0  0
  148.8639  139.0481  155.1859 H   0  0  0  0  0  0  0  0  0  0  0  0
  151.1178  139.4520  153.7333 H   0  0  0  0  0  0  0  0  0  0  0  0
  151.5695  137.2830  155.8032 H   0  0  0  0  0  0  0  0  0  0  0  0
  150.2124  137.1424  154.7011 H   0  0  0  0  0  0  0  0  0  0  0  0
  151.5349  136.9344  153.0666 H   0  0  0  0  0  0  0  0  0  0  0  0
  152.7739  140.4973  155.0277 H   0  0  0  0  0  0  0  0  0  0  0  0
  152.6685  139.2328  156.2474 H   0  0  0  0  0  0  0  0  0  0  0  0
  152.3360  137.3991  159.5066 H   0  0  0  0  0  0  0  0  0  0  0  0
  1  2  1  0  0  0  0
  1 27  1  0  0  0  0
  1 28  1  0  0  0  0
  1 29  1  0  0  0  0
  2  6  1  0  0  0  0
  2  3  1  0  0  0  0
  2 30  1  0  0  0  0
  3  4  1  0  0  0  0
  4  5  1  0  0  0  0
  4 31  1  0  0  0  0
  4 32  1  0  0  0  0
  5  6  1  0  0  0  0
  5 33  1  0  0  0  0
  5 34  1  0  0  0  0
  6  7  1  0  0  0  0
  6  8  1  0  0  0  0
  7 35  1  0  0  0  0
  8  9  1  0  0  0  0
  8 36  1  0  0  0  0
  8 37  1  0  0  0  0
  9 26  1  0  0  0  0
  9 10  1  0  0  0  0
 10 11  2  0  0  0  0
 10 38  1  0  0  0  0
 11 12  1  0  0  0  0
 12 26  2  0  0  0  0
 12 13  1  0  0  0  0
 13 14  1  0  0  0  0
 13 23  2  0  0  0  0
 14 18  1  0  0  0  0
 14 15  1  0  0  0  0
 15 22  1  0  0  0  0
 15 16  1  0  0  0  0
 15 39  1  0  0  0  0
 16 17  1  0  0  0  0
 16 40  1  0  0  0  0
 16 41  1  0  0  0  0
 17 18  1  0  0  0  0
 17 42  1  0  0  0  0
 17 43  1  0  0  0  0
 18 19  1  0  0  0  0
 18 44  1  0  0  0  0
 19 20  1  0  0  0  0
 19 22  1  0  0  0  0
 19 45  1  0  0  0  0
 20 21  1  0  0  0  0
 20 46  1  0  0  0  0
 20 47  1  0  0  0  0
 21 48  1  0  0  0  0
 22 49  1  0  0  0  0
 22 50  1  0  0  0  0
 23 24  1  0  0  0  0
 24 25  2  0  0  0  0
 24 51  1  0  0  0  0
 25 26  1  0  0  0  0
M  END
> <s_m_source_file>
AV-unprocessed.smi

> <i_m_source_file_index>
199

> <i_lp_mmshare_version>
43012

> <i_f3d_flags>
0

> <s_epik_input>
W0NIMl0xW0NIMl1PW0NAQEhdKFtDSDNdKVtDQEBdMShbT0hdKVtDSDJdbihbY0hdbjIpYyhjMjMpbltjSF1uYzNOKFtDQEBIXTQ1KVtDQEhdKFtDSDJdW0NIMl00KVtDQEhdKFtDSDJdNSlbQ0gyXVtPSF0=

> <s_epik_cmdline>
J2VwaWtfcHl0aG9uJywgJy1waCcsICc3LjAnLCAnLXRuJywgJzgnLCAnLW1hJywgJzIwMCcsICctbWV0YWxfYmluZGluZycsICctaW1hZScsICc8aW5maWxlLm1hZT4nLCAnLW9tYWUnLCAnPG91dGZpbGUubWFlPic=

> <r_lp_tautomer_probability>
1

> <r_epik_Ionization_Penalty>
0.00583903

> <r_epik_Ionization_Penalty_Charging>
0

> <r_epik_Ionization_Penalty_Neutral>
0.00583903

> <r_epik_State_Penalty>
-0

> <r_epik_Charging_Adjusted_Penalty>
0

> <i_epik_Tot_Q>
0

> <i_epik_Tot_abs_Q>
0

> <r_epik_Metal_State_Penalty>
-0

> <b_epik_Metal_Only>
0

> <s_lp_Force_Field>
OPLS_2005

> <r_lp_Energy>
83.4582

> <b_lp_Chiralities_Consistent>
1

> <s_lp_Variant>
AV-unprocessed.smi:199-13

> <Gold.Version>
5.8.1

> <Gold.Id.Protein>
6NUR|6NUR_protein|mol2

> <Gold.PLP.Fitness>
56.4363

> <Gold.PLP.PLP>
-44.1907

> <Gold.PLP.part.hbond>
-5.0272

> <Gold.PLP.part.metal>
0.0000

> <Gold.PLP.part.buried>
-3.9468

> <Gold.PLP.part.nonpolar>
-33.6914

> <Gold.PLP.part.repulsive>
0.0152

> <Gold.PLP.ligand.clash>
0.0000

> <Gold.PLP.ligand.torsion>
0.8175

> <Gold.PLP.Chemscore.Hbond>
4.6234

> <Gold.PLP.Chemscore.CHOScore>
0.0000

> <Gold.PLP.Chemscore.Metal>
0.0000

> <Gold.Chemscore.Hbonds>
donor molecule, donor type, donor heavy atom, donor atom, acceptor molecule, acceptor atom, score
      L1  H    21    48       P1  7949  1.00
      P1  H  6896  6909       L1    25  1.00
      P1  H  6931  6943       L1     7  0.90
      P1  H  6934  6947       L1     7  0.62
      P1  H 10752 10765       L1    21  1.00

> <Gold.PLP.Chemscore.Internal.Correction>
0.0105

> <Gold.Rescore>
     Score         DG    S(hbond)    S(metal)    S(lipo)     H(rot)  DE(clash)    DE(int)     intcor
     15.19     -17.46       2.72        0.00      92.03       3.07       0.35       1.92       ----

> <Gold.Chemscore.Fitness>
15.1943

> <Gold.Chemscore.DG>
-17.4649

> <Gold.Chemscore.ZeroCoef>
-5.4800

> <Gold.Chemscore.Hbond>
2.7196

> <Gold.Chemscore.Metal>
0.0000

> <Gold.Chemscore.Lipo>
92.0349

> <Gold.Chemscore.Internal_Hbond>
0.0000

> <Gold.Chemscore.DEClash>
0.3461

> <Gold.Chemscore.DEInternal>
1.9245

> <Gold.Chemscore.Rot>
3.0729

> <Gold.Chemscore.Internal.Correction>
   9.000000E+99

> <Gold.Chemscore.Hbonds>
donor molecule, donor type, donor heavy atom, donor atom, acceptor molecule, acceptor atom, score
      L1  H    21    48       P1  7949  0.90
      P1  H  6896  6909       L1    25  0.74
      P1  H  6931  6943       L1     7  0.26
      P1  H  6934  6947       L1     7  0.24
      P1  H 10752 10765       L1    21  0.29

> <Gold.Chemscore.Hbond.Weighted>
-9.0835

> <Gold.Chemscore.Metal.Weighted>
-0.0000

> <Gold.Chemscore.Lipo.Weighted>
-10.7681

> <Gold.Chemscore.Internal_Hbond.Weighted>
0.0000

> <Gold.Chemscore.DEClash.Weighted>
0.3461

> <Gold.Chemscore.DEInternal.Weighted>
1.9245

> <Gold.Chemscore.Rot.Weighted>
7.8667

> <Gold.Chemscore.Internal.Correction.Weighted>
   9.000000E+99

> <Gold.Protein.RotatedTorsions>
[ 6907 6896 6895 6894 ] final   84.32 input  -60.11 | X-H torsion
[ 7974 7965 7964 7962 ] final  -77.53 input  175.53 | X-H torsion
[ 8008 7997 7996 7995 ] final  -58.76 input   59.86 | X-H torsion
[ 10167 10162 10161 10158 ] final  -23.85 input  -65.29 | X-H torsion
[ 10718 10713 10712 10709 ] final  172.97 input   66.30 | X-H torsion
[ 10763 10752 10751 10750 ] final  144.79 input  -60.55 | X-H torsion
[ 11005 11000 10999 10996 ] final  -27.31 input  -57.11 | X-H torsion

> <Gold.Protein.ActiveResidues>
 VAL166  LYS551  ARG553  GLY616  TRP617  ASP618  TYR619  PRO620  LYS621  CYS622 
 ASP623  PHE694  ASN695  SER759  ASP760  ASP761  ALA762  ILE779  LEU786  VAL792 
 PHE793  MET794  SER795  GLU796  ALA797  LYS798  CYS799  TRP800  GLU811  SER814 

> <Gold.Protein.RotatedAtoms>
  152.5349  134.2759  159.8988 H   0  0  0  0  0  0  0  0  0  0  0  0  # atno 6907 bound_to 6896
  151.2714  133.4247  159.2629 H   0  0  0  0  0  0  0  0  0  0  0  0  # atno 6908 bound_to 6896
  151.0364  134.9591  159.8195 H   0  0  0  0  0  0  0  0  0  0  0  0  # atno 6909 bound_to 6896
  145.5985  140.9414  143.1254 H   0  0  0  0  0  0  0  0  0  0  0  0  # atno 7974 bound_to 7965
  154.4323  140.1077  156.6009 H   0  0  0  0  0  0  0  0  0  0  0  0  # atno 8008 bound_to 7997
  155.5912  140.3492  155.4548 H   0  0  0  0  0  0  0  0  0  0  0  0  # atno 8009 bound_to 7997
  156.0245  140.1247  157.0312 H   0  0  0  0  0  0  0  0  0  0  0  0  # atno 8010 bound_to 7997
  140.7288  143.4405  151.0663 H   0  0  0  0  0  0  0  0  0  0  0  0  # atno 10167 bound_to 10162
  156.9711  131.0090  151.2905 H   0  0  0  0  0  0  0  0  0  0  0  0  # atno 10718 bound_to 10713
  153.9946  135.2929  155.3408 H   0  0  0  0  0  0  0  0  0  0  0  0  # atno 10763 bound_to 10752
  154.7195  135.5115  153.8792 H   0  0  0  0  0  0  0  0  0  0  0  0  # atno 10764 bound_to 10752
  153.0794  135.6674  154.0194 H   0  0  0  0  0  0  0  0  0  0  0  0  # atno 10765 bound_to 10752
  140.9108  133.7462  156.0667 H   0  0  0  0  0  0  0  0  0  0  0  0  # atno 11005 bound_to 11000
  144.7320  139.7697  143.7343 LP  0  0  0  0  0  0  0  0  0  0  0  0  # atno 17320 bound_to 7965
  146.1594  139.4703  142.9998 LP  0  0  0  0  0  0  0  0  0  0  0  0  # atno 17321 bound_to 7965
  139.8072  143.8001  152.3168 LP  0  0  0  0  0  0  0  0  0  0  0  0  # atno 17342 bound_to 10162
  139.8038  144.7363  150.9789 LP  0  0  0  0  0  0  0  0  0  0  0  0  # atno 17343 bound_to 10162
  157.5592  130.8234  149.8243 LP  0  0  0  0  0  0  0  0  0  0  0  0  # atno 17370 bound_to 10713
  156.0282  130.3773  150.1762 LP  0  0  0  0  0  0  0  0  0  0  0  0  # atno 17371 bound_to 10713
  140.8113  134.3396  157.5411 LP  0  0  0  0  0  0  0  0  0  0  0  0  # atno 17394 bound_to 11000
  139.8757  134.9255  156.3378 LP  0  0  0  0  0  0  0  0  0  0  0  0  # atno 17395 bound_to 11000

$$$$
