AV-unprocessed.smi:66|AV-procd|sdf|620|dock9
  -GOLD-   2262016513D 1   1.00000     0.00000
 Structure written by MMmdl.
 28 30  0  0  0  0  0  0  0  0  2 V2000
  151.1823  140.1705  155.0675 O   0  0  0  0  0  0  0  0  0  0  0  0
  151.8836  139.7006  155.9897 C   0  0  0  0  0  0  0  0  0  0  0  0
  153.0531  139.2731  155.8628 O   0  5  0  0  0  0  0  0  0  0  0  0
  151.2428  139.6445  157.3861 C   0  0  1  0  0  0  0  0  0  0  0  0
  151.1494  138.2091  157.9346 C   0  0  0  0  0  0  0  0  0  0  0  0
  152.4190  138.0459  158.7685 C   0  0  2  0  0  0  0  0  0  0  0  0
  152.2959  137.0454  159.7578 O   0  0  0  0  0  0  0  0  0  0  0  0
  152.6120  139.4381  159.3683 C   0  0  0  0  0  0  0  0  0  0  0  0
  152.0510  140.3539  158.3835 N   0  0  0  0  0  0  0  0  0  0  0  0
  151.9485  141.6947  158.5995 C   0  0  0  0  0  0  0  0  0  0  0  0
  151.5495  142.4887  157.5695 N   0  0  0  0  0  0  0  0  0  0  0  0
  151.4337  143.8100  157.7256 C   0  0  0  0  0  0  0  0  0  0  0  0
  151.6614  144.5440  158.8155 N   0  0  0  0  0  0  0  0  0  0  0  0
  152.0630  143.7597  159.8532 C   0  0  0  0  0  0  0  0  0  0  0  0
  152.3908  144.1575  161.1317 N   0  0  0  0  0  0  0  0  0  0  0  0
  152.7328  143.0138  161.8077 C   0  0  0  0  0  0  0  0  0  0  0  0
  152.6590  141.9207  161.0981 N   0  0  0  0  0  0  0  0  0  0  0  0
  152.2336  142.3440  159.8397 C   0  0  0  0  0  0  0  0  0  0  0  0
  152.3657  145.1163  161.4468 H   0  0  0  0  0  0  0  0  0  0  0  0
  150.2381  140.0661  157.3303 H   0  0  0  0  0  0  0  0  0  0  0  0
  150.2687  138.1291  158.5738 H   0  0  0  0  0  0  0  0  0  0  0  0
  151.0583  137.4490  157.1571 H   0  0  0  0  0  0  0  0  0  0  0  0
  153.2587  137.8043  158.1156 H   0  0  0  0  0  0  0  0  0  0  0  0
  152.8680  137.2655  160.4769 H   0  0  0  0  0  0  0  0  0  0  0  0
  152.0631  139.5428  160.3057 H   0  0  0  0  0  0  0  0  0  0  0  0
  153.6678  139.6348  159.5554 H   0  0  0  0  0  0  0  0  0  0  0  0
  151.1125  144.3558  156.8508 H   0  0  0  0  0  0  0  0  0  0  0  0
  153.0395  143.0165  162.8434 H   0  0  0  0  0  0  0  0  0  0  0  0
  1  2  2  0  0  0  0
  2  3  1  0  0  0  0
  2  4  1  0  0  0  0
  4  5  1  0  0  0  0
  4 20  1  0  0  0  0
  4  9  1  0  0  0  0
  5  6  1  0  0  0  0
  5 21  1  0  0  0  0
  5 22  1  0  0  0  0
  6  7  1  0  0  0  0
  6  8  1  0  0  0  0
  6 23  1  0  0  0  0
  7 24  1  0  0  0  0
  8 25  1  0  0  0  0
  8 26  1  0  0  0  0
  8  9  1  0  0  0  0
  9 10  1  0  0  0  0
 10 11  1  0  0  0  0
 10 18  2  0  0  0  0
 11 12  2  0  0  0  0
 12 27  1  0  0  0  0
 12 13  1  0  0  0  0
 13 14  2  0  0  0  0
 14 15  1  0  0  0  0
 14 18  1  0  0  0  0
 15 16  1  0  0  0  0
 15 19  1  0  0  0  0
 16 17  2  0  0  0  0
 16 28  1  0  0  0  0
 17 18  1  0  0  0  0
M  CHG  1   3  -1
M  END
> <s_m_source_file>
AV-unprocessed.smi

> <i_m_source_file_index>
66

> <i_lp_mmshare_version>
43012

> <i_f3d_flags>
0

> <s_epik_input>
Tz1DKFtPSF0pW0NAQEhdMVtDSDJdW0NAQEhdKFtPSF0pW0NIMl1OMWMobltjSF1uMiljKGMyMylbbkhdW2NIXW4z

> <s_epik_cmdline>
J2VwaWtfcHl0aG9uJywgJy1waCcsICc3LjAnLCAnLXRuJywgJzgnLCAnLW1hJywgJzIwMCcsICctbWV0YWxfYmluZGluZycsICctaW1hZScsICc8aW5maWxlLm1hZT4nLCAnLW9tYWUnLCAnPG91dGZpbGUubWFlPic=

> <r_lp_tautomer_probability>
0.955585

> <r_epik_Ionization_Penalty>
0.00455415

> <r_epik_Ionization_Penalty_Charging>
0.000248217

> <r_epik_Ionization_Penalty_Neutral>
0.00430593

> <r_epik_State_Penalty>
0.0207074

> <r_epik_Charging_Adjusted_Penalty>
0.0209557

> <i_epik_Tot_Q>
-1

> <i_epik_Tot_abs_Q>
1

> <r_epik_Metal_State_Penalty>
0.337372

> <b_epik_Metal_Only>
0

> <s_lp_Force_Field>
OPLS_2005

> <r_lp_Energy>
24.8219

> <b_lp_Chiralities_Consistent>
1

> <s_lp_Variant>
AV-unprocessed.smi:66-4

> <Gold.Version>
5.8.1

> <Gold.Id.Protein>
6NUR|6NUR_protein|mol2

> <Gold.PLP.Fitness>
47.2019

> <Gold.PLP.PLP>
-32.4702

> <Gold.PLP.part.hbond>
-3.0000

> <Gold.PLP.part.metal>
0.0000

> <Gold.PLP.part.buried>
-5.8836

> <Gold.PLP.part.nonpolar>
-23.9405

> <Gold.PLP.part.repulsive>
0.2473

> <Gold.PLP.ligand.clash>
0.0000

> <Gold.PLP.ligand.torsion>
0.1889

> <Gold.PLP.Chemscore.Hbond>
4.0000

> <Gold.PLP.Chemscore.CHOScore>
1.0000

> <Gold.PLP.Chemscore.Metal>
0.0000

> <Gold.Chemscore.Hbonds>
donor molecule, donor type, donor heavy atom, donor atom, acceptor molecule, acceptor atom, score
      P1  H  6896  6907       L1     7  1.00
      P1  H  7989  7998       L1     1  1.00
      P1  H  7997  8008       L1     3  2.00
      L1  C    12    27       P1  8028  1.00

> <Gold.PLP.Chemscore.Internal.Correction>
0.1094

> <Gold.Rescore>
     Score         DG    S(hbond)    S(metal)    S(lipo)     H(rot)  DE(clash)    DE(int)     intcor
     12.74     -13.86       2.90        0.00      28.00       1.78       0.00       1.12       ----

> <Gold.Chemscore.Fitness>
12.7441

> <Gold.Chemscore.DG>
-13.8650

> <Gold.Chemscore.ZeroCoef>
-5.4800

> <Gold.Chemscore.Hbond>
2.8970

> <Gold.Chemscore.Metal>
0.0000

> <Gold.Chemscore.Lipo>
28.0045

> <Gold.Chemscore.Internal_Hbond>
0.0000

> <Gold.Chemscore.DEClash>
0.0048

> <Gold.Chemscore.DEInternal>
1.1160

> <Gold.Chemscore.Rot>
1.7842

> <Gold.Chemscore.Internal.Correction>
   9.000000E+99

> <Gold.Chemscore.Hbonds>
donor molecule, donor type, donor heavy atom, donor atom, acceptor molecule, acceptor atom, score
      P1  H  6896  6907       L1     7  0.63
      P1  H  7989  7998       L1     1  0.99
      P1  H  7997  8008       L1     3  0.98

> <Gold.Chemscore.Hbond.Weighted>
-9.6761

> <Gold.Chemscore.Metal.Weighted>
-0.0000

> <Gold.Chemscore.Lipo.Weighted>
-3.2765

> <Gold.Chemscore.Internal_Hbond.Weighted>
0.0000

> <Gold.Chemscore.DEClash.Weighted>
0.0048

> <Gold.Chemscore.DEInternal.Weighted>
1.1160

> <Gold.Chemscore.Rot.Weighted>
4.5676

> <Gold.Chemscore.Internal.Correction.Weighted>
   9.000000E+99

> <Gold.Protein.RotatedTorsions>
[ 6907 6896 6895 6894 ] final    5.38 input  -60.11 | X-H torsion
[ 7974 7965 7964 7962 ] final  159.20 input  175.53 | X-H torsion
[ 8008 7997 7996 7995 ] final  -36.99 input   59.86 | X-H torsion
[ 10167 10162 10161 10158 ] final  -19.75 input  -65.29 | X-H torsion
[ 10718 10713 10712 10709 ] final  -85.02 input   66.30 | X-H torsion
[ 10763 10752 10751 10750 ] final    5.02 input  -60.55 | X-H torsion
[ 11005 11000 10999 10996 ] final   44.84 input  -57.11 | X-H torsion

> <Gold.Protein.ActiveResidues>
 VAL166  LYS551  ARG553  GLY616  TRP617  ASP618  TYR619  PRO620  LYS621  CYS622 
 ASP623  PHE694  ASN695  SER759  ASP760  ASP761  ALA762  ILE779  LEU786  VAL792 
 PHE793  MET794  SER795  GLU796  ALA797  LYS798  CYS799  TRP800  GLU811  SER814 

> <Gold.Protein.RotatedAtoms>
  151.6566  135.0995  160.0171 H   0  0  0  0  0  0  0  0  0  0  0  0  # atno 6907 bound_to 6896
  152.3970  133.6758  159.6293 H   0  0  0  0  0  0  0  0  0  0  0  0  # atno 6908 bound_to 6896
  150.7876  133.8773  159.3317 H   0  0  0  0  0  0  0  0  0  0  0  0  # atno 6909 bound_to 6896
  144.7803  139.7585  143.6262 H   0  0  0  0  0  0  0  0  0  0  0  0  # atno 7974 bound_to 7965
  154.4062  140.1616  156.2465 H   0  0  0  0  0  0  0  0  0  0  0  0  # atno 8008 bound_to 7997
  155.9156  140.3424  155.6110 H   0  0  0  0  0  0  0  0  0  0  0  0  # atno 8009 bound_to 7997
  155.7283  140.0777  157.2291 H   0  0  0  0  0  0  0  0  0  0  0  0  # atno 8010 bound_to 7997
  140.7271  143.4788  151.0145 H   0  0  0  0  0  0  0  0  0  0  0  0  # atno 10167 bound_to 10162
  156.0000  130.4717  150.4498 H   0  0  0  0  0  0  0  0  0  0  0  0  # atno 10718 bound_to 10713
  153.2643  135.6926  153.7546 H   0  0  0  0  0  0  0  0  0  0  0  0  # atno 10763 bound_to 10752
  153.6593  135.3363  155.3123 H   0  0  0  0  0  0  0  0  0  0  0  0  # atno 10764 bound_to 10752
  154.8441  135.4473  154.1644 H   0  0  0  0  0  0  0  0  0  0  0  0  # atno 10765 bound_to 10752
  140.1514  134.4456  155.8379 H   0  0  0  0  0  0  0  0  0  0  0  0  # atno 11005 bound_to 11000
  146.2007  139.5300  142.9745 LP  0  0  0  0  0  0  0  0  0  0  0  0  # atno 17320 bound_to 7965
  145.6069  141.0346  143.1988 LP  0  0  0  0  0  0  0  0  0  0  0  0  # atno 17321 bound_to 7965
  139.8485  143.7469  152.3178 LP  0  0  0  0  0  0  0  0  0  0  0  0  # atno 17342 bound_to 10162
  139.7643  144.7497  151.0318 LP  0  0  0  0  0  0  0  0  0  0  0  0  # atno 17343 bound_to 10162
  157.2532  131.0551  151.2366 LP  0  0  0  0  0  0  0  0  0  0  0  0  # atno 17370 bound_to 10713
  157.3508  130.7081  149.6439 LP  0  0  0  0  0  0  0  0  0  0  0  0  # atno 17371 bound_to 10713
  141.2199  133.6874  156.7429 LP  0  0  0  0  0  0  0  0  0  0  0  0  # atno 17394 bound_to 11000
  140.2600  134.8474  157.3749 LP  0  0  0  0  0  0  0  0  0  0  0  0  # atno 17395 bound_to 11000

$$$$
