AV-unprocessed.smi:1377|AV-procd|sdf|5594|dock4
  -GOLD-   22720 5193D 1   1.00000     0.00000
 Structure written by MMmdl.
 29 30  0  0  0  0  0  0  0  0  1 V2000
  152.6683  138.3774  155.3638 N   0  0  0  0  0  0  0  0  0  0  0  0
  151.5495  137.6527  155.4517 C   0  0  0  0  0  0  0  0  0  0  0  0
  151.3968  136.7832  156.3071 O   0  0  0  0  0  0  0  0  0  0  0  0
  150.4446  137.9449  154.4343 C   0  0  0  0  0  0  0  0  0  0  0  0
  149.9279  139.3428  154.6152 C   0  0  0  0  0  0  0  0  0  0  0  0
  148.9858  139.9822  153.8448 C   0  0  0  0  0  0  0  0  0  0  0  0
  148.6708  141.6024  154.4057 S   0  0  0  0  0  0  0  0  0  0  0  0
  149.8560  141.3513  155.6778 C   0  0  0  0  0  0  0  0  0  0  0  0
  150.1606  142.3576  156.6314 N   0  0  0  0  0  0  0  0  0  0  0  0
  150.7649  142.2188  157.8260 C   0  0  0  0  0  0  0  0  0  0  0  0
  151.1718  141.1492  158.2819 O   0  0  0  0  0  0  0  0  0  0  0  0
  150.9345  143.5148  158.6310 C   0  0  0  0  0  0  0  0  0  0  0  0
  151.9961  144.4789  158.0727 C   0  0  0  0  0  0  0  0  0  0  0  0
  152.5039  144.6864  159.5026 C   0  0  0  0  0  0  0  0  0  0  0  0
  151.8080  143.3789  159.8913 C   0  0  0  0  0  0  0  0  0  0  0  0
  150.4212  140.1391  155.6541 N   0  0  0  0  0  0  0  0  0  0  0  0
  153.4211  138.2152  156.0173 H   0  0  0  0  0  0  0  0  0  0  0  0
  152.7588  139.0832  154.6477 H   0  0  0  0  0  0  0  0  0  0  0  0
  150.8451  137.8054  153.4290 H   0  0  0  0  0  0  0  0  0  0  0  0
  149.6369  137.2200  154.5444 H   0  0  0  0  0  0  0  0  0  0  0  0
  148.4558  139.5964  152.9868 H   0  0  0  0  0  0  0  0  0  0  0  0
  149.8873  143.2952  156.3756 H   0  0  0  0  0  0  0  0  0  0  0  0
  149.9921  144.0241  158.8424 H   0  0  0  0  0  0  0  0  0  0  0  0
  152.7382  144.0063  157.4265 H   0  0  0  0  0  0  0  0  0  0  0  0
  151.5873  145.3792  157.6135 H   0  0  0  0  0  0  0  0  0  0  0  0
  153.5891  144.6717  159.6067 H   0  0  0  0  0  0  0  0  0  0  0  0
  152.0613  145.5593  159.9848 H   0  0  0  0  0  0  0  0  0  0  0  0
  151.2545  143.4339  160.8292 H   0  0  0  0  0  0  0  0  0  0  0  0
  152.4860  142.5234  159.8814 H   0  0  0  0  0  0  0  0  0  0  0  0
  1  2  1  0  0  0  0
  1 17  1  0  0  0  0
  1 18  1  0  0  0  0
  2  3  2  0  0  0  0
  2  4  1  0  0  0  0
  4  5  1  0  0  0  0
  4 19  1  0  0  0  0
  4 20  1  0  0  0  0
  5 16  1  0  0  0  0
  5  6  2  0  0  0  0
  6  7  1  0  0  0  0
  6 21  1  0  0  0  0
  7  8  1  0  0  0  0
  8  9  1  0  0  0  0
  8 16  2  0  0  0  0
  9 10  1  0  0  0  0
  9 22  1  0  0  0  0
 10 11  2  0  0  0  0
 10 12  1  0  0  0  0
 12 15  1  0  0  0  0
 12 13  1  0  0  0  0
 12 23  1  0  0  0  0
 13 14  1  0  0  0  0
 13 24  1  0  0  0  0
 13 25  1  0  0  0  0
 14 15  1  0  0  0  0
 14 26  1  0  0  0  0
 14 27  1  0  0  0  0
 15 28  1  0  0  0  0
 15 29  1  0  0  0  0
M  END
> <s_m_source_file>
AV-unprocessed.smi

> <i_m_source_file_index>
1377

> <i_lp_mmshare_version>
43012

> <i_f3d_flags>
0

> <s_epik_input>
W05IMl1DKD1PKVtDSDJdYzFbY0hdc2MobjEpW05IXUMoPU8pW0NIXTJbQ0gyXVtDSDJdW0NIMl0y

> <s_epik_cmdline>
J2VwaWtfcHl0aG9uJywgJy1waCcsICc3LjAnLCAnLXRuJywgJzgnLCAnLW1hJywgJzIwMCcsICctbWV0YWxfYmluZGluZycsICctaW1hZScsICc8aW5maWxlLm1hZT4nLCAnLW9tYWUnLCAnPG91dGZpbGUubWFlPic=

> <r_lp_tautomer_probability>
1

> <r_epik_Ionization_Penalty>
0.000217978

> <r_epik_Ionization_Penalty_Charging>
0

> <r_epik_Ionization_Penalty_Neutral>
0.000217978

> <r_epik_State_Penalty>
-0

> <r_epik_Charging_Adjusted_Penalty>
0

> <i_epik_Tot_Q>
0

> <i_epik_Tot_abs_Q>
0

> <r_epik_Metal_State_Penalty>
0.13268

> <b_epik_Metal_Only>
0

> <s_lp_Force_Field>
OPLS_2005

> <r_lp_Energy>
11.3529

> <b_lp_Chiralities_Consistent>
1

> <s_lp_Variant>
AV-unprocessed.smi:1377-1

> <Gold.Version>
5.8.1

> <Gold.Id.Protein>
6NUR|6NUR_protein|mol2

> <Gold.PLP.Fitness>
42.1781

> <Gold.PLP.PLP>
-35.1730

> <Gold.PLP.part.hbond>
-2.4174

> <Gold.PLP.part.metal>
0.0000

> <Gold.PLP.part.buried>
-3.1636

> <Gold.PLP.part.nonpolar>
-29.9127

> <Gold.PLP.part.repulsive>
0.3711

> <Gold.PLP.ligand.clash>
0.0000

> <Gold.PLP.ligand.torsion>
0.3009

> <Gold.PLP.Chemscore.Hbond>
1.9280

> <Gold.PLP.Chemscore.CHOScore>
0.4722

> <Gold.PLP.Chemscore.Metal>
0.0000

> <Gold.Chemscore.Hbonds>
donor molecule, donor type, donor heavy atom, donor atom, acceptor molecule, acceptor atom, score
      L1  H     9    22       P1  8028  1.00
      L1  C     6    21       P1  7957  0.60

> <Gold.PLP.Chemscore.Internal.Correction>
0.4063

> <Gold.Rescore>
     Score         DG    S(hbond)    S(metal)    S(lipo)     H(rot)  DE(clash)    DE(int)     intcor
     12.72     -16.62       1.95        0.00      81.59       1.92       0.70       3.20       ----

> <Gold.Chemscore.Fitness>
12.7219

> <Gold.Chemscore.DG>
-16.6156

> <Gold.Chemscore.ZeroCoef>
-5.4800

> <Gold.Chemscore.Hbond>
1.9506

> <Gold.Chemscore.Metal>
0.0000

> <Gold.Chemscore.Lipo>
81.5901

> <Gold.Chemscore.Internal_Hbond>
0.0000

> <Gold.Chemscore.DEClash>
0.6964

> <Gold.Chemscore.DEInternal>
3.1973

> <Gold.Chemscore.Rot>
1.9239

> <Gold.Chemscore.Internal.Correction>
   9.000000E+99

> <Gold.Chemscore.Hbonds>
donor molecule, donor type, donor heavy atom, donor atom, acceptor molecule, acceptor atom, score
      L1  H     9    22       P1  8028  1.00

> <Gold.Chemscore.Hbond.Weighted>
-6.5149

> <Gold.Chemscore.Metal.Weighted>
-0.0000

> <Gold.Chemscore.Lipo.Weighted>
-9.5460

> <Gold.Chemscore.Internal_Hbond.Weighted>
0.0000

> <Gold.Chemscore.DEClash.Weighted>
0.6964

> <Gold.Chemscore.DEInternal.Weighted>
3.1973

> <Gold.Chemscore.Rot.Weighted>
4.9253

> <Gold.Chemscore.Internal.Correction.Weighted>
   9.000000E+99

> <Gold.Protein.RotatedTorsions>
[ 6907 6896 6895 6894 ] final -167.05 input  -60.11 | X-H torsion
[ 7974 7965 7964 7962 ] final  -58.93 input  175.53 | X-H torsion
[ 8008 7997 7996 7995 ] final   76.28 input   59.86 | X-H torsion
[ 10167 10162 10161 10158 ] final  122.99 input  -65.29 | X-H torsion
[ 10718 10713 10712 10709 ] final -120.85 input   66.30 | X-H torsion
[ 10763 10752 10751 10750 ] final -170.26 input  -60.55 | X-H torsion
[ 11005 11000 10999 10996 ] final   -6.10 input  -57.11 | X-H torsion

> <Gold.Protein.ActiveResidues>
 VAL166  LYS551  ARG553  GLY616  TRP617  ASP618  TYR619  PRO620  LYS621  CYS622 
 ASP623  PHE694  ASN695  SER759  ASP760  ASP761  ALA762  ILE779  LEU786  VAL792 
 PHE793  MET794  SER795  GLU796  ALA797  LYS798  CYS799  TRP800  GLU811  SER814 

> <Gold.Protein.RotatedAtoms>
  151.4534  133.3611  159.2798 H   0  0  0  0  0  0  0  0  0  0  0  0  # atno 6907 bound_to 6896
  150.9075  134.8492  159.7413 H   0  0  0  0  0  0  0  0  0  0  0  0  # atno 6908 bound_to 6896
  152.4914  134.4460  159.9611 H   0  0  0  0  0  0  0  0  0  0  0  0  # atno 6909 bound_to 6896
  145.8335  140.8464  143.0071 H   0  0  0  0  0  0  0  0  0  0  0  0  # atno 7974 bound_to 7965
  155.8250  140.3468  155.5537 H   0  0  0  0  0  0  0  0  0  0  0  0  # atno 8008 bound_to 7997
  155.8302  140.0926  157.1817 H   0  0  0  0  0  0  0  0  0  0  0  0  # atno 8009 bound_to 7997
  154.4004  140.1413  156.3592 H   0  0  0  0  0  0  0  0  0  0  0  0  # atno 8010 bound_to 7997
  139.5826  144.6993  151.3490 H   0  0  0  0  0  0  0  0  0  0  0  0  # atno 10167 bound_to 10162
  156.1291  130.6381  150.9591 H   0  0  0  0  0  0  0  0  0  0  0  0  # atno 10718 bound_to 10713
  154.6434  135.2901  155.0075 H   0  0  0  0  0  0  0  0  0  0  0  0  # atno 10763 bound_to 10752
  154.1193  135.6550  153.4904 H   0  0  0  0  0  0  0  0  0  0  0  0  # atno 10764 bound_to 10752
  153.0338  135.5284  154.7311 H   0  0  0  0  0  0  0  0  0  0  0  0  # atno 10765 bound_to 10752
  140.6983  133.9011  155.8665 H   0  0  0  0  0  0  0  0  0  0  0  0  # atno 11005 bound_to 11000
  144.6738  140.0707  143.7473 LP  0  0  0  0  0  0  0  0  0  0  0  0  # atno 17320 bound_to 7965
  145.9544  139.2756  143.1193 LP  0  0  0  0  0  0  0  0  0  0  0  0  # atno 17321 bound_to 7965
  140.7102  143.7410  150.7553 LP  0  0  0  0  0  0  0  0  0  0  0  0  # atno 17342 bound_to 10162
  140.0946  143.4845  152.2459 LP  0  0  0  0  0  0  0  0  0  0  0  0  # atno 17343 bound_to 10162
  157.6470  131.0902  150.8132 LP  0  0  0  0  0  0  0  0  0  0  0  0  # atno 17370 bound_to 10713
  156.8219  130.4987  149.5342 LP  0  0  0  0  0  0  0  0  0  0  0  0  # atno 17371 bound_to 10713
  141.0185  134.0922  157.4146 LP  0  0  0  0  0  0  0  0  0  0  0  0  # atno 17394 bound_to 11000
  139.8904  135.0111  156.6732 LP  0  0  0  0  0  0  0  0  0  0  0  0  # atno 17395 bound_to 11000

$$$$
