AV-unprocessed.smi:1469|AV-procd|sdf|5958|dock9
  -GOLD-   22720 6 43D 1   1.00000     0.00000
 Structure written by MMmdl.
 41 42  0  0  0  0  0  0  0  0  2 V2000
  149.3017  132.1403  155.0854 C   0  0  0  0  0  0  0  0  0  0  0  0
  149.2599  133.4940  154.3397 C   0  0  2  0  0  0  0  0  0  0  0  0
  149.3330  134.6857  155.3298 C   0  0  0  0  0  0  0  0  0  0  0  0
  149.6023  135.9604  154.6690 N   0  0  0  0  0  0  0  0  0  0  0  0
  150.6622  136.7516  154.8972 C   0  0  0  0  0  0  0  0  0  0  0  0
  151.5618  136.4610  155.6871 O   0  0  0  0  0  0  0  0  0  0  0  0
  150.7074  138.0556  154.0869 C   0  0  0  0  0  0  0  0  0  0  0  0
  150.4800  139.2652  154.8958 N   0  0  0  0  0  0  0  0  0  0  0  0
  149.2913  139.9828  154.6547 C   0  0  0  0  0  0  0  0  0  0  0  0
  148.9830  141.0962  155.3385 C   0  0  0  0  0  0  0  0  0  0  0  0
  149.9087  141.5567  156.3464 C   0  0  0  0  0  0  0  0  0  0  0  0
  151.0504  140.8801  156.5823 C   0  0  0  0  0  0  0  0  0  0  0  0
  151.3923  139.6638  155.8357 C   0  0  0  0  0  0  0  0  0  0  0  0
  152.4345  139.0411  156.0420 O   0  0  0  0  0  0  0  0  0  0  0  0
  148.0408  133.6000  153.4848 N   0  3  0  0  0  0  0  0  0  0  0  0
  147.8790  132.5223  152.4747 C   0  0  0  0  0  0  0  0  0  0  0  0
  146.3837  132.1835  152.4011 C   0  0  0  0  0  0  0  0  0  0  0  0
  145.6943  133.2920  153.1867 C   0  0  0  0  0  0  0  0  0  0  0  0
  146.7523  133.6973  154.2062 C   0  0  0  0  0  0  0  0  0  0  0  0
  150.2029  132.0405  155.6894 H   0  0  0  0  0  0  0  0  0  0  0  0
  149.3077  131.2918  154.4018 H   0  0  0  0  0  0  0  0  0  0  0  0
  148.4446  132.0293  155.7506 H   0  0  0  0  0  0  0  0  0  0  0  0
  150.1299  133.5379  153.6820 H   0  0  0  0  0  0  0  0  0  0  0  0
  148.3854  134.8134  155.8522 H   0  0  0  0  0  0  0  0  0  0  0  0
  150.0741  134.4842  156.1055 H   0  0  0  0  0  0  0  0  0  0  0  0
  148.9178  136.2767  153.9970 H   0  0  0  0  0  0  0  0  0  0  0  0
  151.6742  138.1106  153.5840 H   0  0  0  0  0  0  0  0  0  0  0  0
  149.9714  138.0004  153.2826 H   0  0  0  0  0  0  0  0  0  0  0  0
  148.6555  139.5756  153.8819 H   0  0  0  0  0  0  0  0  0  0  0  0
  148.0683  141.6347  155.1384 H   0  0  0  0  0  0  0  0  0  0  0  0
  149.6850  142.4487  156.9131 H   0  0  0  0  0  0  0  0  0  0  0  0
  151.7316  141.2404  157.3393 H   0  0  0  0  0  0  0  0  0  0  0  0
  148.2534  132.8745  151.5129 H   0  0  0  0  0  0  0  0  0  0  0  0
  148.4419  131.6270  152.7430 H   0  0  0  0  0  0  0  0  0  0  0  0
  146.0189  132.1109  151.3759 H   0  0  0  0  0  0  0  0  0  0  0  0
  146.2013  131.2235  152.8860 H   0  0  0  0  0  0  0  0  0  0  0  0
  145.4729  134.1323  152.5272 H   0  0  0  0  0  0  0  0  0  0  0  0
  144.7606  132.9694  153.6484 H   0  0  0  0  0  0  0  0  0  0  0  0
  146.7434  132.9970  155.0434 H   0  0  0  0  0  0  0  0  0  0  0  0
  146.5758  134.7005  154.5959 H   0  0  0  0  0  0  0  0  0  0  0  0
  148.1235  134.4601  152.9613 H   0  0  0  0  0  0  0  0  0  0  0  0
  1  2  1  0  0  0  0
  1 20  1  0  0  0  0
  1 21  1  0  0  0  0
  1 22  1  0  0  0  0
  2  3  1  0  0  0  0
  2 15  1  0  0  0  0
  2 23  1  0  0  0  0
  3  4  1  0  0  0  0
  3 24  1  0  0  0  0
  3 25  1  0  0  0  0
  4  5  1  0  0  0  0
  4 26  1  0  0  0  0
  5  6  2  0  0  0  0
  5  7  1  0  0  0  0
  7  8  1  0  0  0  0
  7 27  1  0  0  0  0
  7 28  1  0  0  0  0
  8 13  1  0  0  0  0
  8  9  1  0  0  0  0
  9 10  2  0  0  0  0
  9 29  1  0  0  0  0
 10 11  1  0  0  0  0
 10 30  1  0  0  0  0
 11 12  2  0  0  0  0
 11 31  1  0  0  0  0
 12 13  1  0  0  0  0
 12 32  1  0  0  0  0
 13 14  2  0  0  0  0
 15 19  1  0  0  0  0
 15 16  1  0  0  0  0
 15 41  1  0  0  0  0
 16 17  1  0  0  0  0
 16 33  1  0  0  0  0
 16 34  1  0  0  0  0
 17 18  1  0  0  0  0
 17 35  1  0  0  0  0
 17 36  1  0  0  0  0
 18 19  1  0  0  0  0
 18 37  1  0  0  0  0
 18 38  1  0  0  0  0
 19 39  1  0  0  0  0
 19 40  1  0  0  0  0
M  CHG  1  15   1
M  END
> <s_m_source_file>
AV-unprocessed.smi

> <i_m_source_file_index>
1469

> <i_lp_mmshare_version>
43012

> <i_f3d_flags>
0

> <s_epik_input>
W0NIMl0xW0NIMl1bQ0gyXVtDSDJdTjFbQ0BIXShbQ0gzXSlbQ0gyXVtOSF1DKD1PKVtDSDJdbjJbY0hdW2NIXVtjSF1bY0hdYzI9Tw==

> <s_epik_cmdline>
J2VwaWtfcHl0aG9uJywgJy1waCcsICc3LjAnLCAnLXRuJywgJzgnLCAnLW1hJywgJzIwMCcsICctbWV0YWxfYmluZGluZycsICctaW1hZScsICc8aW5maWxlLm1hZT4nLCAnLW9tYWUnLCAnPG91dGZpbGUubWFlPic=

> <r_lp_tautomer_probability>
1

> <r_epik_Ionization_Penalty>
0.00497231

> <r_epik_Ionization_Penalty_Charging>
0.00497223

> <r_epik_Ionization_Penalty_Neutral>
8.2288e-08

> <r_epik_State_Penalty>
0.0036131

> <r_epik_Charging_Adjusted_Penalty>
0.00858533

> <i_epik_Tot_Q>
1

> <i_epik_Tot_abs_Q>
1

> <r_epik_Metal_State_Penalty>
-0

> <b_epik_Metal_Only>
0

> <s_lp_Force_Field>
OPLS_2005

> <r_lp_Energy>
39.8185

> <b_lp_Chiralities_Consistent>
1

> <s_lp_Variant>
AV-unprocessed.smi:1469-1

> <Gold.Version>
5.8.1

> <Gold.Id.Protein>
6NUR|6NUR_protein|mol2

> <Gold.PLP.Fitness>
53.5607

> <Gold.PLP.PLP>
-36.6135

> <Gold.PLP.part.hbond>
-4.0000

> <Gold.PLP.part.metal>
0.0000

> <Gold.PLP.part.buried>
0.2676

> <Gold.PLP.part.nonpolar>
-32.5385

> <Gold.PLP.part.repulsive>
0.0833

> <Gold.PLP.ligand.clash>
0.0000

> <Gold.PLP.ligand.torsion>
0.2437

> <Gold.PLP.Chemscore.Hbond>
4.8000

> <Gold.PLP.Chemscore.CHOScore>
1.0000

> <Gold.PLP.Chemscore.Metal>
0.0000

> <Gold.Chemscore.Hbonds>
donor molecule, donor type, donor heavy atom, donor atom, acceptor molecule, acceptor atom, score
      L1  H     4    26       P1  7948  0.45
      L1  H    15    41       P1  7948  1.14
      P1  H  7997  8008       L1    14  0.55
      P1  H 10752 10763       L1     6  1.00
      L1  C     9    29       P1  7957  0.02

> <Gold.PLP.Chemscore.Internal.Correction>
0.0346

> <Gold.Rescore>
     Score         DG    S(hbond)    S(metal)    S(lipo)     H(rot)  DE(clash)    DE(int)     intcor
     18.96     -20.02       3.34        0.00      70.21       1.89       0.30       0.76       ----

> <Gold.Chemscore.Fitness>
18.9586

> <Gold.Chemscore.DG>
-20.0247

> <Gold.Chemscore.ZeroCoef>
-5.4800

> <Gold.Chemscore.Hbond>
3.3426

> <Gold.Chemscore.Metal>
0.0000

> <Gold.Chemscore.Lipo>
70.2070

> <Gold.Chemscore.Internal_Hbond>
0.0000

> <Gold.Chemscore.DEClash>
0.3027

> <Gold.Chemscore.DEInternal>
0.7634

> <Gold.Chemscore.Rot>
1.8882

> <Gold.Chemscore.Internal.Correction>
   9.000000E+99

> <Gold.Chemscore.Hbonds>
donor molecule, donor type, donor heavy atom, donor atom, acceptor molecule, acceptor atom, score
      L1  H     4    26       P1  7948  0.44
      L1  H    15    41       P1  7948  0.31
      P1  H  7997  8008       L1    14  0.53
      P1  H 10752 10763       L1     6  0.94

> <Gold.Chemscore.Hbond.Weighted>
-11.1643

> <Gold.Chemscore.Metal.Weighted>
-0.0000

> <Gold.Chemscore.Lipo.Weighted>
-8.2142

> <Gold.Chemscore.Internal_Hbond.Weighted>
0.0000

> <Gold.Chemscore.DEClash.Weighted>
0.3027

> <Gold.Chemscore.DEInternal.Weighted>
0.7634

> <Gold.Chemscore.Rot.Weighted>
4.8338

> <Gold.Chemscore.Internal.Correction.Weighted>
   9.000000E+99

> <Gold.Protein.RotatedTorsions>
[ 6907 6896 6895 6894 ] final   76.28 input  -60.11 | X-H torsion
[ 7974 7965 7964 7962 ] final -133.72 input  175.53 | X-H torsion
[ 8008 7997 7996 7995 ] final  -46.58 input   59.86 | X-H torsion
[ 10167 10162 10161 10158 ] final  -44.01 input  -65.29 | X-H torsion
[ 10718 10713 10712 10709 ] final   74.23 input   66.30 | X-H torsion
[ 10763 10752 10751 10750 ] final   87.49 input  -60.55 | X-H torsion
[ 11005 11000 10999 10996 ] final  148.12 input  -57.11 | X-H torsion

> <Gold.Protein.ActiveResidues>
 VAL166  LYS551  ARG553  GLY616  TRP617  ASP618  TYR619  PRO620  LYS621  CYS622 
 ASP623  PHE694  ASN695  SER759  ASP760  ASP761  ALA762  ILE779  LEU786  VAL792 
 PHE793  MET794  SER795  GLU796  ALA797  LYS798  CYS799  TRP800  GLU811  SER814 

> <Gold.Protein.RotatedAtoms>
  152.5065  134.3993  159.9410 H   0  0  0  0  0  0  0  0  0  0  0  0  # atno 6907 bound_to 6896
  151.3957  133.3768  159.2734 H   0  0  0  0  0  0  0  0  0  0  0  0  # atno 6908 bound_to 6896
  150.9399  134.8830  159.7665 H   0  0  0  0  0  0  0  0  0  0  0  0  # atno 6909 bound_to 6896
  144.9168  140.6964  143.4990 H   0  0  0  0  0  0  0  0  0  0  0  0  # atno 7974 bound_to 7965
  154.4008  140.1368  156.4035 H   0  0  0  0  0  0  0  0  0  0  0  0  # atno 8008 bound_to 7997
  155.7802  140.3481  155.5273 H   0  0  0  0  0  0  0  0  0  0  0  0  # atno 8009 bound_to 7997
  155.8681  140.0967  157.1559 H   0  0  0  0  0  0  0  0  0  0  0  0  # atno 8010 bound_to 7997
  140.6913  143.2952  151.3434 H   0  0  0  0  0  0  0  0  0  0  0  0  # atno 10167 bound_to 10162
  157.6583  130.9667  150.1182 H   0  0  0  0  0  0  0  0  0  0  0  0  # atno 10718 bound_to 10713
  153.1674  135.4541  154.9855 H   0  0  0  0  0  0  0  0  0  0  0  0  # atno 10763 bound_to 10752
  154.7941  135.3231  154.7710 H   0  0  0  0  0  0  0  0  0  0  0  0  # atno 10764 bound_to 10752
  153.8191  135.6948  153.4884 H   0  0  0  0  0  0  0  0  0  0  0  0  # atno 10765 bound_to 10752
  140.0933  134.9027  157.1685 H   0  0  0  0  0  0  0  0  0  0  0  0  # atno 11005 bound_to 11000
  145.3363  139.1745  143.4510 LP  0  0  0  0  0  0  0  0  0  0  0  0  # atno 17320 bound_to 7965
  146.3185  140.3398  142.8647 LP  0  0  0  0  0  0  0  0  0  0  0  0  # atno 17321 bound_to 7965
  139.6318  144.0706  152.2483 LP  0  0  0  0  0  0  0  0  0  0  0  0  # atno 17342 bound_to 10162
  140.0183  144.6172  150.7588 LP  0  0  0  0  0  0  0  0  0  0  0  0  # atno 17343 bound_to 10162
  156.2060  130.3663  149.8729 LP  0  0  0  0  0  0  0  0  0  0  0  0  # atno 17370 bound_to 10713
  156.6620  130.8786  151.3549 LP  0  0  0  0  0  0  0  0  0  0  0  0  # atno 17371 bound_to 10713
  140.3321  134.2798  155.7226 LP  0  0  0  0  0  0  0  0  0  0  0  0  # atno 17394 bound_to 11000
  141.2084  133.7777  157.0058 LP  0  0  0  0  0  0  0  0  0  0  0  0  # atno 17395 bound_to 11000

$$$$
