AV-unprocessed.smi:302|AV-procd|sdf|2272|dock6
  -GOLD-   2262022163D 1   1.00000     0.00000
 Structure written by MMmdl.
 44 45  0  0  0  0  0  0  0  0  1 V2000
  135.6508  138.2838  154.5622 C   0  0  0  0  0  0  0  0  0  0  0  0
  136.9254  137.5292  154.9458 C   0  0  0  0  0  0  0  0  0  0  0  0
  137.8481  138.4517  155.5148 O   0  0  0  0  0  0  0  0  0  0  0  0
  139.0084  138.7265  154.7319 C   0  0  2  0  0  0  0  0  0  0  0  0
  138.5309  139.4385  153.4493 C   0  0  0  0  0  0  0  0  0  0  0  0
  137.8334  140.7844  153.6991 C   0  0  0  0  0  0  0  0  0  0  0  0
  139.7654  137.4191  154.4354 C   0  0  0  0  0  0  0  0  0  0  0  0
  139.4265  136.3774  154.9967 O   0  0  0  0  0  0  0  0  0  0  0  0
  140.7973  137.5246  153.5779 N   0  0  0  0  0  0  0  0  0  0  0  0
  141.6913  136.5114  153.1400 C   0  0  0  0  0  0  0  0  0  0  0  0
  141.4478  135.1243  153.2655 C   0  0  0  0  0  0  0  0  0  0  0  0
  142.4102  134.2169  152.7828 C   0  0  0  0  0  0  0  0  0  0  0  0
  143.5892  134.7129  152.1774 C   0  0  0  0  0  0  0  0  0  0  0  0
  144.5716  133.8204  151.6958 N   0  0  0  0  0  0  0  0  0  0  0  0
  145.4831  133.2692  152.6954 C   0  0  0  0  0  0  0  0  0  0  0  0
  146.6831  132.5941  152.0090 C   0  0  0  0  0  0  0  0  0  0  0  0
  146.2229  131.6168  151.0813 O   0  0  0  0  0  0  0  0  0  0  0  0
  145.4270  132.1964  150.0531 C   0  0  0  0  0  0  0  0  0  0  0  0
  144.1815  132.8538  150.6708 C   0  0  0  0  0  0  0  0  0  0  0  0
  143.8127  136.0440  152.0492 N   0  0  0  0  0  0  0  0  0  0  0  0
  142.8869  136.9100  152.5107 C   0  0  0  0  0  0  0  0  0  0  0  0
  134.9150  137.6085  154.1248 H   0  0  0  0  0  0  0  0  0  0  0  0
  135.8635  139.0651  153.8316 H   0  0  0  0  0  0  0  0  0  0  0  0
  135.1968  138.7542  155.4348 H   0  0  0  0  0  0  0  0  0  0  0  0
  136.6870  136.7444  155.6651 H   0  0  0  0  0  0  0  0  0  0  0  0
  137.3424  137.0495  154.0596 H   0  0  0  0  0  0  0  0  0  0  0  0
  139.6539  139.4127  155.2839 H   0  0  0  0  0  0  0  0  0  0  0  0
  139.3692  139.5854  152.7669 H   0  0  0  0  0  0  0  0  0  0  0  0
  137.8349  138.7826  152.9256 H   0  0  0  0  0  0  0  0  0  0  0  0
  137.4685  141.2082  152.7634 H   0  0  0  0  0  0  0  0  0  0  0  0
  138.5102  141.5128  154.1461 H   0  0  0  0  0  0  0  0  0  0  0  0
  136.9784  140.6667  154.3652 H   0  0  0  0  0  0  0  0  0  0  0  0
  141.0117  138.4588  153.2599 H   0  0  0  0  0  0  0  0  0  0  0  0
  140.5445  134.7389  153.7120 H   0  0  0  0  0  0  0  0  0  0  0  0
  142.2383  133.1571  152.8962 H   0  0  0  0  0  0  0  0  0  0  0  0
  145.8499  134.0351  153.3767 H   0  0  0  0  0  0  0  0  0  0  0  0
  144.9415  132.5406  153.2999 H   0  0  0  0  0  0  0  0  0  0  0  0
  147.3036  133.3319  151.4977 H   0  0  0  0  0  0  0  0  0  0  0  0
  147.3148  132.1077  152.7523 H   0  0  0  0  0  0  0  0  0  0  0  0
  146.0133  132.9255  149.4914 H   0  0  0  0  0  0  0  0  0  0  0  0
  145.1310  131.4173  149.3505 H   0  0  0  0  0  0  0  0  0  0  0  0
  143.5400  132.0930  151.1177 H   0  0  0  0  0  0  0  0  0  0  0  0
  143.6074  133.3460  149.8847 H   0  0  0  0  0  0  0  0  0  0  0  0
  143.1148  137.9579  152.3801 H   0  0  0  0  0  0  0  0  0  0  0  0
  1  2  1  0  0  0  0
  1 22  1  0  0  0  0
  1 23  1  0  0  0  0
  1 24  1  0  0  0  0
  2  3  1  0  0  0  0
  2 25  1  0  0  0  0
  2 26  1  0  0  0  0
  3  4  1  0  0  0  0
  4  5  1  0  0  0  0
  4  7  1  0  0  0  0
  4 27  1  0  0  0  0
  5  6  1  0  0  0  0
  5 28  1  0  0  0  0
  5 29  1  0  0  0  0
  6 30  1  0  0  0  0
  6 31  1  0  0  0  0
  6 32  1  0  0  0  0
  7  8  2  0  0  0  0
  7  9  1  0  0  0  0
  9 10  1  0  0  0  0
  9 33  1  0  0  0  0
 10 21  1  0  0  0  0
 10 11  2  0  0  0  0
 11 12  1  0  0  0  0
 11 34  1  0  0  0  0
 12 13  2  0  0  0  0
 12 35  1  0  0  0  0
 13 14  1  0  0  0  0
 13 20  1  0  0  0  0
 14 19  1  0  0  0  0
 14 15  1  0  0  0  0
 15 16  1  0  0  0  0
 15 36  1  0  0  0  0
 15 37  1  0  0  0  0
 16 17  1  0  0  0  0
 16 38  1  0  0  0  0
 16 39  1  0  0  0  0
 17 18  1  0  0  0  0
 18 19  1  0  0  0  0
 18 40  1  0  0  0  0
 18 41  1  0  0  0  0
 19 42  1  0  0  0  0
 19 43  1  0  0  0  0
 20 21  2  0  0  0  0
 21 44  1  0  0  0  0
M  END
> <s_m_source_file>
AV-unprocessed.smi

> <i_m_source_file_index>
302

> <i_lp_mmshare_version>
43012

> <i_f3d_flags>
0

> <s_epik_input>
W0NIM11bQ0gyXU9bQ0BIXShbQ0gyXVtDSDNdKUMoPU8pW05IXWMxW2NIXVtjSF1jKG5bY0hdMSlOMltDSDJdW0NIMl1PW0NIMl1bQ0gyXTI=

> <s_epik_cmdline>
J2VwaWtfcHl0aG9uJywgJy1waCcsICc3LjAnLCAnLXRuJywgJzgnLCAnLW1hJywgJzIwMCcsICctbWV0YWxfYmluZGluZycsICctaW1hZScsICc8aW5maWxlLm1hZT4nLCAnLW9tYWUnLCAnPG91dGZpbGUubWFlPic=

> <r_lp_tautomer_probability>
1

> <r_epik_Ionization_Penalty>
0.000497413

> <r_epik_Ionization_Penalty_Charging>
0

> <r_epik_Ionization_Penalty_Neutral>
0.000497413

> <r_epik_State_Penalty>
0.000308489

> <r_epik_Charging_Adjusted_Penalty>
0.000308489

> <i_epik_Tot_Q>
0

> <i_epik_Tot_abs_Q>
0

> <r_epik_Metal_State_Penalty>
-0

> <b_epik_Metal_Only>
0

> <s_lp_Force_Field>
OPLS_2005

> <r_lp_Energy>
24.0205

> <b_lp_Chiralities_Consistent>
1

> <s_lp_Variant>
AV-unprocessed.smi:302-1

> <Gold.Version>
5.8.1

> <Gold.Id.Protein>
6NUR|6NUR_protein|mol2

> <Gold.PLP.Fitness>
38.5948

> <Gold.PLP.PLP>
-33.5915

> <Gold.PLP.part.hbond>
-1.0000

> <Gold.PLP.part.metal>
0.0000

> <Gold.PLP.part.buried>
-7.1013

> <Gold.PLP.part.nonpolar>
-26.3023

> <Gold.PLP.part.repulsive>
1.4293

> <Gold.PLP.ligand.clash>
0.0000

> <Gold.PLP.ligand.torsion>
0.8362

> <Gold.PLP.Chemscore.Hbond>
1.0000

> <Gold.PLP.Chemscore.CHOScore>
1.0927

> <Gold.PLP.Chemscore.Metal>
0.0000

> <Gold.Chemscore.Hbonds>
donor molecule, donor type, donor heavy atom, donor atom, acceptor molecule, acceptor atom, score
      P1  H 11000 11005       L1     8  1.00
      L1  C    21    44       P1 10171  0.34
      L1  C    21    44       P1 10175  1.00

> <Gold.PLP.Chemscore.Internal.Correction>
0.3975

> <Gold.Rescore>
     Score         DG    S(hbond)    S(metal)    S(lipo)     H(rot)  DE(clash)    DE(int)     intcor
     12.08     -14.57       1.00        0.00      84.71       1.63       0.08       2.40       ----

> <Gold.Chemscore.Fitness>
12.0837

> <Gold.Chemscore.DG>
-14.5681

> <Gold.Chemscore.ZeroCoef>
-5.4800

> <Gold.Chemscore.Hbond>
1.0000

> <Gold.Chemscore.Metal>
0.0000

> <Gold.Chemscore.Lipo>
84.7070

> <Gold.Chemscore.Internal_Hbond>
0.0000

> <Gold.Chemscore.DEClash>
0.0823

> <Gold.Chemscore.DEInternal>
2.4022

> <Gold.Chemscore.Rot>
1.6260

> <Gold.Chemscore.Internal.Correction>
   9.000000E+99

> <Gold.Chemscore.Hbonds>
donor molecule, donor type, donor heavy atom, donor atom, acceptor molecule, acceptor atom, score
      P1  H 11000 11005       L1     8  0.98

> <Gold.Chemscore.Hbond.Weighted>
-3.3400

> <Gold.Chemscore.Metal.Weighted>
-0.0000

> <Gold.Chemscore.Lipo.Weighted>
-9.9107

> <Gold.Chemscore.Internal_Hbond.Weighted>
0.0000

> <Gold.Chemscore.DEClash.Weighted>
0.0823

> <Gold.Chemscore.DEInternal.Weighted>
2.4022

> <Gold.Chemscore.Rot.Weighted>
4.1626

> <Gold.Chemscore.Internal.Correction.Weighted>
   9.000000E+99

> <Gold.Protein.RotatedTorsions>
[ 6907 6896 6895 6894 ] final  -46.78 input  -60.11 | X-H torsion
[ 7974 7965 7964 7962 ] final  -27.43 input  175.53 | X-H torsion
[ 8008 7997 7996 7995 ] final   81.65 input   59.86 | X-H torsion
[ 10167 10162 10161 10158 ] final    9.50 input  -65.29 | X-H torsion
[ 10718 10713 10712 10709 ] final   -7.88 input   66.30 | X-H torsion
[ 10763 10752 10751 10750 ] final  -55.61 input  -60.55 | X-H torsion
[ 11005 11000 10999 10996 ] final   75.08 input  -57.11 | X-H torsion

> <Gold.Protein.ActiveResidues>
 VAL166  LYS551  ARG553  GLY616  TRP617  ASP618  TYR619  PRO620  LYS621  CYS622 
 ASP623  PHE694  ASN695  SER759  ASP760  ASP761  ALA762  ILE779  LEU786  VAL792 
 PHE793  MET794  SER795  GLU796  ALA797  LYS798  CYS799  TRP800  GLU811  SER814 

> <Gold.Protein.RotatedAtoms>
  150.9077  134.8492  159.7403 H   0  0  0  0  0  0  0  0  0  0  0  0  # atno 6907 bound_to 6896
  152.4927  134.4407  159.9552 H   0  0  0  0  0  0  0  0  0  0  0  0  # atno 6908 bound_to 6896
  151.4452  133.3593  159.2822 H   0  0  0  0  0  0  0  0  0  0  0  0  # atno 6909 bound_to 6896
  146.1358  140.5150  142.8673 H   0  0  0  0  0  0  0  0  0  0  0  0  # atno 7974 bound_to 7965
  155.8999  140.3434  155.6019 H   0  0  0  0  0  0  0  0  0  0  0  0  # atno 8008 bound_to 7997
  155.7512  140.0820  157.2219 H   0  0  0  0  0  0  0  0  0  0  0  0  # atno 8009 bound_to 7997
  154.4042  140.1553  156.2713 H   0  0  0  0  0  0  0  0  0  0  0  0  # atno 8010 bound_to 7997
  140.6251  143.8119  150.7223 H   0  0  0  0  0  0  0  0  0  0  0  0  # atno 10167 bound_to 10162
  156.7107  130.5121  149.5893 H   0  0  0  0  0  0  0  0  0  0  0  0  # atno 10718 bound_to 10713
  154.1936  135.6423  153.5067 H   0  0  0  0  0  0  0  0  0  0  0  0  # atno 10763 bound_to 10752
  153.0029  135.5434  154.6389 H   0  0  0  0  0  0  0  0  0  0  0  0  # atno 10764 bound_to 10752
  154.5784  135.2923  155.0730 H   0  0  0  0  0  0  0  0  0  0  0  0  # atno 10765 bound_to 10752
  139.9360  134.7488  156.1227 H   0  0  0  0  0  0  0  0  0  0  0  0  # atno 11005 bound_to 11000
  144.7739  140.5697  143.6651 LP  0  0  0  0  0  0  0  0  0  0  0  0  # atno 17320 bound_to 7965
  145.5158  139.1478  143.3579 LP  0  0  0  0  0  0  0  0  0  0  0  0  # atno 17321 bound_to 7965
  140.1718  143.4188  152.1996 LP  0  0  0  0  0  0  0  0  0  0  0  0  # atno 17342 bound_to 10162
  139.5473  144.7309  151.4544 LP  0  0  0  0  0  0  0  0  0  0  0  0  # atno 17343 bound_to 10162
  156.1663  130.6407  151.0782 LP  0  0  0  0  0  0  0  0  0  0  0  0  # atno 17370 bound_to 10713
  157.6937  131.0801  150.7033 LP  0  0  0  0  0  0  0  0  0  0  0  0  # atno 17371 bound_to 10713
  141.0974  133.6690  156.2676 LP  0  0  0  0  0  0  0  0  0  0  0  0  # atno 17394 bound_to 11000
  140.6074  134.5493  157.5528 LP  0  0  0  0  0  0  0  0  0  0  0  0  # atno 17395 bound_to 11000

$$$$
