AV-unprocessed.smi:200|AV-procd|sdf|1578|dock6
  -GOLD-   2262019463D 1   1.00000     0.00000
 Structure written by MMmdl.
 56 59  0  0  0  0  0  0  0  0  1 V2000
  146.5009  141.8276  157.2616 C   0  0  0  0  0  0  0  0  0  0  0  0
  147.8541  141.4505  157.4610 O   0  0  0  0  0  0  0  0  0  0  0  0
  148.4067  140.6681  156.4104 C   0  0  0  0  0  0  0  0  0  0  0  0
  149.9491  140.6284  156.4564 C   0  0  0  0  0  0  0  0  0  0  0  0
  150.4926  140.5678  157.8148 N   0  0  0  0  0  0  0  0  0  0  0  0
  150.6122  139.3252  158.3430 C   0  0  0  0  0  0  0  0  0  0  0  0
  151.8388  138.8329  158.6591 N   0  0  0  0  0  0  0  0  0  0  0  0
  151.9514  137.6108  159.1876 C   0  0  0  0  0  0  0  0  0  0  0  0
  150.9870  136.7344  159.4773 N   0  0  0  0  0  0  0  0  0  0  0  0
  149.7555  137.2242  159.1552 C   0  0  0  0  0  0  0  0  0  0  0  0
  149.4837  138.4951  158.5768 C   0  0  0  0  0  0  0  0  0  0  0  0
  148.1196  138.6419  158.3635 N   0  0  0  0  0  0  0  0  0  0  0  0
  147.6118  137.5200  158.7949 C   0  0  0  0  0  0  0  0  0  0  0  0
  148.5190  136.6206  159.3116 N   0  0  0  0  0  0  0  0  0  0  0  0
  148.2239  135.3073  159.8668 C   0  0  0  0  0  0  0  0  0  0  0  0
  147.2209  135.3190  161.0427 C   0  0  0  0  0  0  0  0  0  0  0  0
  147.7916  136.0921  162.2437 C   0  0  0  0  0  0  0  0  0  0  0  0
  147.4363  137.4591  162.1963 O   0  0  0  0  0  0  0  0  0  0  0  0
  145.7798  135.6793  160.6570 C   0  0  0  0  0  0  0  0  0  0  0  0
  145.3165  134.3251  160.8396 O   0  0  0  0  0  0  0  0  0  0  0  0
  146.5971  133.9606  161.3953 C   0  0  0  0  0  0  0  0  0  0  0  0
  151.5732  141.5156  158.1190 C   0  0  2  0  0  0  0  0  0  0  0  0
  152.1310  141.4430  159.5493 C   0  0  0  0  0  0  0  0  0  0  0  0
  152.7636  142.8194  159.8166 C   0  0  0  0  0  0  0  0  0  0  0  0
  152.4447  143.6973  158.5933 C   0  0  2  0  0  0  0  0  0  0  0  0
  152.1845  145.1706  158.9344 C   0  0  0  0  0  0  0  0  0  0  0  0
  151.2608  143.0040  157.9159 C   0  0  0  0  0  0  0  0  0  0  0  0
  146.1422  142.3607  158.1418 H   0  0  0  0  0  0  0  0  0  0  0  0
  145.8626  140.9552  157.1169 H   0  0  0  0  0  0  0  0  0  0  0  0
  146.3874  142.4932  156.4064 H   0  0  0  0  0  0  0  0  0  0  0  0
  147.9993  139.6602  156.4914 H   0  0  0  0  0  0  0  0  0  0  0  0
  148.0678  141.0475  155.4455 H   0  0  0  0  0  0  0  0  0  0  0  0
  150.3053  139.7671  155.8901 H   0  0  0  0  0  0  0  0  0  0  0  0
  150.3582  141.5017  155.9486 H   0  0  0  0  0  0  0  0  0  0  0  0
  152.9576  137.2901  159.4135 H   0  0  0  0  0  0  0  0  0  0  0  0
  146.5506  137.3207  158.7590 H   0  0  0  0  0  0  0  0  0  0  0  0
  147.8606  134.6731  159.0573 H   0  0  0  0  0  0  0  0  0  0  0  0
  149.1675  134.8588  160.1802 H   0  0  0  0  0  0  0  0  0  0  0  0
  147.4073  135.6844  163.1792 H   0  0  0  0  0  0  0  0  0  0  0  0
  148.8756  136.0012  162.3040 H   0  0  0  0  0  0  0  0  0  0  0  0
  147.1124  137.7150  163.0465 H   0  0  0  0  0  0  0  0  0  0  0  0
  145.2939  136.3704  161.3474 H   0  0  0  0  0  0  0  0  0  0  0  0
  145.6687  136.0203  159.6269 H   0  0  0  0  0  0  0  0  0  0  0  0
  147.0389  133.1102  160.8790 H   0  0  0  0  0  0  0  0  0  0  0  0
  146.5330  133.7668  162.4669 H   0  0  0  0  0  0  0  0  0  0  0  0
  152.3919  141.2766  157.4385 H   0  0  0  0  0  0  0  0  0  0  0  0
  151.3373  141.2734  160.2764 H   0  0  0  0  0  0  0  0  0  0  0  0
  152.8505  140.6314  159.6600 H   0  0  0  0  0  0  0  0  0  0  0  0
  152.3371  143.2451  160.7259 H   0  0  0  0  0  0  0  0  0  0  0  0
  153.8404  142.7439  159.9714 H   0  0  0  0  0  0  0  0  0  0  0  0
  153.2952  143.6441  157.9114 H   0  0  0  0  0  0  0  0  0  0  0  0
  151.3405  145.2776  159.6165 H   0  0  0  0  0  0  0  0  0  0  0  0
  151.9602  145.7447  158.0351 H   0  0  0  0  0  0  0  0  0  0  0  0
  153.0561  145.6224  159.4083 H   0  0  0  0  0  0  0  0  0  0  0  0
  151.1627  143.2724  156.8636 H   0  0  0  0  0  0  0  0  0  0  0  0
  150.3415  143.2938  158.4261 H   0  0  0  0  0  0  0  0  0  0  0  0
  1  2  1  0  0  0  0
  1 28  1  0  0  0  0
  1 29  1  0  0  0  0
  1 30  1  0  0  0  0
  2  3  1  0  0  0  0
  3  4  1  0  0  0  0
  3 31  1  0  0  0  0
  3 32  1  0  0  0  0
  4  5  1  0  0  0  0
  4 33  1  0  0  0  0
  4 34  1  0  0  0  0
  5  6  1  0  0  0  0
  5 22  1  0  0  0  0
  6 11  1  0  0  0  0
  6  7  2  0  0  0  0
  7  8  1  0  0  0  0
  8  9  2  0  0  0  0
  8 35  1  0  0  0  0
  9 10  1  0  0  0  0
 10 14  1  0  0  0  0
 10 11  2  0  0  0  0
 11 12  1  0  0  0  0
 12 13  2  0  0  0  0
 13 14  1  0  0  0  0
 13 36  1  0  0  0  0
 14 15  1  0  0  0  0
 15 16  1  0  0  0  0
 15 37  1  0  0  0  0
 15 38  1  0  0  0  0
 16 21  1  0  0  0  0
 16 17  1  0  0  0  0
 16 19  1  0  0  0  0
 17 18  1  0  0  0  0
 17 39  1  0  0  0  0
 17 40  1  0  0  0  0
 18 41  1  0  0  0  0
 19 20  1  0  0  0  0
 19 42  1  0  0  0  0
 19 43  1  0  0  0  0
 20 21  1  0  0  0  0
 21 44  1  0  0  0  0
 21 45  1  0  0  0  0
 22 27  1  0  0  0  0
 22 23  1  0  0  0  0
 22 46  1  0  0  0  0
 23 24  1  0  0  0  0
 23 47  1  0  0  0  0
 23 48  1  0  0  0  0
 24 25  1  0  0  0  0
 24 49  1  0  0  0  0
 24 50  1  0  0  0  0
 25 26  1  0  0  0  0
 25 27  1  0  0  0  0
 25 51  1  0  0  0  0
 26 52  1  0  0  0  0
 26 53  1  0  0  0  0
 26 54  1  0  0  0  0
 27 55  1  0  0  0  0
 27 56  1  0  0  0  0
M  END
> <s_m_source_file>
AV-unprocessed.smi

> <i_m_source_file_index>
200

> <i_lp_mmshare_version>
43012

> <i_f3d_flags>
0

> <s_epik_input>
W0NIM11bQ0BASF0oW0NIMl0xKVtDSDJdW0NIMl1bQ0BIXTFOKFtDSDJdW0NIMl1PW0NIM10pYyhuW2NIXW4yKWMoYzIzKW5bY0hdbjNbQ0gyXUM0KFtDSDJdW09IXSlbQ0gyXU9bQ0gyXTQ=

> <s_epik_cmdline>
J2VwaWtfcHl0aG9uJywgJy1waCcsICc3LjAnLCAnLXRuJywgJzgnLCAnLW1hJywgJzIwMCcsICctbWV0YWxfYmluZGluZycsICctaW1hZScsICc8aW5maWxlLm1hZT4nLCAnLW9tYWUnLCAnPG91dGZpbGUubWFlPic=

> <r_lp_tautomer_probability>
1

> <r_epik_Ionization_Penalty>
0.00363087

> <r_epik_Ionization_Penalty_Charging>
0

> <r_epik_Ionization_Penalty_Neutral>
0.00363087

> <r_epik_State_Penalty>
0.0024341

> <r_epik_Charging_Adjusted_Penalty>
0.0024341

> <i_epik_Tot_Q>
0

> <i_epik_Tot_abs_Q>
0

> <r_epik_Metal_State_Penalty>
-0

> <b_epik_Metal_Only>
0

> <s_lp_Force_Field>
OPLS_2005

> <r_lp_Energy>
51.1688

> <b_lp_Chiralities_Consistent>
1

> <s_lp_Variant>
AV-unprocessed.smi:200-3

> <Gold.Version>
5.8.1

> <Gold.Id.Protein>
6NUR|6NUR_protein|mol2

> <Gold.PLP.Fitness>
48.4990

> <Gold.PLP.PLP>
-44.0538

> <Gold.PLP.part.hbond>
-3.8220

> <Gold.PLP.part.metal>
0.0000

> <Gold.PLP.part.buried>
-5.8246

> <Gold.PLP.part.nonpolar>
-34.8447

> <Gold.PLP.part.repulsive>
0.0856

> <Gold.PLP.ligand.clash>
0.0000

> <Gold.PLP.ligand.torsion>
1.9060

> <Gold.PLP.Chemscore.Hbond>
2.3120

> <Gold.PLP.Chemscore.CHOScore>
0.0000

> <Gold.PLP.Chemscore.Metal>
0.0000

> <Gold.Chemscore.Hbonds>
donor molecule, donor type, donor heavy atom, donor atom, acceptor molecule, acceptor atom, score
      P1  H  6896  6907       L1     9  1.00
      P1  H  6931  6943       L1    18  0.75
      P1  H  6934  6947       L1    18  0.56

> <Gold.PLP.Chemscore.Internal.Correction>
1.3213

> <Gold.Rescore>
     Score         DG    S(hbond)    S(metal)    S(lipo)     H(rot)  DE(clash)    DE(int)     intcor
     11.53     -15.39       1.78        0.00     105.59       3.28       0.02       3.84       ----

> <Gold.Chemscore.Fitness>
11.5348

> <Gold.Chemscore.DG>
-15.3927

> <Gold.Chemscore.ZeroCoef>
-5.4800

> <Gold.Chemscore.Hbond>
1.7801

> <Gold.Chemscore.Metal>
0.0000

> <Gold.Chemscore.Lipo>
105.5892

> <Gold.Chemscore.Internal_Hbond>
0.0000

> <Gold.Chemscore.DEClash>
0.0207

> <Gold.Chemscore.DEInternal>
3.8372

> <Gold.Chemscore.Rot>
3.2761

> <Gold.Chemscore.Internal.Correction>
   9.000000E+99

> <Gold.Chemscore.Hbonds>
donor molecule, donor type, donor heavy atom, donor atom, acceptor molecule, acceptor atom, score
      P1  H  6896  6907       L1     9  0.94
      P1  H  6931  6943       L1    18  0.19
      P1  H  6934  6947       L1    18  0.32

> <Gold.Chemscore.Hbond.Weighted>
-5.9456

> <Gold.Chemscore.Metal.Weighted>
-0.0000

> <Gold.Chemscore.Lipo.Weighted>
-12.3539

> <Gold.Chemscore.Internal_Hbond.Weighted>
0.0000

> <Gold.Chemscore.DEClash.Weighted>
0.0207

> <Gold.Chemscore.DEInternal.Weighted>
3.8372

> <Gold.Chemscore.Rot.Weighted>
8.3868

> <Gold.Chemscore.Internal.Correction.Weighted>
   9.000000E+99

> <Gold.Protein.RotatedTorsions>
[ 6907 6896 6895 6894 ] final  -30.48 input  -60.11 | X-H torsion
[ 7974 7965 7964 7962 ] final   24.65 input  175.53 | X-H torsion
[ 8008 7997 7996 7995 ] final  102.77 input   59.86 | X-H torsion
[ 10167 10162 10161 10158 ] final -127.95 input  -65.29 | X-H torsion
[ 10718 10713 10712 10709 ] final   -1.98 input   66.30 | X-H torsion
[ 10763 10752 10751 10750 ] final  162.33 input  -60.55 | X-H torsion
[ 11005 11000 10999 10996 ] final  -11.54 input  -57.11 | X-H torsion

> <Gold.Protein.ActiveResidues>
 VAL166  LYS551  ARG553  GLY616  TRP617  ASP618  TYR619  PRO620  LYS621  CYS622 
 ASP623  PHE694  ASN695  SER759  ASP760  ASP761  ALA762  ILE779  LEU786  VAL792 
 PHE793  MET794  SER795  GLU796  ALA797  LYS798  CYS799  TRP800  GLU811  SER814 

> <Gold.Protein.RotatedAtoms>
  151.1050  134.9994  159.8466 H   0  0  0  0  0  0  0  0  0  0  0  0  # atno 6907 bound_to 6896
  152.5439  134.1904  159.8682 H   0  0  0  0  0  0  0  0  0  0  0  0  # atno 6908 bound_to 6896
  151.1950  133.4600  159.2628 H   0  0  0  0  0  0  0  0  0  0  0  0  # atno 6909 bound_to 6896
  146.1927  139.7576  142.8820 H   0  0  0  0  0  0  0  0  0  0  0  0  # atno 7974 bound_to 7965
  156.1424  140.3176  155.8516 H   0  0  0  0  0  0  0  0  0  0  0  0  # atno 8008 bound_to 7997
  155.4129  140.0507  157.3047 H   0  0  0  0  0  0  0  0  0  0  0  0  # atno 8009 bound_to 7997
  154.4987  140.2121  155.9404 H   0  0  0  0  0  0  0  0  0  0  0  0  # atno 8010 bound_to 7997
  139.9554  143.6009  152.2462 H   0  0  0  0  0  0  0  0  0  0  0  0  # atno 10167 bound_to 10162
  156.7976  130.5382  149.5726 H   0  0  0  0  0  0  0  0  0  0  0  0  # atno 10718 bound_to 10713
  154.2767  135.2764  155.2715 H   0  0  0  0  0  0  0  0  0  0  0  0  # atno 10763 bound_to 10752
  154.5254  135.5744  153.6718 H   0  0  0  0  0  0  0  0  0  0  0  0  # atno 10764 bound_to 10752
  152.9936  135.6214  154.2924 H   0  0  0  0  0  0  0  0  0  0  0  0  # atno 10765 bound_to 10752
  140.7563  133.8551  155.9087 H   0  0  0  0  0  0  0  0  0  0  0  0  # atno 11005 bound_to 11000
  145.3741  141.0347  143.3214 LP  0  0  0  0  0  0  0  0  0  0  0  0  # atno 17320 bound_to 7965
  144.8519  139.5309  143.6852 LP  0  0  0  0  0  0  0  0  0  0  0  0  # atno 17321 bound_to 7965
  139.6595  144.7662  151.1990 LP  0  0  0  0  0  0  0  0  0  0  0  0  # atno 17342 bound_to 10162
  140.7570  143.6032  150.8679 LP  0  0  0  0  0  0  0  0  0  0  0  0  # atno 17343 bound_to 10162
  156.1120  130.6047  151.0063 LP  0  0  0  0  0  0  0  0  0  0  0  0  # atno 17370 bound_to 10713
  157.6569  131.0887  150.7926 LP  0  0  0  0  0  0  0  0  0  0  0  0  # atno 17371 bound_to 10713
  140.9705  134.1538  157.4580 LP  0  0  0  0  0  0  0  0  0  0  0  0  # atno 17394 bound_to 11000
  139.8778  134.9976  156.5858 LP  0  0  0  0  0  0  0  0  0  0  0  0  # atno 17395 bound_to 11000

$$$$
