#       Name:                AV-unprocessed.smi:948
#       Creating user name   scv26
#       Creation time:       Fri Mar 27 02:15:03 2020


#       File generated by GOLD software.
#

@<TRIPOS>MOLECULE
AV-unprocessed.smi:948
    19    19     1
SMALL
NO_CHARGES


@<TRIPOS>ATOM
      1 ****        -1.7112   2.2016   0.0888 N.4            1 S1                 1.0000
      2 ****        -1.2248   0.8130   0.0357 C.3            1 S1                 0.0000
      3 ****         0.3026   0.7494   0.1712 C.3            1 S1                 0.0000
      4 ****         0.8341  -0.6449   0.1330 C.2            1 S1                 0.0000
      5 ****         1.2750  -1.4733   1.1428 C.2            1 S1                 0.0000
      6 ****         1.6756  -2.7010   0.6118 N.2            1 S1                 0.0000
      7 ****         1.4666  -2.5735  -0.6929 C.2            1 S1                 0.0000
      8 ****         0.9695  -1.3811  -1.0330 N.pl3          1 S1                 0.0000
      9 ****         0.7410  -1.0764  -1.9684 H              1 S1                 0.0000
     10 ****        -2.7162   2.2098  -0.0119 H              1 S1                 0.0000
     11 ****        -1.2940   2.7351  -0.6605 H              1 S1                 0.0000
     12 ****        -1.7002   0.2458   0.8367 H              1 S1                 0.0000
     13 ****        -1.5424   0.3676  -0.9077 H              1 S1                 0.0000
     14 ****         0.7668   1.3316  -0.6259 H              1 S1                 0.0000
     15 ****         0.6064   1.2216   1.1066 H              1 S1                 0.0000
     16 ****         1.3333  -1.2827   2.2044 H              1 S1                 0.0000
     17 ****         1.6771  -3.3558  -1.4073 H              1 S1                 0.0000
     18 ****        -1.4595   2.6136   0.9761 H              1 S1                 0.0000
     19 ****         2.0370  -3.4943   1.1019 LP             1 S1                 0.0000
@<TRIPOS>BOND
    1    1    2 1     
    2    1   10 1     
    3    1   11 1     
    4    1   18 1     
    5    2    3 1     
    6    2   12 1     
    7    2   13 1     
    8    3   14 1     
    9    3   15 1     
   10    3    4 1     
   11    4    5 2     
   12    4    8 1     
   13    5   16 1     
   14    5    6 1     
   15    6    7 2     
   16    7    8 1     
   17    7   17 1     
   18    8    9 1     
   19    6   19 1     
@<TRIPOS>SUBSTRUCTURE
      1 S1             1
@<TRIPOS>SET
LONE_PAIRS      STATIC     ATOMS    <user>   **** ""
1 19
DONOR_HYDROGENS      STATIC     ATOMS    <user>   **** ""
4 10 11 18 9
ATOM$BLUE        STATIC     ATOMS    COLORGROUP SYSTEM
1 19
ATOM$RED        STATIC     ATOMS    COLORGROUP SYSTEM
4 10 11 18 9
