#       Name:                AV-unprocessed.smi:3112
#       Creating user name   scv26
#       Creation time:       Fri Mar 27 17:22:03 2020


#       File generated by GOLD software.
#

@<TRIPOS>MOLECULE
AV-unprocessed.smi:3112
    40    40     1
SMALL
NO_CHARGES


@<TRIPOS>ATOM
      1 ****        -3.6611   4.0191  -0.6666 C.3            1 S1                 0.0000
      2 ****        -3.1661   2.5919  -0.9383 C.3            1 S1                 0.0000
      3 ****        -1.7045   2.3584  -0.5137 C.3            1 S1                 0.0000
      4 ****        -0.8588   3.1439  -1.3312 O.3            1 S1                 0.0000
      5 ****        -1.2907   0.8849  -0.6649 C.3            1 S1                 0.0000
      6 ****         0.0451   0.6427  -0.0788 N.4            1 S1                 1.0000
      7 ****         0.5271  -0.7560  -0.1490 C.3            1 S1                 0.0000
      8 ****         1.0637  -1.0614  -1.5637 C.3            1 S1                 0.0000
      9 ****         1.5799  -1.0002   0.9640 C.3            1 S1                 0.0000
     10 ****         0.9872  -0.8652   2.3794 C.3            1 S1                 0.0000
     11 ****         2.2351  -2.2953   0.8244 N.pl3          1 S1                 0.0000
     12 ****         1.6935  -3.5584   0.9621 C.2            1 S1                 0.0000
     13 ****         2.6917  -4.4592   0.7250 C.2            1 S1                 0.0000
     14 ****         3.8230  -3.6436   0.4444 C.2            1 S1                 0.0000
     15 ****         3.5462  -2.3510   0.5027 N.2            1 S1                 0.0000
     16 ****        -4.7099   4.1240  -0.9456 H              1 S1                 0.0000
     17 ****        -3.0940   4.7544  -1.2379 H              1 S1                 0.0000
     18 ****        -3.5723   4.2732   0.3902 H              1 S1                 0.0000
     19 ****        -3.8109   1.8992  -0.3960 H              1 S1                 0.0000
     20 ****        -3.2915   2.3565  -1.9961 H              1 S1                 0.0000
     21 ****        -1.5777   2.6686   0.5248 H              1 S1                 0.0000
     22 ****        -1.1154   4.0502  -1.2472 H              1 S1                 0.0000
     23 ****        -2.0104   0.2483  -0.1483 H              1 S1                 0.0000
     24 ****        -1.3079   0.5963  -1.7161 H              1 S1                 0.0000
     25 ****         0.7187   1.2447  -0.5310 H              1 S1                 0.0000
     26 ****        -0.3183  -1.4190   0.0428 H              1 S1                 0.0000
     27 ****         1.3543  -2.1064  -1.6709 H              1 S1                 0.0000
     28 ****         1.9376  -0.4504  -1.7929 H              1 S1                 0.0000
     29 ****         0.3160  -0.8693  -2.3326 H              1 S1                 0.0000
     30 ****         2.3533  -0.2357   0.8630 H              1 S1                 0.0000
     31 ****         0.5896   0.1344   2.5550 H              1 S1                 0.0000
     32 ****         1.7477  -1.0468   3.1397 H              1 S1                 0.0000
     33 ****         0.1775  -1.5766   2.5446 H              1 S1                 0.0000
     34 ****         0.6542  -3.7101   1.2137 H              1 S1                 0.0000
     35 ****         2.6241  -5.5368   0.7476 H              1 S1                 0.0000
     36 ****         4.8296  -3.9504   0.2008 H              1 S1                 0.0000
     37 ****        -0.0072   0.9005   0.8963 H              1 S1                 0.0000
     38 ****        -0.9485   2.8552  -2.2844 LP             1 S1                 0.0000
     39 ****         0.0908   3.0339  -1.0376 LP             1 S1                 0.0000
     40 ****         4.1693  -1.5851   0.3439 LP             1 S1                 0.0000
@<TRIPOS>BOND
    1    1    2 1     
    2    1   16 1     
    3    1   17 1     
    4    1   18 1     
    5    2    3 1     
    6    2   19 1     
    7    2   20 1     
    8    3    4 1     
    9    3    5 1     
   10    3   21 1     
   11    4   22 1     
   12    5    6 1     
   13    5   23 1     
   14    5   24 1     
   15    6    7 1     
   16    6   25 1     
   17    6   37 1     
   18    7    8 1     
   19    7    9 1     
   20    7   26 1     
   21    8   27 1     
   22    8   28 1     
   23    8   29 1     
   24    9   10 1     
   25    9   11 1     
   26    9   30 1     
   27   10   31 1     
   28   10   32 1     
   29   10   33 1     
   30   11   15 1     
   31   11   12 1     
   32   12   13 2     
   33   12   34 1     
   34   13   14 1     
   35   13   35 1     
   36   14   15 2     
   37   14   36 1     
   38    4   38 1     
   39    4   39 1     
   40   15   40 1     
@<TRIPOS>SUBSTRUCTURE
      1 S1             1
@<TRIPOS>SET
LONE_PAIRS      STATIC     ATOMS    <user>   **** ""
3 38 39 40
DONOR_HYDROGENS      STATIC     ATOMS    <user>   **** ""
3 22 25 37
ATOM$BLUE        STATIC     ATOMS    COLORGROUP SYSTEM
3 38 39 40
ATOM$RED        STATIC     ATOMS    COLORGROUP SYSTEM
3 22 25 37
