AV-unprocessed.smi:2330|AV-procd|sdf|9311|dock9
  -GOLD-   2272012533D 1   1.00000     0.00000
 Structure written by MMmdl.
 42 43  0  0  0  0  0  0  0  0  1 V2000
  140.8485  145.4098  159.6557 C   0  0  0  0  0  0  0  0  0  0  0  0
  142.3734  145.5664  159.5724 C   0  0  2  0  0  0  0  0  0  0  0  0
  142.8951  145.2618  158.1549 C   0  0  0  0  0  0  0  0  0  0  0  0
  144.4224  145.4161  158.0672 C   0  0  0  0  0  0  0  0  0  0  0  0
  145.1406  144.5418  159.1125 C   0  0  1  0  0  0  0  0  0  0  0  0
  146.5789  144.7856  159.0652 N   0  0  0  0  0  0  0  0  0  0  0  0
  147.4703  144.3837  159.9813 C   0  0  0  0  0  0  0  0  0  0  0  0
  147.1882  143.7378  160.9904 O   0  0  0  0  0  0  0  0  0  0  0  0
  148.7089  144.7904  159.6735 N   0  0  0  0  0  0  0  0  0  0  0  0
  149.8879  144.6002  160.5134 C   0  0  0  0  0  0  0  0  0  0  0  0
  151.1596  144.2847  159.6948 C   0  0  1  0  0  0  0  0  0  0  0  0
  151.9312  145.5448  159.2781 C   0  0  0  0  0  0  0  0  0  0  0  0
  152.0460  143.2687  160.3505 C   0  0  0  0  0  0  0  0  0  0  0  0
  152.4496  142.1409  159.7566 N   0  0  0  0  0  0  0  0  0  0  0  0
  153.2905  141.3782  160.5706 C   0  0  0  0  0  0  0  0  0  0  0  0
  153.5248  141.9439  161.7980 C   0  0  0  0  0  0  0  0  0  0  0  0
  152.6918  143.4633  161.9780 S   0  0  0  0  0  0  0  0  0  0  0  0
  144.6157  144.8377  160.5290 C   0  0  0  0  0  0  0  0  0  0  0  0
  143.0891  144.6781  160.6078 C   0  0  0  0  0  0  0  0  0  0  0  0
  140.5417  144.3883  159.4292 H   0  0  0  0  0  0  0  0  0  0  0  0
  140.3469  146.0729  158.9502 H   0  0  0  0  0  0  0  0  0  0  0  0
  140.4827  145.6541  160.6535 H   0  0  0  0  0  0  0  0  0  0  0  0
  142.6088  146.6067  159.8017 H   0  0  0  0  0  0  0  0  0  0  0  0
  142.6173  144.2461  157.8697 H   0  0  0  0  0  0  0  0  0  0  0  0
  142.4201  145.9255  157.4316 H   0  0  0  0  0  0  0  0  0  0  0  0
  144.7602  145.1531  157.0640 H   0  0  0  0  0  0  0  0  0  0  0  0
  144.6870  146.4639  158.2172 H   0  0  0  0  0  0  0  0  0  0  0  0
  144.9319  143.4936  158.8902 H   0  0  0  0  0  0  0  0  0  0  0  0
  146.9205  145.3146  158.2763 H   0  0  0  0  0  0  0  0  0  0  0  0
  148.8403  145.3124  158.8194 H   0  0  0  0  0  0  0  0  0  0  0  0
  150.0451  145.4740  161.1481 H   0  0  0  0  0  0  0  0  0  0  0  0
  149.6720  143.7682  161.1843 H   0  0  0  0  0  0  0  0  0  0  0  0
  150.8199  143.8259  158.7655 H   0  0  0  0  0  0  0  0  0  0  0  0
  152.7622  145.2951  158.6177 H   0  0  0  0  0  0  0  0  0  0  0  0
  152.3389  146.0652  160.1452 H   0  0  0  0  0  0  0  0  0  0  0  0
  151.2845  146.2428  158.7458 H   0  0  0  0  0  0  0  0  0  0  0  0
  153.6797  140.4436  160.1950 H   0  0  0  0  0  0  0  0  0  0  0  0
  154.1343  141.5614  162.6032 H   0  0  0  0  0  0  0  0  0  0  0  0
  145.0918  144.1716  161.2497 H   0  0  0  0  0  0  0  0  0  0  0  0
  144.8870  145.8534  160.8213 H   0  0  0  0  0  0  0  0  0  0  0  0
  142.7488  144.9273  161.6134 H   0  0  0  0  0  0  0  0  0  0  0  0
  142.8246  143.6325  160.4434 H   0  0  0  0  0  0  0  0  0  0  0  0
  1  2  1  0  0  0  0
  1 20  1  0  0  0  0
  1 21  1  0  0  0  0
  1 22  1  0  0  0  0
  2 19  1  0  0  0  0
  2  3  1  0  0  0  0
  2 23  1  0  0  0  0
  3  4  1  0  0  0  0
  3 24  1  0  0  0  0
  3 25  1  0  0  0  0
  4  5  1  0  0  0  0
  4 26  1  0  0  0  0
  4 27  1  0  0  0  0
  5  6  1  0  0  0  0
  5 18  1  0  0  0  0
  5 28  1  0  0  0  0
  6  7  1  0  0  0  0
  6 29  1  0  0  0  0
  7  8  2  0  0  0  0
  7  9  1  0  0  0  0
  9 10  1  0  0  0  0
  9 30  1  0  0  0  0
 10 11  1  0  0  0  0
 10 31  1  0  0  0  0
 10 32  1  0  0  0  0
 11 12  1  0  0  0  0
 11 13  1  0  0  0  0
 11 33  1  0  0  0  0
 12 34  1  0  0  0  0
 12 35  1  0  0  0  0
 12 36  1  0  0  0  0
 13 17  1  0  0  0  0
 13 14  2  0  0  0  0
 14 15  1  0  0  0  0
 15 16  2  0  0  0  0
 15 37  1  0  0  0  0
 16 17  1  0  0  0  0
 16 38  1  0  0  0  0
 18 19  1  0  0  0  0
 18 39  1  0  0  0  0
 18 40  1  0  0  0  0
 19 41  1  0  0  0  0
 19 42  1  0  0  0  0
M  END
> <s_m_source_file>
AV-unprocessed.smi

> <i_m_source_file_index>
2330

> <i_lp_mmshare_version>
43012

> <i_f3d_flags>
0

> <s_epik_input>
W0NIM11bQ0BASF0xW0NIMl1bQ0gyXVtDQEhdKFtDSDJdW0NIMl0xKVtOSF1DKD1PKVtOSF1bQ0gyXVtDQEhdKFtDSDNdKWMybltjSF1bY0hdczI=

> <s_epik_cmdline>
J2VwaWtfcHl0aG9uJywgJy1waCcsICc3LjAnLCAnLXRuJywgJzgnLCAnLW1hJywgJzIwMCcsICctbWV0YWxfYmluZGluZycsICctaW1hZScsICc8aW5maWxlLm1hZT4nLCAnLW9tYWUnLCAnPG91dGZpbGUubWFlPic=

> <r_lp_tautomer_probability>
1

> <r_epik_Ionization_Penalty>
0.000331107

> <r_epik_Ionization_Penalty_Charging>
0

> <r_epik_Ionization_Penalty_Neutral>
0.000331107

> <r_epik_State_Penalty>
-0

> <r_epik_Charging_Adjusted_Penalty>
0

> <i_epik_Tot_Q>
0

> <i_epik_Tot_abs_Q>
0

> <r_epik_Metal_State_Penalty>
-0

> <b_epik_Metal_Only>
0

> <s_lp_Force_Field>
OPLS_2005

> <r_lp_Energy>
-1.29202

> <b_lp_Chiralities_Consistent>
1

> <s_lp_Variant>
AV-unprocessed.smi:2330-2

> <Gold.Version>
5.8.1

> <Gold.Id.Protein>
6NUR|6NUR_protein|mol2

> <Gold.PLP.Fitness>
42.3554

> <Gold.PLP.PLP>
-35.7307

> <Gold.PLP.part.hbond>
-3.0000

> <Gold.PLP.part.metal>
0.0000

> <Gold.PLP.part.buried>
-4.6993

> <Gold.PLP.part.nonpolar>
-29.2697

> <Gold.PLP.part.repulsive>
0.2726

> <Gold.PLP.ligand.clash>
0.0000

> <Gold.PLP.ligand.torsion>
0.9445

> <Gold.PLP.Chemscore.Hbond>
2.8000

> <Gold.PLP.Chemscore.CHOScore>
0.0000

> <Gold.PLP.Chemscore.Metal>
0.0000

> <Gold.Chemscore.Hbonds>
donor molecule, donor type, donor heavy atom, donor atom, acceptor molecule, acceptor atom, score
      L1  H     6    29       P1  8029  0.93
      L1  H     9    30       P1  8029  0.85
      P1  H  6933  6944       L1     8  1.00

> <Gold.PLP.Chemscore.Internal.Correction>
0.1137

> <Gold.Rescore>
     Score         DG    S(hbond)    S(metal)    S(lipo)     H(rot)  DE(clash)    DE(int)     intcor
     22.19     -24.17       3.24        0.00      99.02       1.45       0.08       1.90       ----

> <Gold.Chemscore.Fitness>
22.1927

> <Gold.Chemscore.DG>
-24.1650

> <Gold.Chemscore.ZeroCoef>
-5.4800

> <Gold.Chemscore.Hbond>
3.2399

> <Gold.Chemscore.Metal>
0.0000

> <Gold.Chemscore.Lipo>
99.0158

> <Gold.Chemscore.Internal_Hbond>
0.0000

> <Gold.Chemscore.DEClash>
0.0771

> <Gold.Chemscore.DEInternal>
1.8952

> <Gold.Chemscore.Rot>
1.4536

> <Gold.Chemscore.Internal.Correction>
   9.000000E+99

> <Gold.Chemscore.Hbonds>
donor molecule, donor type, donor heavy atom, donor atom, acceptor molecule, acceptor atom, score
      L1  H     6    29       P1  8029  0.88
      L1  H     9    30       P1  8029  0.83
      P1  H  6933  6944       L1     8  0.87

> <Gold.Chemscore.Hbond.Weighted>
-10.8214

> <Gold.Chemscore.Metal.Weighted>
-0.0000

> <Gold.Chemscore.Lipo.Weighted>
-11.5848

> <Gold.Chemscore.Internal_Hbond.Weighted>
0.0000

> <Gold.Chemscore.DEClash.Weighted>
0.0771

> <Gold.Chemscore.DEInternal.Weighted>
1.8952

> <Gold.Chemscore.Rot.Weighted>
3.7212

> <Gold.Chemscore.Internal.Correction.Weighted>
   9.000000E+99

> <Gold.Protein.RotatedTorsions>
[ 6907 6896 6895 6894 ] final   61.33 input  -60.11 | X-H torsion
[ 7974 7965 7964 7962 ] final -129.91 input  175.53 | X-H torsion
[ 8008 7997 7996 7995 ] final -158.67 input   59.86 | X-H torsion
[ 10167 10162 10161 10158 ] final -137.15 input  -65.29 | X-H torsion
[ 10718 10713 10712 10709 ] final   34.36 input   66.30 | X-H torsion
[ 10763 10752 10751 10750 ] final   31.66 input  -60.55 | X-H torsion
[ 11005 11000 10999 10996 ] final  109.78 input  -57.11 | X-H torsion

> <Gold.Protein.ActiveResidues>
 VAL166  LYS551  ARG553  GLY616  TRP617  ASP618  TYR619  PRO620  LYS621  CYS622 
 ASP623  PHE694  ASN695  SER759  ASP760  ASP761  ALA762  ILE779  LEU786  VAL792 
 PHE793  MET794  SER795  GLU796  ALA797  LYS798  CYS799  TRP800  GLU811  SER814 

> <Gold.Protein.RotatedAtoms>
  152.4079  134.6175  160.0041 H   0  0  0  0  0  0  0  0  0  0  0  0  # atno 6907 bound_to 6896
  151.6360  133.3323  159.3127 H   0  0  0  0  0  0  0  0  0  0  0  0  # atno 6908 bound_to 6896
  150.7972  134.7082  159.6633 H   0  0  0  0  0  0  0  0  0  0  0  0  # atno 6909 bound_to 6896
  144.9526  140.7361  143.4778 H   0  0  0  0  0  0  0  0  0  0  0  0  # atno 7974 bound_to 7965
  155.7510  140.0826  157.2201 H   0  0  0  0  0  0  0  0  0  0  0  0  # atno 8008 bound_to 7997
  154.4012  140.1560  156.2780 H   0  0  0  0  0  0  0  0  0  0  0  0  # atno 8009 bound_to 7997
  155.8930  140.3414  155.5973 H   0  0  0  0  0  0  0  0  0  0  0  0  # atno 8010 bound_to 7997
  139.8607  143.7081  152.2650 H   0  0  0  0  0  0  0  0  0  0  0  0  # atno 10167 bound_to 10162
  157.3094  130.7391  149.6715 H   0  0  0  0  0  0  0  0  0  0  0  0  # atno 10718 bound_to 10713
  153.0303  135.6433  154.1234 H   0  0  0  0  0  0  0  0  0  0  0  0  # atno 10763 bound_to 10752
  154.0957  135.2863  155.3264 H   0  0  0  0  0  0  0  0  0  0  0  0  # atno 10764 bound_to 10752
  154.6434  135.5452  153.7879 H   0  0  0  0  0  0  0  0  0  0  0  0  # atno 10765 bound_to 10752
  139.8868  134.9467  156.6177 H   0  0  0  0  0  0  0  0  0  0  0  0  # atno 11005 bound_to 11000
  145.2821  139.1914  143.4785 LP  0  0  0  0  0  0  0  0  0  0  0  0  # atno 17320 bound_to 7965
  146.3326  140.2784  142.8609 LP  0  0  0  0  0  0  0  0  0  0  0  0  # atno 17321 bound_to 7965
  139.7377  144.7567  151.0702 LP  0  0  0  0  0  0  0  0  0  0  0  0  # atno 17342 bound_to 10162
  140.7775  143.5010  150.9771 LP  0  0  0  0  0  0  0  0  0  0  0  0  # atno 17343 bound_to 10162
  155.9676  130.4256  150.4661 LP  0  0  0  0  0  0  0  0  0  0  0  0  # atno 17370 bound_to 10713
  157.2656  131.0576  151.2292 LP  0  0  0  0  0  0  0  0  0  0  0  0  # atno 17371 bound_to 10713
  140.7763  133.8697  155.8531 LP  0  0  0  0  0  0  0  0  0  0  0  0  # atno 17394 bound_to 11000
  140.9799  134.1419  157.4503 LP  0  0  0  0  0  0  0  0  0  0  0  0  # atno 17395 bound_to 11000

$$$$
