AV-unprocessed.smi:2721|AV-procd|sdf|10503|dock9
  -GOLD-   2272014543D 1   1.00000     0.00000
 Structure written by MMmdl.
 29 30  0  0  0  0  0  0  0  0  2 V2000
  149.1795  140.5678  154.4449 C   0  0  0  0  0  0  0  0  0  0  0  0
  150.2116  140.7059  155.4500 N   0  0  0  0  0  0  0  0  0  0  0  0
  150.4133  141.7383  156.3403 C   0  0  0  0  0  0  0  0  0  0  0  0
  151.5096  141.4225  157.0938 C   0  0  0  0  0  0  0  0  0  0  0  0
  152.1646  142.2208  158.1906 C   0  0  2  0  0  0  0  0  0  0  0  0
  152.1192  141.4905  159.4152 O   0  0  0  0  0  0  0  0  0  0  0  0
  152.8012  142.1217  160.4936 C   0  0  0  0  0  0  0  0  0  0  0  0
  152.1312  143.4653  160.8128 C   0  0  0  0  0  0  0  0  0  0  0  0
  152.1028  144.3507  159.5637 C   0  0  0  0  0  0  0  0  0  0  0  0
  151.4649  143.5877  158.3927 C   0  0  1  0  0  0  0  0  0  0  0  0
  151.5093  144.4065  157.1661 N   0  3  0  0  0  0  0  0  0  0  0  0
  151.9111  140.1578  156.5761 C   0  0  0  0  0  0  0  0  0  0  0  0
  151.1344  139.7330  155.5939 N   0  0  0  0  0  0  0  0  0  0  0  0
  153.2137  142.3899  157.9400 H   0  0  0  0  0  0  0  0  0  0  0  0
  150.4133  143.4128  158.6257 H   0  0  0  0  0  0  0  0  0  0  0  0
  148.6501  141.5128  154.3205 H   0  0  0  0  0  0  0  0  0  0  0  0
  148.4688  139.7998  154.7514 H   0  0  0  0  0  0  0  0  0  0  0  0
  149.6246  140.2842  153.4906 H   0  0  0  0  0  0  0  0  0  0  0  0
  149.7684  142.6047  156.3642 H   0  0  0  0  0  0  0  0  0  0  0  0
  152.7627  141.4677  161.3648 H   0  0  0  0  0  0  0  0  0  0  0  0
  153.8546  142.2583  160.2445 H   0  0  0  0  0  0  0  0  0  0  0  0
  151.1135  143.2912  161.1648 H   0  0  0  0  0  0  0  0  0  0  0  0
  152.6607  143.9692  161.6219 H   0  0  0  0  0  0  0  0  0  0  0  0
  151.5519  145.2693  159.7695 H   0  0  0  0  0  0  0  0  0  0  0  0
  153.1213  144.6461  159.3065 H   0  0  0  0  0  0  0  0  0  0  0  0
  150.5720  144.5440  156.8155 H   0  0  0  0  0  0  0  0  0  0  0  0
  152.0648  143.9362  156.4659 H   0  0  0  0  0  0  0  0  0  0  0  0
  152.7438  139.5415  156.8812 H   0  0  0  0  0  0  0  0  0  0  0  0
  151.9243  145.3033  157.3764 H   0  0  0  0  0  0  0  0  0  0  0  0
  1  2  1  0  0  0  0
  1 16  1  0  0  0  0
  1 17  1  0  0  0  0
  1 18  1  0  0  0  0
  2 13  1  0  0  0  0
  2  3  1  0  0  0  0
  3  4  2  0  0  0  0
  3 19  1  0  0  0  0
  4  5  1  0  0  0  0
  4 12  1  0  0  0  0
  5 14  1  0  0  0  0
  5 10  1  0  0  0  0
  5  6  1  0  0  0  0
  6  7  1  0  0  0  0
  7  8  1  0  0  0  0
  7 20  1  0  0  0  0
  7 21  1  0  0  0  0
  8  9  1  0  0  0  0
  8 22  1  0  0  0  0
  8 23  1  0  0  0  0
  9 10  1  0  0  0  0
  9 24  1  0  0  0  0
  9 25  1  0  0  0  0
 10 15  1  0  0  0  0
 10 11  1  0  0  0  0
 11 26  1  0  0  0  0
 11 27  1  0  0  0  0
 11 29  1  0  0  0  0
 12 13  2  0  0  0  0
 12 28  1  0  0  0  0
M  CHG  1  11   1
M  END
> <s_m_source_file>
AV-unprocessed.smi

> <i_m_source_file_index>
2721

> <i_lp_mmshare_version>
43012

> <i_f3d_flags>
0

> <s_epik_input>
W0NIM11uMVtjSF1jKFtjSF1uMSlbQ0BIXTJPW0NIMl1bQ0gyXVtDSDJdW0NAQEhdMltOSDJd

> <s_epik_cmdline>
J2VwaWtfcHl0aG9uJywgJy1waCcsICc3LjAnLCAnLXRuJywgJzgnLCAnLW1hJywgJzIwMCcsICctbWV0YWxfYmluZGluZycsICctaW1hZScsICc8aW5maWxlLm1hZT4nLCAnLW9tYWUnLCAnPG91dGZpbGUubWFlPic=

> <r_lp_tautomer_probability>
1

> <r_epik_Ionization_Penalty>
0.0061467

> <r_epik_Ionization_Penalty_Charging>
0.00611941

> <r_epik_Ionization_Penalty_Neutral>
2.72888e-05

> <r_epik_State_Penalty>
0.00451057

> <r_epik_Charging_Adjusted_Penalty>
0.01063

> <i_epik_Tot_Q>
1

> <i_epik_Tot_abs_Q>
1

> <r_epik_Metal_State_Penalty>
-0

> <b_epik_Metal_Only>
0

> <s_lp_Force_Field>
OPLS_2005

> <r_lp_Energy>
11.0235

> <b_lp_Chiralities_Consistent>
1

> <s_lp_Variant>
AV-unprocessed.smi:2721-4

> <Gold.Version>
5.8.1

> <Gold.Id.Protein>
6NUR|6NUR_protein|mol2

> <Gold.PLP.Fitness>
38.8570

> <Gold.PLP.PLP>
-29.8783

> <Gold.PLP.part.hbond>
-1.0000

> <Gold.PLP.part.metal>
0.0000

> <Gold.PLP.part.buried>
-3.8804

> <Gold.PLP.part.nonpolar>
-24.4732

> <Gold.PLP.part.repulsive>
0.0584

> <Gold.PLP.ligand.clash>
0.0000

> <Gold.PLP.ligand.torsion>
0.0125

> <Gold.PLP.Chemscore.Hbond>
2.0000

> <Gold.PLP.Chemscore.CHOScore>
1.0000

> <Gold.PLP.Chemscore.Metal>
0.0000

> <Gold.Chemscore.Hbonds>
donor molecule, donor type, donor heavy atom, donor atom, acceptor molecule, acceptor atom, score
      L1  H    11    26       P1  8028  2.00
      L1  C     3    19       P1  8028  1.00

> <Gold.PLP.Chemscore.Internal.Correction>
0.0037

> <Gold.Rescore>
     Score         DG    S(hbond)    S(metal)    S(lipo)     H(rot)  DE(clash)    DE(int)     intcor
     14.89     -15.98       0.98        0.00      83.51       1.00       0.07       1.02       ----

> <Gold.Chemscore.Fitness>
14.8873

> <Gold.Chemscore.DG>
-15.9766

> <Gold.Chemscore.ZeroCoef>
-5.4800

> <Gold.Chemscore.Hbond>
0.9838

> <Gold.Chemscore.Metal>
0.0000

> <Gold.Chemscore.Lipo>
83.5110

> <Gold.Chemscore.Internal_Hbond>
0.0000

> <Gold.Chemscore.DEClash>
0.0731

> <Gold.Chemscore.DEInternal>
1.0162

> <Gold.Chemscore.Rot>
1.0000

> <Gold.Chemscore.Internal.Correction>
   9.000000E+99

> <Gold.Chemscore.Hbonds>
donor molecule, donor type, donor heavy atom, donor atom, acceptor molecule, acceptor atom, score
      L1  H    11    26       P1  8028  0.87

> <Gold.Chemscore.Hbond.Weighted>
-3.2858

> <Gold.Chemscore.Metal.Weighted>
-0.0000

> <Gold.Chemscore.Lipo.Weighted>
-9.7708

> <Gold.Chemscore.Internal_Hbond.Weighted>
0.0000

> <Gold.Chemscore.DEClash.Weighted>
0.0731

> <Gold.Chemscore.DEInternal.Weighted>
1.0162

> <Gold.Chemscore.Rot.Weighted>
2.5600

> <Gold.Chemscore.Internal.Correction.Weighted>
   9.000000E+99

> <Gold.Protein.RotatedTorsions>
[ 6907 6896 6895 6894 ] final   54.86 input  -60.11 | X-H torsion
[ 7974 7965 7964 7962 ] final  -53.34 input  175.53 | X-H torsion
[ 8008 7997 7996 7995 ] final   20.81 input   59.86 | X-H torsion
[ 10167 10162 10161 10158 ] final   33.17 input  -65.29 | X-H torsion
[ 10718 10713 10712 10709 ] final  -97.11 input   66.30 | X-H torsion
[ 10763 10752 10751 10750 ] final -144.12 input  -60.55 | X-H torsion
[ 11005 11000 10999 10996 ] final  159.11 input  -57.11 | X-H torsion

> <Gold.Protein.ActiveResidues>
 VAL166  LYS551  ARG553  GLY616  TRP617  ASP618  TYR619  PRO620  LYS621  CYS622 
 ASP623  PHE694  ASN695  SER759  ASP760  ASP761  ALA762  ILE779  LEU786  VAL792 
 PHE793  MET794  SER795  GLU796  ALA797  LYS798  CYS799  TRP800  GLU811  SER814 

> <Gold.Protein.RotatedAtoms>
  152.3481  134.7043  160.0244 H   0  0  0  0  0  0  0  0  0  0  0  0  # atno 6907 bound_to 6896
  151.7405  133.3316  159.3372 H   0  0  0  0  0  0  0  0  0  0  0  0  # atno 6908 bound_to 6896
  150.7522  134.6215  159.6183 H   0  0  0  0  0  0  0  0  0  0  0  0  # atno 6909 bound_to 6896
  145.8979  140.8018  142.9758 H   0  0  0  0  0  0  0  0  0  0  0  0  # atno 7974 bound_to 7965
  154.9412  140.3053  155.5120 H   0  0  0  0  0  0  0  0  0  0  0  0  # atno 8008 bound_to 7997
  156.2996  140.2336  156.4419 H   0  0  0  0  0  0  0  0  0  0  0  0  # atno 8009 bound_to 7997
  154.8144  140.0427  157.1354 H   0  0  0  0  0  0  0  0  0  0  0  0  # atno 8010 bound_to 7997
  140.4431  144.1158  150.6177 H   0  0  0  0  0  0  0  0  0  0  0  0  # atno 10167 bound_to 10162
  156.0076  130.5180  150.6326 H   0  0  0  0  0  0  0  0  0  0  0  0  # atno 10718 bound_to 10713
  154.8441  135.3449  154.6295 H   0  0  0  0  0  0  0  0  0  0  0  0  # atno 10763 bound_to 10752
  153.6905  135.6975  153.5096 H   0  0  0  0  0  0  0  0  0  0  0  0  # atno 10764 bound_to 10752
  153.2599  135.4326  155.0838 H   0  0  0  0  0  0  0  0  0  0  0  0  # atno 10765 bound_to 10752
  140.1930  134.8393  157.2933 H   0  0  0  0  0  0  0  0  0  0  0  0  # atno 11005 bound_to 11000
  144.6734  140.1631  143.7421 LP  0  0  0  0  0  0  0  0  0  0  0  0  # atno 17320 bound_to 7965
  145.8828  139.2332  143.1595 LP  0  0  0  0  0  0  0  0  0  0  0  0  # atno 17321 bound_to 7965
  140.4295  143.2575  151.9614 LP  0  0  0  0  0  0  0  0  0  0  0  0  # atno 17342 bound_to 10162
  139.4791  144.5757  151.8015 LP  0  0  0  0  0  0  0  0  0  0  0  0  # atno 17343 bound_to 10162
  157.4121  131.0825  151.1211 LP  0  0  0  0  0  0  0  0  0  0  0  0  # atno 17370 bound_to 10713
  157.1839  130.6322  149.5681 LP  0  0  0  0  0  0  0  0  0  0  0  0  # atno 17371 bound_to 10713
  140.2138  134.4106  155.7599 LP  0  0  0  0  0  0  0  0  0  0  0  0  # atno 17394 bound_to 11000
  141.2226  133.7131  156.8381 LP  0  0  0  0  0  0  0  0  0  0  0  0  # atno 17395 bound_to 11000

$$$$
