#       Name:                AV-unprocessed.smi:2276
#       Creating user name   scv26
#       Creation time:       Fri Mar 27 12:39:14 2020


#       File generated by GOLD software.
#

@<TRIPOS>MOLECULE
AV-unprocessed.smi:2276
    57    58     1
SMALL
NO_CHARGES


@<TRIPOS>ATOM
      1 ****        -3.9083   5.5026  -1.0764 C.3            1 S1                 0.0000
      2 ****        -3.1554   4.3231  -1.6550 C.ar           1 S1                 0.0000
      3 ****        -2.3894   4.4593  -2.8288 C.ar           1 S1                 0.0000
      4 ****        -1.7133   3.3238  -3.3166 C.ar           1 S1                 0.0000
      5 ****        -0.8627   3.4004  -4.5669 C.3            1 S1                 0.0000
      6 ****        -1.7670   2.1183  -2.7113 N.ar           1 S1                 0.0000
      7 ****        -2.5010   1.9753  -1.5802 C.ar           1 S1                 0.0000
      8 ****        -2.6103   0.7547  -0.8627 N.am           1 S1                 0.0000
      9 ****        -2.0793  -0.4408  -1.1740 C.2            1 S1                 0.0000
     10 ****        -1.4560  -0.6973  -2.2047 O.2            1 S1                 0.0000
     11 ****        -2.3159  -1.3424  -0.2099 N.am           1 S1                 0.0000
     12 ****        -1.8546  -2.7281  -0.2206 C.3            1 S1                 0.0000
     13 ****        -0.3377  -2.8626   0.0420 C.3            1 S1                 0.0000
     14 ****         0.0833  -4.3384  -0.0462 C.3            1 S1                 0.0000
     15 ****         0.0705  -2.2460   1.4019 C.3            1 S1                 0.0000
     16 ****         1.5095  -2.1654   1.6570 N.3            1 S1                 0.0000
     17 ****         1.7706  -1.7988   3.0501 C.3            1 S1                 0.0000
     18 ****         3.2799  -1.7260   3.3473 C.3            1 S1                 0.0000
     19 ****         3.9443  -0.7535   2.4831 N.3            1 S1                 0.0000
     20 ****         5.3696  -0.6735   2.7629 C.3            1 S1                 0.0000
     21 ****         3.6901  -1.1096   1.0891 C.3            1 S1                 0.0000
     22 ****         2.1807  -1.1880   0.7927 C.3            1 S1                 0.0000
     23 ****        -3.2096   3.0639  -1.0240 C.ar           1 S1                 0.0000
     24 ****        -3.6740   6.4232  -1.6115 H              1 S1                 0.0000
     25 ****        -3.6465   5.6429  -0.0273 H              1 S1                 0.0000
     26 ****        -4.9829   5.3319  -1.1432 H              1 S1                 0.0000
     27 ****        -2.3199   5.4082  -3.3405 H              1 S1                 0.0000
     28 ****        -1.0623   4.3160  -5.1241 H              1 S1                 0.0000
     29 ****        -1.0662   2.5531  -5.2226 H              1 S1                 0.0000
     30 ****         0.1949   3.3836  -4.3029 H              1 S1                 0.0000
     31 ****        -3.1293   0.8047   0.0012 H              1 S1                 0.0000
     32 ****        -2.8422  -1.0465   0.5990 H              1 S1                 0.0000
     33 ****        -2.4132  -3.2730   0.5410 H              1 S1                 0.0000
     34 ****        -2.1163  -3.1840  -1.1770 H              1 S1                 0.0000
     35 ****         0.1716  -2.3335  -0.7619 H              1 S1                 0.0000
     36 ****        -0.3992  -4.9355   0.7282 H              1 S1                 0.0000
     37 ****         1.1615  -4.4513   0.0694 H              1 S1                 0.0000
     38 ****        -0.1855  -4.7659  -1.0125 H              1 S1                 0.0000
     39 ****        -0.3550  -1.2466   1.4997 H              1 S1                 0.0000
     40 ****        -0.3976  -2.8403   2.1879 H              1 S1                 0.0000
     41 ****         1.3063  -0.8375   3.2772 H              1 S1                 0.0000
     42 ****         1.3117  -2.5305   3.7156 H              1 S1                 0.0000
     43 ****         3.4293  -1.4525   4.3924 H              1 S1                 0.0000
     44 ****         3.7273  -2.7125   3.2155 H              1 S1                 0.0000
     45 ****         5.8465   0.0725   2.1265 H              1 S1                 0.0000
     46 ****         5.8604  -1.6320   2.5892 H              1 S1                 0.0000
     47 ****         5.5433  -0.3849   3.7999 H              1 S1                 0.0000
     48 ****         4.1486  -0.3709   0.4311 H              1 S1                 0.0000
     49 ****         4.1578  -2.0675   0.8563 H              1 S1                 0.0000
     50 ****         2.0539  -1.4556  -0.2552 H              1 S1                 0.0000
     51 ****         1.7298  -0.2024   0.9197 H              1 S1                 0.0000
     52 ****        -3.7891   2.9378  -0.1207 H              1 S1                 0.0000
     53 ****        -1.2706   1.3387  -3.0932 LP             1 S1                 0.0000
     54 ****        -1.3112   0.0147  -2.8917 LP             1 S1                 0.0000
     55 ****        -1.0947  -1.6177  -2.3546 LP             1 S1                 0.0000
     56 ****         1.8760  -3.0744   1.4584 LP             1 S1                 0.0000
     57 ****         3.5706   0.1561   2.6643 LP             1 S1                 0.0000
@<TRIPOS>BOND
    1    1    2 1     
    2    1   24 1     
    3    1   25 1     
    4    1   26 1     
    5    2   23 ar    
    6    2    3 ar    
    7    3    4 ar    
    8    3   27 1     
    9    4    5 1     
   10    4    6 ar    
   11    5   28 1     
   12    5   29 1     
   13    5   30 1     
   14    6    7 ar    
   15    7    8 1     
   16    7   23 ar    
   17    8    9 am    
   18    8   31 1     
   19    9   10 2     
   20    9   11 am    
   21   11   12 1     
   22   11   32 1     
   23   12   13 1     
   24   12   33 1     
   25   12   34 1     
   26   13   14 1     
   27   13   15 1     
   28   13   35 1     
   29   14   36 1     
   30   14   37 1     
   31   14   38 1     
   32   15   16 1     
   33   15   39 1     
   34   15   40 1     
   35   16   22 1     
   36   16   17 1     
   37   17   18 1     
   38   17   41 1     
   39   17   42 1     
   40   18   19 1     
   41   18   43 1     
   42   18   44 1     
   43   19   20 1     
   44   19   21 1     
   45   20   45 1     
   46   20   46 1     
   47   20   47 1     
   48   21   22 1     
   49   21   48 1     
   50   21   49 1     
   51   22   50 1     
   52   22   51 1     
   53   23   52 1     
   54    6   53 1     
   55   10   54 1     
   56   10   55 1     
   57   16   56 1     
   58   19   57 1     
@<TRIPOS>SUBSTRUCTURE
      1 S1             1
@<TRIPOS>SET
LONE_PAIRS      STATIC     ATOMS    <user>   **** ""
5 53 54 55 56 57
DONOR_HYDROGENS      STATIC     ATOMS    <user>   **** ""
2 31 32
ATOM$BLUE        STATIC     ATOMS    COLORGROUP SYSTEM
5 53 54 55 56 57
ATOM$RED        STATIC     ATOMS    COLORGROUP SYSTEM
2 31 32
