AV-unprocessed.smi:1929|AV-procd|sdf|7808|dock1
  -GOLD-   22720 9553D 1   1.00000     0.00000
 Structure written by MMmdl.
 43 44  0  0  0  0  0  0  0  0  4 V2000
  144.0669  145.0593  154.0455 C   0  0  0  0  0  0  0  0  0  0  0  0
  144.1415  144.8537  155.4869 N   0  5  0  0  0  0  0  0  0  0  0  0
  144.4215  143.6526  156.0606 C   0  0  0  0  0  0  0  0  0  0  0  0
  144.9602  143.3791  157.1383 O   0  0  0  0  0  0  0  0  0  0  0  0
  143.9907  142.4951  155.1522 C   0  0  0  0  0  0  0  0  0  0  0  0
  145.1786  141.7867  154.6121 N   0  3  2  0  0  0  0  0  0  0  0  0
  145.9524  141.0572  155.6537 C   0  0  0  0  0  0  0  0  0  0  0  0
  147.1024  140.2481  155.0290 C   0  0  0  0  0  0  0  0  0  0  0  0
  148.0401  141.1364  154.1884 C   0  0  2  0  0  0  0  0  0  0  0  0
  148.8199  142.0476  155.0266 N   0  0  0  0  0  0  0  0  0  0  0  0
  149.6874  141.6724  155.9782 C   0  0  0  0  0  0  0  0  0  0  0  0
  149.9375  140.4965  156.2407 O   0  0  0  0  0  0  0  0  0  0  0  0
  150.2140  142.7379  156.6067 N   0  0  0  0  0  0  0  0  0  0  0  0
  151.1234  142.7586  157.6992 C   0  0  0  0  0  0  0  0  0  0  0  0
  151.3344  141.5484  158.3967 C   0  0  0  0  0  0  0  0  0  0  0  0
  152.2198  141.5224  159.4936 C   0  0  0  0  0  0  0  0  0  0  0  0
  152.8498  142.6537  159.8760 N   0  3  0  0  0  0  0  0  0  0  0  0
  152.6689  143.8368  159.2507 C   0  0  0  0  0  0  0  0  0  0  0  0
  151.7964  143.9242  158.1468 C   0  0  0  0  0  0  0  0  0  0  0  0
  147.2112  141.9239  153.1592 C   0  0  0  0  0  0  0  0  0  0  0  0
  146.0480  142.6903  153.8156 C   0  0  0  0  0  0  0  0  0  0  0  0
  143.7214  146.0626  153.7972 H   0  0  0  0  0  0  0  0  0  0  0  0
  143.3783  144.3672  153.5594 H   0  0  0  0  0  0  0  0  0  0  0  0
  145.0346  144.9364  153.5591 H   0  0  0  0  0  0  0  0  0  0  0  0
  143.4026  141.8138  155.7686 H   0  0  0  0  0  0  0  0  0  0  0  0
  143.3356  142.8162  154.3391 H   0  0  0  0  0  0  0  0  0  0  0  0
  146.3417  141.7675  156.3847 H   0  0  0  0  0  0  0  0  0  0  0  0
  145.3033  140.3728  156.1999 H   0  0  0  0  0  0  0  0  0  0  0  0
  147.6593  139.7277  155.8088 H   0  0  0  0  0  0  0  0  0  0  0  0
  146.6823  139.4685  154.3922 H   0  0  0  0  0  0  0  0  0  0  0  0
  148.7385  140.4981  153.6441 H   0  0  0  0  0  0  0  0  0  0  0  0
  148.6772  143.0358  154.8772 H   0  0  0  0  0  0  0  0  0  0  0  0
  149.8573  143.6391  156.3239 H   0  0  0  0  0  0  0  0  0  0  0  0
  150.8298  140.6428  158.0920 H   0  0  0  0  0  0  0  0  0  0  0  0
  152.4405  140.6375  160.0726 H   0  0  0  0  0  0  0  0  0  0  0  0
  153.2202  144.6746  159.6522 H   0  0  0  0  0  0  0  0  0  0  0  0
  151.6537  144.8842  157.6747 H   0  0  0  0  0  0  0  0  0  0  0  0
  147.8498  142.6137  152.6058 H   0  0  0  0  0  0  0  0  0  0  0  0
  146.8061  141.2298  152.4213 H   0  0  0  0  0  0  0  0  0  0  0  0
  145.4570  143.1734  153.0364 H   0  0  0  0  0  0  0  0  0  0  0  0
  146.4310  143.4848  154.4577 H   0  0  0  0  0  0  0  0  0  0  0  0
  144.8199  141.0926  153.9719 H   0  0  0  0  0  0  0  0  0  0  0  0
  153.4855  142.6142  160.6734 H   0  0  0  0  0  0  0  0  0  0  0  0
  1  2  1  0  0  0  0
  1 22  1  0  0  0  0
  1 23  1  0  0  0  0
  1 24  1  0  0  0  0
  2  3  1  0  0  0  0
  3  4  2  0  0  0  0
  3  5  1  0  0  0  0
  5  6  1  0  0  0  0
  5 25  1  0  0  0  0
  5 26  1  0  0  0  0
  6 21  1  0  0  0  0
  6  7  1  0  0  0  0
  6 42  1  0  0  0  0
  7  8  1  0  0  0  0
  7 27  1  0  0  0  0
  7 28  1  0  0  0  0
  8  9  1  0  0  0  0
  8 29  1  0  0  0  0
  8 30  1  0  0  0  0
  9 10  1  0  0  0  0
  9 20  1  0  0  0  0
  9 31  1  0  0  0  0
 10 11  1  0  0  0  0
 10 32  1  0  0  0  0
 11 12  2  0  0  0  0
 11 13  1  0  0  0  0
 13 14  1  0  0  0  0
 13 33  1  0  0  0  0
 14 19  1  0  0  0  0
 14 15  2  0  0  0  0
 15 16  1  0  0  0  0
 15 34  1  0  0  0  0
 16 17  2  0  0  0  0
 16 35  1  0  0  0  0
 17 18  1  0  0  0  0
 17 43  1  0  0  0  0
 18 19  2  0  0  0  0
 18 36  1  0  0  0  0
 19 37  1  0  0  0  0
 20 21  1  0  0  0  0
 20 38  1  0  0  0  0
 20 39  1  0  0  0  0
 21 40  1  0  0  0  0
 21 41  1  0  0  0  0
M  CHG  1   2  -1
M  CHG  1   6   1
M  CHG  1  17   1
M  END
> <s_m_source_file>
AV-unprocessed.smi

> <i_m_source_file_index>
1929

> <i_lp_mmshare_version>
43012

> <i_f3d_flags>
0

> <s_epik_input>
W0NIM11bTkhdQyg9TylbQ0gyXU4xW0NIMl1bQ0gyXVtDSF0oW0NIMl1bQ0gyXTEpW05IXUMoPU8pW05IXWMyW2NIXVtjSF1uW2NIXVtjSF0y

> <s_epik_cmdline>
J2VwaWtfcHl0aG9uJywgJy1waCcsICc3LjAnLCAnLXRuJywgJzgnLCAnLW1hJywgJzIwMCcsICctbWV0YWxfYmluZGluZycsICctaW1hZScsICc8aW5maWxlLm1hZT4nLCAnLW9tYWUnLCAnPG91dGZpbGUubWFlPic=

> <r_epik_Ionization_Penalty>
7.25133

> <r_epik_Ionization_Penalty_Charging>
7.25131

> <r_epik_Ionization_Penalty_Neutral>
1.84563e-05

> <r_epik_State_Penalty>
8.093

> <r_epik_Charging_Adjusted_Penalty>
15.3443

> <i_epik_Tot_Q>
1

> <i_epik_Tot_abs_Q>
3

> <r_epik_Metal_State_Penalty>
4.12368

> <b_epik_Metal_Only>
1

> <s_lp_Force_Field>
OPLS_2005

> <r_lp_Energy>
20.7097

> <b_lp_Chiralities_Consistent>
1

> <s_lp_Variant>
AV-unprocessed.smi:1929-10

> <Gold.Version>
5.8.1

> <Gold.Id.Protein>
6NUR|6NUR_protein|mol2

> <Gold.PLP.Fitness>
46.2747

> <Gold.PLP.PLP>
-35.0752

> <Gold.PLP.part.hbond>
-3.0000

> <Gold.PLP.part.metal>
0.0000

> <Gold.PLP.part.buried>
-7.5206

> <Gold.PLP.part.nonpolar>
-25.9353

> <Gold.PLP.part.repulsive>
0.5376

> <Gold.PLP.ligand.clash>
0.0000

> <Gold.PLP.ligand.torsion>
0.2917

> <Gold.PLP.Chemscore.Hbond>
3.9120

> <Gold.PLP.Chemscore.CHOScore>
0.0000

> <Gold.PLP.Chemscore.Metal>
0.0000

> <Gold.Chemscore.Hbonds>
donor molecule, donor type, donor heavy atom, donor atom, acceptor molecule, acceptor atom, score
      L1  H     6    42       P1 10175  2.00
      L1  H    10    32       P1  8028  0.90
      L1  H    13    33       P1  8028  1.00

> <Gold.PLP.Chemscore.Internal.Correction>
0.0469

> <Gold.Rescore>
     Score         DG    S(hbond)    S(metal)    S(lipo)     H(rot)  DE(clash)    DE(int)     intcor
     16.71     -21.17       2.70        0.00      93.27       1.66       1.47       2.98       ----

> <Gold.Chemscore.Fitness>
16.7107

> <Gold.Chemscore.DG>
-21.1661

> <Gold.Chemscore.ZeroCoef>
-5.4800

> <Gold.Chemscore.Hbond>
2.6994

> <Gold.Chemscore.Metal>
0.0000

> <Gold.Chemscore.Lipo>
93.2737

> <Gold.Chemscore.Internal_Hbond>
0.0000

> <Gold.Chemscore.DEClash>
1.4731

> <Gold.Chemscore.DEInternal>
2.9823

> <Gold.Chemscore.Rot>
1.6574

> <Gold.Chemscore.Internal.Correction>
   9.000000E+99

> <Gold.Chemscore.Hbonds>
donor molecule, donor type, donor heavy atom, donor atom, acceptor molecule, acceptor atom, score
      L1  H     6    42       P1 10175  0.75
      L1  H    10    32       P1  8028  0.88
      L1  H    13    33       P1  8028  0.98

> <Gold.Chemscore.Hbond.Weighted>
-9.0161

> <Gold.Chemscore.Metal.Weighted>
-0.0000

> <Gold.Chemscore.Lipo.Weighted>
-10.9130

> <Gold.Chemscore.Internal_Hbond.Weighted>
0.0000

> <Gold.Chemscore.DEClash.Weighted>
1.4731

> <Gold.Chemscore.DEInternal.Weighted>
2.9823

> <Gold.Chemscore.Rot.Weighted>
4.2430

> <Gold.Chemscore.Internal.Correction.Weighted>
   9.000000E+99

> <Gold.Protein.RotatedTorsions>
[ 6907 6896 6895 6894 ] final   47.36 input  -60.11 | X-H torsion
[ 7974 7965 7964 7962 ] final   60.58 input  175.53 | X-H torsion
[ 8008 7997 7996 7995 ] final -172.54 input   59.86 | X-H torsion
[ 10167 10162 10161 10158 ] final  -59.15 input  -65.29 | X-H torsion
[ 10718 10713 10712 10709 ] final  -70.51 input   66.30 | X-H torsion
[ 10763 10752 10751 10750 ] final  131.37 input  -60.55 | X-H torsion
[ 11005 11000 10999 10996 ] final   45.12 input  -57.11 | X-H torsion

> <Gold.Protein.ActiveResidues>
 VAL166  LYS551  ARG553  GLY616  TRP617  ASP618  TYR619  PRO620  LYS621  CYS622 
 ASP623  PHE694  ASN695  SER759  ASP760  ASP761  ALA762  ILE779  LEU786  VAL792 
 PHE793  MET794  SER795  GLU796  ALA797  LYS798  CYS799  TRP800  GLU811  SER814 

> <Gold.Protein.RotatedAtoms>
  152.2671  134.7972  160.0420 H   0  0  0  0  0  0  0  0  0  0  0  0  # atno 6907 bound_to 6896
  151.8598  133.3450  159.3708 H   0  0  0  0  0  0  0  0  0  0  0  0  # atno 6908 bound_to 6896
  150.7138  134.5145  159.5668 H   0  0  0  0  0  0  0  0  0  0  0  0  # atno 6909 bound_to 6896
  145.8944  139.3535  143.0630 H   0  0  0  0  0  0  0  0  0  0  0  0  # atno 7974 bound_to 7965
  155.9458  140.1117  157.1017 H   0  0  0  0  0  0  0  0  0  0  0  0  # atno 8008 bound_to 7997
  154.4099  140.1210  156.5054 H   0  0  0  0  0  0  0  0  0  0  0  0  # atno 8009 bound_to 7997
  155.6904  140.3472  155.4893 H   0  0  0  0  0  0  0  0  0  0  0  0  # atno 8010 bound_to 7997
  140.6153  143.2400  151.5612 H   0  0  0  0  0  0  0  0  0  0  0  0  # atno 10167 bound_to 10162
  156.0405  130.4333  150.2306 H   0  0  0  0  0  0  0  0  0  0  0  0  # atno 10718 bound_to 10713
  153.7733  135.3179  155.3355 H   0  0  0  0  0  0  0  0  0  0  0  0  # atno 10763 bound_to 10752
  154.8188  135.4617  154.0723 H   0  0  0  0  0  0  0  0  0  0  0  0  # atno 10764 bound_to 10752
  153.1989  135.6919  153.8341 H   0  0  0  0  0  0  0  0  0  0  0  0  # atno 10765 bound_to 10752
  140.1488  134.4488  155.8396 H   0  0  0  0  0  0  0  0  0  0  0  0  # atno 11005 bound_to 11000
  145.8868  140.9329  143.0573 LP  0  0  0  0  0  0  0  0  0  0  0  0  # atno 17320 bound_to 7965
  144.6732  140.0853  143.7467 LP  0  0  0  0  0  0  0  0  0  0  0  0  # atno 17321 bound_to 7965
  139.5393  144.2691  152.1318 LP  0  0  0  0  0  0  0  0  0  0  0  0  # atno 17342 bound_to 10162
  140.1899  144.4762  150.6484 LP  0  0  0  0  0  0  0  0  0  0  0  0  # atno 17343 bound_to 10162
  157.0401  131.0033  151.3286 LP  0  0  0  0  0  0  0  0  0  0  0  0  # atno 17370 bound_to 10713
  157.5215  130.8001  149.7814 LP  0  0  0  0  0  0  0  0  0  0  0  0  # atno 17371 bound_to 10713
  141.2196  133.6864  156.7384 LP  0  0  0  0  0  0  0  0  0  0  0  0  # atno 17394 bound_to 11000
  140.2630  134.8452  157.3776 LP  0  0  0  0  0  0  0  0  0  0  0  0  # atno 17395 bound_to 11000

$$$$
