#       Name:                AV-unprocessed.smi:2991
#       Creating user name   scv26
#       Creation time:       Fri Mar 27 16:32:18 2020


#       File generated by GOLD software.
#

@<TRIPOS>MOLECULE
AV-unprocessed.smi:2991
    42    43     1
SMALL
NO_CHARGES


@<TRIPOS>ATOM
      1 ****        -5.8263   2.9559   1.2444 C.3            1 S1                 0.0000
      2 ****        -4.9334   1.7308   1.1784 C.ar           1 S1                 0.0000
      3 ****        -5.5448   0.5483   1.4078 N.ar           1 S1                 0.0000
      4 ****        -4.7949  -0.5720   1.3691 C.ar           1 S1                 0.0000
      5 ****        -3.4137  -0.5707   1.0965 C.ar           1 S1                 0.0000
      6 ****        -2.7727   0.6649   0.8396 C.ar           1 S1                 0.0000
      7 ****        -1.3797   0.7824   0.5765 N.am           1 S1                 0.0000
      8 ****        -0.5413  -0.1343   0.0640 C.2            1 S1                 0.0000
      9 ****        -0.8556  -1.2720  -0.2860 O.2            1 S1                 0.0000
     10 ****         0.7022   0.3560  -0.0401 N.am           1 S1                 0.0000
     11 ****         1.8563  -0.3474  -0.5999 C.3            1 S1                 0.0000
     12 ****         2.4519  -1.3357   0.4367 C.3            1 S1                 0.0000
     13 ****         3.9467  -1.6792   0.2679 C.3            1 S1                 0.0000
     14 ****         4.3565  -2.2007  -1.1245 C.3            1 S1                 0.0000
     15 ****         3.9859  -1.3124  -2.3358 C.3            1 S1                 0.0000
     16 ****         3.8314   0.1062  -2.0163 N.am           1 S1                 0.0000
     17 ****         2.8635   0.6266  -1.2421 C.2            1 S1                 0.0000
     18 ****         2.7907   1.8370  -1.0328 O.2            1 S1                 0.0000
     19 ****        -3.5518   1.8445   0.8956 C.ar           1 S1                 0.0000
     20 ****        -2.8323   3.3954   0.6171 Cl             1 S1                 0.0000
     21 ****        -5.4733   3.6401   2.0164 H              1 S1                 0.0000
     22 ****        -6.8581   2.6893   1.4775 H              1 S1                 0.0000
     23 ****        -5.8211   3.4809   0.2890 H              1 S1                 0.0000
     24 ****        -5.3108  -1.4994   1.5691 H              1 S1                 0.0000
     25 ****        -2.8765  -1.5064   1.1034 H              1 S1                 0.0000
     26 ****        -0.9903   1.7013   0.7299 H              1 S1                 0.0000
     27 ****         0.8651   1.3046   0.2654 H              1 S1                 0.0000
     28 ****         1.4699  -0.9402  -1.4301 H              1 S1                 0.0000
     29 ****         2.3234  -0.9273   1.4401 H              1 S1                 0.0000
     30 ****         1.8687  -2.2573   0.4197 H              1 S1                 0.0000
     31 ****         4.5489  -0.8042   0.5166 H              1 S1                 0.0000
     32 ****         4.2180  -2.4273   1.0134 H              1 S1                 0.0000
     33 ****         5.4386  -2.3361  -1.1176 H              1 S1                 0.0000
     34 ****         3.9404  -3.1969  -1.2784 H              1 S1                 0.0000
     35 ****         4.7518  -1.4100  -3.1055 H              1 S1                 0.0000
     36 ****         3.0678  -1.6755  -2.7989 H              1 S1                 0.0000
     37 ****         4.4997   0.7425  -2.4264 H              1 S1                 0.0000
     38 ****        -6.5251   0.5048   1.6007 LP             1 S1                 0.0000
     39 ****        -1.8035  -1.5783  -0.1980 LP             1 S1                 0.0000
     40 ****        -0.1631  -1.8899  -0.6583 LP             1 S1                 0.0000
     41 ****         2.0717   2.1995  -0.4398 LP             1 S1                 0.0000
     42 ****         3.4505   2.4581  -1.4557 LP             1 S1                 0.0000
@<TRIPOS>BOND
    1    1    2 1     
    2    1   21 1     
    3    1   22 1     
    4    1   23 1     
    5    2   19 ar    
    6    2    3 ar    
    7    3    4 ar    
    8    4    5 ar    
    9    4   24 1     
   10    5    6 ar    
   11    5   25 1     
   12    6    7 1     
   13    6   19 ar    
   14    7    8 am    
   15    7   26 1     
   16    8    9 2     
   17    8   10 am    
   18   10   11 1     
   19   10   27 1     
   20   11   17 1     
   21   11   12 1     
   22   11   28 1     
   23   12   13 1     
   24   12   29 1     
   25   12   30 1     
   26   13   14 1     
   27   13   31 1     
   28   13   32 1     
   29   14   15 1     
   30   14   33 1     
   31   14   34 1     
   32   15   16 1     
   33   15   35 1     
   34   15   36 1     
   35   16   17 am    
   36   16   37 1     
   37   17   18 2     
   38   19   20 1     
   39    3   38 1     
   40    9   39 1     
   41    9   40 1     
   42   18   41 1     
   43   18   42 1     
@<TRIPOS>SUBSTRUCTURE
      1 S1             1
@<TRIPOS>SET
LONE_PAIRS      STATIC     ATOMS    <user>   **** ""
5 38 39 40 41 42
DONOR_HYDROGENS      STATIC     ATOMS    <user>   **** ""
3 26 27 37
ATOM$BLUE        STATIC     ATOMS    COLORGROUP SYSTEM
5 38 39 40 41 42
ATOM$RED        STATIC     ATOMS    COLORGROUP SYSTEM
3 26 27 37
