AV-unprocessed.smi:101|AV-procd|sdf|915|dock9
  -GOLD-   2262017413D 1   1.00000     0.00000
 Structure written by MMmdl.
 44 46  0  0  0  0  0  0  0  0  1 V2000
  144.7878  143.2692  153.6745 C   0  0  0  0  0  0  0  0  0  0  0  0
  145.1914  142.7617  155.0491 C   0  0  0  0  0  0  0  0  0  0  0  0
  146.0887  141.7570  155.2206 C   0  0  0  0  0  0  0  0  0  0  0  0
  146.4879  141.2826  156.4649 N   0  0  0  0  0  0  0  0  0  0  0  0
  147.5066  140.1717  156.6253 C   0  0  2  0  0  0  0  0  0  0  0  0
  148.7478  140.7217  156.9650 O   0  0  0  0  0  0  0  0  0  0  0  0
  149.7468  140.3069  156.0397 C   0  0  2  0  0  0  0  0  0  0  0  0
  150.8345  141.3843  155.9027 C   0  0  0  0  0  0  0  0  0  0  0  0
  150.9560  142.1055  157.1185 O   0  0  0  0  0  0  0  0  0  0  0  0
  151.8697  141.7580  158.0414 C   0  0  0  0  0  0  0  0  0  0  0  0
  152.6120  140.7797  157.9373 O   0  0  0  0  0  0  0  0  0  0  0  0
  151.8798  142.6834  159.2107 C   0  0  0  0  0  0  0  0  0  0  0  0
  151.2128  143.9269  159.1177 C   0  0  0  0  0  0  0  0  0  0  0  0
  151.2120  144.8228  160.2044 C   0  0  0  0  0  0  0  0  0  0  0  0
  151.8747  144.4845  161.3985 C   0  0  0  0  0  0  0  0  0  0  0  0
  152.5366  143.2479  161.5059 C   0  0  0  0  0  0  0  0  0  0  0  0
  152.5412  142.3517  160.4195 C   0  0  0  0  0  0  0  0  0  0  0  0
  148.9799  139.9669  154.7611 C   0  0  1  0  0  0  0  0  0  0  0  0
  149.6792  139.0741  153.9145 O   0  0  0  0  0  0  0  0  0  0  0  0
  147.6783  139.3932  155.3044 C   0  0  1  0  0  0  0  0  0  0  0  0
  147.7443  137.9989  155.5435 O   0  0  0  0  0  0  0  0  0  0  0  0
  145.9433  141.8638  157.6288 C   0  0  0  0  0  0  0  0  0  0  0  0
  146.2530  141.4971  158.7620 O   0  0  0  0  0  0  0  0  0  0  0  0
  145.0158  142.8887  157.4538 N   0  0  0  0  0  0  0  0  0  0  0  0
  144.5855  143.3931  156.2245 C   0  0  0  0  0  0  0  0  0  0  0  0
  143.7568  144.3014  156.1978 O   0  0  0  0  0  0  0  0  0  0  0  0
  144.6221  143.3037  158.2858 H   0  0  0  0  0  0  0  0  0  0  0  0
  145.3306  142.7601  152.8775 H   0  0  0  0  0  0  0  0  0  0  0  0
  144.9941  144.3363  153.5853 H   0  0  0  0  0  0  0  0  0  0  0  0
  143.7218  143.1116  153.5080 H   0  0  0  0  0  0  0  0  0  0  0  0
  146.5093  141.3191  154.3291 H   0  0  0  0  0  0  0  0  0  0  0  0
  147.1403  139.5667  157.4577 H   0  0  0  0  0  0  0  0  0  0  0  0
  150.1914  139.3973  156.4471 H   0  0  0  0  0  0  0  0  0  0  0  0
  151.7814  140.9144  155.6331 H   0  0  0  0  0  0  0  0  0  0  0  0
  150.5760  142.0806  155.1044 H   0  0  0  0  0  0  0  0  0  0  0  0
  150.6975  144.2083  158.2104 H   0  0  0  0  0  0  0  0  0  0  0  0
  150.7017  145.7710  160.1208 H   0  0  0  0  0  0  0  0  0  0  0  0
  151.8738  145.1721  162.2313 H   0  0  0  0  0  0  0  0  0  0  0  0
  153.0454  142.9864  162.4220 H   0  0  0  0  0  0  0  0  0  0  0  0
  153.0630  141.4130  160.5349 H   0  0  0  0  0  0  0  0  0  0  0  0
  148.7450  140.8724  154.2009 H   0  0  0  0  0  0  0  0  0  0  0  0
  149.8780  139.5209  153.1058 H   0  0  0  0  0  0  0  0  0  0  0  0
  146.8497  139.5770  154.6194 H   0  0  0  0  0  0  0  0  0  0  0  0
  148.1638  137.5881  154.8028 H   0  0  0  0  0  0  0  0  0  0  0  0
  1  2  1  0  0  0  0
  1 28  1  0  0  0  0
  1 29  1  0  0  0  0
  1 30  1  0  0  0  0
  2 25  1  0  0  0  0
  2  3  2  0  0  0  0
  3  4  1  0  0  0  0
  3 31  1  0  0  0  0
  4  5  1  0  0  0  0
  4 22  1  0  0  0  0
  5 20  1  0  0  0  0
  5  6  1  0  0  0  0
  5 32  1  0  0  0  0
  6  7  1  0  0  0  0
  7  8  1  0  0  0  0
  7 18  1  0  0  0  0
  7 33  1  0  0  0  0
  8  9  1  0  0  0  0
  8 34  1  0  0  0  0
  8 35  1  0  0  0  0
  9 10  1  0  0  0  0
 10 11  2  0  0  0  0
 10 12  1  0  0  0  0
 12 17  1  0  0  0  0
 12 13  2  0  0  0  0
 13 14  1  0  0  0  0
 13 36  1  0  0  0  0
 14 15  2  0  0  0  0
 14 37  1  0  0  0  0
 15 16  1  0  0  0  0
 15 38  1  0  0  0  0
 16 17  2  0  0  0  0
 16 39  1  0  0  0  0
 17 40  1  0  0  0  0
 18 19  1  0  0  0  0
 18 20  1  0  0  0  0
 18 41  1  0  0  0  0
 19 42  1  0  0  0  0
 20 21  1  0  0  0  0
 20 43  1  0  0  0  0
 21 44  1  0  0  0  0
 22 23  2  0  0  0  0
 22 24  1  0  0  0  0
 24 27  1  0  0  0  0
 24 25  1  0  0  0  0
 25 26  2  0  0  0  0
M  END
> <s_m_source_file>
AV-unprocessed.smi

> <i_m_source_file_index>
101

> <i_lp_mmshare_version>
43012

> <i_f3d_flags>
0

> <s_epik_input>
Tz1jMVtuSF1jKD1PKW4oW2NIXWMxW0NIM10pW0NAQEhdMk9bQ0BIXShbQ0BASF0oW09IXSlbQ0BIXTJbT0hdKVtDSDJdT0MoPU8pYzNbY0hdW2NIXVtjSF1bY0hdW2NIXTM=

> <s_epik_cmdline>
J2VwaWtfcHl0aG9uJywgJy1waCcsICc3LjAnLCAnLXRuJywgJzgnLCAnLW1hJywgJzIwMCcsICctbWV0YWxfYmluZGluZycsICctaW1hZScsICc8aW5maWxlLm1hZT4nLCAnLW9tYWUnLCAnPG91dGZpbGUubWFlPic=

> <r_lp_tautomer_probability>
0.999537

> <r_epik_Ionization_Penalty>
0.00263537

> <r_epik_Ionization_Penalty_Charging>
0.00263428

> <r_epik_Ionization_Penalty_Neutral>
1.09111e-06

> <r_epik_State_Penalty>
0.00183335

> <r_epik_Charging_Adjusted_Penalty>
0.00446763

> <i_epik_Tot_Q>
0

> <i_epik_Tot_abs_Q>
0

> <r_epik_Metal_State_Penalty>
1.00528

> <b_epik_Metal_Only>
0

> <s_epik_Chemistry_Notes>
This compound has an ester and may undergo hydrolysis at high or low pH. This compound contains an acetal/aminal-like group ( X-CH(R)-Y where X, Y are N, S, or O) that may be acid/base labile, releasing an aldehyde.

> <s_lp_Force_Field>
OPLS_2005

> <r_lp_Energy>
35.2309

> <b_lp_Chiralities_Consistent>
1

> <s_lp_Variant>
AV-unprocessed.smi:101-3

> <Gold.Version>
5.8.1

> <Gold.Id.Protein>
6NUR|6NUR_protein|mol2

> <Gold.PLP.Fitness>
49.6075

> <Gold.PLP.PLP>
-44.3265

> <Gold.PLP.part.hbond>
-3.0000

> <Gold.PLP.part.metal>
0.0000

> <Gold.PLP.part.buried>
-6.8436

> <Gold.PLP.part.nonpolar>
-33.8051

> <Gold.PLP.part.repulsive>
0.1861

> <Gold.PLP.ligand.clash>
0.0000

> <Gold.PLP.ligand.torsion>
1.1865

> <Gold.PLP.Chemscore.Hbond>
2.5383

> <Gold.PLP.Chemscore.CHOScore>
0.0000

> <Gold.PLP.Chemscore.Metal>
0.0000

> <Gold.Chemscore.Hbonds>
donor molecule, donor type, donor heavy atom, donor atom, acceptor molecule, acceptor atom, score
      L1  H    19    42       P1  7957  1.00
      P1  H  6934  6946       L1    23  0.50
      P1  H  7997  8010       L1    11  0.32

> <Gold.PLP.Chemscore.Internal.Correction>
0.0390

> <Gold.Rescore>
     Score         DG    S(hbond)    S(metal)    S(lipo)     H(rot)  DE(clash)    DE(int)     intcor
     15.87     -17.65       2.63        0.00     101.61       3.32       0.40       1.38       ----

> <Gold.Chemscore.Fitness>
15.8674

> <Gold.Chemscore.DG>
-17.6478

> <Gold.Chemscore.ZeroCoef>
-5.4800

> <Gold.Chemscore.Hbond>
2.6261

> <Gold.Chemscore.Metal>
0.0000

> <Gold.Chemscore.Lipo>
101.6121

> <Gold.Chemscore.Internal_Hbond>
0.0000

> <Gold.Chemscore.DEClash>
0.4012

> <Gold.Chemscore.DEInternal>
1.3793

> <Gold.Chemscore.Rot>
3.3172

> <Gold.Chemscore.Internal.Correction>
   9.000000E+99

> <Gold.Chemscore.Hbonds>
donor molecule, donor type, donor heavy atom, donor atom, acceptor molecule, acceptor atom, score
      L1  H    19    42       P1  7957  0.92
      P1  H  6934  6946       L1    23  0.51
      P1  H  7997  8010       L1    11  0.31

> <Gold.Chemscore.Hbond.Weighted>
-8.7712

> <Gold.Chemscore.Metal.Weighted>
-0.0000

> <Gold.Chemscore.Lipo.Weighted>
-11.8886

> <Gold.Chemscore.Internal_Hbond.Weighted>
0.0000

> <Gold.Chemscore.DEClash.Weighted>
0.4012

> <Gold.Chemscore.DEInternal.Weighted>
1.3793

> <Gold.Chemscore.Rot.Weighted>
8.4920

> <Gold.Chemscore.Internal.Correction.Weighted>
   9.000000E+99

> <Gold.Protein.RotatedTorsions>
[ 6907 6896 6895 6894 ] final  139.36 input  -60.11 | X-H torsion
[ 7974 7965 7964 7962 ] final  -78.99 input  175.53 | X-H torsion
[ 8008 7997 7996 7995 ] final   48.80 input   59.86 | X-H torsion
[ 10167 10162 10161 10158 ] final   18.21 input  -65.29 | X-H torsion
[ 10718 10713 10712 10709 ] final  -11.28 input   66.30 | X-H torsion
[ 10763 10752 10751 10750 ] final   45.25 input  -60.55 | X-H torsion
[ 11005 11000 10999 10996 ] final  107.20 input  -57.11 | X-H torsion

> <Gold.Protein.ActiveResidues>
 VAL166  LYS551  ARG553  GLY616  TRP617  ASP618  TYR619  PRO620  LYS621  CYS622 
 ASP623  PHE694  ASN695  SER759  ASP760  ASP761  ALA762  ILE779  LEU786  VAL792 
 PHE793  MET794  SER795  GLU796  ALA797  LYS798  CYS799  TRP800  GLU811  SER814 

> <Gold.Protein.RotatedAtoms>
  152.2558  133.5254  159.5351 H   0  0  0  0  0  0  0  0  0  0  0  0  # atno 6907 bound_to 6896
  150.7108  134.0898  159.3936 H   0  0  0  0  0  0  0  0  0  0  0  0  # atno 6908 bound_to 6896
  151.8817  135.0451  160.0540 H   0  0  0  0  0  0  0  0  0  0  0  0  # atno 6909 bound_to 6896
  145.5791  140.9452  143.1354 H   0  0  0  0  0  0  0  0  0  0  0  0  # atno 7974 bound_to 7965
  155.3917  140.3433  155.4252 H   0  0  0  0  0  0  0  0  0  0  0  0  # atno 8008 bound_to 7997
  156.1554  140.1584  156.8734 H   0  0  0  0  0  0  0  0  0  0  0  0  # atno 8009 bound_to 7997
  154.5090  140.0795  156.7933 H   0  0  0  0  0  0  0  0  0  0  0  0  # atno 8010 bound_to 7997
  140.5670  143.9232  150.6684 H   0  0  0  0  0  0  0  0  0  0  0  0  # atno 10167 bound_to 10162
  156.6613  130.4983  149.6029 H   0  0  0  0  0  0  0  0  0  0  0  0  # atno 10718 bound_to 10713
  152.9827  135.6045  154.3407 H   0  0  0  0  0  0  0  0  0  0  0  0  # atno 10763 bound_to 10752
  154.3104  135.2771  155.2571 H   0  0  0  0  0  0  0  0  0  0  0  0  # atno 10764 bound_to 10752
  154.4783  135.5924  153.6427 H   0  0  0  0  0  0  0  0  0  0  0  0  # atno 10765 bound_to 10752
  139.8824  134.9393  156.5782 H   0  0  0  0  0  0  0  0  0  0  0  0  # atno 11005 bound_to 11000
  144.7402  139.7470  143.7313 LP  0  0  0  0  0  0  0  0  0  0  0  0  # atno 17320 bound_to 7965
  146.1729  139.4887  142.9916 LP  0  0  0  0  0  0  0  0  0  0  0  0  # atno 17321 bound_to 7965
  140.2698  143.3464  152.1248 LP  0  0  0  0  0  0  0  0  0  0  0  0  # atno 17342 bound_to 10162
  139.5098  144.6873  151.5853 LP  0  0  0  0  0  0  0  0  0  0  0  0  # atno 17343 bound_to 10162
  156.2009  130.6619  151.1166 LP  0  0  0  0  0  0  0  0  0  0  0  0  # atno 17370 bound_to 10713
  157.7108  131.0735  150.6505 LP  0  0  0  0  0  0  0  0  0  0  0  0  # atno 17371 bound_to 10713
  140.8047  133.8477  155.8757 LP  0  0  0  0  0  0  0  0  0  0  0  0  # atno 17394 bound_to 11000
  140.9561  134.1716  157.4690 LP  0  0  0  0  0  0  0  0  0  0  0  0  # atno 17395 bound_to 11000

$$$$
