AV-unprocessed.smi:1403|AV-procd|sdf|5698|dock7
  -GOLD-   22720 5323D 1   1.00000     0.00000
 Structure written by MMmdl.
 36 37  0  0  0  0  0  0  0  0  1 V2000
  150.9721  140.5578  158.0273 C   0  0  0  0  0  0  0  0  0  0  0  0
  151.2290  141.9467  157.4247 C   0  0  1  0  0  0  0  0  0  0  0  0
  150.2600  142.1797  156.3550 N   0  0  0  0  0  0  0  0  0  0  0  0
  150.0349  141.3754  155.3042 C   0  0  0  0  0  0  0  0  0  0  0  0
  150.6549  140.3296  155.1066 O   0  0  0  0  0  0  0  0  0  0  0  0
  148.9611  141.8487  154.3143 C   0  0  0  0  0  0  0  0  0  0  0  0
  147.5933  141.5521  154.7634 N   0  0  0  0  0  0  0  0  0  0  0  0
  147.1456  142.0076  155.9956 C   0  0  0  0  0  0  0  0  0  0  0  0
  145.8963  141.7798  156.4657 C   0  0  0  0  0  0  0  0  0  0  0  0
  144.9349  141.0220  155.6718 C   0  0  0  0  0  0  0  0  0  0  0  0
  143.7827  140.7626  156.0111 O   0  0  0  0  0  0  0  0  0  0  0  0
  145.4220  140.5830  154.4376 N   0  0  0  0  0  0  0  0  0  0  0  0
  146.7077  140.8154  153.9465 C   0  0  0  0  0  0  0  0  0  0  0  0
  147.0341  140.3858  152.8405 O   0  0  0  0  0  0  0  0  0  0  0  0
  151.1377  143.0603  158.4887 C   0  0  2  0  0  0  0  0  0  0  0  0
  151.5371  144.4551  158.0037 C   0  0  0  0  0  0  0  0  0  0  0  0
  151.8791  145.1427  159.3052 C   0  0  0  0  0  0  0  0  0  0  0  0
  152.5526  144.0201  160.0901 C   0  0  0  0  0  0  0  0  0  0  0  0
  152.0318  142.7996  159.5676 O   0  0  0  0  0  0  0  0  0  0  0  0
  144.7907  140.0561  153.8517 H   0  0  0  0  0  0  0  0  0  0  0  0
  151.7030  140.3226  158.8014 H   0  0  0  0  0  0  0  0  0  0  0  0
  151.0419  139.7799  157.2660 H   0  0  0  0  0  0  0  0  0  0  0  0
  149.9805  140.4963  158.4770 H   0  0  0  0  0  0  0  0  0  0  0  0
  152.2404  141.9434  157.0143 H   0  0  0  0  0  0  0  0  0  0  0  0
  149.7075  143.0217  156.4258 H   0  0  0  0  0  0  0  0  0  0  0  0
  149.0716  142.9197  154.1315 H   0  0  0  0  0  0  0  0  0  0  0  0
  149.1553  141.3717  153.3526 H   0  0  0  0  0  0  0  0  0  0  0  0
  147.8223  142.5778  156.6162 H   0  0  0  0  0  0  0  0  0  0  0  0
  145.6058  142.1615  157.4338 H   0  0  0  0  0  0  0  0  0  0  0  0
  150.1272  143.1050  158.8990 H   0  0  0  0  0  0  0  0  0  0  0  0
  152.4210  144.4033  157.3661 H   0  0  0  0  0  0  0  0  0  0  0  0
  150.7438  144.9593  157.4512 H   0  0  0  0  0  0  0  0  0  0  0  0
  152.5184  146.0162  159.1759 H   0  0  0  0  0  0  0  0  0  0  0  0
  150.9652  145.4590  159.8101 H   0  0  0  0  0  0  0  0  0  0  0  0
  153.6310  144.0322  159.9291 H   0  0  0  0  0  0  0  0  0  0  0  0
  152.3695  144.1019  161.1617 H   0  0  0  0  0  0  0  0  0  0  0  0
  1  2  1  0  0  0  0
  1 21  1  0  0  0  0
  1 22  1  0  0  0  0
  1 23  1  0  0  0  0
  2  3  1  0  0  0  0
  2 15  1  0  0  0  0
  2 24  1  0  0  0  0
  3  4  1  0  0  0  0
  3 25  1  0  0  0  0
  4  5  2  0  0  0  0
  4  6  1  0  0  0  0
  6  7  1  0  0  0  0
  6 26  1  0  0  0  0
  6 27  1  0  0  0  0
  7 13  1  0  0  0  0
  7  8  1  0  0  0  0
  8  9  2  0  0  0  0
  8 28  1  0  0  0  0
  9 10  1  0  0  0  0
  9 29  1  0  0  0  0
 10 11  2  0  0  0  0
 10 12  1  0  0  0  0
 12 20  1  0  0  0  0
 12 13  1  0  0  0  0
 13 14  2  0  0  0  0
 15 19  1  0  0  0  0
 15 16  1  0  0  0  0
 15 30  1  0  0  0  0
 16 17  1  0  0  0  0
 16 31  1  0  0  0  0
 16 32  1  0  0  0  0
 17 18  1  0  0  0  0
 17 33  1  0  0  0  0
 17 34  1  0  0  0  0
 18 19  1  0  0  0  0
 18 35  1  0  0  0  0
 18 36  1  0  0  0  0
M  END
> <s_m_source_file>
AV-unprocessed.smi

> <i_m_source_file_index>
1403

> <i_lp_mmshare_version>
43012

> <i_f3d_flags>
0

> <s_epik_input>
TzFbQ0gyXVtDSDJdW0NIMl1bQ0BIXTFbQ0BIXShbQ0gzXSlbTkhdQyg9TylbQ0gyXW4yW2NIXVtjSF1jKD1PKVtuSF1jMj1P

> <s_epik_cmdline>
J2VwaWtfcHl0aG9uJywgJy1waCcsICc3LjAnLCAnLXRuJywgJzgnLCAnLW1hJywgJzIwMCcsICctbWV0YWxfYmluZGluZycsICctaW1hZScsICc8aW5maWxlLm1hZT4nLCAnLW9tYWUnLCAnPG91dGZpbGUubWFlPic=

> <r_lp_tautomer_probability>
0.999537

> <r_epik_Ionization_Penalty>
0.00331407

> <r_epik_Ionization_Penalty_Charging>
0.00331405

> <r_epik_Ionization_Penalty_Neutral>
2.30132e-08

> <r_epik_State_Penalty>
0.00234266

> <r_epik_Charging_Adjusted_Penalty>
0.00565671

> <i_epik_Tot_Q>
0

> <i_epik_Tot_abs_Q>
0

> <r_epik_Metal_State_Penalty>
0.365604

> <b_epik_Metal_Only>
0

> <s_lp_Force_Field>
OPLS_2005

> <r_lp_Energy>
17.659

> <b_lp_Chiralities_Consistent>
1

> <s_lp_Variant>
AV-unprocessed.smi:1403-2

> <Gold.Version>
5.8.1

> <Gold.Id.Protein>
6NUR|6NUR_protein|mol2

> <Gold.PLP.Fitness>
42.7739

> <Gold.PLP.PLP>
-33.2944

> <Gold.PLP.part.hbond>
-3.0000

> <Gold.PLP.part.metal>
0.0000

> <Gold.PLP.part.buried>
-2.4286

> <Gold.PLP.part.nonpolar>
-28.0276

> <Gold.PLP.part.repulsive>
0.9556

> <Gold.PLP.ligand.clash>
0.0000

> <Gold.PLP.ligand.torsion>
0.3524

> <Gold.PLP.Chemscore.Hbond>
2.6200

> <Gold.PLP.Chemscore.CHOScore>
0.7704

> <Gold.PLP.Chemscore.Metal>
0.0000

> <Gold.Chemscore.Hbonds>
donor molecule, donor type, donor heavy atom, donor atom, acceptor molecule, acceptor atom, score
      L1  H     3    25       P1  8028  0.99
      L1  H    12    20       P1 10175  0.69
      P1  H  7989  7998       L1     5  0.90
      L1  C     8    28       P1  8028  0.72

> <Gold.PLP.Chemscore.Internal.Correction>
0.0129

> <Gold.Rescore>
     Score         DG    S(hbond)    S(metal)    S(lipo)     H(rot)  DE(clash)    DE(int)     intcor
     12.74     -14.51       1.54        0.00      77.80       2.04       1.37       0.40       ----

> <Gold.Chemscore.Fitness>
12.7424

> <Gold.Chemscore.DG>
-14.5125

> <Gold.Chemscore.ZeroCoef>
-5.4800

> <Gold.Chemscore.Hbond>
1.5422

> <Gold.Chemscore.Metal>
0.0000

> <Gold.Chemscore.Lipo>
77.7993

> <Gold.Chemscore.Internal_Hbond>
0.0000

> <Gold.Chemscore.DEClash>
1.3669

> <Gold.Chemscore.DEInternal>
0.4032

> <Gold.Chemscore.Rot>
2.0395

> <Gold.Chemscore.Internal.Correction>
   9.000000E+99

> <Gold.Chemscore.Hbonds>
donor molecule, donor type, donor heavy atom, donor atom, acceptor molecule, acceptor atom, score
      L1  H     3    25       P1  8028  0.90
      L1  H    12    20       P1 10175  0.68
      P1  H  7989  7998       L1     5  0.17

> <Gold.Chemscore.Hbond.Weighted>
-5.1511

> <Gold.Chemscore.Metal.Weighted>
-0.0000

> <Gold.Chemscore.Lipo.Weighted>
-9.1025

> <Gold.Chemscore.Internal_Hbond.Weighted>
0.0000

> <Gold.Chemscore.DEClash.Weighted>
1.3669

> <Gold.Chemscore.DEInternal.Weighted>
0.4032

> <Gold.Chemscore.Rot.Weighted>
5.2211

> <Gold.Chemscore.Internal.Correction.Weighted>
   9.000000E+99

> <Gold.Protein.RotatedTorsions>
[ 6907 6896 6895 6894 ] final   14.31 input  -60.11 | X-H torsion
[ 7974 7965 7964 7962 ] final  112.17 input  175.53 | X-H torsion
[ 8008 7997 7996 7995 ] final   24.85 input   59.86 | X-H torsion
[ 10167 10162 10161 10158 ] final    5.27 input  -65.29 | X-H torsion
[ 10718 10713 10712 10709 ] final  118.38 input   66.30 | X-H torsion
[ 10763 10752 10751 10750 ] final -111.34 input  -60.55 | X-H torsion
[ 11005 11000 10999 10996 ] final  114.77 input  -57.11 | X-H torsion

> <Gold.Protein.ActiveResidues>
 VAL166  LYS551  ARG553  GLY616  TRP617  ASP618  TYR619  PRO620  LYS621  CYS622 
 ASP623  PHE694  ASN695  SER759  ASP760  ASP761  ALA762  ILE779  LEU786  VAL792 
 PHE793  MET794  SER795  GLU796  ALA797  LYS798  CYS799  TRP800  GLU811  SER814 

> <Gold.Protein.RotatedAtoms>
  151.8002  135.0711  160.0399 H   0  0  0  0  0  0  0  0  0  0  0  0  # atno 6907 bound_to 6896
  152.3094  133.5732  159.5679 H   0  0  0  0  0  0  0  0  0  0  0  0  # atno 6908 bound_to 6896
  150.7312  134.0091  159.3705 H   0  0  0  0  0  0  0  0  0  0  0  0  # atno 6909 bound_to 6896
  145.2329  139.2811  143.4158 H   0  0  0  0  0  0  0  0  0  0  0  0  # atno 7974 bound_to 7965
  155.0026  140.3127  155.4861 H   0  0  0  0  0  0  0  0  0  0  0  0  # atno 8008 bound_to 7997
  156.2922  140.2229  156.5077 H   0  0  0  0  0  0  0  0  0  0  0  0  # atno 8009 bound_to 7997
  154.7605  140.0459  157.0957 H   0  0  0  0  0  0  0  0  0  0  0  0  # atno 8010 bound_to 7997
  140.6491  143.7589  150.7546 H   0  0  0  0  0  0  0  0  0  0  0  0  # atno 10167 bound_to 10162
  157.6034  131.1047  150.7748 H   0  0  0  0  0  0  0  0  0  0  0  0  # atno 10718 bound_to 10713
  154.8295  135.4531  154.1024 H   0  0  0  0  0  0  0  0  0  0  0  0  # atno 10763 bound_to 10752
  153.2309  135.6905  153.7897 H   0  0  0  0  0  0  0  0  0  0  0  0  # atno 10764 bound_to 10752
  153.7280  135.3331  155.3256 H   0  0  0  0  0  0  0  0  0  0  0  0  # atno 10765 bound_to 10752
  139.8990  134.9573  156.6942 H   0  0  0  0  0  0  0  0  0  0  0  0  # atno 11005 bound_to 11000
  146.3348  140.2670  142.8604 LP  0  0  0  0  0  0  0  0  0  0  0  0  # atno 17320 bound_to 7965
  144.9660  140.8322  143.5484 LP  0  0  0  0  0  0  0  0  0  0  0  0  # atno 17321 bound_to 7965
  140.1236  143.4589  152.2298 LP  0  0  0  0  0  0  0  0  0  0  0  0  # atno 17342 bound_to 10162
  139.5704  144.7459  151.3906 LP  0  0  0  0  0  0  0  0  0  0  0  0  # atno 17343 bound_to 10162
  156.8142  130.4962  149.5352 LP  0  0  0  0  0  0  0  0  0  0  0  0  # atno 17370 bound_to 10713
  156.1113  130.6042  151.0052 LP  0  0  0  0  0  0  0  0  0  0  0  0  # atno 17371 bound_to 10713
  140.7201  133.9148  155.8141 LP  0  0  0  0  0  0  0  0  0  0  0  0  # atno 17394 bound_to 11000
  141.0234  134.0857  157.4095 LP  0  0  0  0  0  0  0  0  0  0  0  0  # atno 17395 bound_to 11000

$$$$
