AV-unprocessed.smi:1412|AV-procd|sdf|5742|dock3
  -GOLD-   22720 5373D 1   1.00000     0.00000
 Structure written by MMmdl.
 42 43  0  0  0  0  0  0  0  0  2 V2000
  148.6605  139.1633  154.7516 C   0  0  0  0  0  0  0  0  0  0  0  0
  148.3295  139.2861  153.2534 C   0  0  0  0  0  0  0  0  0  0  0  0
  146.8142  139.4069  152.9045 C   0  0  1  0  0  0  0  0  0  0  0  0
  146.7051  139.5141  151.3600 C   0  0  0  0  0  0  0  0  0  0  0  0
  146.0547  138.1258  153.3722 C   0  0  0  0  0  0  0  0  0  0  0  0
  146.3958  136.9262  152.6069 N   0  0  0  0  0  0  0  0  0  0  0  0
  145.5215  136.0102  152.1641 C   0  0  0  0  0  0  0  0  0  0  0  0
  144.3086  136.0796  152.3625 O   0  0  0  0  0  0  0  0  0  0  0  0
  146.1452  135.0238  151.4962 N   0  0  0  0  0  0  0  0  0  0  0  0
  145.5755  133.8638  150.9074 C   0  0  0  0  0  0  0  0  0  0  0  0
  146.2694  132.9905  150.1605 N   0  0  0  0  0  0  0  0  0  0  0  0
  145.4725  131.9488  149.7036 N   0  0  0  0  0  0  0  0  0  0  0  0
  144.2104  132.0773  150.1226 C   0  0  0  0  0  0  0  0  0  0  0  0
  143.8721  133.4836  151.1170 S   0  0  0  0  0  0  0  0  0  0  0  0
  146.2357  140.6366  153.5600 N   0  3  0  0  0  0  0  0  0  0  0  0
  145.9724  140.5399  155.0238 C   0  0  0  0  0  0  0  0  0  0  0  0
  145.2077  141.7805  155.5172 C   0  0  0  0  0  0  0  0  0  0  0  0
  145.9413  142.9568  155.2075 O   0  0  0  0  0  0  0  0  0  0  0  0
  146.1228  143.1090  153.8068 C   0  0  0  0  0  0  0  0  0  0  0  0
  146.9332  141.9211  153.2646 C   0  0  0  0  0  0  0  0  0  0  0  0
  149.7392  139.1022  154.8972 H   0  0  0  0  0  0  0  0  0  0  0  0
  148.2242  138.2673  155.1927 H   0  0  0  0  0  0  0  0  0  0  0  0
  148.3074  140.0250  155.3174 H   0  0  0  0  0  0  0  0  0  0  0  0
  148.8625  140.1592  152.8760 H   0  0  0  0  0  0  0  0  0  0  0  0
  148.7773  138.4461  152.7229 H   0  0  0  0  0  0  0  0  0  0  0  0
  147.3111  138.7585  150.8588 H   0  0  0  0  0  0  0  0  0  0  0  0
  147.0397  140.4855  150.9958 H   0  0  0  0  0  0  0  0  0  0  0  0
  145.6833  139.3659  151.0098 H   0  0  0  0  0  0  0  0  0  0  0  0
  146.2212  137.9349  154.4325 H   0  0  0  0  0  0  0  0  0  0  0  0
  144.9792  138.2633  153.2637 H   0  0  0  0  0  0  0  0  0  0  0  0
  147.3734  136.7874  152.3961 H   0  0  0  0  0  0  0  0  0  0  0  0
  147.1471  135.1051  151.4073 H   0  0  0  0  0  0  0  0  0  0  0  0
  143.4735  131.3388  149.8433 H   0  0  0  0  0  0  0  0  0  0  0  0
  145.3699  139.6669  155.2675 H   0  0  0  0  0  0  0  0  0  0  0  0
  146.9110  140.4481  155.5708 H   0  0  0  0  0  0  0  0  0  0  0  0
  144.2141  141.8288  155.0683 H   0  0  0  0  0  0  0  0  0  0  0  0
  145.0656  141.7288  156.5968 H   0  0  0  0  0  0  0  0  0  0  0  0
  145.1572  143.1862  153.3043 H   0  0  0  0  0  0  0  0  0  0  0  0
  146.6545  144.0424  153.6208 H   0  0  0  0  0  0  0  0  0  0  0  0
  147.9225  141.9317  153.7220 H   0  0  0  0  0  0  0  0  0  0  0  0
  147.0725  142.0661  152.1953 H   0  0  0  0  0  0  0  0  0  0  0  0
  145.3221  140.7331  153.1399 H   0  0  0  0  0  0  0  0  0  0  0  0
  1  2  1  0  0  0  0
  1 21  1  0  0  0  0
  1 22  1  0  0  0  0
  1 23  1  0  0  0  0
  2  3  1  0  0  0  0
  2 24  1  0  0  0  0
  2 25  1  0  0  0  0
  3  4  1  0  0  0  0
  3  5  1  0  0  0  0
  3 15  1  0  0  0  0
  4 26  1  0  0  0  0
  4 27  1  0  0  0  0
  4 28  1  0  0  0  0
  5  6  1  0  0  0  0
  5 29  1  0  0  0  0
  5 30  1  0  0  0  0
  6  7  1  0  0  0  0
  6 31  1  0  0  0  0
  7  8  2  0  0  0  0
  7  9  1  0  0  0  0
  9 10  1  0  0  0  0
  9 32  1  0  0  0  0
 10 14  1  0  0  0  0
 10 11  2  0  0  0  0
 11 12  1  0  0  0  0
 12 13  2  0  0  0  0
 13 14  1  0  0  0  0
 13 33  1  0  0  0  0
 15 20  1  0  0  0  0
 15 16  1  0  0  0  0
 15 42  1  0  0  0  0
 16 17  1  0  0  0  0
 16 34  1  0  0  0  0
 16 35  1  0  0  0  0
 17 18  1  0  0  0  0
 17 36  1  0  0  0  0
 17 37  1  0  0  0  0
 18 19  1  0  0  0  0
 19 20  1  0  0  0  0
 19 38  1  0  0  0  0
 19 39  1  0  0  0  0
 20 40  1  0  0  0  0
 20 41  1  0  0  0  0
M  CHG  1  15   1
M  END
> <s_m_source_file>
AV-unprocessed.smi

> <i_m_source_file_index>
1412

> <i_lp_mmshare_version>
43012

> <i_f3d_flags>
0

> <s_epik_input>
W0NIMl0xW0NIMl1PW0NIMl1bQ0gyXU4xW0NAQF0oW0NIM10pKFtDSDJdW0NIM10pW0NIMl1bTkhdQyg9TylbTkhdYzJubltjSF1zMg==

> <s_epik_cmdline>
J2VwaWtfcHl0aG9uJywgJy1waCcsICc3LjAnLCAnLXRuJywgJzgnLCAnLW1hJywgJzIwMCcsICctbWV0YWxfYmluZGluZycsICctaW1hZScsICc8aW5maWxlLm1hZT4nLCAnLW9tYWUnLCAnPG91dGZpbGUubWFlPic=

> <r_lp_tautomer_probability>
1

> <r_epik_Ionization_Penalty>
0.554649

> <r_epik_Ionization_Penalty_Charging>
0.553838

> <r_epik_Ionization_Penalty_Neutral>
0.000811527

> <r_epik_State_Penalty>
0.564424

> <r_epik_Charging_Adjusted_Penalty>
1.11826

> <i_epik_Tot_Q>
1

> <i_epik_Tot_abs_Q>
1

> <r_epik_Metal_State_Penalty>
0.786249

> <b_epik_Metal_Only>
0

> <s_lp_Force_Field>
OPLS_2005

> <r_lp_Energy>
27.1522

> <b_lp_Chiralities_Consistent>
1

> <s_lp_Variant>
AV-unprocessed.smi:1412-3

> <Gold.Version>
5.8.1

> <Gold.Id.Protein>
6NUR|6NUR_protein|mol2

> <Gold.PLP.Fitness>
41.3290

> <Gold.PLP.PLP>
-29.8537

> <Gold.PLP.part.hbond>
-3.1702

> <Gold.PLP.part.metal>
0.0000

> <Gold.PLP.part.buried>
-3.4592

> <Gold.PLP.part.nonpolar>
-24.3442

> <Gold.PLP.part.repulsive>
0.7846

> <Gold.PLP.ligand.clash>
0.0000

> <Gold.PLP.ligand.torsion>
0.3827

> <Gold.PLP.Chemscore.Hbond>
3.9920

> <Gold.PLP.Chemscore.CHOScore>
0.0000

> <Gold.PLP.Chemscore.Metal>
0.0000

> <Gold.Chemscore.Hbonds>
donor molecule, donor type, donor heavy atom, donor atom, acceptor molecule, acceptor atom, score
      L1  H     6    31       P1  7948  1.00
      L1  H     9    32       P1  7948  0.76
      L1  H    15    42       P1 10175  2.00
      L1  C    13    33       P1 10952  0.21

> <Gold.PLP.Chemscore.Internal.Correction>
0.2648

> <Gold.Rescore>
     Score         DG    S(hbond)    S(metal)    S(lipo)     H(rot)  DE(clash)    DE(int)     intcor
     13.59     -17.10       2.89        0.00      58.84       1.91       0.92       2.59       ----

> <Gold.Chemscore.Fitness>
13.5879

> <Gold.Chemscore.DG>
-17.1001

> <Gold.Chemscore.ZeroCoef>
-5.4800

> <Gold.Chemscore.Hbond>
2.8851

> <Gold.Chemscore.Metal>
0.0000

> <Gold.Chemscore.Lipo>
58.8356

> <Gold.Chemscore.Internal_Hbond>
0.0000

> <Gold.Chemscore.DEClash>
0.9187

> <Gold.Chemscore.DEInternal>
2.5935

> <Gold.Chemscore.Rot>
1.9140

> <Gold.Chemscore.Internal.Correction>
   9.000000E+99

> <Gold.Chemscore.Hbonds>
donor molecule, donor type, donor heavy atom, donor atom, acceptor molecule, acceptor atom, score
      L1  H     6    31       P1  7948  1.00
      L1  H     9    32       P1  7948  0.59
      L1  H    15    42       P1 10175  0.74

> <Gold.Chemscore.Hbond.Weighted>
-9.6362

> <Gold.Chemscore.Metal.Weighted>
-0.0000

> <Gold.Chemscore.Lipo.Weighted>
-6.8838

> <Gold.Chemscore.Internal_Hbond.Weighted>
0.0000

> <Gold.Chemscore.DEClash.Weighted>
0.9187

> <Gold.Chemscore.DEInternal.Weighted>
2.5935

> <Gold.Chemscore.Rot.Weighted>
4.8998

> <Gold.Chemscore.Internal.Correction.Weighted>
   9.000000E+99

> <Gold.Protein.RotatedTorsions>
[ 6907 6896 6895 6894 ] final   63.47 input  -60.11 | X-H torsion
[ 7974 7965 7964 7962 ] final  173.05 input  175.53 | X-H torsion
[ 8008 7997 7996 7995 ] final -168.64 input   59.86 | X-H torsion
[ 10167 10162 10161 10158 ] final  106.45 input  -65.29 | X-H torsion
[ 10718 10713 10712 10709 ] final    7.80 input   66.30 | X-H torsion
[ 10763 10752 10751 10750 ] final  128.63 input  -60.55 | X-H torsion
[ 11005 11000 10999 10996 ] final  -16.84 input  -57.11 | X-H torsion

> <Gold.Protein.ActiveResidues>
 VAL166  LYS551  ARG553  GLY616  TRP617  ASP618  TYR619  PRO620  LYS621  CYS622 
 ASP623  PHE694  ASN695  SER759  ASP760  ASP761  ALA762  ILE779  LEU786  VAL792 
 PHE793  MET794  SER795  GLU796  ALA797  LYS798  CYS799  TRP800  GLU811  SER814 

> <Gold.Protein.RotatedAtoms>
  152.4255  134.5876  159.9964 H   0  0  0  0  0  0  0  0  0  0  0  0  # atno 6907 bound_to 6896
  151.6014  133.3350  159.3056 H   0  0  0  0  0  0  0  0  0  0  0  0  # atno 6908 bound_to 6896
  150.8144  134.7355  159.6782 H   0  0  0  0  0  0  0  0  0  0  0  0  # atno 6909 bound_to 6896
  144.7253  139.9590  143.6434 H   0  0  0  0  0  0  0  0  0  0  0  0  # atno 7974 bound_to 7965
  155.8942  140.1030  157.1397 H   0  0  0  0  0  0  0  0  0  0  0  0  # atno 8008 bound_to 7997
  154.4018  140.1305  156.4418 H   0  0  0  0  0  0  0  0  0  0  0  0  # atno 8009 bound_to 7997
  155.7498  140.3465  155.5147 H   0  0  0  0  0  0  0  0  0  0  0  0  # atno 8010 bound_to 7997
  139.7008  144.7094  151.1188 H   0  0  0  0  0  0  0  0  0  0  0  0  # atno 10167 bound_to 10162
  156.9422  130.5865  149.5653 H   0  0  0  0  0  0  0  0  0  0  0  0  # atno 10718 bound_to 10713
  153.7286  135.3242  155.3281 H   0  0  0  0  0  0  0  0  0  0  0  0  # atno 10763 bound_to 10752
  154.8333  135.4517  154.1144 H   0  0  0  0  0  0  0  0  0  0  0  0  # atno 10764 bound_to 10752
  153.2285  135.6957  153.7998 H   0  0  0  0  0  0  0  0  0  0  0  0  # atno 10765 bound_to 10752
  140.8108  133.8142  155.9562 H   0  0  0  0  0  0  0  0  0  0  0  0  # atno 11005 bound_to 11000
  146.0652  139.3644  143.0556 LP  0  0  0  0  0  0  0  0  0  0  0  0  # atno 17320 bound_to 7965
  145.8040  140.9757  143.0984 LP  0  0  0  0  0  0  0  0  0  0  0  0  # atno 17321 bound_to 7965
  140.7709  143.5426  150.9295 LP  0  0  0  0  0  0  0  0  0  0  0  0  # atno 17342 bound_to 10162
  139.9108  143.6723  152.3115 LP  0  0  0  0  0  0  0  0  0  0  0  0  # atno 17343 bound_to 10162
  156.0399  130.5483  150.8746 LP  0  0  0  0  0  0  0  0  0  0  0  0  # atno 17370 bound_to 10713
  157.5777  131.0946  150.9319 LP  0  0  0  0  0  0  0  0  0  0  0  0  # atno 17371 bound_to 10713
  140.9199  134.2154  157.4933 LP  0  0  0  0  0  0  0  0  0  0  0  0  # atno 17394 bound_to 11000
  139.8714  134.9788  156.5010 LP  0  0  0  0  0  0  0  0  0  0  0  0  # atno 17395 bound_to 11000

$$$$
