AV-unprocessed.smi:2282|AV-procd|sdf|9198|dock5
  -GOLD-   2272012413D 1   1.00000     0.00000
 Structure written by MMmdl.
 32 33  0  0  0  0  0  0  0  0  1 V2000
  151.9609  145.3537  159.7660 C   0  0  0  0  0  0  0  0  0  0  0  0
  152.1306  143.8520  159.6299 C   0  0  0  0  0  0  0  0  0  0  0  0
  152.5865  143.2125  160.7293 N   0  0  0  0  0  0  0  0  0  0  0  0
  152.7628  141.8770  160.6599 C   0  0  0  0  0  0  0  0  0  0  0  0
  152.4911  141.1187  159.5051 C   0  0  0  0  0  0  0  0  0  0  0  0
  151.9981  141.7838  158.3574 C   0  0  0  0  0  0  0  0  0  0  0  0
  151.7112  141.1200  157.1339 N   0  0  0  0  0  0  0  0  0  0  0  0
  152.1452  139.9222  156.6990 C   0  0  0  0  0  0  0  0  0  0  0  0
  152.9320  139.2037  157.3150 O   0  0  0  0  0  0  0  0  0  0  0  0
  151.6059  139.4557  155.3337 C   0  0  1  0  0  0  0  0  0  0  0  0
  150.7486  138.1755  155.4158 C   0  0  0  0  0  0  0  0  0  0  0  0
  149.3890  138.5967  154.8821 C   0  0  0  0  0  0  0  0  0  0  0  0
  149.3944  140.1069  155.0884 C   0  0  2  0  0  0  0  0  0  0  0  0
  148.4195  140.8721  154.1879 C   0  0  0  0  0  0  0  0  0  0  0  0
  150.7373  140.4454  154.7768 O   0  0  0  0  0  0  0  0  0  0  0  0
  151.8263  143.1863  158.4193 C   0  0  0  0  0  0  0  0  0  0  0  0
  151.2468  144.0683  157.0453 Cl  0  0  0  0  0  0  0  0  0  0  0  0
  150.9212  145.6348  159.5977 H   0  0  0  0  0  0  0  0  0  0  0  0
  152.5810  145.8729  159.0348 H   0  0  0  0  0  0  0  0  0  0  0  0
  152.2482  145.7019  160.7589 H   0  0  0  0  0  0  0  0  0  0  0  0
  153.1392  141.3973  161.5512 H   0  0  0  0  0  0  0  0  0  0  0  0
  152.6769  140.0559  159.5178 H   0  0  0  0  0  0  0  0  0  0  0  0
  151.0104  141.5631  156.5568 H   0  0  0  0  0  0  0  0  0  0  0  0
  152.4513  139.3151  154.6595 H   0  0  0  0  0  0  0  0  0  0  0  0
  151.1727  137.3630  154.8248 H   0  0  0  0  0  0  0  0  0  0  0  0
  150.6457  137.8119  156.4395 H   0  0  0  0  0  0  0  0  0  0  0  0
  149.3238  138.3614  153.8190 H   0  0  0  0  0  0  0  0  0  0  0  0
  148.5602  138.1022  155.3894 H   0  0  0  0  0  0  0  0  0  0  0  0
  149.2003  140.3430  156.1363 H   0  0  0  0  0  0  0  0  0  0  0  0
  147.3883  140.5866  154.3968 H   0  0  0  0  0  0  0  0  0  0  0  0
  148.6157  140.6747  153.1335 H   0  0  0  0  0  0  0  0  0  0  0  0
  148.5069  141.9470  154.3477 H   0  0  0  0  0  0  0  0  0  0  0  0
  1  2  1  0  0  0  0
  1 18  1  0  0  0  0
  1 19  1  0  0  0  0
  1 20  1  0  0  0  0
  2 16  1  0  0  0  0
  2  3  2  0  0  0  0
  3  4  1  0  0  0  0
  4  5  2  0  0  0  0
  4 21  1  0  0  0  0
  5  6  1  0  0  0  0
  5 22  1  0  0  0  0
  6  7  1  0  0  0  0
  6 16  2  0  0  0  0
  7  8  1  0  0  0  0
  7 23  1  0  0  0  0
  8  9  2  0  0  0  0
  8 10  1  0  0  0  0
 10 15  1  0  0  0  0
 10 11  1  0  0  0  0
 10 24  1  0  0  0  0
 11 12  1  0  0  0  0
 11 25  1  0  0  0  0
 11 26  1  0  0  0  0
 12 13  1  0  0  0  0
 12 27  1  0  0  0  0
 12 28  1  0  0  0  0
 13 14  1  0  0  0  0
 13 15  1  0  0  0  0
 13 29  1  0  0  0  0
 14 30  1  0  0  0  0
 14 31  1  0  0  0  0
 14 32  1  0  0  0  0
 16 17  1  0  0  0  0
M  END
> <s_m_source_file>
AV-unprocessed.smi

> <i_m_source_file_index>
2282

> <i_lp_mmshare_version>
43012

> <i_f3d_flags>
0

> <s_epik_input>
W0NIM11jMW5bY0hdW2NIXWMoYzFDbClbTkhdQyg9TylbQ0BASF0yW0NIMl1bQ0gyXVtDQEhdKE8yKVtDSDNd

> <s_epik_cmdline>
J2VwaWtfcHl0aG9uJywgJy1waCcsICc3LjAnLCAnLXRuJywgJzgnLCAnLW1hJywgJzIwMCcsICctbWV0YWxfYmluZGluZycsICctaW1hZScsICc8aW5maWxlLm1hZT4nLCAnLW9tYWUnLCAnPG91dGZpbGUubWFlPic=

> <r_epik_Ionization_Penalty>
0.00037231

> <r_epik_Ionization_Penalty_Charging>
0

> <r_epik_Ionization_Penalty_Neutral>
0.00037231

> <r_epik_State_Penalty>
0.000225113

> <r_epik_Charging_Adjusted_Penalty>
0.000225113

> <i_epik_Tot_Q>
0

> <i_epik_Tot_abs_Q>
0

> <r_epik_Metal_State_Penalty>
-0

> <b_epik_Metal_Only>
0

> <s_lp_Force_Field>
OPLS_2005

> <r_lp_Energy>
23.9576

> <b_lp_Chiralities_Consistent>
1

> <s_lp_Variant>
AV-unprocessed.smi:2282-4

> <Gold.Version>
5.8.1

> <Gold.Id.Protein>
6NUR|6NUR_protein|mol2

> <Gold.PLP.Fitness>
40.9954

> <Gold.PLP.PLP>
-35.2007

> <Gold.PLP.part.hbond>
-1.8171

> <Gold.PLP.part.metal>
0.0000

> <Gold.PLP.part.buried>
0.8029

> <Gold.PLP.part.nonpolar>
-33.7783

> <Gold.PLP.part.repulsive>
0.2456

> <Gold.PLP.ligand.clash>
0.0000

> <Gold.PLP.ligand.torsion>
0.1064

> <Gold.PLP.Chemscore.Hbond>
2.0000

> <Gold.PLP.Chemscore.CHOScore>
0.0000

> <Gold.PLP.Chemscore.Metal>
0.0000

> <Gold.Chemscore.Hbonds>
donor molecule, donor type, donor heavy atom, donor atom, acceptor molecule, acceptor atom, score
      P1  H  7989  7998       L1    15  0.95
      P1  H  7997  8010       L1     9  1.00

> <Gold.PLP.Chemscore.Internal.Correction>
0.0074

> <Gold.Rescore>
     Score         DG    S(hbond)    S(metal)    S(lipo)     H(rot)  DE(clash)    DE(int)     intcor
     17.28     -18.79       0.98        0.00     107.70       1.00       0.20       1.31       ----

> <Gold.Chemscore.Fitness>
17.2770

> <Gold.Chemscore.DG>
-18.7907

> <Gold.Chemscore.ZeroCoef>
-5.4800

> <Gold.Chemscore.Hbond>
0.9789

> <Gold.Chemscore.Metal>
0.0000

> <Gold.Chemscore.Lipo>
107.7039

> <Gold.Chemscore.Internal_Hbond>
0.0000

> <Gold.Chemscore.DEClash>
0.2047

> <Gold.Chemscore.DEInternal>
1.3090

> <Gold.Chemscore.Rot>
1.0000

> <Gold.Chemscore.Internal.Correction>
   9.000000E+99

> <Gold.Chemscore.Hbonds>
donor molecule, donor type, donor heavy atom, donor atom, acceptor molecule, acceptor atom, score
      P1  H  7989  7998       L1    15  0.21
      P1  H  7997  8010       L1     9  0.38

> <Gold.Chemscore.Hbond.Weighted>
-3.2694

> <Gold.Chemscore.Metal.Weighted>
-0.0000

> <Gold.Chemscore.Lipo.Weighted>
-12.6014

> <Gold.Chemscore.Internal_Hbond.Weighted>
0.0000

> <Gold.Chemscore.DEClash.Weighted>
0.2047

> <Gold.Chemscore.DEInternal.Weighted>
1.3090

> <Gold.Chemscore.Rot.Weighted>
2.5600

> <Gold.Chemscore.Internal.Correction.Weighted>
   9.000000E+99

> <Gold.Protein.RotatedTorsions>
[ 6907 6896 6895 6894 ] final -146.34 input  -60.11 | X-H torsion
[ 7974 7965 7964 7962 ] final    6.06 input  175.53 | X-H torsion
[ 8008 7997 7996 7995 ] final   33.25 input   59.86 | X-H torsion
[ 10167 10162 10161 10158 ] final   39.56 input  -65.29 | X-H torsion
[ 10718 10713 10712 10709 ] final   85.00 input   66.30 | X-H torsion
[ 10763 10752 10751 10750 ] final  160.05 input  -60.55 | X-H torsion
[ 11005 11000 10999 10996 ] final   68.46 input  -57.11 | X-H torsion

> <Gold.Protein.ActiveResidues>
 VAL166  LYS551  ARG553  GLY616  TRP617  ASP618  TYR619  PRO620  LYS621  CYS622 
 ASP623  PHE694  ASN695  SER759  ASP760  ASP761  ALA762  ILE779  LEU786  VAL792 
 PHE793  MET794  SER795  GLU796  ALA797  LYS798  CYS799  TRP800  GLU811  SER814 

> <Gold.Protein.RotatedAtoms>
  151.1403  133.4976  159.2596 H   0  0  0  0  0  0  0  0  0  0  0  0  # atno 6907 bound_to 6896
  151.1662  135.0296  159.8742 H   0  0  0  0  0  0  0  0  0  0  0  0  # atno 6908 bound_to 6896
  152.5462  134.1272  159.8477 H   0  0  0  0  0  0  0  0  0  0  0  0  # atno 6909 bound_to 6896
  146.2437  140.0290  142.8391 H   0  0  0  0  0  0  0  0  0  0  0  0  # atno 7974 bound_to 7965
  155.1355  140.3261  155.4464 H   0  0  0  0  0  0  0  0  0  0  0  0  # atno 8008 bound_to 7997
  156.2621  140.2003  156.6422 H   0  0  0  0  0  0  0  0  0  0  0  0  # atno 8009 bound_to 7997
  154.6581  140.0550  157.0018 H   0  0  0  0  0  0  0  0  0  0  0  0  # atno 8010 bound_to 7997
  140.3828  144.1957  150.6130 H   0  0  0  0  0  0  0  0  0  0  0  0  # atno 10167 bound_to 10162
  157.6907  131.0156  150.2757 H   0  0  0  0  0  0  0  0  0  0  0  0  # atno 10718 bound_to 10713
  154.2413  135.2774  155.2853 H   0  0  0  0  0  0  0  0  0  0  0  0  # atno 10763 bound_to 10752
  154.5542  135.5666  153.6953 H   0  0  0  0  0  0  0  0  0  0  0  0  # atno 10764 bound_to 10752
  152.9999  135.6282  154.2557 H   0  0  0  0  0  0  0  0  0  0  0  0  # atno 10765 bound_to 10752
  139.9710  134.6900  156.0447 H   0  0  0  0  0  0  0  0  0  0  0  0  # atno 11005 bound_to 11000
  145.1172  140.9440  143.4622 LP  0  0  0  0  0  0  0  0  0  0  0  0  # atno 17320 bound_to 7965
  145.0517  139.3176  143.5925 LP  0  0  0  0  0  0  0  0  0  0  0  0  # atno 17321 bound_to 7965
  140.4920  143.2344  151.8804 LP  0  0  0  0  0  0  0  0  0  0  0  0  # atno 17342 bound_to 10162
  139.4794  144.5155  151.8874 LP  0  0  0  0  0  0  0  0  0  0  0  0  # atno 17343 bound_to 10162
  156.3312  130.3800  149.7489 LP  0  0  0  0  0  0  0  0  0  0  0  0  # atno 17370 bound_to 10713
  156.5028  130.8136  151.3139 LP  0  0  0  0  0  0  0  0  0  0  0  0  # atno 17371 bound_to 10713
  141.1390  133.6569  156.3674 LP  0  0  0  0  0  0  0  0  0  0  0  0  # atno 17394 bound_to 11000
  140.5293  134.6228  157.5344 LP  0  0  0  0  0  0  0  0  0  0  0  0  # atno 17395 bound_to 11000

$$$$
