AV-unprocessed.smi:648|AV-procd|sdf|3176|dock4
  -GOLD-   22720 0103D 1   1.00000     0.00000
 Structure written by MMmdl.
 45 46  0  0  0  0  0  0  0  0  1 V2000
  153.6808  140.8722  160.2437 C   0  0  0  0  0  0  0  0  0  0  0  0
  152.8190  141.8211  159.3978 C   0  0  2  0  0  0  0  0  0  0  0  0
  152.7379  143.2173  160.0436 C   0  0  0  0  0  0  0  0  0  0  0  0
  151.9000  144.2315  159.2300 C   0  0  0  0  0  0  0  0  0  0  0  0
  151.6248  145.4610  160.1236 C   0  0  0  0  0  0  0  0  0  0  0  0
  152.6994  144.7515  158.0127 C   0  0  0  0  0  0  0  0  0  0  0  0
  150.5232  143.6103  158.8399 C   0  0  0  0  0  0  0  0  0  0  0  0
  150.5000  142.1449  158.2992 C   0  0  2  0  0  0  0  0  0  0  0  0
  150.9551  142.0951  156.8146 C   0  0  0  0  0  0  0  0  0  0  0  0
  149.9179  142.4647  155.9249 O   0  0  0  0  0  0  0  0  0  0  0  0
  149.1054  141.6471  158.2831 N   0  0  0  0  0  0  0  0  0  0  0  0
  148.8040  140.3155  157.7387 C   0  0  0  0  0  0  0  0  0  0  0  0
  147.4022  140.2855  157.1104 C   0  0  0  0  0  0  0  0  0  0  0  0
  147.3539  140.9844  155.8394 N   0  0  0  0  0  0  0  0  0  0  0  0
  146.6015  142.0117  155.4415 C   0  0  0  0  0  0  0  0  0  0  0  0
  146.8374  142.3966  154.1950 N   0  0  0  0  0  0  0  0  0  0  0  0
  147.8134  141.5005  153.8606 C   0  0  0  0  0  0  0  0  0  0  0  0
  148.1590  140.6311  154.8103 N   0  0  0  0  0  0  0  0  0  0  0  0
  151.4009  141.2548  159.2011 C   0  0  0  0  0  0  0  0  0  0  0  0
  153.2576  140.7301  161.2387 H   0  0  0  0  0  0  0  0  0  0  0  0
  154.6915  141.2629  160.3647 H   0  0  0  0  0  0  0  0  0  0  0  0
  153.7622  139.8921  159.7733 H   0  0  0  0  0  0  0  0  0  0  0  0
  153.3071  141.9028  158.4278 H   0  0  0  0  0  0  0  0  0  0  0  0
  152.3041  143.1081  161.0390 H   0  0  0  0  0  0  0  0  0  0  0  0
  153.7428  143.6120  160.2012 H   0  0  0  0  0  0  0  0  0  0  0  0
  151.0349  146.2109  159.5949 H   0  0  0  0  0  0  0  0  0  0  0  0
  152.5511  145.9390  160.4445 H   0  0  0  0  0  0  0  0  0  0  0  0
  151.0753  145.1916  161.0266 H   0  0  0  0  0  0  0  0  0  0  0  0
  152.0648  145.3166  157.3295 H   0  0  0  0  0  0  0  0  0  0  0  0
  153.1884  143.9645  157.4466 H   0  0  0  0  0  0  0  0  0  0  0  0
  153.5021  145.4184  158.3295 H   0  0  0  0  0  0  0  0  0  0  0  0
  149.9244  143.6416  159.7476 H   0  0  0  0  0  0  0  0  0  0  0  0
  150.0033  144.2692  158.1429 H   0  0  0  0  0  0  0  0  0  0  0  0
  151.8061  142.7577  156.6502 H   0  0  0  0  0  0  0  0  0  0  0  0
  151.2739  141.1062  156.5085 H   0  0  0  0  0  0  0  0  0  0  0  0
  149.7784  143.3965  155.9970 H   0  0  0  0  0  0  0  0  0  0  0  0
  148.5172  142.3374  157.8264 H   0  0  0  0  0  0  0  0  0  0  0  0
  149.5262  140.0284  156.9760 H   0  0  0  0  0  0  0  0  0  0  0  0
  148.8439  139.5554  158.5165 H   0  0  0  0  0  0  0  0  0  0  0  0
  147.0916  139.2531  156.9448 H   0  0  0  0  0  0  0  0  0  0  0  0
  146.6687  140.7286  157.7856 H   0  0  0  0  0  0  0  0  0  0  0  0
  145.8706  142.4896  156.0773 H   0  0  0  0  0  0  0  0  0  0  0  0
  148.2826  141.4876  152.8880 H   0  0  0  0  0  0  0  0  0  0  0  0
  151.4544  140.2401  158.8051 H   0  0  0  0  0  0  0  0  0  0  0  0
  150.9650  141.1584  160.1944 H   0  0  0  0  0  0  0  0  0  0  0  0
  1  2  1  0  0  0  0
  1 20  1  0  0  0  0
  1 21  1  0  0  0  0
  1 22  1  0  0  0  0
  2 19  1  0  0  0  0
  2  3  1  0  0  0  0
  2 23  1  0  0  0  0
  3  4  1  0  0  0  0
  3 24  1  0  0  0  0
  3 25  1  0  0  0  0
  4  5  1  0  0  0  0
  4  6  1  0  0  0  0
  4  7  1  0  0  0  0
  5 26  1  0  0  0  0
  5 27  1  0  0  0  0
  5 28  1  0  0  0  0
  6 29  1  0  0  0  0
  6 30  1  0  0  0  0
  6 31  1  0  0  0  0
  7  8  1  0  0  0  0
  7 32  1  0  0  0  0
  7 33  1  0  0  0  0
  8  9  1  0  0  0  0
  8 11  1  0  0  0  0
  8 19  1  0  0  0  0
  9 10  1  0  0  0  0
  9 34  1  0  0  0  0
  9 35  1  0  0  0  0
 10 36  1  0  0  0  0
 11 12  1  0  0  0  0
 11 37  1  0  0  0  0
 12 13  1  0  0  0  0
 12 38  1  0  0  0  0
 12 39  1  0  0  0  0
 13 14  1  0  0  0  0
 13 40  1  0  0  0  0
 13 41  1  0  0  0  0
 14 18  1  0  0  0  0
 14 15  1  0  0  0  0
 15 16  2  0  0  0  0
 15 42  1  0  0  0  0
 16 17  1  0  0  0  0
 17 18  2  0  0  0  0
 17 43  1  0  0  0  0
 19 44  1  0  0  0  0
 19 45  1  0  0  0  0
M  END
> <s_m_source_file>
AV-unprocessed.smi

> <i_m_source_file_index>
648

> <i_lp_mmshare_version>
43012

> <i_f3d_flags>
0

> <s_epik_input>
W0NIM11DMShbQ0gzXSlbQ0gyXVtDQEBIXShbQ0gzXSlbQ0gyXVtDQF0oW0NIMl0xKShbQ0gyXVtPSF0pW05IXVtDSDJdW0NIMl1uMltjSF1uW2NIXW4y

> <s_epik_cmdline>
J2VwaWtfcHl0aG9uJywgJy1waCcsICc3LjAnLCAnLXRuJywgJzgnLCAnLW1hJywgJzIwMCcsICctbWV0YWxfYmluZGluZycsICctaW1hZScsICc8aW5maWxlLm1hZT4nLCAnLW9tYWUnLCAnPG91dGZpbGUubWFlPic=

> <r_lp_tautomer_probability>
1

> <r_epik_Ionization_Penalty>
2.45849

> <r_epik_Ionization_Penalty_Charging>
0

> <r_epik_Ionization_Penalty_Neutral>
2.45849

> <r_epik_State_Penalty>
2.62037

> <r_epik_Charging_Adjusted_Penalty>
2.62037

> <i_epik_Tot_Q>
0

> <i_epik_Tot_abs_Q>
0

> <r_epik_Metal_State_Penalty>
2.62024

> <b_epik_Metal_Only>
0

> <s_lp_Force_Field>
OPLS_2005

> <r_lp_Energy>
36.1132

> <b_lp_Chiralities_Consistent>
1

> <s_lp_Variant>
AV-unprocessed.smi:648-7

> <Gold.Version>
5.8.1

> <Gold.Id.Protein>
6NUR|6NUR_protein|mol2

> <Gold.PLP.Fitness>
46.2649

> <Gold.PLP.PLP>
-41.3610

> <Gold.PLP.part.hbond>
-1.0000

> <Gold.PLP.part.metal>
0.0000

> <Gold.PLP.part.buried>
-7.5711

> <Gold.PLP.part.nonpolar>
-34.3672

> <Gold.PLP.part.repulsive>
0.2689

> <Gold.PLP.ligand.clash>
0.0000

> <Gold.PLP.ligand.torsion>
0.5738

> <Gold.PLP.Chemscore.Hbond>
1.0000

> <Gold.PLP.Chemscore.CHOScore>
1.0000

> <Gold.PLP.Chemscore.Metal>
0.0000

> <Gold.Chemscore.Hbonds>
donor molecule, donor type, donor heavy atom, donor atom, acceptor molecule, acceptor atom, score
      L1  H    10    36       P1  8028  1.00
      L1  C    17    43       P1  7957  0.83

> <Gold.PLP.Chemscore.Internal.Correction>
0.0516

> <Gold.Rescore>
     Score         DG    S(hbond)    S(metal)    S(lipo)     H(rot)  DE(clash)    DE(int)     intcor
     12.28     -12.65       0.87        0.00     104.79       3.12       0.07       0.30       ----

> <Gold.Chemscore.Fitness>
12.2780

> <Gold.Chemscore.DG>
-12.6473

> <Gold.Chemscore.ZeroCoef>
-5.4800

> <Gold.Chemscore.Hbond>
0.8650

> <Gold.Chemscore.Metal>
0.0000

> <Gold.Chemscore.Lipo>
104.7941

> <Gold.Chemscore.Internal_Hbond>
0.0000

> <Gold.Chemscore.DEClash>
0.0742

> <Gold.Chemscore.DEInternal>
0.2950

> <Gold.Chemscore.Rot>
3.1183

> <Gold.Chemscore.Internal.Correction>
   9.000000E+99

> <Gold.Chemscore.Hbonds>
donor molecule, donor type, donor heavy atom, donor atom, acceptor molecule, acceptor atom, score
      L1  H    10    36       P1  8028  0.94

> <Gold.Chemscore.Hbond.Weighted>
-2.8893

> <Gold.Chemscore.Metal.Weighted>
-0.0000

> <Gold.Chemscore.Lipo.Weighted>
-12.2609

> <Gold.Chemscore.Internal_Hbond.Weighted>
0.0000

> <Gold.Chemscore.DEClash.Weighted>
0.0742

> <Gold.Chemscore.DEInternal.Weighted>
0.2950

> <Gold.Chemscore.Rot.Weighted>
7.9829

> <Gold.Chemscore.Internal.Correction.Weighted>
   9.000000E+99

> <Gold.Protein.RotatedTorsions>
[ 6907 6896 6895 6894 ] final  -72.21 input  -60.11 | X-H torsion
[ 7974 7965 7964 7962 ] final   -1.61 input  175.53 | X-H torsion
[ 8008 7997 7996 7995 ] final  157.14 input   59.86 | X-H torsion
[ 10167 10162 10161 10158 ] final -101.01 input  -65.29 | X-H torsion
[ 10718 10713 10712 10709 ] final  123.64 input   66.30 | X-H torsion
[ 10763 10752 10751 10750 ] final  138.50 input  -60.55 | X-H torsion
[ 11005 11000 10999 10996 ] final -146.46 input  -57.11 | X-H torsion

> <Gold.Protein.ActiveResidues>
 VAL166  LYS551  ARG553  GLY616  TRP617  ASP618  TYR619  PRO620  LYS621  CYS622 
 ASP623  PHE694  ASN695  SER759  ASP760  ASP761  ALA762  ILE779  LEU786  VAL792 
 PHE793  MET794  SER795  GLU796  ALA797  LYS798  CYS799  TRP800  GLU811  SER814 

> <Gold.Protein.RotatedAtoms>
  150.7179  134.5196  159.5646 H   0  0  0  0  0  0  0  0  0  0  0  0  # atno 6907 bound_to 6896
  152.2754  134.7884  160.0415 H   0  0  0  0  0  0  0  0  0  0  0  0  # atno 6908 bound_to 6896
  151.8549  133.3411  159.3722 H   0  0  0  0  0  0  0  0  0  0  0  0  # atno 6909 bound_to 6896
  146.2415  140.1447  142.8335 H   0  0  0  0  0  0  0  0  0  0  0  0  # atno 7974 bound_to 7965
  156.2381  140.1893  156.7063 H   0  0  0  0  0  0  0  0  0  0  0  0  # atno 8008 bound_to 7997
  154.6145  140.0617  156.9563 H   0  0  0  0  0  0  0  0  0  0  0  0  # atno 8009 bound_to 7997
  155.1962  140.3288  155.4353 H   0  0  0  0  0  0  0  0  0  0  0  0  # atno 8010 bound_to 7997
  140.2458  143.3507  152.0760 H   0  0  0  0  0  0  0  0  0  0  0  0  # atno 10167 bound_to 10162
  157.5649  131.1087  150.8473 H   0  0  0  0  0  0  0  0  0  0  0  0  # atno 10718 bound_to 10713
  153.8907  135.3033  155.3447 H   0  0  0  0  0  0  0  0  0  0  0  0  # atno 10763 bound_to 10752
  154.7718  135.4882  153.9666 H   0  0  0  0  0  0  0  0  0  0  0  0  # atno 10764 bound_to 10752
  153.1299  135.6801  153.9293 H   0  0  0  0  0  0  0  0  0  0  0  0  # atno 10765 bound_to 10752
  140.7817  134.3071  157.5043 H   0  0  0  0  0  0  0  0  0  0  0  0  # atno 11005 bound_to 11000
  145.0217  140.8799  143.5162 LP  0  0  0  0  0  0  0  0  0  0  0  0  # atno 17320 bound_to 7965
  145.1496  139.2522  143.5447 LP  0  0  0  0  0  0  0  0  0  0  0  0  # atno 17321 bound_to 7965
  139.5062  144.6809  151.6010 LP  0  0  0  0  0  0  0  0  0  0  0  0  # atno 17342 bound_to 10162
  140.6079  143.9491  150.6431 LP  0  0  0  0  0  0  0  0  0  0  0  0  # atno 17343 bound_to 10162
  156.8960  130.5230  149.5284 LP  0  0  0  0  0  0  0  0  0  0  0  0  # atno 17370 bound_to 10713
  156.0698  130.5733  150.9360 LP  0  0  0  0  0  0  0  0  0  0  0  0  # atno 17371 bound_to 10713
  139.8742  134.9322  156.3549 LP  0  0  0  0  0  0  0  0  0  0  0  0  # atno 17394 bound_to 11000
  140.9476  133.7472  156.0229 LP  0  0  0  0  0  0  0  0  0  0  0  0  # atno 17395 bound_to 11000

$$$$
