AV-unprocessed.smi:1244|AV-procd|sdf|5227|dock3
  -GOLD-   22720 4323D 1   1.00000     0.00000
 Structure written by MMmdl.
 55 57  0  0  0  0  0  0  0  0  2 V2000
  146.1339  138.6205  152.4237 C   0  0  0  0  0  0  0  0  0  0  0  0
  146.8946  139.2335  153.6048 C   0  0  1  0  0  0  0  0  0  0  0  0
  148.4017  138.9282  153.5407 C   0  0  0  0  0  0  0  0  0  0  0  0
  149.1182  139.6072  154.6450 N   0  3  1  0  0  0  0  0  0  0  0  0
  150.5601  139.2575  154.6802 C   0  0  0  0  0  0  0  0  0  0  0  0
  151.0114  138.7551  156.0650 C   0  0  0  0  0  0  0  0  0  0  0  0
  151.5444  139.8416  156.8782 N   0  0  0  0  0  0  0  0  0  0  0  0
  152.1272  139.6852  158.0751 C   0  0  0  0  0  0  0  0  0  0  0  0
  152.2811  138.5902  158.6166 O   0  0  0  0  0  0  0  0  0  0  0  0
  152.5333  140.8622  158.5789 N   0  0  0  0  0  0  0  0  0  0  0  0
  153.2223  141.0951  159.8022 C   0  0  0  0  0  0  0  0  0  0  0  0
  154.1274  140.1425  160.3306 C   0  0  0  0  0  0  0  0  0  0  0  0
  154.7306  140.3812  161.5771 C   0  0  0  0  0  0  0  0  0  0  0  0
  154.3943  141.5602  162.2628 C   0  0  0  0  0  0  0  0  0  0  0  0
  153.5250  142.4704  161.7800 N   0  0  0  0  0  0  0  0  0  0  0  0
  152.9463  142.2618  160.5715 C   0  0  0  0  0  0  0  0  0  0  0  0
  152.0591  143.2600  160.1067 N   0  0  0  0  0  0  0  0  0  0  0  0
  151.5757  144.2990  161.0103 C   0  0  0  0  0  0  0  0  0  0  0  0
  150.9999  145.3793  160.0993 C   0  0  0  0  0  0  0  0  0  0  0  0
  151.9398  145.3284  158.8988 C   0  0  0  0  0  0  0  0  0  0  0  0
  152.3162  143.8467  158.7944 C   0  0  0  0  0  0  0  0  0  0  0  0
  148.8607  141.0681  154.6043 C   0  0  0  0  0  0  0  0  0  0  0  0
  147.3486  141.3683  154.6117 C   0  0  2  0  0  0  0  0  0  0  0  0
  146.6840  141.1452  155.9821 C   0  0  0  0  0  0  0  0  0  0  0  0
  146.6954  140.6441  153.5693 O   0  0  0  0  0  0  0  0  0  0  0  0
  146.2404  137.5356  152.4077 H   0  0  0  0  0  0  0  0  0  0  0  0
  146.5023  139.0072  151.4730 H   0  0  0  0  0  0  0  0  0  0  0  0
  145.0694  138.8480  152.4850 H   0  0  0  0  0  0  0  0  0  0  0  0
  146.4758  138.8241  154.5245 H   0  0  0  0  0  0  0  0  0  0  0  0
  148.5565  137.8506  153.6082 H   0  0  0  0  0  0  0  0  0  0  0  0
  148.8159  139.2520  152.5843 H   0  0  0  0  0  0  0  0  0  0  0  0
  150.7454  138.4685  153.9499 H   0  0  0  0  0  0  0  0  0  0  0  0
  151.1578  140.1143  154.3651 H   0  0  0  0  0  0  0  0  0  0  0  0
  150.1754  138.3225  156.6133 H   0  0  0  0  0  0  0  0  0  0  0  0
  151.7580  137.9657  155.9615 H   0  0  0  0  0  0  0  0  0  0  0  0
  151.4609  140.7769  156.5064 H   0  0  0  0  0  0  0  0  0  0  0  0
  152.4340  141.6676  157.9782 H   0  0  0  0  0  0  0  0  0  0  0  0
  154.3498  139.2228  159.8111 H   0  0  0  0  0  0  0  0  0  0  0  0
  155.4237  139.6709  162.0028 H   0  0  0  0  0  0  0  0  0  0  0  0
  154.8295  141.7761  163.2272 H   0  0  0  0  0  0  0  0  0  0  0  0
  150.8268  143.9085  161.7000 H   0  0  0  0  0  0  0  0  0  0  0  0
  152.3957  144.7186  161.5948 H   0  0  0  0  0  0  0  0  0  0  0  0
  149.9881  145.1105  159.7923 H   0  0  0  0  0  0  0  0  0  0  0  0
  150.9635  146.3602  160.5735 H   0  0  0  0  0  0  0  0  0  0  0  0
  151.4869  145.7161  157.9860 H   0  0  0  0  0  0  0  0  0  0  0  0
  152.8323  145.9197  159.1085 H   0  0  0  0  0  0  0  0  0  0  0  0
  153.3543  143.7210  158.4831 H   0  0  0  0  0  0  0  0  0  0  0  0
  151.6801  143.3539  158.0588 H   0  0  0  0  0  0  0  0  0  0  0  0
  149.3339  141.5705  155.4474 H   0  0  0  0  0  0  0  0  0  0  0  0
  149.3098  141.4823  153.7002 H   0  0  0  0  0  0  0  0  0  0  0  0
  147.2203  142.4237  154.3695 H   0  0  0  0  0  0  0  0  0  0  0  0
  147.1109  141.8124  156.7312 H   0  0  0  0  0  0  0  0  0  0  0  0
  146.8139  140.1261  156.3455 H   0  0  0  0  0  0  0  0  0  0  0  0
  145.6143  141.3495  155.9323 H   0  0  0  0  0  0  0  0  0  0  0  0
  148.7149  139.2561  155.5021 H   0  0  0  0  0  0  0  0  0  0  0  0
  1  2  1  0  0  0  0
  1 26  1  0  0  0  0
  1 27  1  0  0  0  0
  1 28  1  0  0  0  0
  2 25  1  0  0  0  0
  2  3  1  0  0  0  0
  2 29  1  0  0  0  0
  3  4  1  0  0  0  0
  3 30  1  0  0  0  0
  3 31  1  0  0  0  0
  4  5  1  0  0  0  0
  4 22  1  0  0  0  0
  4 55  1  0  0  0  0
  5  6  1  0  0  0  0
  5 32  1  0  0  0  0
  5 33  1  0  0  0  0
  6  7  1  0  0  0  0
  6 34  1  0  0  0  0
  6 35  1  0  0  0  0
  7  8  1  0  0  0  0
  7 36  1  0  0  0  0
  8  9  2  0  0  0  0
  8 10  1  0  0  0  0
 10 11  1  0  0  0  0
 10 37  1  0  0  0  0
 11 16  1  0  0  0  0
 11 12  2  0  0  0  0
 12 13  1  0  0  0  0
 12 38  1  0  0  0  0
 13 14  2  0  0  0  0
 13 39  1  0  0  0  0
 14 15  1  0  0  0  0
 14 40  1  0  0  0  0
 15 16  2  0  0  0  0
 16 17  1  0  0  0  0
 17 21  1  0  0  0  0
 17 18  1  0  0  0  0
 18 19  1  0  0  0  0
 18 41  1  0  0  0  0
 18 42  1  0  0  0  0
 19 20  1  0  0  0  0
 19 43  1  0  0  0  0
 19 44  1  0  0  0  0
 20 21  1  0  0  0  0
 20 45  1  0  0  0  0
 20 46  1  0  0  0  0
 21 47  1  0  0  0  0
 21 48  1  0  0  0  0
 22 23  1  0  0  0  0
 22 49  1  0  0  0  0
 22 50  1  0  0  0  0
 23 24  1  0  0  0  0
 23 25  1  0  0  0  0
 23 51  1  0  0  0  0
 24 52  1  0  0  0  0
 24 53  1  0  0  0  0
 24 54  1  0  0  0  0
M  CHG  1   4   1
M  END
> <s_m_source_file>
AV-unprocessed.smi

> <i_m_source_file_index>
1244

> <i_lp_mmshare_version>
43012

> <i_f3d_flags>
0

> <s_epik_input>
W0NIM11bQ0BASF0xW0NIMl1OKFtDSDJdW0NASF0oTzEpW0NIM10pW0NIMl1bQ0gyXVtOSF1DKD1PKVtOSF1jMltjSF1bY0hdW2NIXW5jMk4zW0NIMl1bQ0gyXVtDSDJdW0NIMl0z

> <s_epik_cmdline>
J2VwaWtfcHl0aG9uJywgJy1waCcsICc3LjAnLCAnLXRuJywgJzgnLCAnLW1hJywgJzIwMCcsICctbWV0YWxfYmluZGluZycsICctaW1hZScsICc8aW5maWxlLm1hZT4nLCAnLW9tYWUnLCAnPG91dGZpbGUubWFlPic=

> <r_lp_tautomer_probability>
1

> <r_epik_Ionization_Penalty>
0.684913

> <r_epik_Ionization_Penalty_Charging>
0.602531

> <r_epik_Ionization_Penalty_Neutral>
0.0823829

> <r_epik_State_Penalty>
0.678827

> <r_epik_Charging_Adjusted_Penalty>
1.28136

> <i_epik_Tot_Q>
1

> <i_epik_Tot_abs_Q>
1

> <r_epik_Metal_State_Penalty>
0.67806

> <b_epik_Metal_Only>
0

> <s_lp_Force_Field>
OPLS_2005

> <r_lp_Energy>
45.4089

> <b_lp_Chiralities_Consistent>
1

> <s_lp_Variant>
AV-unprocessed.smi:1244-7

> <Gold.Version>
5.8.1

> <Gold.Id.Protein>
6NUR|6NUR_protein|mol2

> <Gold.PLP.Fitness>
46.4165

> <Gold.PLP.PLP>
-48.7710

> <Gold.PLP.part.hbond>
-0.0946

> <Gold.PLP.part.metal>
0.0000

> <Gold.PLP.part.buried>
-0.1440

> <Gold.PLP.part.nonpolar>
-49.5955

> <Gold.PLP.part.repulsive>
0.5246

> <Gold.PLP.ligand.clash>
0.0000

> <Gold.PLP.ligand.torsion>
1.3419

> <Gold.PLP.Chemscore.Hbond>
0.0000

> <Gold.PLP.Chemscore.CHOScore>
0.0000

> <Gold.PLP.Chemscore.Metal>
0.0000

> <Gold.PLP.Chemscore.Internal.Correction>
0.3294

> <Gold.Rescore>
     Score         DG    S(hbond)    S(metal)    S(lipo)     H(rot)  DE(clash)    DE(int)     intcor
     13.66     -16.49       0.00        0.00     129.04       1.60       0.27       2.57       ----

> <Gold.Chemscore.Fitness>
13.6564

> <Gold.Chemscore.DG>
-16.4873

> <Gold.Chemscore.ZeroCoef>
-5.4800

> <Gold.Chemscore.Hbond>
0.0000

> <Gold.Chemscore.Metal>
0.0000

> <Gold.Chemscore.Lipo>
129.0411

> <Gold.Chemscore.Internal_Hbond>
0.0000

> <Gold.Chemscore.DEClash>
0.2654

> <Gold.Chemscore.DEInternal>
2.5655

> <Gold.Chemscore.Rot>
1.5978

> <Gold.Chemscore.Internal.Correction>
   9.000000E+99

> <Gold.Chemscore.Hbond.Weighted>
-0.0000

> <Gold.Chemscore.Metal.Weighted>
-0.0000

> <Gold.Chemscore.Lipo.Weighted>
-15.0978

> <Gold.Chemscore.Internal_Hbond.Weighted>
0.0000

> <Gold.Chemscore.DEClash.Weighted>
0.2654

> <Gold.Chemscore.DEInternal.Weighted>
2.5655

> <Gold.Chemscore.Rot.Weighted>
4.0905

> <Gold.Chemscore.Internal.Correction.Weighted>
   9.000000E+99

> <Gold.Protein.RotatedTorsions>
[ 6907 6896 6895 6894 ] final   17.91 input  -60.11 | X-H torsion
[ 7974 7965 7964 7962 ] final  -31.05 input  175.53 | X-H torsion
[ 8008 7997 7996 7995 ] final   38.27 input   59.86 | X-H torsion
[ 10167 10162 10161 10158 ] final -178.62 input  -65.29 | X-H torsion
[ 10718 10713 10712 10709 ] final  -83.65 input   66.30 | X-H torsion
[ 10763 10752 10751 10750 ] final   73.08 input  -60.55 | X-H torsion
[ 11005 11000 10999 10996 ] final  118.34 input  -57.11 | X-H torsion

> <Gold.Protein.ActiveResidues>
 VAL166  LYS551  ARG553  GLY616  TRP617  ASP618  TYR619  PRO620  LYS621  CYS622 
 ASP623  PHE694  ASN695  SER759  ASP760  ASP761  ALA762  ILE779  LEU786  VAL792 
 PHE793  MET794  SER795  GLU796  ALA797  LYS798  CYS799  TRP800  GLU811  SER814 

> <Gold.Protein.RotatedAtoms>
  151.8571  135.0537  160.0465 H   0  0  0  0  0  0  0  0  0  0  0  0  # atno 6907 bound_to 6896
  152.2692  133.5362  159.5437 H   0  0  0  0  0  0  0  0  0  0  0  0  # atno 6908 bound_to 6896
  150.7145  134.0638  159.3883 H   0  0  0  0  0  0  0  0  0  0  0  0  # atno 6909 bound_to 6896
  146.1097  140.5618  142.8783 H   0  0  0  0  0  0  0  0  0  0  0  0  # atno 7974 bound_to 7965
  155.2175  140.3328  155.4320 H   0  0  0  0  0  0  0  0  0  0  0  0  # atno 8008 bound_to 7997
  156.2346  140.1866  156.7200 H   0  0  0  0  0  0  0  0  0  0  0  0  # atno 8009 bound_to 7997
  154.6037  140.0619  156.9388 H   0  0  0  0  0  0  0  0  0  0  0  0  # atno 8010 bound_to 7997
  139.5424  144.2327  152.0921 H   0  0  0  0  0  0  0  0  0  0  0  0  # atno 10167 bound_to 10162
  156.0016  130.4672  150.4289 H   0  0  0  0  0  0  0  0  0  0  0  0  # atno 10718 bound_to 10713
  153.0499  135.5076  154.7841 H   0  0  0  0  0  0  0  0  0  0  0  0  # atno 10763 bound_to 10752
  154.6711  135.2953  154.9743 H   0  0  0  0  0  0  0  0  0  0  0  0  # atno 10764 bound_to 10752
  154.0561  135.6697  153.4858 H   0  0  0  0  0  0  0  0  0  0  0  0  # atno 10765 bound_to 10752
  139.9106  134.9619  156.7488 H   0  0  0  0  0  0  0  0  0  0  0  0  # atno 11005 bound_to 11000
  144.7501  140.5168  143.6808 LP  0  0  0  0  0  0  0  0  0  0  0  0  # atno 17320 bound_to 7965
  145.5689  139.1482  143.3299 LP  0  0  0  0  0  0  0  0  0  0  0  0  # atno 17321 bound_to 7965
  140.1808  144.4846  150.6529 LP  0  0  0  0  0  0  0  0  0  0  0  0  # atno 17342 bound_to 10162
  140.6659  143.2268  151.5744 LP  0  0  0  0  0  0  0  0  0  0  0  0  # atno 17343 bound_to 10162
  157.2339  131.0510  151.2476 LP  0  0  0  0  0  0  0  0  0  0  0  0  # atno 17370 bound_to 10713
  157.3684  130.7168  149.6548 LP  0  0  0  0  0  0  0  0  0  0  0  0  # atno 17371 bound_to 10713
  140.6790  133.9491  155.7900 LP  0  0  0  0  0  0  0  0  0  0  0  0  # atno 17394 bound_to 11000
  141.0523  134.0466  157.3767 LP  0  0  0  0  0  0  0  0  0  0  0  0  # atno 17395 bound_to 11000

$$$$
