AV-unprocessed.smi:743|AV-procd|sdf|3565|dock4
  -GOLD-   22720 0563D 1   1.00000     0.00000
 Structure written by MMmdl.
 28 29  0  0  0  0  0  0  0  0  1 V2000
  151.4270  138.3823  154.5691 C   0  0  0  0  0  0  0  0  0  0  0  0
  151.1936  139.5359  155.4113 N   0  0  0  0  0  0  0  0  0  0  0  0
  151.4683  139.6892  156.7526 C   0  0  0  0  0  0  0  0  0  0  0  0
  151.0692  140.9463  157.1164 C   0  0  0  0  0  0  0  0  0  0  0  0
  151.1453  141.6239  158.4648 C   0  0  1  0  0  0  0  0  0  0  0  0
  152.4266  141.3357  159.1177 N   0  0  0  0  0  0  0  0  0  0  0  0
  153.1707  142.1781  159.8567 C   0  0  0  0  0  0  0  0  0  0  0  0
  154.2105  141.8089  160.3974 O   0  0  0  0  0  0  0  0  0  0  0  0
  152.7244  143.6402  159.9995 C   0  0  0  0  0  0  0  0  0  0  0  0
  151.2450  143.8595  159.6510 C   0  0  0  0  0  0  0  0  0  0  0  0
  150.8895  143.1452  158.3422 C   0  0  2  0  0  0  0  0  0  0  0  0
  149.5052  143.4156  157.9976 N   0  0  0  0  0  0  0  0  0  0  0  0
  150.5585  141.4878  155.9011 C   0  0  0  0  0  0  0  0  0  0  0  0
  150.6310  140.6427  154.8860 N   0  0  0  0  0  0  0  0  0  0  0  0
  151.5155  143.5524  157.5468 H   0  0  0  0  0  0  0  0  0  0  0  0
  152.1847  137.7401  155.0193 H   0  0  0  0  0  0  0  0  0  0  0  0
  151.7737  138.6996  153.5849 H   0  0  0  0  0  0  0  0  0  0  0  0
  150.5013  137.8171  154.4585 H   0  0  0  0  0  0  0  0  0  0  0  0
  151.9214  138.8988  157.3330 H   0  0  0  0  0  0  0  0  0  0  0  0
  150.3875  141.2029  159.1276 H   0  0  0  0  0  0  0  0  0  0  0  0
  152.7631  140.3877  159.0295 H   0  0  0  0  0  0  0  0  0  0  0  0
  152.9243  143.9855  161.0144 H   0  0  0  0  0  0  0  0  0  0  0  0
  153.3473  144.2414  159.3364 H   0  0  0  0  0  0  0  0  0  0  0  0
  150.6173  143.4910  160.4641 H   0  0  0  0  0  0  0  0  0  0  0  0
  151.0476  144.9288  159.5661 H   0  0  0  0  0  0  0  0  0  0  0  0
  149.4401  143.6618  157.0203 H   0  0  0  0  0  0  0  0  0  0  0  0
  148.9560  142.5767  158.1184 H   0  0  0  0  0  0  0  0  0  0  0  0
  150.1371  142.4673  155.7295 H   0  0  0  0  0  0  0  0  0  0  0  0
  1  2  1  0  0  0  0
  1 16  1  0  0  0  0
  1 17  1  0  0  0  0
  1 18  1  0  0  0  0
  2 14  1  0  0  0  0
  2  3  1  0  0  0  0
  3  4  2  0  0  0  0
  3 19  1  0  0  0  0
  4  5  1  0  0  0  0
  4 13  1  0  0  0  0
  5 11  1  0  0  0  0
  5  6  1  0  0  0  0
  5 20  1  0  0  0  0
  6  7  1  0  0  0  0
  6 21  1  0  0  0  0
  7  8  2  0  0  0  0
  7  9  1  0  0  0  0
  9 10  1  0  0  0  0
  9 22  1  0  0  0  0
  9 23  1  0  0  0  0
 10 11  1  0  0  0  0
 10 24  1  0  0  0  0
 10 25  1  0  0  0  0
 11 15  1  0  0  0  0
 11 12  1  0  0  0  0
 12 26  1  0  0  0  0
 12 27  1  0  0  0  0
 13 14  2  0  0  0  0
 13 28  1  0  0  0  0
M  END
> <s_m_source_file>
AV-unprocessed.smi

> <i_m_source_file_index>
743

> <i_lp_mmshare_version>
43012

> <i_f3d_flags>
0

> <s_epik_input>
W0NIM11uMVtjSF1jKFtjSF1uMSlbQ0BASF0yW05IXUMoPU8pW0NIMl1bQ0gyXVtDQEBIXTJbTkgyXQ==

> <s_epik_cmdline>
J2VwaWtfcHl0aG9uJywgJy1waCcsICc3LjAnLCAnLXRuJywgJzgnLCAnLW1hJywgJzIwMCcsICctbWV0YWxfYmluZGluZycsICctaW1hZScsICc8aW5maWxlLm1hZT4nLCAnLW9tYWUnLCAnPG91dGZpbGUubWFlPic=

> <r_lp_tautomer_probability>
1

> <r_epik_Ionization_Penalty>
2.50279

> <r_epik_Ionization_Penalty_Charging>
0

> <r_epik_Ionization_Penalty_Neutral>
2.50279

> <r_epik_State_Penalty>
2.66754

> <r_epik_Charging_Adjusted_Penalty>
2.66754

> <i_epik_Tot_Q>
0

> <i_epik_Tot_abs_Q>
0

> <r_epik_Metal_State_Penalty>
2.66721

> <b_epik_Metal_Only>
0

> <s_lp_Force_Field>
OPLS_2005

> <r_lp_Energy>
8.34042

> <b_lp_Chiralities_Consistent>
1

> <s_lp_Variant>
AV-unprocessed.smi:743-6

> <Gold.Version>
5.8.1

> <Gold.Id.Protein>
6NUR|6NUR_protein|mol2

> <Gold.PLP.Fitness>
38.1279

> <Gold.PLP.PLP>
-30.1686

> <Gold.PLP.part.hbond>
-3.0000

> <Gold.PLP.part.metal>
0.0000

> <Gold.PLP.part.buried>
-3.8672

> <Gold.PLP.part.nonpolar>
-23.7016

> <Gold.PLP.part.repulsive>
0.2053

> <Gold.PLP.ligand.clash>
0.0000

> <Gold.PLP.ligand.torsion>
0.4014

> <Gold.PLP.Chemscore.Hbond>
1.9120

> <Gold.PLP.Chemscore.CHOScore>
1.0000

> <Gold.PLP.Chemscore.Metal>
0.0000

> <Gold.Chemscore.Hbonds>
donor molecule, donor type, donor heavy atom, donor atom, acceptor molecule, acceptor atom, score
      L1  H    12    26       P1  8028  1.00
      P1  H  7989  7998       L1    14  0.94
      L1  C    13    28       P1  8028  0.89

> <Gold.PLP.Chemscore.Internal.Correction>
0.0260

> <Gold.Rescore>
     Score         DG    S(hbond)    S(metal)    S(lipo)     H(rot)  DE(clash)    DE(int)     intcor
     14.92     -15.72       1.61        0.00      63.47       1.00       0.07       0.73       ----

> <Gold.Chemscore.Fitness>
14.9225

> <Gold.Chemscore.DG>
-15.7195

> <Gold.Chemscore.ZeroCoef>
-5.4800

> <Gold.Chemscore.Hbond>
1.6089

> <Gold.Chemscore.Metal>
0.0000

> <Gold.Chemscore.Lipo>
63.4687

> <Gold.Chemscore.Internal_Hbond>
0.0000

> <Gold.Chemscore.DEClash>
0.0659

> <Gold.Chemscore.DEInternal>
0.7311

> <Gold.Chemscore.Rot>
1.0000

> <Gold.Chemscore.Internal.Correction>
   9.000000E+99

> <Gold.Chemscore.Hbonds>
donor molecule, donor type, donor heavy atom, donor atom, acceptor molecule, acceptor atom, score
      L1  H    12    26       P1  8028  0.82
      P1  H  7989  7998       L1    14  0.27

> <Gold.Chemscore.Hbond.Weighted>
-5.3737

> <Gold.Chemscore.Metal.Weighted>
-0.0000

> <Gold.Chemscore.Lipo.Weighted>
-7.4258

> <Gold.Chemscore.Internal_Hbond.Weighted>
0.0000

> <Gold.Chemscore.DEClash.Weighted>
0.0659

> <Gold.Chemscore.DEInternal.Weighted>
0.7311

> <Gold.Chemscore.Rot.Weighted>
2.5600

> <Gold.Chemscore.Internal.Correction.Weighted>
   9.000000E+99

> <Gold.Protein.RotatedTorsions>
[ 6907 6896 6895 6894 ] final  -16.72 input  -60.11 | X-H torsion
[ 7974 7965 7964 7962 ] final -115.23 input  175.53 | X-H torsion
[ 8008 7997 7996 7995 ] final   74.90 input   59.86 | X-H torsion
[ 10167 10162 10161 10158 ] final -133.67 input  -65.29 | X-H torsion
[ 10718 10713 10712 10709 ] final -130.11 input   66.30 | X-H torsion
[ 10763 10752 10751 10750 ] final  -46.49 input  -60.55 | X-H torsion
[ 11005 11000 10999 10996 ] final  -64.09 input  -57.11 | X-H torsion

> <Gold.Protein.ActiveResidues>
 VAL166  LYS551  ARG553  GLY616  TRP617  ASP618  TYR619  PRO620  LYS621  CYS622 
 ASP623  PHE694  ASN695  SER759  ASP760  ASP761  ALA762  ILE779  LEU786  VAL792 
 PHE793  MET794  SER795  GLU796  ALA797  LYS798  CYS799  TRP800  GLU811  SER814 

> <Gold.Protein.RotatedAtoms>
  151.3043  135.0777  159.9249 H   0  0  0  0  0  0  0  0  0  0  0  0  # atno 6907 bound_to 6896
  152.5291  133.9801  159.7813 H   0  0  0  0  0  0  0  0  0  0  0  0  # atno 6908 bound_to 6896
  151.0093  133.5929  159.2715 H   0  0  0  0  0  0  0  0  0  0  0  0  # atno 6909 bound_to 6896
  145.1108  140.8610  143.3871 H   0  0  0  0  0  0  0  0  0  0  0  0  # atno 7974 bound_to 7965
  155.8052  140.3475  155.5425 H   0  0  0  0  0  0  0  0  0  0  0  0  # atno 8008 bound_to 7997
  155.8498  140.0954  157.1702 H   0  0  0  0  0  0  0  0  0  0  0  0  # atno 8009 bound_to 7997
  154.4007  140.1378  156.3817 H   0  0  0  0  0  0  0  0  0  0  0  0  # atno 8010 bound_to 7997
  139.8958  143.6667  152.2604 H   0  0  0  0  0  0  0  0  0  0  0  0  # atno 10167 bound_to 10162
  156.2112  130.6919  151.0651 H   0  0  0  0  0  0  0  0  0  0  0  0  # atno 10718 bound_to 10713
  154.0458  135.6638  153.4795 H   0  0  0  0  0  0  0  0  0  0  0  0  # atno 10763 bound_to 10752
  153.0483  135.5100  154.7799 H   0  0  0  0  0  0  0  0  0  0  0  0  # atno 10764 bound_to 10752
  154.6789  135.3041  154.9606 H   0  0  0  0  0  0  0  0  0  0  0  0  # atno 10765 bound_to 10752
  141.1414  133.6661  156.5780 H   0  0  0  0  0  0  0  0  0  0  0  0  # atno 11005 bound_to 11000
  145.0849  139.2932  143.5764 LP  0  0  0  0  0  0  0  0  0  0  0  0  # atno 17320 bound_to 7965
  146.3526  140.0368  142.8646 LP  0  0  0  0  0  0  0  0  0  0  0  0  # atno 17321 bound_to 7965
  139.7069  144.7626  151.1178 LP  0  0  0  0  0  0  0  0  0  0  0  0  # atno 17342 bound_to 10162
  140.7717  143.5383  150.9342 LP  0  0  0  0  0  0  0  0  0  0  0  0  # atno 17343 bound_to 10162
  157.7039  131.0764  150.6730 LP  0  0  0  0  0  0  0  0  0  0  0  0  # atno 17370 bound_to 10713
  156.6790  130.4561  149.5633 LP  0  0  0  0  0  0  0  0  0  0  0  0  # atno 17371 bound_to 10713
  140.3860  134.7481  157.4692 LP  0  0  0  0  0  0  0  0  0  0  0  0  # atno 17394 bound_to 11000
  140.0601  134.6007  155.8758 LP  0  0  0  0  0  0  0  0  0  0  0  0  # atno 17395 bound_to 11000

$$$$
