AV-unprocessed.smi:3047|AV-procd|sdf|11623|dock2
  -GOLD-   2272017 13D 1   1.00000     0.00000
 Structure written by MMmdl.
 37 38  0  0  0  0  0  0  0  0  1 V2000
  149.9024  134.8470  155.9912 C   0  0  0  0  0  0  0  0  0  0  0  0
  150.7860  136.1834  156.8932 S   0  0  0  0  0  0  0  0  0  0  0  0
  150.1724  136.3236  158.2228 O   0  0  0  0  0  0  0  0  0  0  0  0
  152.2366  135.9717  156.7732 O   0  0  0  0  0  0  0  0  0  0  0  0
  150.3794  137.5955  155.9798 N   0  0  0  0  0  0  0  0  0  0  0  0
  149.2388  137.5388  155.0548 C   0  0  0  0  0  0  0  0  0  0  0  0
  149.5025  138.6184  154.0078 C   0  0  0  0  0  0  0  0  0  0  0  0
  151.0229  138.6777  153.9490 C   0  0  0  0  0  0  0  0  0  0  0  0
  151.4660  138.3974  155.3954 C   0  0  1  0  0  0  0  0  0  0  0  0
  151.7526  139.6721  156.2014 C   0  0  0  0  0  0  0  0  0  0  0  0
  152.7619  139.7590  156.9021 O   0  0  0  0  0  0  0  0  0  0  0  0
  150.8588  140.6653  156.0781 N   0  0  0  0  0  0  0  0  0  0  0  0
  150.9589  141.9668  156.7267 C   0  0  0  0  0  0  0  0  0  0  0  0
  151.3408  141.8365  158.2106 C   0  0  0  0  0  0  0  0  0  0  0  0
  151.5843  143.1327  158.8098 N   0  0  0  0  0  0  0  0  0  0  0  0
  151.3688  144.3754  158.2288 C   0  0  0  0  0  0  0  0  0  0  0  0
  151.7367  145.3154  159.1647 C   0  0  0  0  0  0  0  0  0  0  0  0
  152.1792  144.6773  160.3215 N   0  0  0  0  0  0  0  0  0  0  0  0
  152.0600  143.3869  160.0366 C   0  0  0  0  0  0  0  0  0  0  0  0
  150.0639  133.8984  156.5023 H   0  0  0  0  0  0  0  0  0  0  0  0
  150.2820  134.7763  154.9723 H   0  0  0  0  0  0  0  0  0  0  0  0
  148.8355  135.0683  155.9677 H   0  0  0  0  0  0  0  0  0  0  0  0
  149.2041  136.5580  154.5792 H   0  0  0  0  0  0  0  0  0  0  0  0
  148.2997  137.6953  155.5857 H   0  0  0  0  0  0  0  0  0  0  0  0
  149.0502  138.3907  153.0423 H   0  0  0  0  0  0  0  0  0  0  0  0
  149.1035  139.5744  154.3496 H   0  0  0  0  0  0  0  0  0  0  0  0
  151.3975  137.8902  153.2937 H   0  0  0  0  0  0  0  0  0  0  0  0
  151.3849  139.6277  153.5528 H   0  0  0  0  0  0  0  0  0  0  0  0
  152.3792  137.8003  155.3628 H   0  0  0  0  0  0  0  0  0  0  0  0
  150.0652  140.5163  155.4713 H   0  0  0  0  0  0  0  0  0  0  0  0
  151.6816  142.5900  156.1967 H   0  0  0  0  0  0  0  0  0  0  0  0
  149.9936  142.4652  156.6334 H   0  0  0  0  0  0  0  0  0  0  0  0
  150.5475  141.3359  158.7675 H   0  0  0  0  0  0  0  0  0  0  0  0
  152.2417  141.2327  158.3278 H   0  0  0  0  0  0  0  0  0  0  0  0
  150.9813  144.4845  157.2263 H   0  0  0  0  0  0  0  0  0  0  0  0
  151.7171  146.3932  159.0956 H   0  0  0  0  0  0  0  0  0  0  0  0
  152.3245  142.6088  160.7377 H   0  0  0  0  0  0  0  0  0  0  0  0
  1  2  1  0  0  0  0
  1 20  1  0  0  0  0
  1 21  1  0  0  0  0
  1 22  1  0  0  0  0
  2  3  2  0  0  0  0
  2  4  2  0  0  0  0
  2  5  1  0  0  0  0
  5  9  1  0  0  0  0
  5  6  1  0  0  0  0
  6  7  1  0  0  0  0
  6 23  1  0  0  0  0
  6 24  1  0  0  0  0
  7  8  1  0  0  0  0
  7 25  1  0  0  0  0
  7 26  1  0  0  0  0
  8  9  1  0  0  0  0
  8 27  1  0  0  0  0
  8 28  1  0  0  0  0
  9 10  1  0  0  0  0
  9 29  1  0  0  0  0
 10 11  2  0  0  0  0
 10 12  1  0  0  0  0
 12 13  1  0  0  0  0
 12 30  1  0  0  0  0
 13 14  1  0  0  0  0
 13 31  1  0  0  0  0
 13 32  1  0  0  0  0
 14 15  1  0  0  0  0
 14 33  1  0  0  0  0
 14 34  1  0  0  0  0
 15 19  1  0  0  0  0
 15 16  1  0  0  0  0
 16 17  2  0  0  0  0
 16 35  1  0  0  0  0
 17 18  1  0  0  0  0
 17 36  1  0  0  0  0
 18 19  2  0  0  0  0
 19 37  1  0  0  0  0
M  END
> <s_m_source_file>
AV-unprocessed.smi

> <i_m_source_file_index>
3047

> <i_lp_mmshare_version>
43012

> <i_f3d_flags>
0

> <s_epik_input>
W0NIM11TKD1PKSg9TylOMVtDSDJdW0NIMl1bQ0gyXVtDQEhdMUMoPU8pW05IXVtDSDJdW0NIMl1uMltjSF1bY0hdbltjSF0y

> <s_epik_cmdline>
J2VwaWtfcHl0aG9uJywgJy1waCcsICc3LjAnLCAnLXRuJywgJzgnLCAnLW1hJywgJzIwMCcsICctbWV0YWxfYmluZGluZycsICctaW1hZScsICc8aW5maWxlLm1hZT4nLCAnLW9tYWUnLCAnPG91dGZpbGUubWFlPic=

> <r_lp_tautomer_probability>
1

> <r_epik_Ionization_Penalty>
0.575721

> <r_epik_Ionization_Penalty_Charging>
0.575721

> <r_epik_Ionization_Penalty_Neutral>
1.33078e-07

> <r_epik_State_Penalty>
0.588056

> <r_epik_Charging_Adjusted_Penalty>
1.16378

> <i_epik_Tot_Q>
0

> <i_epik_Tot_abs_Q>
0

> <r_epik_Metal_State_Penalty>
0.294357

> <b_epik_Metal_Only>
0

> <s_lp_Force_Field>
OPLS_2005

> <r_lp_Energy>
8.50144

> <b_lp_Chiralities_Consistent>
1

> <s_lp_Variant>
AV-unprocessed.smi:3047-3

> <Gold.Version>
5.8.1

> <Gold.Id.Protein>
6NUR|6NUR_protein|mol2

> <Gold.PLP.Fitness>
43.9778

> <Gold.PLP.PLP>
-33.6138

> <Gold.PLP.part.hbond>
-3.0000

> <Gold.PLP.part.metal>
0.0000

> <Gold.PLP.part.buried>
-3.8667

> <Gold.PLP.part.nonpolar>
-26.7772

> <Gold.PLP.part.repulsive>
0.2124

> <Gold.PLP.ligand.clash>
0.0000

> <Gold.PLP.ligand.torsion>
0.8800

> <Gold.PLP.Chemscore.Hbond>
2.8480

> <Gold.PLP.Chemscore.CHOScore>
1.0000

> <Gold.PLP.Chemscore.Metal>
0.0000

> <Gold.Chemscore.Hbonds>
donor molecule, donor type, donor heavy atom, donor atom, acceptor molecule, acceptor atom, score
      P1  H  6896  6909       L1     3  0.60
      P1  H  7997  8010       L1    11  1.00
      P1  H 10752 10764       L1     4  1.00
      L1  C    16    35       P1  8028  0.85

> <Gold.PLP.Chemscore.Internal.Correction>
0.5800

> <Gold.Rescore>
     Score         DG    S(hbond)    S(metal)    S(lipo)     H(rot)  DE(clash)    DE(int)     intcor
     14.70     -16.78       2.82        0.00      68.17       2.39       0.01       2.07       ----

> <Gold.Chemscore.Fitness>
14.6993

> <Gold.Chemscore.DG>
-16.7804

> <Gold.Chemscore.ZeroCoef>
-5.4800

> <Gold.Chemscore.Hbond>
2.8238

> <Gold.Chemscore.Metal>
0.0000

> <Gold.Chemscore.Lipo>
68.1740

> <Gold.Chemscore.Internal_Hbond>
0.0000

> <Gold.Chemscore.DEClash>
0.0126

> <Gold.Chemscore.DEInternal>
2.0685

> <Gold.Chemscore.Rot>
2.3857

> <Gold.Chemscore.Internal.Correction>
   9.000000E+99

> <Gold.Chemscore.Hbonds>
donor molecule, donor type, donor heavy atom, donor atom, acceptor molecule, acceptor atom, score
      P1  H  6896  6909       L1     3  0.50
      P1  H  7997  8010       L1    11  1.00
      P1  H 10752 10764       L1     4  0.98

> <Gold.Chemscore.Hbond.Weighted>
-9.4315

> <Gold.Chemscore.Metal.Weighted>
-0.0000

> <Gold.Chemscore.Lipo.Weighted>
-7.9764

> <Gold.Chemscore.Internal_Hbond.Weighted>
0.0000

> <Gold.Chemscore.DEClash.Weighted>
0.0126

> <Gold.Chemscore.DEInternal.Weighted>
2.0685

> <Gold.Chemscore.Rot.Weighted>
6.1074

> <Gold.Chemscore.Internal.Correction.Weighted>
   9.000000E+99

> <Gold.Protein.RotatedTorsions>
[ 6907 6896 6895 6894 ] final   64.85 input  -60.11 | X-H torsion
[ 7974 7965 7964 7962 ] final -107.23 input  175.53 | X-H torsion
[ 8008 7997 7996 7995 ] final   58.78 input   59.86 | X-H torsion
[ 10167 10162 10161 10158 ] final  120.47 input  -65.29 | X-H torsion
[ 10718 10713 10712 10709 ] final  -18.09 input   66.30 | X-H torsion
[ 10763 10752 10751 10750 ] final  -21.39 input  -60.55 | X-H torsion
[ 11005 11000 10999 10996 ] final   76.60 input  -57.11 | X-H torsion

> <Gold.Protein.ActiveResidues>
 VAL166  LYS551  ARG553  GLY616  TRP617  ASP618  TYR619  PRO620  LYS621  CYS622 
 ASP623  PHE694  ASN695  SER759  ASP760  ASP761  ALA762  ILE779  LEU786  VAL792 
 PHE793  MET794  SER795  GLU796  ALA797  LYS798  CYS799  TRP800  GLU811  SER814 

> <Gold.Protein.RotatedAtoms>
  152.4363  134.5680  159.9912 H   0  0  0  0  0  0  0  0  0  0  0  0  # atno 6907 bound_to 6896
  151.5789  133.3374  159.3012 H   0  0  0  0  0  0  0  0  0  0  0  0  # atno 6908 bound_to 6896
  150.8262  134.7528  159.6879 H   0  0  0  0  0  0  0  0  0  0  0  0  # atno 6909 bound_to 6896
  145.2079  140.9084  143.3331 H   0  0  0  0  0  0  0  0  0  0  0  0  # atno 7974 bound_to 7965
  155.5556  140.3487  155.4479 H   0  0  0  0  0  0  0  0  0  0  0  0  # atno 8008 bound_to 7997
  156.0552  140.1327  157.0031 H   0  0  0  0  0  0  0  0  0  0  0  0  # atno 8009 bound_to 7997
  154.4453  140.0996  156.6420 H   0  0  0  0  0  0  0  0  0  0  0  0  # atno 8010 bound_to 7997
  139.5980  144.7048  151.3129 H   0  0  0  0  0  0  0  0  0  0  0  0  # atno 10167 bound_to 10162
  156.5644  130.4733  149.6392 H   0  0  0  0  0  0  0  0  0  0  0  0  # atno 10718 bound_to 10713
  153.6354  135.6987  153.5260 H   0  0  0  0  0  0  0  0  0  0  0  0  # atno 10763 bound_to 10752
  153.2826  135.4181  155.1092 H   0  0  0  0  0  0  0  0  0  0  0  0  # atno 10764 bound_to 10752
  154.8512  135.3605  154.5897 H   0  0  0  0  0  0  0  0  0  0  0  0  # atno 10765 bound_to 10752
  139.9291  134.7615  156.1417 H   0  0  0  0  0  0  0  0  0  0  0  0  # atno 11005 bound_to 11000
  144.9884  139.3714  143.6227 LP  0  0  0  0  0  0  0  0  0  0  0  0  # atno 17320 bound_to 7965
  146.3404  139.9056  142.8788 LP  0  0  0  0  0  0  0  0  0  0  0  0  # atno 17321 bound_to 7965
  140.7227  143.7090  150.7785 LP  0  0  0  0  0  0  0  0  0  0  0  0  # atno 17342 bound_to 10162
  140.0660  143.5108  152.2604 LP  0  0  0  0  0  0  0  0  0  0  0  0  # atno 17343 bound_to 10162
  156.2770  130.7049  151.1863 LP  0  0  0  0  0  0  0  0  0  0  0  0  # atno 17370 bound_to 10713
  157.7362  131.0565  150.5429 LP  0  0  0  0  0  0  0  0  0  0  0  0  # atno 17371 bound_to 10713
  141.0868  133.6731  156.2453 LP  0  0  0  0  0  0  0  0  0  0  0  0  # atno 17394 bound_to 11000
  140.6253  134.5320  157.5553 LP  0  0  0  0  0  0  0  0  0  0  0  0  # atno 17395 bound_to 11000

$$$$
