AV-unprocessed.smi:1239|AV-procd|sdf|5188|dock2
  -GOLD-   22720 4273D 1   1.00000     0.00000
 Structure written by MMmdl.
 47 48  0  0  0  0  0  0  0  0  1 V2000
  152.6763  138.6655  154.8240 C   0  0  0  0  0  0  0  0  0  0  0  0
  151.2383  138.5759  155.3960 C   0  0  1  0  0  0  0  0  0  0  0  0
  150.9631  137.1091  155.8402 C   0  0  0  0  0  0  0  0  0  0  0  0
  150.2042  136.3351  154.8611 N   0  0  0  0  0  0  0  0  0  0  0  0
  149.8591  135.0470  154.9975 C   0  0  0  0  0  0  0  0  0  0  0  0
  150.1658  134.3625  155.9733 O   0  0  0  0  0  0  0  0  0  0  0  0
  149.1595  134.6183  153.9332 N   0  0  0  0  0  0  0  0  0  0  0  0
  148.5953  133.3352  153.6988 C   0  0  0  0  0  0  0  0  0  0  0  0
  148.9203  132.1709  154.4320 C   0  0  0  0  0  0  0  0  0  0  0  0
  148.2760  130.9600  154.1134 C   0  0  0  0  0  0  0  0  0  0  0  0
  147.3147  130.9363  153.0727 C   0  0  0  0  0  0  0  0  0  0  0  0
  146.6432  129.7448  152.7148 N   0  0  0  0  0  0  0  0  0  0  0  0
  145.5893  129.7815  151.7061 C   0  0  0  0  0  0  0  0  0  0  0  0
  147.0677  128.4674  153.2740 C   0  0  0  0  0  0  0  0  0  0  0  0
  146.9985  132.0600  152.3833 N   0  0  0  0  0  0  0  0  0  0  0  0
  147.6176  133.2178  152.6922 C   0  0  0  0  0  0  0  0  0  0  0  0
  150.9861  139.5698  156.4657 N   0  0  0  0  0  0  0  0  0  0  0  0
  151.1030  140.9548  155.9940 C   0  0  0  0  0  0  0  0  0  0  0  0
  150.8761  141.9885  157.1111 C   0  0  0  0  0  0  0  0  0  0  0  0
  151.7890  141.7557  158.1747 O   0  0  0  0  0  0  0  0  0  0  0  0
  151.6555  140.4484  158.7145 C   0  0  0  0  0  0  0  0  0  0  0  0
  151.8918  139.4052  157.6089 C   0  0  0  0  0  0  0  0  0  0  0  0
  152.8733  137.9037  154.0707 H   0  0  0  0  0  0  0  0  0  0  0  0
  153.4213  138.5480  155.6115 H   0  0  0  0  0  0  0  0  0  0  0  0
  152.8635  139.6130  154.3211 H   0  0  0  0  0  0  0  0  0  0  0  0
  150.5562  138.7950  154.5730 H   0  0  0  0  0  0  0  0  0  0  0  0
  151.9065  136.5933  156.0213 H   0  0  0  0  0  0  0  0  0  0  0  0
  150.4032  137.0631  156.7731 H   0  0  0  0  0  0  0  0  0  0  0  0
  149.9160  136.8196  154.0237 H   0  0  0  0  0  0  0  0  0  0  0  0
  149.0569  135.2784  153.1763 H   0  0  0  0  0  0  0  0  0  0  0  0
  149.6363  132.1809  155.2389 H   0  0  0  0  0  0  0  0  0  0  0  0
  148.5301  130.0757  154.6779 H   0  0  0  0  0  0  0  0  0  0  0  0
  145.9846  130.1366  150.7539 H   0  0  0  0  0  0  0  0  0  0  0  0
  144.7829  130.4464  152.0174 H   0  0  0  0  0  0  0  0  0  0  0  0
  145.1603  128.7928  151.5421 H   0  0  0  0  0  0  0  0  0  0  0  0
  146.9476  128.4654  154.3577 H   0  0  0  0  0  0  0  0  0  0  0  0
  148.1141  128.2731  153.0368 H   0  0  0  0  0  0  0  0  0  0  0  0
  146.4782  127.6427  152.8734 H   0  0  0  0  0  0  0  0  0  0  0  0
  147.3229  134.0794  152.1107 H   0  0  0  0  0  0  0  0  0  0  0  0
  152.0863  141.1126  155.5483 H   0  0  0  0  0  0  0  0  0  0  0  0
  150.3664  141.1629  155.2211 H   0  0  0  0  0  0  0  0  0  0  0  0
  151.0272  142.9978  156.7282 H   0  0  0  0  0  0  0  0  0  0  0  0
  149.8512  141.9377  157.4825 H   0  0  0  0  0  0  0  0  0  0  0  0
  152.3818  140.3201  159.5170 H   0  0  0  0  0  0  0  0  0  0  0  0
  150.6652  140.3262  159.1560 H   0  0  0  0  0  0  0  0  0  0  0  0
  151.7635  138.4249  158.0643 H   0  0  0  0  0  0  0  0  0  0  0  0
  152.9277  139.4656  157.2713 H   0  0  0  0  0  0  0  0  0  0  0  0
  1  2  1  0  0  0  0
  1 23  1  0  0  0  0
  1 24  1  0  0  0  0
  1 25  1  0  0  0  0
  2  3  1  0  0  0  0
  2 17  1  0  0  0  0
  2 26  1  0  0  0  0
  3  4  1  0  0  0  0
  3 27  1  0  0  0  0
  3 28  1  0  0  0  0
  4  5  1  0  0  0  0
  4 29  1  0  0  0  0
  5  6  2  0  0  0  0
  5  7  1  0  0  0  0
  7  8  1  0  0  0  0
  7 30  1  0  0  0  0
  8 16  1  0  0  0  0
  8  9  2  0  0  0  0
  9 10  1  0  0  0  0
  9 31  1  0  0  0  0
 10 11  2  0  0  0  0
 10 32  1  0  0  0  0
 11 12  1  0  0  0  0
 11 15  1  0  0  0  0
 12 13  1  0  0  0  0
 12 14  1  0  0  0  0
 13 33  1  0  0  0  0
 13 34  1  0  0  0  0
 13 35  1  0  0  0  0
 14 36  1  0  0  0  0
 14 37  1  0  0  0  0
 14 38  1  0  0  0  0
 15 16  2  0  0  0  0
 16 39  1  0  0  0  0
 17 22  1  0  0  0  0
 17 18  1  0  0  0  0
 18 19  1  0  0  0  0
 18 40  1  0  0  0  0
 18 41  1  0  0  0  0
 19 20  1  0  0  0  0
 19 42  1  0  0  0  0
 19 43  1  0  0  0  0
 20 21  1  0  0  0  0
 21 22  1  0  0  0  0
 21 44  1  0  0  0  0
 21 45  1  0  0  0  0
 22 46  1  0  0  0  0
 22 47  1  0  0  0  0
M  END
> <s_m_source_file>
AV-unprocessed.smi

> <i_m_source_file_index>
1239

> <i_lp_mmshare_version>
43012

> <i_f3d_flags>
0

> <s_epik_input>
W0NIMl0xW0NIMl1PW0NIMl1bQ0gyXU4xW0NASF0oW0NIM10pW0NIMl1bTkhdQyg9TylbTkhdYzJbY0hdW2NIXWMoTihbQ0gzXSlbQ0gzXSluW2NIXTI=

> <s_epik_cmdline>
J2VwaWtfcHl0aG9uJywgJy1waCcsICc3LjAnLCAnLXRuJywgJzgnLCAnLW1hJywgJzIwMCcsICctbWV0YWxfYmluZGluZycsICctaW1hZScsICc8aW5maWxlLm1hZT4nLCAnLW9tYWUnLCAnPG91dGZpbGUubWFlPic=

> <r_lp_tautomer_probability>
1

> <r_epik_Ionization_Penalty>
0.87526

> <r_epik_Ionization_Penalty_Charging>
0

> <r_epik_Ionization_Penalty_Neutral>
0.87526

> <r_epik_State_Penalty>
0.859346

> <r_epik_Charging_Adjusted_Penalty>
0.859346

> <i_epik_Tot_Q>
0

> <i_epik_Tot_abs_Q>
0

> <r_epik_Metal_State_Penalty>
0.538105

> <b_epik_Metal_Only>
0

> <s_lp_Force_Field>
OPLS_2005

> <r_lp_Energy>
32.4423

> <b_lp_Chiralities_Consistent>
1

> <s_lp_Variant>
AV-unprocessed.smi:1239-4

> <Gold.Version>
5.8.1

> <Gold.Id.Protein>
6NUR|6NUR_protein|mol2

> <Gold.PLP.Fitness>
41.3086

> <Gold.PLP.PLP>
-37.4778

> <Gold.PLP.part.hbond>
-1.5657

> <Gold.PLP.part.metal>
0.0000

> <Gold.PLP.part.buried>
-3.3579

> <Gold.PLP.part.nonpolar>
-32.2780

> <Gold.PLP.part.repulsive>
0.4346

> <Gold.PLP.ligand.clash>
0.0000

> <Gold.PLP.ligand.torsion>
0.6885

> <Gold.PLP.Chemscore.Hbond>
1.1435

> <Gold.PLP.Chemscore.CHOScore>
0.5672

> <Gold.PLP.Chemscore.Metal>
0.0000

> <Gold.Chemscore.Hbonds>
donor molecule, donor type, donor heavy atom, donor atom, acceptor molecule, acceptor atom, score
      L1  H     4    29       P1  7948  0.05
      L1  H     7    30       P1  7948  1.00
      L1  C    16    39       P1  7948  0.55

> <Gold.PLP.Chemscore.Internal.Correction>
0.0756

> <Gold.Rescore>
     Score         DG    S(hbond)    S(metal)    S(lipo)     H(rot)  DE(clash)    DE(int)     intcor
     14.04     -16.09       1.45        0.00      80.64       1.44       0.22       1.83       ----

> <Gold.Chemscore.Fitness>
14.0404

> <Gold.Chemscore.DG>
-16.0928

> <Gold.Chemscore.ZeroCoef>
-5.4800

> <Gold.Chemscore.Hbond>
1.4542

> <Gold.Chemscore.Metal>
0.0000

> <Gold.Chemscore.Lipo>
80.6354

> <Gold.Chemscore.Internal_Hbond>
0.0000

> <Gold.Chemscore.DEClash>
0.2223

> <Gold.Chemscore.DEInternal>
1.8302

> <Gold.Chemscore.Rot>
1.4370

> <Gold.Chemscore.Internal.Correction>
   9.000000E+99

> <Gold.Chemscore.Hbonds>
donor molecule, donor type, donor heavy atom, donor atom, acceptor molecule, acceptor atom, score
      L1  H     4    29       P1  7948  0.04
      L1  H     7    30       P1  7948  0.29

> <Gold.Chemscore.Hbond.Weighted>
-4.8571

> <Gold.Chemscore.Metal.Weighted>
-0.0000

> <Gold.Chemscore.Lipo.Weighted>
-9.4343

> <Gold.Chemscore.Internal_Hbond.Weighted>
0.0000

> <Gold.Chemscore.DEClash.Weighted>
0.2223

> <Gold.Chemscore.DEInternal.Weighted>
1.8302

> <Gold.Chemscore.Rot.Weighted>
3.6786

> <Gold.Chemscore.Internal.Correction.Weighted>
   9.000000E+99

> <Gold.Protein.RotatedTorsions>
[ 6907 6896 6895 6894 ] final   81.88 input  -60.11 | X-H torsion
[ 7974 7965 7964 7962 ] final  157.72 input  175.53 | X-H torsion
[ 8008 7997 7996 7995 ] final -166.98 input   59.86 | X-H torsion
[ 10167 10162 10161 10158 ] final  163.96 input  -65.29 | X-H torsion
[ 10718 10713 10712 10709 ] final   95.04 input   66.30 | X-H torsion
[ 10763 10752 10751 10750 ] final   68.37 input  -60.55 | X-H torsion
[ 11005 11000 10999 10996 ] final   -2.87 input  -57.11 | X-H torsion

> <Gold.Protein.ActiveResidues>
 VAL166  LYS551  ARG553  GLY616  TRP617  ASP618  TYR619  PRO620  LYS621  CYS622 
 ASP623  PHE694  ASN695  SER759  ASP760  ASP761  ALA762  ILE779  LEU786  VAL792 
 PHE793  MET794  SER795  GLU796  ALA797  LYS798  CYS799  TRP800  GLU811  SER814 

> <Gold.Protein.RotatedAtoms>
  152.5282  134.3136  159.9122 H   0  0  0  0  0  0  0  0  0  0  0  0  # atno 6907 bound_to 6896
  151.3086  133.4084  159.2653 H   0  0  0  0  0  0  0  0  0  0  0  0  # atno 6908 bound_to 6896
  151.0058  134.9375  159.8037 H   0  0  0  0  0  0  0  0  0  0  0  0  # atno 6909 bound_to 6896
  144.7887  139.7380  143.6230 H   0  0  0  0  0  0  0  0  0  0  0  0  # atno 7974 bound_to 7965
  155.8714  140.0994  157.1547 H   0  0  0  0  0  0  0  0  0  0  0  0  # atno 8008 bound_to 7997
  154.3997  140.1346  156.4146 H   0  0  0  0  0  0  0  0  0  0  0  0  # atno 8009 bound_to 7997
  155.7746  140.3460  155.5267 H   0  0  0  0  0  0  0  0  0  0  0  0  # atno 8010 bound_to 7997
  139.4881  144.4284  151.9101 H   0  0  0  0  0  0  0  0  0  0  0  0  # atno 10167 bound_to 10162
  157.6942  131.0532  150.4277 H   0  0  0  0  0  0  0  0  0  0  0  0  # atno 10718 bound_to 10713
  153.0232  135.5250  154.7124 H   0  0  0  0  0  0  0  0  0  0  0  0  # atno 10763 bound_to 10752
  154.6203  135.2888  155.0336 H   0  0  0  0  0  0  0  0  0  0  0  0  # atno 10764 bound_to 10752
  154.1325  135.6590  153.4977 H   0  0  0  0  0  0  0  0  0  0  0  0  # atno 10765 bound_to 10752
  140.6631  133.9302  155.8448 H   0  0  0  0  0  0  0  0  0  0  0  0  # atno 11005 bound_to 11000
  146.2129  139.5499  142.9669 LP  0  0  0  0  0  0  0  0  0  0  0  0  # atno 17320 bound_to 7965
  145.5853  141.0377  143.2100 LP  0  0  0  0  0  0  0  0  0  0  0  0  # atno 17321 bound_to 7965
  140.3730  144.2831  150.5917 LP  0  0  0  0  0  0  0  0  0  0  0  0  # atno 17342 bound_to 10162
  140.5301  143.2245  151.8252 LP  0  0  0  0  0  0  0  0  0  0  0  0  # atno 17343 bound_to 10162
  156.4647  130.4039  149.6555 LP  0  0  0  0  0  0  0  0  0  0  0  0  # atno 17370 bound_to 10713
  156.3657  130.7504  151.2482 LP  0  0  0  0  0  0  0  0  0  0  0  0  # atno 17371 bound_to 10713
  141.0450  134.0567  157.3856 LP  0  0  0  0  0  0  0  0  0  0  0  0  # atno 17394 bound_to 11000
  139.9006  135.0163  156.7250 LP  0  0  0  0  0  0  0  0  0  0  0  0  # atno 17395 bound_to 11000

$$$$
