AV-unprocessed.smi:100|AV-procd|sdf|904|dock4
  -GOLD-   2262017403D 1   1.00000     0.00000
 Structure written by MMmdl.
 31 33  0  0  0  0  0  0  0  0  1 V2000
  147.8613  140.4033  152.8007 N   0  0  0  0  0  0  0  0  0  0  0  0
  147.8089  140.9268  154.0333 C   0  0  0  0  0  0  0  0  0  0  0  0
  146.6182  141.3832  154.4867 N   0  0  0  0  0  0  0  0  0  0  0  0
  146.5398  141.9113  155.7123 C   0  0  0  0  0  0  0  0  0  0  0  0
  147.5099  142.0714  156.6162 N   0  0  0  0  0  0  0  0  0  0  0  0
  148.7112  141.6114  156.1582 C   0  0  0  0  0  0  0  0  0  0  0  0
  148.9404  141.0252  154.8820 C   0  0  0  0  0  0  0  0  0  0  0  0
  150.2761  140.6690  154.7572 N   0  0  0  0  0  0  0  0  0  0  0  0
  150.8035  141.0269  155.8968 C   0  0  0  0  0  0  0  0  0  0  0  0
  149.9358  141.6026  156.7994 N   0  0  0  0  0  0  0  0  0  0  0  0
  150.2641  142.1050  158.1749 C   0  0  1  0  0  0  0  0  0  0  0  0
  151.3566  141.3953  158.6866 O   0  0  0  0  0  0  0  0  0  0  0  0
  152.4306  142.2864  158.9841 C   0  0  2  0  0  0  0  0  0  0  0  0
  153.2502  141.7385  160.1615 C   0  0  0  0  0  0  0  0  0  0  0  0
  153.8482  140.5065  159.8190 O   0  0  0  0  0  0  0  0  0  0  0  0
  151.7153  143.6093  159.2560 C   0  0  1  0  0  0  0  0  0  0  0  0
  152.5012  144.6853  159.1873 F   0  0  0  0  0  0  0  0  0  0  0  0
  150.6198  143.6050  158.2058 C   0  0  1  0  0  0  0  0  0  0  0  0
  151.0803  144.1058  156.9614 O   0  0  0  0  0  0  0  0  0  0  0  0
  148.7378  140.0561  152.4382 H   0  0  0  0  0  0  0  0  0  0  0  0
  147.0257  140.3613  152.2355 H   0  0  0  0  0  0  0  0  0  0  0  0
  145.5609  142.2553  156.0120 H   0  0  0  0  0  0  0  0  0  0  0  0
  151.8516  140.8785  156.1132 H   0  0  0  0  0  0  0  0  0  0  0  0
  149.3842  141.8672  158.7743 H   0  0  0  0  0  0  0  0  0  0  0  0
  153.0584  142.3771  158.0966 H   0  0  0  0  0  0  0  0  0  0  0  0
  154.0198  142.4472  160.4679 H   0  0  0  0  0  0  0  0  0  0  0  0
  152.6009  141.5748  161.0220 H   0  0  0  0  0  0  0  0  0  0  0  0
  154.7351  140.5011  160.1454 H   0  0  0  0  0  0  0  0  0  0  0  0
  151.2716  143.5993  160.2526 H   0  0  0  0  0  0  0  0  0  0  0  0
  149.7507  144.1859  158.5158 H   0  0  0  0  0  0  0  0  0  0  0  0
  150.3459  144.1601  156.3693 H   0  0  0  0  0  0  0  0  0  0  0  0
  1  2  1  0  0  0  0
  1 20  1  0  0  0  0
  1 21  1  0  0  0  0
  2  7  1  0  0  0  0
  2  3  2  0  0  0  0
  3  4  1  0  0  0  0
  4  5  2  0  0  0  0
  4 22  1  0  0  0  0
  5  6  1  0  0  0  0
  6 10  1  0  0  0  0
  6  7  2  0  0  0  0
  7  8  1  0  0  0  0
  8  9  2  0  0  0  0
  9 10  1  0  0  0  0
  9 23  1  0  0  0  0
 10 11  1  0  0  0  0
 11 18  1  0  0  0  0
 11 12  1  0  0  0  0
 11 24  1  0  0  0  0
 12 13  1  0  0  0  0
 13 14  1  0  0  0  0
 13 16  1  0  0  0  0
 13 25  1  0  0  0  0
 14 15  1  0  0  0  0
 14 26  1  0  0  0  0
 14 27  1  0  0  0  0
 15 28  1  0  0  0  0
 16 17  1  0  0  0  0
 16 18  1  0  0  0  0
 16 29  1  0  0  0  0
 18 19  1  0  0  0  0
 18 30  1  0  0  0  0
 19 31  1  0  0  0  0
M  END
> <s_m_source_file>
AV-unprocessed.smi

> <i_m_source_file_index>
100

> <i_lp_mmshare_version>
43012

> <i_f3d_flags>
0

> <s_epik_input>
bjFbY0hdbmMoW05IMl0pYyhjMTIpbltjSF1uMltDQEBIXTNPW0NAQEhdKFtDSDJdW09IXSlbQ0BIXShGKVtDQEhdM1tPSF0=

> <s_epik_cmdline>
J2VwaWtfcHl0aG9uJywgJy1waCcsICc3LjAnLCAnLXRuJywgJzgnLCAnLW1hJywgJzIwMCcsICctbWV0YWxfYmluZGluZycsICctaW1hZScsICc8aW5maWxlLm1hZT4nLCAnLW9tYWUnLCAnPG91dGZpbGUubWFlPic=

> <r_lp_tautomer_probability>
1

> <r_epik_Ionization_Penalty>
0.000750324

> <r_epik_Ionization_Penalty_Charging>
0

> <r_epik_Ionization_Penalty_Neutral>
0.000750324

> <r_epik_State_Penalty>
-0

> <r_epik_Charging_Adjusted_Penalty>
0

> <i_epik_Tot_Q>
0

> <i_epik_Tot_abs_Q>
0

> <r_epik_Metal_State_Penalty>
-0

> <b_epik_Metal_Only>
0

> <s_epik_Chemistry_Notes>
This compound contains an acetal/aminal-like group ( X-CH(R)-Y where X, Y are N, S, or O) that may be acid/base labile, releasing an aldehyde.

> <s_lp_Force_Field>
OPLS_2005

> <r_lp_Energy>
38.5283

> <b_lp_Chiralities_Consistent>
1

> <s_lp_Variant>
AV-unprocessed.smi:100-8

> <Gold.Version>
5.8.1

> <Gold.Id.Protein>
6NUR|6NUR_protein|mol2

> <Gold.PLP.Fitness>
41.6217

> <Gold.PLP.PLP>
-34.9559

> <Gold.PLP.part.hbond>
-2.6026

> <Gold.PLP.part.metal>
0.0000

> <Gold.PLP.part.buried>
-6.3153

> <Gold.PLP.part.nonpolar>
-27.3499

> <Gold.PLP.part.repulsive>
0.6240

> <Gold.PLP.ligand.clash>
0.0000

> <Gold.PLP.ligand.torsion>
0.7379

> <Gold.PLP.Chemscore.Hbond>
2.7120

> <Gold.PLP.Chemscore.CHOScore>
0.0000

> <Gold.PLP.Chemscore.Metal>
0.0000

> <Gold.Chemscore.Hbonds>
donor molecule, donor type, donor heavy atom, donor atom, acceptor molecule, acceptor atom, score
      L1  H     1    20       P1  7957  0.83
      L1  H    19    31       P1  8028  1.00
      P1  H  7989  7998       L1     8  0.88

> <Gold.PLP.Chemscore.Internal.Correction>
0.0056

> <Gold.Rescore>
     Score         DG    S(hbond)    S(metal)    S(lipo)     H(rot)  DE(clash)    DE(int)     intcor
     10.22     -10.98       2.43        0.00      47.31       3.19       0.00       0.75       ----

> <Gold.Chemscore.Fitness>
10.2234

> <Gold.Chemscore.DG>
-10.9760

> <Gold.Chemscore.ZeroCoef>
-5.4800

> <Gold.Chemscore.Hbond>
2.4334

> <Gold.Chemscore.Metal>
0.0000

> <Gold.Chemscore.Lipo>
47.3070

> <Gold.Chemscore.Internal_Hbond>
0.0000

> <Gold.Chemscore.DEClash>
0.0021

> <Gold.Chemscore.DEInternal>
0.7504

> <Gold.Chemscore.Rot>
3.1901

> <Gold.Chemscore.Internal.Correction>
   9.000000E+99

> <Gold.Chemscore.Hbonds>
donor molecule, donor type, donor heavy atom, donor atom, acceptor molecule, acceptor atom, score
      L1  H     1    20       P1  7957  0.77
      L1  H    19    31       P1  8028  0.99
      P1  H  7989  7998       L1     8  0.48

> <Gold.Chemscore.Hbond.Weighted>
-8.1277

> <Gold.Chemscore.Metal.Weighted>
-0.0000

> <Gold.Chemscore.Lipo.Weighted>
-5.5349

> <Gold.Chemscore.Internal_Hbond.Weighted>
0.0000

> <Gold.Chemscore.DEClash.Weighted>
0.0021

> <Gold.Chemscore.DEInternal.Weighted>
0.7504

> <Gold.Chemscore.Rot.Weighted>
8.1667

> <Gold.Chemscore.Internal.Correction.Weighted>
   9.000000E+99

> <Gold.Protein.RotatedTorsions>
[ 6907 6896 6895 6894 ] final  -97.99 input  -60.11 | X-H torsion
[ 7974 7965 7964 7962 ] final   -8.20 input  175.53 | X-H torsion
[ 8008 7997 7996 7995 ] final  -93.79 input   59.86 | X-H torsion
[ 10167 10162 10161 10158 ] final  -68.69 input  -65.29 | X-H torsion
[ 10718 10713 10712 10709 ] final   77.90 input   66.30 | X-H torsion
[ 10763 10752 10751 10750 ] final -167.48 input  -60.55 | X-H torsion
[ 11005 11000 10999 10996 ] final -171.81 input  -57.11 | X-H torsion

> <Gold.Protein.ActiveResidues>
 VAL166  LYS551  ARG553  GLY616  TRP617  ASP618  TYR619  PRO620  LYS621  CYS622 
 ASP623  PHE694  ASN695  SER759  ASP760  ASP761  ALA762  ILE779  LEU786  VAL792 
 PHE793  MET794  SER795  GLU796  ALA797  LYS798  CYS799  TRP800  GLU811  SER814 

> <Gold.Protein.RotatedAtoms>
  150.7033  134.1263  159.4052 H   0  0  0  0  0  0  0  0  0  0  0  0  # atno 6907 bound_to 6896
  151.9249  135.0280  160.0534 H   0  0  0  0  0  0  0  0  0  0  0  0  # atno 6908 bound_to 6896
  152.2225  133.4959  159.5207 H   0  0  0  0  0  0  0  0  0  0  0  0  # atno 6909 bound_to 6896
  146.2287  140.2433  142.8344 H   0  0  0  0  0  0  0  0  0  0  0  0  # atno 7974 bound_to 7965
  154.7402  140.0495  157.0804 H   0  0  0  0  0  0  0  0  0  0  0  0  # atno 8008 bound_to 7997
  155.0188  140.3144  155.4782 H   0  0  0  0  0  0  0  0  0  0  0  0  # atno 8009 bound_to 7997
  156.2862  140.2171  156.5305 H   0  0  0  0  0  0  0  0  0  0  0  0  # atno 8010 bound_to 7997
  140.5488  143.2312  151.6951 H   0  0  0  0  0  0  0  0  0  0  0  0  # atno 10167 bound_to 10162
  157.6726  130.9843  150.1708 H   0  0  0  0  0  0  0  0  0  0  0  0  # atno 10718 bound_to 10713
  154.6727  135.2942  154.9720 H   0  0  0  0  0  0  0  0  0  0  0  0  # atno 10763 bound_to 10752
  154.0741  135.6614  153.4832 H   0  0  0  0  0  0  0  0  0  0  0  0  # atno 10764 bound_to 10752
  153.0497  135.5182  154.7731 H   0  0  0  0  0  0  0  0  0  0  0  0  # atno 10765 bound_to 10752
  140.5040  134.5866  157.4997 H   0  0  0  0  0  0  0  0  0  0  0  0  # atno 11005 bound_to 11000
  144.9468  140.8136  143.5597 LP  0  0  0  0  0  0  0  0  0  0  0  0  # atno 17320 bound_to 7965
  145.2390  139.2081  143.5003 LP  0  0  0  0  0  0  0  0  0  0  0  0  # atno 17321 bound_to 7965
  139.5018  144.3851  152.0336 LP  0  0  0  0  0  0  0  0  0  0  0  0  # atno 17342 bound_to 10162
  140.2966  144.3693  150.6072 LP  0  0  0  0  0  0  0  0  0  0  0  0  # atno 17343 bound_to 10162
  156.2462  130.3696  149.8282 LP  0  0  0  0  0  0  0  0  0  0  0  0  # atno 17370 bound_to 10713
  156.6067  130.8569  151.3445 LP  0  0  0  0  0  0  0  0  0  0  0  0  # atno 17371 bound_to 10713
  139.9697  134.7314  156.0067 LP  0  0  0  0  0  0  0  0  0  0  0  0  # atno 17394 bound_to 11000
  141.1421  133.6563  156.3759 LP  0  0  0  0  0  0  0  0  0  0  0  0  # atno 17395 bound_to 11000

$$$$
