AV-unprocessed.smi:2837|AV-procd|sdf|10922|dock1
  -GOLD-   2272015373D 1   1.00000     0.00000
 Structure written by MMmdl.
 32 34  0  0  0  0  0  0  0  0  1 V2000
  153.7755  142.3096  162.8069 F   0  0  0  0  0  0  0  0  0  0  0  0
  152.8506  142.5857  161.8550 C   0  0  0  0  0  0  0  0  0  0  0  0
  152.4488  143.8669  162.0345 F   0  0  0  0  0  0  0  0  0  0  0  0
  153.3882  142.4423  160.6146 O   0  0  0  0  0  0  0  0  0  0  0  0
  152.5597  142.4735  159.5162 C   0  0  0  0  0  0  0  0  0  0  0  0
  152.4279  143.5948  158.6636 C   0  0  0  0  0  0  0  0  0  0  0  0
  151.5396  143.5244  157.5734 C   0  0  0  0  0  0  0  0  0  0  0  0
  150.8029  142.3396  157.3705 C   0  0  0  0  0  0  0  0  0  0  0  0
  149.9256  142.2745  156.2787 N   0  0  0  0  0  0  0  0  0  0  0  0
  149.3034  141.0148  155.8820 C   0  0  2  0  0  0  0  0  0  0  0  0
  149.4973  140.6933  154.3983 C   0  0  0  0  0  0  0  0  0  0  0  0
  148.0524  140.4659  153.9327 C   0  0  2  0  0  0  0  0  0  0  0  0
  147.2848  141.7889  153.8132 C   0  0  0  0  0  0  0  0  0  0  0  0
  147.0673  142.1551  155.2800 C   0  0  0  0  0  0  0  0  0  0  0  0
  147.7660  140.9924  156.0054 C   0  0  1  0  0  0  0  0  0  0  0  0
  147.4699  139.9331  155.1106 O   0  0  0  0  0  0  0  0  0  0  0  0
  150.9177  141.2668  158.1876 N   0  0  0  0  0  0  0  0  0  0  0  0
  151.7697  141.3415  159.2318 C   0  0  0  0  0  0  0  0  0  0  0  0
  151.9819  141.9416  161.9948 H   0  0  0  0  0  0  0  0  0  0  0  0
  152.9891  144.5013  158.8344 H   0  0  0  0  0  0  0  0  0  0  0  0
  151.4264  144.3691  156.9093 H   0  0  0  0  0  0  0  0  0  0  0  0
  149.5545  143.1318  155.8955 H   0  0  0  0  0  0  0  0  0  0  0  0
  149.7284  140.1998  156.4698 H   0  0  0  0  0  0  0  0  0  0  0  0
  149.9881  141.4880  153.8343 H   0  0  0  0  0  0  0  0  0  0  0  0
  150.0896  139.7847  154.2849 H   0  0  0  0  0  0  0  0  0  0  0  0
  147.9661  139.8238  153.0558 H   0  0  0  0  0  0  0  0  0  0  0  0
  147.8464  142.5468  153.2661 H   0  0  0  0  0  0  0  0  0  0  0  0
  146.3287  141.6408  153.3103 H   0  0  0  0  0  0  0  0  0  0  0  0
  147.4745  143.1317  155.5421 H   0  0  0  0  0  0  0  0  0  0  0  0
  146.0019  142.1645  155.5129 H   0  0  0  0  0  0  0  0  0  0  0  0
  147.4054  140.8278  157.0210 H   0  0  0  0  0  0  0  0  0  0  0  0
  151.8270  140.4652  159.8605 H   0  0  0  0  0  0  0  0  0  0  0  0
  1  2  1  0  0  0  0
  2  3  1  0  0  0  0
  2  4  1  0  0  0  0
  2 19  1  0  0  0  0
  4  5  1  0  0  0  0
  5 18  1  0  0  0  0
  5  6  2  0  0  0  0
  6  7  1  0  0  0  0
  6 20  1  0  0  0  0
  7  8  2  0  0  0  0
  7 21  1  0  0  0  0
  8  9  1  0  0  0  0
  8 17  1  0  0  0  0
  9 10  1  0  0  0  0
  9 22  1  0  0  0  0
 10 15  1  0  0  0  0
 10 11  1  0  0  0  0
 10 23  1  0  0  0  0
 11 12  1  0  0  0  0
 11 24  1  0  0  0  0
 11 25  1  0  0  0  0
 12 16  1  0  0  0  0
 12 13  1  0  0  0  0
 12 26  1  0  0  0  0
 13 14  1  0  0  0  0
 13 27  1  0  0  0  0
 13 28  1  0  0  0  0
 14 15  1  0  0  0  0
 14 29  1  0  0  0  0
 14 30  1  0  0  0  0
 15 16  1  0  0  0  0
 15 31  1  0  0  0  0
 17 18  2  0  0  0  0
 18 32  1  0  0  0  0
M  END
> <s_m_source_file>
AV-unprocessed.smi

> <i_m_source_file_index>
2837

> <i_lp_mmshare_version>
43012

> <i_f3d_flags>
0

> <s_epik_input>
RltDSF0oRilPYzFbY0hdW2NIXWMobltjSF0xKVtOSF1bQ0BIXShbQ0gyXVtDQEBIXTIzKVtDQEBIXShPMylbQ0gyXVtDSDJdMg==

> <s_epik_cmdline>
J2VwaWtfcHl0aG9uJywgJy1waCcsICc3LjAnLCAnLXRuJywgJzgnLCAnLW1hJywgJzIwMCcsICctbWV0YWxfYmluZGluZycsICctaW1hZScsICc8aW5maWxlLm1hZT4nLCAnLW9tYWUnLCAnPG91dGZpbGUubWFlPic=

> <r_lp_tautomer_probability>
1

> <r_epik_Ionization_Penalty>
0.0124072

> <r_epik_Ionization_Penalty_Charging>
0

> <r_epik_Ionization_Penalty_Neutral>
0.0124072

> <r_epik_State_Penalty>
0.00959565

> <r_epik_Charging_Adjusted_Penalty>
0.00959565

> <i_epik_Tot_Q>
0

> <i_epik_Tot_abs_Q>
0

> <r_epik_Metal_State_Penalty>
9.67369e-06

> <b_epik_Metal_Only>
0

> <s_lp_Force_Field>
OPLS_2005

> <r_lp_Energy>
39.9144

> <b_lp_Chiralities_Consistent>
1

> <s_lp_Variant>
AV-unprocessed.smi:2837-3

> <Gold.Version>
5.8.1

> <Gold.Id.Protein>
6NUR|6NUR_protein|mol2

> <Gold.PLP.Fitness>
43.1089

> <Gold.PLP.PLP>
-40.6777

> <Gold.PLP.part.hbond>
-1.0000

> <Gold.PLP.part.metal>
0.0000

> <Gold.PLP.part.buried>
-2.5532

> <Gold.PLP.part.nonpolar>
-36.2093

> <Gold.PLP.part.repulsive>
0.1372

> <Gold.PLP.ligand.clash>
0.0000

> <Gold.PLP.ligand.torsion>
0.3366

> <Gold.PLP.Chemscore.Hbond>
1.0000

> <Gold.PLP.Chemscore.CHOScore>
0.0000

> <Gold.PLP.Chemscore.Metal>
0.0000

> <Gold.Chemscore.Hbonds>
donor molecule, donor type, donor heavy atom, donor atom, acceptor molecule, acceptor atom, score
      L1  H     9    22       P1  8028  1.00

> <Gold.PLP.Chemscore.Internal.Correction>
0.1045

> <Gold.Rescore>
     Score         DG    S(hbond)    S(metal)    S(lipo)     H(rot)  DE(clash)    DE(int)     intcor
     15.73     -16.06       1.00        0.00      90.81       1.32       0.10       0.22       ----

> <Gold.Chemscore.Fitness>
15.7310

> <Gold.Chemscore.DG>
-16.0606

> <Gold.Chemscore.ZeroCoef>
-5.4800

> <Gold.Chemscore.Hbond>
0.9994

> <Gold.Chemscore.Metal>
0.0000

> <Gold.Chemscore.Lipo>
90.8118

> <Gold.Chemscore.Internal_Hbond>
0.0000

> <Gold.Chemscore.DEClash>
0.1046

> <Gold.Chemscore.DEInternal>
0.2250

> <Gold.Chemscore.Rot>
1.3213

> <Gold.Chemscore.Internal.Correction>
   9.000000E+99

> <Gold.Chemscore.Hbonds>
donor molecule, donor type, donor heavy atom, donor atom, acceptor molecule, acceptor atom, score
      L1  H     9    22       P1  8028  1.00

> <Gold.Chemscore.Hbond.Weighted>
-3.3381

> <Gold.Chemscore.Metal.Weighted>
-0.0000

> <Gold.Chemscore.Lipo.Weighted>
-10.6250

> <Gold.Chemscore.Internal_Hbond.Weighted>
0.0000

> <Gold.Chemscore.DEClash.Weighted>
0.1046

> <Gold.Chemscore.DEInternal.Weighted>
0.2250

> <Gold.Chemscore.Rot.Weighted>
3.3825

> <Gold.Chemscore.Internal.Correction.Weighted>
   9.000000E+99

> <Gold.Protein.RotatedTorsions>
[ 6907 6896 6895 6894 ] final  152.61 input  -60.11 | X-H torsion
[ 7974 7965 7964 7962 ] final   23.01 input  175.53 | X-H torsion
[ 8008 7997 7996 7995 ] final   96.51 input   59.86 | X-H torsion
[ 10167 10162 10161 10158 ] final  107.36 input  -65.29 | X-H torsion
[ 10718 10713 10712 10709 ] final  163.16 input   66.30 | X-H torsion
[ 10763 10752 10751 10750 ] final  175.55 input  -60.55 | X-H torsion
[ 11005 11000 10999 10996 ] final -131.91 input  -57.11 | X-H torsion

> <Gold.Protein.ActiveResidues>
 VAL166  LYS551  ARG553  GLY616  TRP617  ASP618  TYR619  PRO620  LYS621  CYS622 
 ASP623  PHE694  ASN695  SER759  ASP760  ASP761  ALA762  ILE779  LEU786  VAL792 
 PHE793  MET794  SER795  GLU796  ALA797  LYS798  CYS799  TRP800  GLU811  SER814 

> <Gold.Protein.RotatedAtoms>
  152.0843  133.4168  159.4514 H   0  0  0  0  0  0  0  0  0  0  0  0  # atno 6907 bound_to 6896
  150.6862  134.2946  159.4690 H   0  0  0  0  0  0  0  0  0  0  0  0  # atno 6908 bound_to 6896
  152.0791  134.9483  160.0624 H   0  0  0  0  0  0  0  0  0  0  0  0  # atno 6909 bound_to 6896
  146.2004  139.7805  142.8766 H   0  0  0  0  0  0  0  0  0  0  0  0  # atno 7974 bound_to 7965
  156.0804  140.3271  155.7687 H   0  0  0  0  0  0  0  0  0  0  0  0  # atno 8008 bound_to 7997
  155.5162  140.0581  157.2932 H   0  0  0  0  0  0  0  0  0  0  0  0  # atno 8009 bound_to 7997
  154.4579  140.1952  156.0344 H   0  0  0  0  0  0  0  0  0  0  0  0  # atno 8010 bound_to 7997
  139.6933  144.7105  151.1310 H   0  0  0  0  0  0  0  0  0  0  0  0  # atno 10167 bound_to 10162
  157.1124  131.0471  151.2451 H   0  0  0  0  0  0  0  0  0  0  0  0  # atno 10718 bound_to 10713
  154.4691  135.2770  155.1656 H   0  0  0  0  0  0  0  0  0  0  0  0  # atno 10763 bound_to 10752
  154.3413  135.6169  153.5601 H   0  0  0  0  0  0  0  0  0  0  0  0  # atno 10764 bound_to 10752
  152.9862  135.5789  154.5068 H   0  0  0  0  0  0  0  0  0  0  0  0  # atno 10765 bound_to 10752
  140.9217  134.1436  157.4309 H   0  0  0  0  0  0  0  0  0  0  0  0  # atno 11005 bound_to 11000
  145.3504  141.0306  143.3341 LP  0  0  0  0  0  0  0  0  0  0  0  0  # atno 17320 bound_to 7965
  144.8670  139.5093  143.6785 LP  0  0  0  0  0  0  0  0  0  0  0  0  # atno 17321 bound_to 7965
  140.7689  143.5528  150.9186 LP  0  0  0  0  0  0  0  0  0  0  0  0  # atno 17342 bound_to 10162
  139.9206  143.6610  152.3097 LP  0  0  0  0  0  0  0  0  0  0  0  0  # atno 17343 bound_to 10162
  157.4548  130.7619  149.7183 LP  0  0  0  0  0  0  0  0  0  0  0  0  # atno 17370 bound_to 10713
  155.9847  130.3989  150.3297 LP  0  0  0  0  0  0  0  0  0  0  0  0  # atno 17371 bound_to 10713
  139.8777  134.9973  156.5842 LP  0  0  0  0  0  0  0  0  0  0  0  0  # atno 17394 bound_to 11000
  140.7979  133.8529  155.8702 LP  0  0  0  0  0  0  0  0  0  0  0  0  # atno 17395 bound_to 11000

$$$$
