#       Name:                AV-unprocessed.smi:204
#       Creating user name   scv26
#       Creation time:       Thu Mar 26 19:50:28 2020


#       File generated by GOLD software.
#

@<TRIPOS>MOLECULE
AV-unprocessed.smi:204
    63    66     1
SMALL
NO_CHARGES


@<TRIPOS>ATOM
      1 ****        -7.0738   2.8881  -3.1372 C.3            1 S1                 0.0000
      2 ****        -5.6532   3.1046  -2.6263 C.2            1 S1                 0.0000
      3 ****        -5.2368   4.2440  -2.4197 O.2            1 S1                 0.0000
      4 ****        -4.9202   2.0004  -2.4275 N.am           1 S1                 0.0000
      5 ****        -3.5439   1.9979  -1.9470 C.3            1 S1                 0.0000
      6 ****        -3.0312   0.5659  -1.7063 C.3            1 S1                 0.0000
      7 ****        -3.8439  -0.1815  -0.6262 C.3            1 S1                 0.0000
      8 ****        -3.2693  -1.5865  -0.3861 C.3            1 S1                 0.0000
      9 ****        -1.7716  -1.5182  -0.0501 C.3            1 S1                 0.0000
     10 ****        -1.0498  -0.7807  -1.0818 N.3            1 S1                 0.0000
     11 ****         0.2908  -0.8680  -0.9572 C.ar           1 S1                 0.0000
     12 ****         0.9498  -1.6186  -1.8730 N.ar           1 S1                 0.0000
     13 ****         2.2785  -1.7443  -1.7999 C.ar           1 S1                 0.0000
     14 ****         3.1196  -1.2166  -0.9075 N.ar           1 S1                 0.0000
     15 ****         2.4569  -0.4668   0.0193 C.ar           1 S1                 0.0000
     16 ****         1.0526  -0.2387   0.0671 C.ar           1 S1                 0.0000
     17 ****         0.7402   0.5767   1.1480 N.2            1 S1                 0.0000
     18 ****         1.8949   0.8213   1.7043 C.2            1 S1                 0.0000
     19 ****         2.9786   0.2249   1.0989 N.pl3          1 S1                 0.0000
     20 ****         4.3689   0.3284   1.5164 C.3            1 S1                 0.0000
     21 ****         4.8823  -0.8852   2.3200 C.3            1 S1                 0.0000
     22 ****         3.9367  -1.2104   3.4901 C.3            1 S1                 0.0000
     23 ****         3.8211  -0.1188   4.3807 O.3            1 S1                 0.0000
     24 ****         5.3073  -2.1084   1.4941 C.3            1 S1                 0.0000
     25 ****         6.5812  -2.1891   2.1671 O.3            1 S1                 0.0000
     26 ****         6.3727  -0.8587   2.6862 C.3            1 S1                 0.0000
     27 ****        -1.5379   0.5748  -1.3228 C.3            1 S1                 0.0000
     28 ****        -7.0577   2.3955  -4.1098 H              1 S1                 0.0000
     29 ****        -7.5973   3.8386  -3.2447 H              1 S1                 0.0000
     30 ****        -7.6376   2.2650  -2.4425 H              1 S1                 0.0000
     31 ****        -5.3415   1.1036  -2.6226 H              1 S1                 0.0000
     32 ****        -2.9157   2.4984  -2.6855 H              1 S1                 0.0000
     33 ****        -3.4766   2.5792  -1.0256 H              1 S1                 0.0000
     34 ****        -3.1275   0.0143  -2.6432 H              1 S1                 0.0000
     35 ****        -3.8253   0.3838   0.3067 H              1 S1                 0.0000
     36 ****        -4.8909  -0.2649  -0.9186 H              1 S1                 0.0000
     37 ****        -3.8114  -2.0809   0.4202 H              1 S1                 0.0000
     38 ****        -3.4144  -2.1967  -1.2785 H              1 S1                 0.0000
     39 ****        -1.6299  -1.0291   0.9147 H              1 S1                 0.0000
     40 ****        -1.3652  -2.5269   0.0385 H              1 S1                 0.0000
     41 ****         2.7327  -2.3561  -2.5653 H              1 S1                 0.0000
     42 ****         1.9883   1.4417   2.5840 H              1 S1                 0.0000
     43 ****         4.9745   0.4798   0.6220 H              1 S1                 0.0000
     44 ****         4.4804   1.2433   2.0994 H              1 S1                 0.0000
     45 ****         2.9445  -1.4955   3.1403 H              1 S1                 0.0000
     46 ****         4.3103  -2.0638   4.0574 H              1 S1                 0.0000
     47 ****         3.2654  -0.3765   5.1008 H              1 S1                 0.0000
     48 ****         4.6875  -2.9915   1.6540 H              1 S1                 0.0000
     49 ****         5.4334  -1.9096   0.4291 H              1 S1                 0.0000
     50 ****         6.9511  -0.1149   2.1357 H              1 S1                 0.0000
     51 ****         6.5690  -0.7895   3.7568 H              1 S1                 0.0000
     52 ****        -0.9521   1.0351  -2.1200 H              1 S1                 0.0000
     53 ****        -1.3922   1.1819  -0.4286 H              1 S1                 0.0000
     54 ****        -5.8304   5.0312  -2.5868 LP             1 S1                 0.0000
     55 ****        -4.3049   4.3827  -2.0847 LP             1 S1                 0.0000
     56 ****        -1.2706  -1.2599  -1.9313 LP             1 S1                 0.0000
     57 ****         0.4427  -2.0778  -2.6024 LP             1 S1                 0.0000
     58 ****         4.1101  -1.3537  -0.9173 LP             1 S1                 0.0000
     59 ****        -0.1616   0.9012   1.4337 LP             1 S1                 0.0000
     60 ****         3.4168   0.6627   3.9056 LP             1 S1                 0.0000
     61 ****         4.7255   0.1323   4.7257 LP             1 S1                 0.0000
     62 ****         7.3657  -2.2717   1.5525 LP             1 S1                 0.0000
     63 ****         6.6307  -2.9003   2.8684 LP             1 S1                 0.0000
@<TRIPOS>BOND
    1    1    2 1     
    2    1   28 1     
    3    1   29 1     
    4    1   30 1     
    5    2    3 2     
    6    2    4 am    
    7    4    5 1     
    8    4   31 1     
    9    5    6 1     
   10    5   32 1     
   11    5   33 1     
   12    6   27 1     
   13    6    7 1     
   14    6   34 1     
   15    7    8 1     
   16    7   35 1     
   17    7   36 1     
   18    8    9 1     
   19    8   37 1     
   20    8   38 1     
   21    9   10 1     
   22    9   39 1     
   23    9   40 1     
   24   10   11 1     
   25   10   27 1     
   26   11   16 ar    
   27   11   12 ar    
   28   12   13 ar    
   29   13   14 ar    
   30   13   41 1     
   31   14   15 ar    
   32   15   19 1     
   33   15   16 ar    
   34   16   17 1     
   35   17   18 2     
   36   18   19 1     
   37   18   42 1     
   38   19   20 1     
   39   20   21 1     
   40   20   43 1     
   41   20   44 1     
   42   21   26 1     
   43   21   22 1     
   44   21   24 1     
   45   22   23 1     
   46   22   45 1     
   47   22   46 1     
   48   23   47 1     
   49   24   25 1     
   50   24   48 1     
   51   24   49 1     
   52   25   26 1     
   53   26   50 1     
   54   26   51 1     
   55   27   52 1     
   56   27   53 1     
   57    3   54 1     
   58    3   55 1     
   59   10   56 1     
   60   12   57 1     
   61   14   58 1     
   62   17   59 1     
   63   23   60 1     
   64   23   61 1     
   65   25   62 1     
   66   25   63 1     
@<TRIPOS>SUBSTRUCTURE
      1 S1             1
@<TRIPOS>SET
LONE_PAIRS      STATIC     ATOMS    <user>   **** ""
10 54 55 56 57 58 59 60 61 62 63
DONOR_HYDROGENS      STATIC     ATOMS    <user>   **** ""
2 31 47
ATOM$BLUE        STATIC     ATOMS    COLORGROUP SYSTEM
10 54 55 56 57 58 59 60 61 62 63
ATOM$RED        STATIC     ATOMS    COLORGROUP SYSTEM
2 31 47
