AV-unprocessed.smi:224|AV-procd|sdf|1720|dock10
  -GOLD-   2262020193D 1   1.00000     0.00000
 Structure written by MMmdl.
 56 59  0  0  0  0  0  0  0  0  2 V2000
  152.4997  144.2916  159.1294 C   0  0  0  0  0  0  0  0  0  0  0  0
  151.1391  143.8172  158.6029 C   0  0  1  0  0  0  0  0  0  0  0  0
  150.4091  144.9593  158.2019 O   0  0  0  0  0  0  0  0  0  0  0  0
  151.2935  142.8586  157.4048 C   0  0  0  0  0  0  0  0  0  0  0  0
  149.9888  142.4023  156.8570 N   0  3  2  0  0  0  0  0  0  0  0  0
  149.0832  141.8045  157.8753 C   0  0  0  0  0  0  0  0  0  0  0  0
  147.7031  141.4929  157.2689 C   0  0  0  0  0  0  0  0  0  0  0  0
  147.8266  140.6787  156.0614 N   0  0  0  0  0  0  0  0  0  0  0  0
  147.7711  139.3229  156.1594 C   0  0  0  0  0  0  0  0  0  0  0  0
  148.2094  138.5563  155.1251 N   0  0  0  0  0  0  0  0  0  0  0  0
  148.1431  137.2238  155.1917 C   0  0  0  0  0  0  0  0  0  0  0  0
  147.6876  136.4614  156.1860 N   0  0  0  0  0  0  0  0  0  0  0  0
  147.2644  137.2195  157.2372 C   0  0  0  0  0  0  0  0  0  0  0  0
  147.2676  138.6421  157.3056 C   0  0  0  0  0  0  0  0  0  0  0  0
  146.7652  139.0535  158.5351 N   0  0  0  0  0  0  0  0  0  0  0  0
  146.4708  137.9411  159.1505 C   0  0  0  0  0  0  0  0  0  0  0  0
  146.7500  136.7908  158.4485 N   0  0  0  0  0  0  0  0  0  0  0  0
  146.5289  135.4237  158.8941 C   0  0  0  0  0  0  0  0  0  0  0  0
  147.6041  134.9019  159.8819 C   0  0  2  0  0  0  0  0  0  0  0  0
  148.8324  134.7244  159.2024 O   0  0  0  0  0  0  0  0  0  0  0  0
  147.1935  133.5926  160.5358 C   0  0  0  0  0  0  0  0  0  0  0  0
  146.3472  134.0545  161.7203 C   0  0  0  0  0  0  0  0  0  0  0  0
  146.8271  135.3507  162.0658 O   0  0  0  0  0  0  0  0  0  0  0  0
  147.8036  135.7812  161.1231 C   0  0  0  0  0  0  0  0  0  0  0  0
  148.7157  141.2409  155.0460 C   0  0  0  0  0  0  0  0  0  0  0  0
  150.1111  141.5714  155.6217 C   0  0  2  0  0  0  0  0  0  0  0  0
  150.9762  140.3072  155.8173 C   0  0  0  0  0  0  0  0  0  0  0  0
  153.1008  143.4501  159.4747 H   0  0  0  0  0  0  0  0  0  0  0  0
  152.3799  144.9756  159.9705 H   0  0  0  0  0  0  0  0  0  0  0  0
  153.0679  144.8112  158.3567 H   0  0  0  0  0  0  0  0  0  0  0  0
  150.6055  143.3375  159.4226 H   0  0  0  0  0  0  0  0  0  0  0  0
  150.1494  144.8590  157.2993 H   0  0  0  0  0  0  0  0  0  0  0  0
  151.8618  143.3707  156.6263 H   0  0  0  0  0  0  0  0  0  0  0  0
  151.8846  141.9870  157.6905 H   0  0  0  0  0  0  0  0  0  0  0  0
  149.5332  140.8995  158.2841 H   0  0  0  0  0  0  0  0  0  0  0  0
  148.9496  142.4862  158.7139 H   0  0  0  0  0  0  0  0  0  0  0  0
  147.0541  141.0165  158.0047 H   0  0  0  0  0  0  0  0  0  0  0  0
  147.2081  142.4252  156.9946 H   0  0  0  0  0  0  0  0  0  0  0  0
  148.5066  136.6922  154.3246 H   0  0  0  0  0  0  0  0  0  0  0  0
  146.0472  137.9285  160.1445 H   0  0  0  0  0  0  0  0  0  0  0  0
  145.5390  135.3763  159.3492 H   0  0  0  0  0  0  0  0  0  0  0  0
  146.4870  134.7821  158.0130 H   0  0  0  0  0  0  0  0  0  0  0  0
  148.8573  135.3165  158.4664 H   0  0  0  0  0  0  0  0  0  0  0  0
  146.6601  132.9165  159.8665 H   0  0  0  0  0  0  0  0  0  0  0  0
  148.0707  133.0632  160.9121 H   0  0  0  0  0  0  0  0  0  0  0  0
  145.2978  134.1365  161.4355 H   0  0  0  0  0  0  0  0  0  0  0  0
  146.4133  133.3695  162.5659 H   0  0  0  0  0  0  0  0  0  0  0  0
  148.7835  135.5964  161.5663 H   0  0  0  0  0  0  0  0  0  0  0  0
  147.7358  136.8510  160.9301 H   0  0  0  0  0  0  0  0  0  0  0  0
  148.8216  140.5907  154.1793 H   0  0  0  0  0  0  0  0  0  0  0  0
  148.2522  142.1559  154.6757 H   0  0  0  0  0  0  0  0  0  0  0  0
  150.6176  142.1850  154.8755 H   0  0  0  0  0  0  0  0  0  0  0  0
  151.0181  139.7234  154.8974 H   0  0  0  0  0  0  0  0  0  0  0  0
  150.5862  139.6544  156.5972 H   0  0  0  0  0  0  0  0  0  0  0  0
  152.0039  140.5566  156.0813 H   0  0  0  0  0  0  0  0  0  0  0  0
  149.5252  143.2441  156.5466 H   0  0  0  0  0  0  0  0  0  0  0  0
  1  2  1  0  0  0  0
  1 28  1  0  0  0  0
  1 29  1  0  0  0  0
  1 30  1  0  0  0  0
  2  3  1  0  0  0  0
  2  4  1  0  0  0  0
  2 31  1  0  0  0  0
  3 32  1  0  0  0  0
  4  5  1  0  0  0  0
  4 33  1  0  0  0  0
  4 34  1  0  0  0  0
  5 26  1  0  0  0  0
  5  6  1  0  0  0  0
  5 56  1  0  0  0  0
  6  7  1  0  0  0  0
  6 35  1  0  0  0  0
  6 36  1  0  0  0  0
  7  8  1  0  0  0  0
  7 37  1  0  0  0  0
  7 38  1  0  0  0  0
  8  9  1  0  0  0  0
  8 25  1  0  0  0  0
  9 14  1  0  0  0  0
  9 10  2  0  0  0  0
 10 11  1  0  0  0  0
 11 12  2  0  0  0  0
 11 39  1  0  0  0  0
 12 13  1  0  0  0  0
 13 17  1  0  0  0  0
 13 14  2  0  0  0  0
 14 15  1  0  0  0  0
 15 16  2  0  0  0  0
 16 17  1  0  0  0  0
 16 40  1  0  0  0  0
 17 18  1  0  0  0  0
 18 19  1  0  0  0  0
 18 41  1  0  0  0  0
 18 42  1  0  0  0  0
 19 24  1  0  0  0  0
 19 20  1  0  0  0  0
 19 21  1  0  0  0  0
 20 43  1  0  0  0  0
 21 22  1  0  0  0  0
 21 44  1  0  0  0  0
 21 45  1  0  0  0  0
 22 23  1  0  0  0  0
 22 46  1  0  0  0  0
 22 47  1  0  0  0  0
 23 24  1  0  0  0  0
 24 48  1  0  0  0  0
 24 49  1  0  0  0  0
 25 26  1  0  0  0  0
 25 50  1  0  0  0  0
 25 51  1  0  0  0  0
 26 27  1  0  0  0  0
 26 52  1  0  0  0  0
 27 53  1  0  0  0  0
 27 54  1  0  0  0  0
 27 55  1  0  0  0  0
M  CHG  1   5   1
M  END
> <s_m_source_file>
AV-unprocessed.smi

> <i_m_source_file_index>
224

> <i_lp_mmshare_version>
43012

> <i_f3d_flags>
0

> <s_epik_input>
W0NIM11bQ0BIXShbT0hdKVtDSDJdTjFbQ0gyXVtDSDJdTihbQ0gyXVtDQEhdMVtDSDNdKWMobltjSF1uMiljKGMyMyluW2NIXW4zW0NIMl1bQ0BAXTQoW09IXSlbQ0gyXVtDSDJdT1tDSDJdNA==

> <s_epik_cmdline>
J2VwaWtfcHl0aG9uJywgJy1waCcsICc3LjAnLCAnLXRuJywgJzgnLCAnLW1hJywgJzIwMCcsICctbWV0YWxfYmluZGluZycsICctaW1hZScsICc8aW5maWxlLm1hZT4nLCAnLW9tYWUnLCAnPG91dGZpbGUubWFlPic=

> <r_lp_tautomer_probability>
1

> <r_epik_Ionization_Penalty>
0.00516958

> <r_epik_Ionization_Penalty_Charging>
0.00509693

> <r_epik_Ionization_Penalty_Neutral>
7.26542e-05

> <r_epik_State_Penalty>
-0

> <r_epik_Charging_Adjusted_Penalty>
0.00509693

> <i_epik_Tot_Q>
1

> <i_epik_Tot_abs_Q>
1

> <r_epik_Metal_State_Penalty>
-0

> <b_epik_Metal_Only>
0

> <s_lp_Force_Field>
OPLS_2005

> <r_lp_Energy>
52.1704

> <b_lp_Chiralities_Consistent>
1

> <s_lp_Variant>
AV-unprocessed.smi:224-14

> <Gold.Version>
5.8.1

> <Gold.Id.Protein>
6NUR|6NUR_protein|mol2

> <Gold.PLP.Fitness>
47.3006

> <Gold.PLP.PLP>
-33.1972

> <Gold.PLP.part.hbond>
-5.0000

> <Gold.PLP.part.metal>
0.0000

> <Gold.PLP.part.buried>
-3.5663

> <Gold.PLP.part.nonpolar>
-25.6858

> <Gold.PLP.part.repulsive>
0.1267

> <Gold.PLP.ligand.clash>
0.0000

> <Gold.PLP.ligand.torsion>
0.4628

> <Gold.PLP.Chemscore.Hbond>
3.9000

> <Gold.PLP.Chemscore.CHOScore>
1.0000

> <Gold.PLP.Chemscore.Metal>
0.0000

> <Gold.Chemscore.Hbonds>
donor molecule, donor type, donor heavy atom, donor atom, acceptor molecule, acceptor atom, score
      L1  H     3    32       P1  8028  0.85
      L1  H     5    56       P1  8028  2.00
      P1  H  6896  6907       L1    20  1.00
      L1  C    11    39       P1  7948  0.98

> <Gold.PLP.Chemscore.Internal.Correction>
0.3290

> <Gold.Rescore>
     Score         DG    S(hbond)    S(metal)    S(lipo)     H(rot)  DE(clash)    DE(int)     intcor
     13.78     -15.86       2.44        0.00      85.23       3.02       0.39       1.68       ----

> <Gold.Chemscore.Fitness>
13.7826

> <Gold.Chemscore.DG>
-15.8583

> <Gold.Chemscore.ZeroCoef>
-5.4800

> <Gold.Chemscore.Hbond>
2.4388

> <Gold.Chemscore.Metal>
0.0000

> <Gold.Chemscore.Lipo>
85.2302

> <Gold.Chemscore.Internal_Hbond>
0.0000

> <Gold.Chemscore.DEClash>
0.3912

> <Gold.Chemscore.DEInternal>
1.6845

> <Gold.Chemscore.Rot>
3.0231

> <Gold.Chemscore.Internal.Correction>
   9.000000E+99

> <Gold.Chemscore.Hbonds>
donor molecule, donor type, donor heavy atom, donor atom, acceptor molecule, acceptor atom, score
      L1  H     3    32       P1  8028  0.14
      L1  H     5    56       P1  8028  1.00
      P1  H  6896  6907       L1    20  0.43

> <Gold.Chemscore.Hbond.Weighted>
-8.1455

> <Gold.Chemscore.Metal.Weighted>
-0.0000

> <Gold.Chemscore.Lipo.Weighted>
-9.9719

> <Gold.Chemscore.Internal_Hbond.Weighted>
0.0000

> <Gold.Chemscore.DEClash.Weighted>
0.3912

> <Gold.Chemscore.DEInternal.Weighted>
1.6845

> <Gold.Chemscore.Rot.Weighted>
7.7391

> <Gold.Chemscore.Internal.Correction.Weighted>
   9.000000E+99

> <Gold.Protein.RotatedTorsions>
[ 6907 6896 6895 6894 ] final  -93.45 input  -60.11 | X-H torsion
[ 7974 7965 7964 7962 ] final  -26.46 input  175.53 | X-H torsion
[ 8008 7997 7996 7995 ] final  130.74 input   59.86 | X-H torsion
[ 10167 10162 10161 10158 ] final   13.46 input  -65.29 | X-H torsion
[ 10718 10713 10712 10709 ] final   48.42 input   66.30 | X-H torsion
[ 10763 10752 10751 10750 ] final   -8.45 input  -60.55 | X-H torsion
[ 11005 11000 10999 10996 ] final -160.83 input  -57.11 | X-H torsion

> <Gold.Protein.ActiveResidues>
 VAL166  LYS551  ARG553  GLY616  TRP617  ASP618  TYR619  PRO620  LYS621  CYS622 
 ASP623  PHE694  ASN695  SER759  ASP760  ASP761  ALA762  ILE779  LEU786  VAL792 
 PHE793  MET794  SER795  GLU796  ALA797  LYS798  CYS799  TRP800  GLU811  SER814 

> <Gold.Protein.RotatedAtoms>
  150.6923  134.1966  159.4305 H   0  0  0  0  0  0  0  0  0  0  0  0  # atno 6907 bound_to 6896
  151.9934  134.9964  160.0571 H   0  0  0  0  0  0  0  0  0  0  0  0  # atno 6908 bound_to 6896
  152.1646  133.4569  159.4915 H   0  0  0  0  0  0  0  0  0  0  0  0  # atno 6909 bound_to 6896
  146.1424  140.5022  142.8646 H   0  0  0  0  0  0  0  0  0  0  0  0  # atno 7974 bound_to 7965
  156.2959  140.2588  156.2811 H   0  0  0  0  0  0  0  0  0  0  0  0  # atno 8008 bound_to 7997
  154.9601  140.0392  157.2204 H   0  0  0  0  0  0  0  0  0  0  0  0  # atno 8009 bound_to 7997
  154.7955  140.2819  155.5965 H   0  0  0  0  0  0  0  0  0  0  0  0  # atno 8010 bound_to 7997
  140.6001  143.8622  150.6956 H   0  0  0  0  0  0  0  0  0  0  0  0  # atno 10167 bound_to 10162
  157.4685  130.8240  149.7962 H   0  0  0  0  0  0  0  0  0  0  0  0  # atno 10718 bound_to 10713
  153.4407  135.7013  153.6171 H   0  0  0  0  0  0  0  0  0  0  0  0  # atno 10763 bound_to 10752
  153.4547  135.3750  155.2304 H   0  0  0  0  0  0  0  0  0  0  0  0  # atno 10764 bound_to 10752
  154.8727  135.4005  154.3805 H   0  0  0  0  0  0  0  0  0  0  0  0  # atno 10765 bound_to 10752
  140.6272  134.4689  157.5227 H   0  0  0  0  0  0  0  0  0  0  0  0  # atno 11005 bound_to 11000
  144.7807  140.5834  143.6607 LP  0  0  0  0  0  0  0  0  0  0  0  0  # atno 17320 bound_to 7965
  145.5016  139.1483  143.3654 LP  0  0  0  0  0  0  0  0  0  0  0  0  # atno 17321 bound_to 7965
  140.2166  143.3842  152.1676 LP  0  0  0  0  0  0  0  0  0  0  0  0  # atno 17342 bound_to 10162
  139.5285  144.7131  151.5142 LP  0  0  0  0  0  0  0  0  0  0  0  0  # atno 17343 bound_to 10162
  156.0062  130.3854  150.2424 LP  0  0  0  0  0  0  0  0  0  0  0  0  # atno 17370 bound_to 10713
  157.0605  131.0088  151.3224 LP  0  0  0  0  0  0  0  0  0  0  0  0  # atno 17371 bound_to 10713
  139.9130  134.8304  156.1462 LP  0  0  0  0  0  0  0  0  0  0  0  0  # atno 17394 bound_to 11000
  141.0701  133.6801  156.2123 LP  0  0  0  0  0  0  0  0  0  0  0  0  # atno 17395 bound_to 11000

$$$$
