AV-unprocessed.smi:652|AV-procd|sdf|3193|dock4
  -GOLD-   22720 0123D 1   1.00000     0.00000
 Structure written by MMmdl.
 48 49  0  0  0  0  0  0  0  0  2 V2000
  148.2167  144.6719  160.8498 C   0  0  0  0  0  0  0  0  0  0  0  0
  146.8212  144.8607  160.2351 C   0  0  0  0  0  0  0  0  0  0  0  0
  145.7281  144.2267  161.1055 C   0  0  0  0  0  0  0  0  0  0  0  0
  146.7733  144.2799  158.8963 N   0  0  0  0  0  0  0  0  0  0  0  0
  146.5957  142.9793  158.6166 C   0  0  0  0  0  0  0  0  0  0  0  0
  146.4536  142.1155  159.4825 O   0  0  0  0  0  0  0  0  0  0  0  0
  146.5803  142.6137  157.1283 C   0  0  0  0  0  0  0  0  0  0  0  0
  147.6301  141.5496  156.7423 C   0  0  0  0  0  0  0  0  0  0  0  0
  148.8418  142.1396  156.1114 N   0  3  2  0  0  0  0  0  0  0  0  0
  149.1822  141.5256  154.8044 C   0  0  0  0  0  0  0  0  0  0  0  0
  149.8773  140.1645  154.9923 C   0  0  0  0  0  0  0  0  0  0  0  0
  151.0282  140.3270  155.8123 O   0  0  0  0  0  0  0  0  0  0  0  0
  150.7087  140.8024  157.1167 C   0  0  1  0  0  0  0  0  0  0  0  0
  152.0051  140.8757  157.9347 C   0  0  0  0  0  0  0  0  0  0  0  0
  151.7592  141.3570  159.2869 N   0  0  0  0  0  0  0  0  0  0  0  0
  151.8092  142.7259  159.5814 C   0  0  0  0  0  0  0  0  0  0  0  0
  152.1812  143.6285  158.5655 C   0  0  0  0  0  0  0  0  0  0  0  0
  152.2282  144.9947  158.8922 C   0  0  0  0  0  0  0  0  0  0  0  0
  151.8987  145.3544  160.2116 C   0  0  0  0  0  0  0  0  0  0  0  0
  151.5470  144.4446  161.1480 N   0  0  0  0  0  0  0  0  0  0  0  0
  151.5033  143.1442  160.8355 N   0  0  0  0  0  0  0  0  0  0  0  0
  150.0445  142.1896  156.9825 C   0  0  0  0  0  0  0  0  0  0  0  0
  148.2684  145.1153  161.8444 H   0  0  0  0  0  0  0  0  0  0  0  0
  148.9861  145.1463  160.2398 H   0  0  0  0  0  0  0  0  0  0  0  0
  148.4701  143.6152  160.9436 H   0  0  0  0  0  0  0  0  0  0  0  0
  146.6128  145.9302  160.1692 H   0  0  0  0  0  0  0  0  0  0  0  0
  145.7235  144.6606  162.1058 H   0  0  0  0  0  0  0  0  0  0  0  0
  145.8766  143.1513  161.2109 H   0  0  0  0  0  0  0  0  0  0  0  0
  144.7394  144.3868  160.6742 H   0  0  0  0  0  0  0  0  0  0  0  0
  146.8828  144.9200  158.1231 H   0  0  0  0  0  0  0  0  0  0  0  0
  145.5816  142.2523  156.8794 H   0  0  0  0  0  0  0  0  0  0  0  0
  146.7362  143.5307  156.5608 H   0  0  0  0  0  0  0  0  0  0  0  0
  147.8994  140.9460  157.6093 H   0  0  0  0  0  0  0  0  0  0  0  0
  147.1775  140.8656  156.0226 H   0  0  0  0  0  0  0  0  0  0  0  0
  148.2939  141.4256  154.1797 H   0  0  0  0  0  0  0  0  0  0  0  0
  149.8540  142.2013  154.2733 H   0  0  0  0  0  0  0  0  0  0  0  0
  149.2012  139.4290  155.4303 H   0  0  0  0  0  0  0  0  0  0  0  0
  150.1898  139.7686  154.0260 H   0  0  0  0  0  0  0  0  0  0  0  0
  150.0250  140.1077  157.6068 H   0  0  0  0  0  0  0  0  0  0  0  0
  152.4867  139.8976  157.9724 H   0  0  0  0  0  0  0  0  0  0  0  0
  152.7014  141.5592  157.4466 H   0  0  0  0  0  0  0  0  0  0  0  0
  151.5751  140.6893  160.0216 H   0  0  0  0  0  0  0  0  0  0  0  0
  152.4244  143.2875  157.5697 H   0  0  0  0  0  0  0  0  0  0  0  0
  152.5070  145.7381  158.1603 H   0  0  0  0  0  0  0  0  0  0  0  0
  151.9168  146.3885  160.5225 H   0  0  0  0  0  0  0  0  0  0  0  0
  150.7547  142.8856  156.5337 H   0  0  0  0  0  0  0  0  0  0  0  0
  149.8059  142.6007  157.9623 H   0  0  0  0  0  0  0  0  0  0  0  0
  148.5933  143.0976  155.9100 H   0  0  0  0  0  0  0  0  0  0  0  0
  1  2  1  0  0  0  0
  1 23  1  0  0  0  0
  1 24  1  0  0  0  0
  1 25  1  0  0  0  0
  2  3  1  0  0  0  0
  2  4  1  0  0  0  0
  2 26  1  0  0  0  0
  3 27  1  0  0  0  0
  3 28  1  0  0  0  0
  3 29  1  0  0  0  0
  4  5  1  0  0  0  0
  4 30  1  0  0  0  0
  5  6  2  0  0  0  0
  5  7  1  0  0  0  0
  7  8  1  0  0  0  0
  7 31  1  0  0  0  0
  7 32  1  0  0  0  0
  8  9  1  0  0  0  0
  8 33  1  0  0  0  0
  8 34  1  0  0  0  0
  9 22  1  0  0  0  0
  9 10  1  0  0  0  0
  9 48  1  0  0  0  0
 10 11  1  0  0  0  0
 10 35  1  0  0  0  0
 10 36  1  0  0  0  0
 11 12  1  0  0  0  0
 11 37  1  0  0  0  0
 11 38  1  0  0  0  0
 12 13  1  0  0  0  0
 13 14  1  0  0  0  0
 13 22  1  0  0  0  0
 13 39  1  0  0  0  0
 14 15  1  0  0  0  0
 14 40  1  0  0  0  0
 14 41  1  0  0  0  0
 15 16  1  0  0  0  0
 15 42  1  0  0  0  0
 16 21  1  0  0  0  0
 16 17  2  0  0  0  0
 17 18  1  0  0  0  0
 17 43  1  0  0  0  0
 18 19  2  0  0  0  0
 18 44  1  0  0  0  0
 19 20  1  0  0  0  0
 19 45  1  0  0  0  0
 20 21  2  0  0  0  0
 22 46  1  0  0  0  0
 22 47  1  0  0  0  0
M  CHG  1   9   1
M  END
> <s_m_source_file>
AV-unprocessed.smi

> <i_m_source_file_index>
652

> <i_lp_mmshare_version>
43012

> <i_f3d_flags>
0

> <s_epik_input>
W0NIM11bQ0hdKFtDSDNdKVtOSF1DKD1PKVtDSDJdW0NIMl1OMVtDSDJdW0NIMl1PW0NASF0oW0NIMl0xKVtDSDJdW05IXWMyW2NIXVtjSF1bY0hdbm4y

> <s_epik_cmdline>
J2VwaWtfcHl0aG9uJywgJy1waCcsICc3LjAnLCAnLXRuJywgJzgnLCAnLW1hJywgJzIwMCcsICctbWV0YWxfYmluZGluZycsICctaW1hZScsICc8aW5maWxlLm1hZT4nLCAnLW9tYWUnLCAnPG91dGZpbGUubWFlPic=

> <r_lp_tautomer_probability>
0.999978

> <r_epik_Ionization_Penalty>
0.433079

> <r_epik_Ionization_Penalty_Charging>
0.413784

> <r_epik_Ionization_Penalty_Neutral>
0.0192945

> <r_epik_State_Penalty>
0.425138

> <r_epik_Charging_Adjusted_Penalty>
0.838922

> <i_epik_Tot_Q>
1

> <i_epik_Tot_abs_Q>
1

> <r_epik_Metal_State_Penalty>
0.422073

> <b_epik_Metal_Only>
0

> <s_lp_Force_Field>
OPLS_2005

> <r_lp_Energy>
24.1608

> <b_lp_Chiralities_Consistent>
1

> <s_lp_Variant>
AV-unprocessed.smi:652-2

> <Gold.Version>
5.8.1

> <Gold.Id.Protein>
6NUR|6NUR_protein|mol2

> <Gold.PLP.Fitness>
52.2849

> <Gold.PLP.PLP>
-43.2284

> <Gold.PLP.part.hbond>
-3.7972

> <Gold.PLP.part.metal>
0.0000

> <Gold.PLP.part.buried>
-8.3062

> <Gold.PLP.part.nonpolar>
-33.3507

> <Gold.PLP.part.repulsive>
0.5423

> <Gold.PLP.ligand.clash>
0.0000

> <Gold.PLP.ligand.torsion>
1.4456

> <Gold.PLP.Chemscore.Hbond>
3.9440

> <Gold.PLP.Chemscore.CHOScore>
0.0000

> <Gold.PLP.Chemscore.Metal>
0.0000

> <Gold.Chemscore.Hbonds>
donor molecule, donor type, donor heavy atom, donor atom, acceptor molecule, acceptor atom, score
      L1  H     4    30       P1  8029  0.99
      L1  H     9    48       P1  8028  2.00
      P1  H  6934  6946       L1     6  1.00

> <Gold.PLP.Chemscore.Internal.Correction>
0.1157

> <Gold.Rescore>
     Score         DG    S(hbond)    S(metal)    S(lipo)     H(rot)  DE(clash)    DE(int)     intcor
     17.77     -20.53       3.11        0.00      89.19       2.26       0.49       2.26       ----

> <Gold.Chemscore.Fitness>
17.7727

> <Gold.Chemscore.DG>
-20.5251

> <Gold.Chemscore.ZeroCoef>
-5.4800

> <Gold.Chemscore.Hbond>
3.1121

> <Gold.Chemscore.Metal>
0.0000

> <Gold.Chemscore.Lipo>
89.1851

> <Gold.Chemscore.Internal_Hbond>
0.0000

> <Gold.Chemscore.DEClash>
0.4890

> <Gold.Chemscore.DEInternal>
2.2634

> <Gold.Chemscore.Rot>
2.2594

> <Gold.Chemscore.Internal.Correction>
   9.000000E+99

> <Gold.Chemscore.Hbonds>
donor molecule, donor type, donor heavy atom, donor atom, acceptor molecule, acceptor atom, score
      L1  H     4    30       P1  8029  0.84
      L1  H     9    48       P1  8028  0.98
      P1  H  6933  6945       L1    21  0.01
      P1  H  6934  6946       L1     6  0.97

> <Gold.Chemscore.Hbond.Weighted>
-10.3946

> <Gold.Chemscore.Metal.Weighted>
-0.0000

> <Gold.Chemscore.Lipo.Weighted>
-10.4347

> <Gold.Chemscore.Internal_Hbond.Weighted>
0.0000

> <Gold.Chemscore.DEClash.Weighted>
0.4890

> <Gold.Chemscore.DEInternal.Weighted>
2.2634

> <Gold.Chemscore.Rot.Weighted>
5.7841

> <Gold.Chemscore.Internal.Correction.Weighted>
   9.000000E+99

> <Gold.Protein.RotatedTorsions>
[ 6907 6896 6895 6894 ] final    1.21 input  -60.11 | X-H torsion
[ 7974 7965 7964 7962 ] final   57.30 input  175.53 | X-H torsion
[ 8008 7997 7996 7995 ] final  127.99 input   59.86 | X-H torsion
[ 10167 10162 10161 10158 ] final -152.89 input  -65.29 | X-H torsion
[ 10718 10713 10712 10709 ] final  130.41 input   66.30 | X-H torsion
[ 10763 10752 10751 10750 ] final  -88.57 input  -60.55 | X-H torsion
[ 11005 11000 10999 10996 ] final   51.00 input  -57.11 | X-H torsion

> <Gold.Protein.ActiveResidues>
 VAL166  LYS551  ARG553  GLY616  TRP617  ASP618  TYR619  PRO620  LYS621  CYS622 
 ASP623  PHE694  ASN695  SER759  ASP760  ASP761  ALA762  ILE779  LEU786  VAL792 
 PHE793  MET794  SER795  GLU796  ALA797  LYS798  CYS799  TRP800  GLU811  SER814 

> <Gold.Protein.RotatedAtoms>
  151.5890  135.1054  160.0034 H   0  0  0  0  0  0  0  0  0  0  0  0  # atno 6907 bound_to 6896
  152.4316  133.7283  159.6583 H   0  0  0  0  0  0  0  0  0  0  0  0  # atno 6908 bound_to 6896
  150.8209  133.8184  159.3162 H   0  0  0  0  0  0  0  0  0  0  0  0  # atno 6909 bound_to 6896
  145.9305  139.3804  143.0424 H   0  0  0  0  0  0  0  0  0  0  0  0  # atno 7974 bound_to 7965
  156.2904  140.2655  156.2364 H   0  0  0  0  0  0  0  0  0  0  0  0  # atno 8008 bound_to 7997
  155.0021  140.0387  157.2383 H   0  0  0  0  0  0  0  0  0  0  0  0  # atno 8009 bound_to 7997
  154.7592  140.2757  155.6233 H   0  0  0  0  0  0  0  0  0  0  0  0  # atno 8010 bound_to 7997
  139.7143  143.9059  152.2480 H   0  0  0  0  0  0  0  0  0  0  0  0  # atno 10167 bound_to 10162
  157.5064  131.1095  150.9354 H   0  0  0  0  0  0  0  0  0  0  0  0  # atno 10718 bound_to 10713
  154.6459  135.5372  153.7844 H   0  0  0  0  0  0  0  0  0  0  0  0  # atno 10763 bound_to 10752
  153.0359  135.6470  154.1089 H   0  0  0  0  0  0  0  0  0  0  0  0  # atno 10764 bound_to 10752
  154.1010  135.2933  155.3231 H   0  0  0  0  0  0  0  0  0  0  0  0  # atno 10765 bound_to 10752
  140.0970  134.5133  155.8798 H   0  0  0  0  0  0  0  0  0  0  0  0  # atno 11005 bound_to 11000
  145.8432  140.9569  143.0788 LP  0  0  0  0  0  0  0  0  0  0  0  0  # atno 17320 bound_to 7965
  144.6764  140.0311  143.7482 LP  0  0  0  0  0  0  0  0  0  0  0  0  # atno 17321 bound_to 7965
  139.8937  144.6951  150.8742 LP  0  0  0  0  0  0  0  0  0  0  0  0  # atno 17342 bound_to 10162
  140.7740  143.3567  151.1908 LP  0  0  0  0  0  0  0  0  0  0  0  0  # atno 17343 bound_to 10162
  157.0009  130.5599  149.5311 LP  0  0  0  0  0  0  0  0  0  0  0  0  # atno 17370 bound_to 10713
  156.0261  130.5355  150.8410 LP  0  0  0  0  0  0  0  0  0  0  0  0  # atno 17371 bound_to 10713
  141.2095  133.6684  156.6441 LP  0  0  0  0  0  0  0  0  0  0  0  0  # atno 17394 bound_to 11000
  140.3273  134.7958  157.4299 LP  0  0  0  0  0  0  0  0  0  0  0  0  # atno 17395 bound_to 11000

$$$$
