AV-unprocessed.smi:1883|AV-procd|sdf|7642|dock2
  -GOLD-   22720 9373D 1   1.00000     0.00000
 Structure written by MMmdl.
 35 37  0  0  0  0  0  0  0  0  1 V2000
  154.7943  138.4032  159.6639 C   0  0  0  0  0  0  0  0  0  0  0  0
  154.1665  139.7450  159.8709 C   0  0  0  0  0  0  0  0  0  0  0  0
  153.6314  140.4412  158.8674 N   0  0  0  0  0  0  0  0  0  0  0  0
  153.1833  141.5859  159.4981 C   0  0  0  0  0  0  0  0  0  0  0  0
  152.5227  142.7225  158.9792 C   0  0  0  0  0  0  0  0  0  0  0  0
  152.1585  143.7869  159.8299 C   0  0  0  0  0  0  0  0  0  0  0  0
  152.4481  143.7304  161.2089 C   0  0  0  0  0  0  0  0  0  0  0  0
  153.1038  142.6061  161.7469 C   0  0  0  0  0  0  0  0  0  0  0  0
  153.4656  141.5470  160.8930 C   0  0  0  0  0  0  0  0  0  0  0  0
  154.1063  140.3287  161.0934 N   0  0  0  0  0  0  0  0  0  0  0  0
  154.5952  139.8171  162.3666 C   0  0  0  0  0  0  0  0  0  0  0  0
  155.7410  140.6692  162.9473 C   0  0  2  0  0  0  0  0  0  0  0  0
  156.9865  140.1834  162.4827 O   0  0  0  0  0  0  0  0  0  0  0  0
  155.6675  140.7248  164.4672 C   0  0  0  0  0  0  0  0  0  0  0  0
  155.4654  141.9573  165.1287 C   0  0  0  0  0  0  0  0  0  0  0  0
  155.4067  142.0103  166.5346 C   0  0  0  0  0  0  0  0  0  0  0  0
  155.2115  143.1954  167.1597 F   0  0  0  0  0  0  0  0  0  0  0  0
  155.5531  140.8318  167.2902 C   0  0  0  0  0  0  0  0  0  0  0  0
  155.7631  139.6015  166.6391 C   0  0  0  0  0  0  0  0  0  0  0  0
  155.8234  139.5464  165.2325 C   0  0  0  0  0  0  0  0  0  0  0  0
  156.0369  138.3553  164.6230 F   0  0  0  0  0  0  0  0  0  0  0  0
  154.8169  138.1511  158.6033 H   0  0  0  0  0  0  0  0  0  0  0  0
  154.2238  137.6362  160.1879 H   0  0  0  0  0  0  0  0  0  0  0  0
  155.8182  138.3997  160.0372 H   0  0  0  0  0  0  0  0  0  0  0  0
  152.2963  142.7752  157.9246 H   0  0  0  0  0  0  0  0  0  0  0  0
  151.6548  144.6511  159.4224 H   0  0  0  0  0  0  0  0  0  0  0  0
  152.1661  144.5502  161.8532 H   0  0  0  0  0  0  0  0  0  0  0  0
  153.3274  142.5588  162.8023 H   0  0  0  0  0  0  0  0  0  0  0  0
  153.7559  139.8029  163.0629 H   0  0  0  0  0  0  0  0  0  0  0  0
  154.9085  138.7792  162.2507 H   0  0  0  0  0  0  0  0  0  0  0  0
  155.6531  141.6851  162.5612 H   0  0  0  0  0  0  0  0  0  0  0  0
  156.9642  139.2388  162.4962 H   0  0  0  0  0  0  0  0  0  0  0  0
  155.3578  142.8695  164.5599 H   0  0  0  0  0  0  0  0  0  0  0  0
  155.5079  140.8722  168.3687 H   0  0  0  0  0  0  0  0  0  0  0  0
  155.8807  138.6983  167.2196 H   0  0  0  0  0  0  0  0  0  0  0  0
  1  2  1  0  0  0  0
  1 22  1  0  0  0  0
  1 23  1  0  0  0  0
  1 24  1  0  0  0  0
  2 10  1  0  0  0  0
  2  3  2  0  0  0  0
  3  4  1  0  0  0  0
  4  9  2  0  0  0  0
  4  5  1  0  0  0  0
  5  6  2  0  0  0  0
  5 25  1  0  0  0  0
  6  7  1  0  0  0  0
  6 26  1  0  0  0  0
  7  8  2  0  0  0  0
  7 27  1  0  0  0  0
  8  9  1  0  0  0  0
  8 28  1  0  0  0  0
  9 10  1  0  0  0  0
 10 11  1  0  0  0  0
 11 12  1  0  0  0  0
 11 29  1  0  0  0  0
 11 30  1  0  0  0  0
 12 13  1  0  0  0  0
 12 14  1  0  0  0  0
 12 31  1  0  0  0  0
 13 32  1  0  0  0  0
 14 20  1  0  0  0  0
 14 15  2  0  0  0  0
 15 16  1  0  0  0  0
 15 33  1  0  0  0  0
 16 17  1  0  0  0  0
 16 18  2  0  0  0  0
 18 19  1  0  0  0  0
 18 34  1  0  0  0  0
 19 20  2  0  0  0  0
 19 35  1  0  0  0  0
 20 21  1  0  0  0  0
M  END
> <s_m_source_file>
AV-unprocessed.smi

> <i_m_source_file_index>
1883

> <i_lp_mmshare_version>
43012

> <i_f3d_flags>
0

> <s_epik_input>
W2NIXTFbY0hdW2NIXVtjSF1jKGMxMiluKGMobjIpW0NIM10pW0NIMl1bQ0BIXShbT0hdKWMzW2NIXWMoRilbY0hdW2NIXWMzRg==

> <s_epik_cmdline>
J2VwaWtfcHl0aG9uJywgJy1waCcsICc3LjAnLCAnLXRuJywgJzgnLCAnLW1hJywgJzIwMCcsICctbWV0YWxfYmluZGluZycsICctaW1hZScsICc8aW5maWxlLm1hZT4nLCAnLW9tYWUnLCAnPG91dGZpbGUubWFlPic=

> <r_epik_Ionization_Penalty>
0.129664

> <r_epik_Ionization_Penalty_Charging>
0

> <r_epik_Ionization_Penalty_Neutral>
0.129664

> <r_epik_State_Penalty>
0.119073

> <r_epik_Charging_Adjusted_Penalty>
0.119073

> <i_epik_Tot_Q>
0

> <i_epik_Tot_abs_Q>
0

> <r_epik_Metal_State_Penalty>
0.000131867

> <b_epik_Metal_Only>
0

> <s_lp_Force_Field>
OPLS_2005

> <r_lp_Energy>
11.5832

> <b_lp_Chiralities_Consistent>
1

> <s_lp_Variant>
AV-unprocessed.smi:1883-1

> <Gold.Version>
5.8.1

> <Gold.Id.Protein>
6NUR|6NUR_protein|mol2

> <Gold.PLP.Fitness>
47.7949

> <Gold.PLP.PLP>
-46.4303

> <Gold.PLP.part.hbond>
-2.0000

> <Gold.PLP.part.metal>
0.0000

> <Gold.PLP.part.buried>
-0.5060

> <Gold.PLP.part.nonpolar>
-43.0060

> <Gold.PLP.part.repulsive>
0.0000

> <Gold.PLP.ligand.clash>
0.0000

> <Gold.PLP.ligand.torsion>
0.4606

> <Gold.PLP.Chemscore.Hbond>
0.7540

> <Gold.PLP.Chemscore.CHOScore>
0.0000

> <Gold.PLP.Chemscore.Metal>
0.0000

> <Gold.Chemscore.Hbonds>
donor molecule, donor type, donor heavy atom, donor atom, acceptor molecule, acceptor atom, score
      P1  H  7997  8010       L1     3  0.72

> <Gold.PLP.Chemscore.Internal.Correction>
0.0238

> <Gold.Rescore>
     Score         DG    S(hbond)    S(metal)    S(lipo)     H(rot)  DE(clash)    DE(int)     intcor
     15.10     -16.98       0.83        0.00     115.79       1.88       0.08       1.80       ----

> <Gold.Chemscore.Fitness>
15.0953

> <Gold.Chemscore.DG>
-16.9766

> <Gold.Chemscore.ZeroCoef>
-5.4800

> <Gold.Chemscore.Hbond>
0.8300

> <Gold.Chemscore.Metal>
0.0000

> <Gold.Chemscore.Lipo>
115.7889

> <Gold.Chemscore.Internal_Hbond>
0.0000

> <Gold.Chemscore.DEClash>
0.0849

> <Gold.Chemscore.DEInternal>
1.7965

> <Gold.Chemscore.Rot>
1.8839

> <Gold.Chemscore.Internal.Correction>
   9.000000E+99

> <Gold.Chemscore.Hbonds>
donor molecule, donor type, donor heavy atom, donor atom, acceptor molecule, acceptor atom, score
      P1  H  7997  8010       L1     3  0.35

> <Gold.Chemscore.Hbond.Weighted>
-2.7720

> <Gold.Chemscore.Metal.Weighted>
-0.0000

> <Gold.Chemscore.Lipo.Weighted>
-13.5473

> <Gold.Chemscore.Internal_Hbond.Weighted>
0.0000

> <Gold.Chemscore.DEClash.Weighted>
0.0849

> <Gold.Chemscore.DEInternal.Weighted>
1.7965

> <Gold.Chemscore.Rot.Weighted>
4.8227

> <Gold.Chemscore.Internal.Correction.Weighted>
   9.000000E+99

> <Gold.Protein.RotatedTorsions>
[ 6907 6896 6895 6894 ] final  -59.22 input  -60.11 | X-H torsion
[ 7974 7965 7964 7962 ] final  159.41 input  175.53 | X-H torsion
[ 8008 7997 7996 7995 ] final   15.95 input   59.86 | X-H torsion
[ 10167 10162 10161 10158 ] final  168.95 input  -65.29 | X-H torsion
[ 10718 10713 10712 10709 ] final -117.72 input   66.30 | X-H torsion
[ 10763 10752 10751 10750 ] final -137.27 input  -60.55 | X-H torsion
[ 11005 11000 10999 10996 ] final  130.19 input  -57.11 | X-H torsion

> <Gold.Protein.ActiveResidues>
 VAL166  LYS551  ARG553  GLY616  TRP617  ASP618  TYR619  PRO620  LYS621  CYS622 
 ASP623  PHE694  ASN695  SER759  ASP760  ASP761  ALA762  ILE779  LEU786  VAL792 
 PHE793  MET794  SER795  GLU796  ALA797  LYS798  CYS799  TRP800  GLU811  SER814 

> <Gold.Protein.RotatedAtoms>
  150.7946  134.6996  159.6542 H   0  0  0  0  0  0  0  0  0  0  0  0  # atno 6907 bound_to 6896
  152.4057  134.6208  160.0060 H   0  0  0  0  0  0  0  0  0  0  0  0  # atno 6908 bound_to 6896
  151.6466  133.3286  159.3178 H   0  0  0  0  0  0  0  0  0  0  0  0  # atno 6909 bound_to 6896
  144.7792  139.7613  143.6266 H   0  0  0  0  0  0  0  0  0  0  0  0  # atno 7974 bound_to 7965
  154.8700  140.2957  155.5487 H   0  0  0  0  0  0  0  0  0  0  0  0  # atno 8008 bound_to 7997
  156.3021  140.2462  156.3620 H   0  0  0  0  0  0  0  0  0  0  0  0  # atno 8009 bound_to 7997
  154.8827  140.0397  157.1781 H   0  0  0  0  0  0  0  0  0  0  0  0  # atno 8010 bound_to 7997
  139.4980  144.3759  151.9675 H   0  0  0  0  0  0  0  0  0  0  0  0  # atno 10167 bound_to 10162
  156.1054  130.6206  150.9200 H   0  0  0  0  0  0  0  0  0  0  0  0  # atno 10718 bound_to 10713
  154.8665  135.3647  154.5197 H   0  0  0  0  0  0  0  0  0  0  0  0  # atno 10763 bound_to 10752
  153.5827  135.7018  153.5461 H   0  0  0  0  0  0  0  0  0  0  0  0  # atno 10764 bound_to 10752
  153.3442  135.4089  155.1558 H   0  0  0  0  0  0  0  0  0  0  0  0  # atno 10765 bound_to 10752
  139.9658  134.9591  156.9257 H   0  0  0  0  0  0  0  0  0  0  0  0  # atno 11005 bound_to 11000
  146.1990  139.5274  142.9755 LP  0  0  0  0  0  0  0  0  0  0  0  0  # atno 17320 bound_to 7965
  145.6098  141.0341  143.1972 LP  0  0  0  0  0  0  0  0  0  0  0  0  # atno 17321 bound_to 7965
  140.3195  144.3444  150.6013 LP  0  0  0  0  0  0  0  0  0  0  0  0  # atno 17342 bound_to 10162
  140.5734  143.2178  151.7558 LP  0  0  0  0  0  0  0  0  0  0  0  0  # atno 17343 bound_to 10162
  157.6230  131.0928  150.8586 LP  0  0  0  0  0  0  0  0  0  0  0  0  # atno 17370 bound_to 10713
  156.8706  130.5145  149.5297 LP  0  0  0  0  0  0  0  0  0  0  0  0  # atno 17371 bound_to 10713
  140.5401  134.0729  155.7339 LP  0  0  0  0  0  0  0  0  0  0  0  0  # atno 17394 bound_to 11000
  141.1337  133.9258  157.2480 LP  0  0  0  0  0  0  0  0  0  0  0  0  # atno 17395 bound_to 11000

$$$$
