#       Name:                AV-unprocessed.smi:2878
#       Creating user name   scv26
#       Creation time:       Fri Mar 27 15:51:38 2020


#       File generated by GOLD software.
#

@<TRIPOS>MOLECULE
AV-unprocessed.smi:2878
    48    49     1
SMALL
NO_CHARGES


@<TRIPOS>ATOM
      1 ****        -3.3043   0.7740   2.8863 C.3            1 S1                 0.0000
      2 ****        -3.4024  -0.6136   1.7232 S.3            1 S1                 0.0000
      3 ****        -3.6521   0.2708   0.1504 C.3            1 S1                 0.0000
      4 ****        -4.1927  -0.6850  -0.9309 C.3            1 S1                 0.0000
      5 ****        -4.4482   0.0520  -2.2551 C.3            1 S1                 0.0000
      6 ****        -3.1830   0.7711  -2.7463 C.3            1 S1                 0.0000
      7 ****        -2.6315   1.7248  -1.6724 C.3            1 S1                 0.0000
      8 ****        -2.3765   1.0076  -0.3285 C.3            1 S1                 0.0000
      9 ****        -1.2457   0.0845  -0.4343 N.am           1 S1                 0.0000
     10 ****         0.0460   0.4276  -0.3398 C.2            1 S1                 0.0000
     11 ****         0.4438   1.5801  -0.1691 O.2            1 S1                 0.0000
     12 ****         0.8529  -0.6363  -0.4528 N.am           1 S1                 0.0000
     13 ****         2.3098  -0.5862  -0.4027 C.3            1 S1                 0.0000
     14 ****         2.8277  -0.4885   1.0413 C.3            1 S1                 0.0000
     15 ****         4.3180  -0.4540   1.1083 C.2            1 S1                 0.0000
     16 ****         5.1412  -1.4921   1.2341 N.2            1 S1                 0.0000
     17 ****         6.3522  -0.8725   1.1779 C.2            1 S1                 0.0000
     18 ****         7.6445  -1.6079   1.2811 C.3            1 S1                 0.0000
     19 ****         6.3237   0.4441   1.0125 N.2            1 S1                 0.0000
     20 ****         4.9526   0.7330   0.9535 O.3            1 S1                 0.0000
     21 ****        -3.2158   0.3999   3.9061 H              1 S1                 0.0000
     22 ****        -4.2015   1.3898   2.8224 H              1 S1                 0.0000
     23 ****        -2.4354   1.3970   2.6762 H              1 S1                 0.0000
     24 ****        -4.4249   1.0178   0.3376 H              1 S1                 0.0000
     25 ****        -3.4868  -1.4998  -1.0969 H              1 S1                 0.0000
     26 ****        -5.1189  -1.1476  -0.5881 H              1 S1                 0.0000
     27 ****        -4.7930  -0.6524  -3.0126 H              1 S1                 0.0000
     28 ****        -5.2508   0.7781  -2.1198 H              1 S1                 0.0000
     29 ****        -2.4232   0.0354  -3.0130 H              1 S1                 0.0000
     30 ****        -3.4038   1.3279  -3.6574 H              1 S1                 0.0000
     31 ****        -1.7190   2.2022  -2.0310 H              1 S1                 0.0000
     32 ****        -3.3484   2.5314  -1.5137 H              1 S1                 0.0000
     33 ****        -2.1255   1.7689   0.4111 H              1 S1                 0.0000
     34 ****        -1.4701  -0.8901  -0.5715 H              1 S1                 0.0000
     35 ****         0.4310  -1.5434  -0.5884 H              1 S1                 0.0000
     36 ****         2.6957  -1.4906  -0.8738 H              1 S1                 0.0000
     37 ****         2.6740   0.2537  -0.9971 H              1 S1                 0.0000
     38 ****         2.4416   0.4094   1.5255 H              1 S1                 0.0000
     39 ****         2.4719  -1.3370   1.6268 H              1 S1                 0.0000
     40 ****         8.3277  -1.0859   1.9518 H              1 S1                 0.0000
     41 ****         8.1124  -1.6852   0.2994 H              1 S1                 0.0000
     42 ****         7.4849  -2.6145   1.6689 H              1 S1                 0.0000
     43 ****        -0.2135   2.3298  -0.0922 LP             1 S1                 0.0000
     44 ****         1.4244   1.7667  -0.1073 LP             1 S1                 0.0000
     45 ****         4.9282  -2.4633   1.3409 LP             1 S1                 0.0000
     46 ****         7.0945   1.0777   0.9460 LP             1 S1                 0.0000
     47 ****         4.6976   1.3625   1.6874 LP             1 S1                 0.0000
     48 ****         4.7202   1.1395   0.0699 LP             1 S1                 0.0000
@<TRIPOS>BOND
    1    1    2 1     
    2    1   21 1     
    3    1   22 1     
    4    1   23 1     
    5    2    3 1     
    6    3    8 1     
    7    3    4 1     
    8    3   24 1     
    9    4    5 1     
   10    4   25 1     
   11    4   26 1     
   12    5    6 1     
   13    5   27 1     
   14    5   28 1     
   15    6    7 1     
   16    6   29 1     
   17    6   30 1     
   18    7    8 1     
   19    7   31 1     
   20    7   32 1     
   21    8    9 1     
   22    8   33 1     
   23    9   10 am    
   24    9   34 1     
   25   10   11 2     
   26   10   12 am    
   27   12   13 1     
   28   12   35 1     
   29   13   14 1     
   30   13   36 1     
   31   13   37 1     
   32   14   15 1     
   33   14   38 1     
   34   14   39 1     
   35   15   20 1     
   36   15   16 2     
   37   16   17 1     
   38   17   18 1     
   39   17   19 2     
   40   18   40 1     
   41   18   41 1     
   42   18   42 1     
   43   19   20 1     
   44   11   43 1     
   45   11   44 1     
   46   16   45 1     
   47   19   46 1     
   48   20   47 1     
   49   20   48 1     
@<TRIPOS>SUBSTRUCTURE
      1 S1             1
@<TRIPOS>SET
LONE_PAIRS      STATIC     ATOMS    <user>   **** ""
6 43 44 45 46 47 48
DONOR_HYDROGENS      STATIC     ATOMS    <user>   **** ""
2 34 35
ATOM$BLUE        STATIC     ATOMS    COLORGROUP SYSTEM
6 43 44 45 46 47 48
ATOM$RED        STATIC     ATOMS    COLORGROUP SYSTEM
2 34 35
