AV-unprocessed.smi:3349|AV-procd|sdf|12936|dock2
  -GOLD-   2272019363D 1   1.00000     0.00000
 Structure written by MMmdl.
 41 42  0  0  0  0  0  0  0  0  2 V2000
  148.5933  139.7422  154.9585 C   0  0  0  0  0  0  0  0  0  0  0  0
  148.7651  141.0312  155.8011 C   0  0  1  0  0  0  0  0  0  0  0  0
  150.2103  141.5790  155.6539 C   0  0  0  0  0  0  0  0  0  0  0  0
  150.5543  142.5314  156.7033 N   0  0  0  0  0  0  0  0  0  0  0  0
  151.2327  142.2263  157.8196 C   0  0  0  0  0  0  0  0  0  0  0  0
  151.6664  141.0975  158.0532 O   0  0  0  0  0  0  0  0  0  0  0  0
  151.4381  143.3747  158.8197 C   0  0  2  0  0  0  0  0  0  0  0  0
  152.1510  144.5923  158.2021 C   0  0  0  0  0  0  0  0  0  0  0  0
  152.1491  142.8929  159.9962 N   0  0  0  0  0  0  0  0  0  0  0  0
  153.3525  142.3259  160.1215 C   0  0  0  0  0  0  0  0  0  0  0  0
  153.6637  141.9967  161.3672 N   0  0  0  0  0  0  0  0  0  0  0  0
  152.5313  142.4187  162.0042 C   0  0  0  0  0  0  0  0  0  0  0  0
  151.5909  142.9585  161.2288 N   0  0  0  0  0  0  0  0  0  0  0  0
  147.7266  142.0585  155.4508 N   0  3  0  0  0  0  0  0  0  0  0  0
  147.4746  142.1723  153.9862 C   0  0  0  0  0  0  0  0  0  0  0  0
  146.4213  143.2490  153.6754 C   0  0  0  0  0  0  0  0  0  0  0  0
  145.2172  142.9505  154.3627 O   0  0  0  0  0  0  0  0  0  0  0  0
  145.4122  142.9673  155.7674 C   0  0  0  0  0  0  0  0  0  0  0  0
  146.4309  141.8864  156.1677 C   0  0  0  0  0  0  0  0  0  0  0  0
  149.3788  139.0123  155.1531 H   0  0  0  0  0  0  0  0  0  0  0  0
  148.6121  139.9629  153.8908 H   0  0  0  0  0  0  0  0  0  0  0  0
  147.6637  139.2210  155.1805 H   0  0  0  0  0  0  0  0  0  0  0  0
  148.6211  140.7651  156.8497 H   0  0  0  0  0  0  0  0  0  0  0  0
  150.9203  140.7498  155.6539 H   0  0  0  0  0  0  0  0  0  0  0  0
  150.3387  142.1192  154.7169 H   0  0  0  0  0  0  0  0  0  0  0  0
  150.2340  143.4824  156.5872 H   0  0  0  0  0  0  0  0  0  0  0  0
  150.4461  143.7040  159.1359 H   0  0  0  0  0  0  0  0  0  0  0  0
  151.6113  144.9677  157.3319 H   0  0  0  0  0  0  0  0  0  0  0  0
  153.1665  144.3506  157.8854 H   0  0  0  0  0  0  0  0  0  0  0  0
  152.2166  145.4089  158.9217 H   0  0  0  0  0  0  0  0  0  0  0  0
  154.0111  142.1465  159.2842 H   0  0  0  0  0  0  0  0  0  0  0  0
  152.3947  142.3221  163.0713 H   0  0  0  0  0  0  0  0  0  0  0  0
  148.3814  142.4459  153.4505 H   0  0  0  0  0  0  0  0  0  0  0  0
  147.1465  141.2079  153.5956 H   0  0  0  0  0  0  0  0  0  0  0  0
  146.7817  144.2408  153.9538 H   0  0  0  0  0  0  0  0  0  0  0  0
  146.2172  143.2753  152.6049 H   0  0  0  0  0  0  0  0  0  0  0  0
  145.7442  143.9551  156.0916 H   0  0  0  0  0  0  0  0  0  0  0  0
  144.4564  142.7794  156.2569 H   0  0  0  0  0  0  0  0  0  0  0  0
  146.0262  140.8947  155.9593 H   0  0  0  0  0  0  0  0  0  0  0  0
  146.5652  141.9652  157.2449 H   0  0  0  0  0  0  0  0  0  0  0  0
  148.0959  142.9505  155.7478 H   0  0  0  0  0  0  0  0  0  0  0  0
  1  2  1  0  0  0  0
  1 20  1  0  0  0  0
  1 21  1  0  0  0  0
  1 22  1  0  0  0  0
  2  3  1  0  0  0  0
  2 14  1  0  0  0  0
  2 23  1  0  0  0  0
  3  4  1  0  0  0  0
  3 24  1  0  0  0  0
  3 25  1  0  0  0  0
  4  5  1  0  0  0  0
  4 26  1  0  0  0  0
  5  6  2  0  0  0  0
  5  7  1  0  0  0  0
  7  8  1  0  0  0  0
  7  9  1  0  0  0  0
  7 27  1  0  0  0  0
  8 28  1  0  0  0  0
  8 29  1  0  0  0  0
  8 30  1  0  0  0  0
  9 13  1  0  0  0  0
  9 10  1  0  0  0  0
 10 11  2  0  0  0  0
 10 31  1  0  0  0  0
 11 12  1  0  0  0  0
 12 13  2  0  0  0  0
 12 32  1  0  0  0  0
 14 19  1  0  0  0  0
 14 15  1  0  0  0  0
 14 41  1  0  0  0  0
 15 16  1  0  0  0  0
 15 33  1  0  0  0  0
 15 34  1  0  0  0  0
 16 17  1  0  0  0  0
 16 35  1  0  0  0  0
 16 36  1  0  0  0  0
 17 18  1  0  0  0  0
 18 19  1  0  0  0  0
 18 37  1  0  0  0  0
 18 38  1  0  0  0  0
 19 39  1  0  0  0  0
 19 40  1  0  0  0  0
M  CHG  1  14   1
M  END
> <s_m_source_file>
AV-unprocessed.smi

> <i_m_source_file_index>
3349

> <i_lp_mmshare_version>
43012

> <i_f3d_flags>
0

> <s_epik_input>
W0NIMl0xW0NIMl1PW0NIMl1bQ0gyXU4xW0NASF0oW0NIM10pW0NIMl1bTkhdQyg9TylbQ0BIXShbQ0gzXSluMltjSF1uW2NIXW4y

> <s_epik_cmdline>
J2VwaWtfcHl0aG9uJywgJy1waCcsICc3LjAnLCAnLXRuJywgJzgnLCAnLW1hJywgJzIwMCcsICctbWV0YWxfYmluZGluZycsICctaW1hZScsICc8aW5maWxlLm1hZT4nLCAnLW9tYWUnLCAnPG91dGZpbGUubWFlPic=

> <r_lp_tautomer_probability>
1

> <r_epik_Ionization_Penalty>
0.71326

> <r_epik_Ionization_Penalty_Charging>
0.713252

> <r_epik_Ionization_Penalty_Neutral>
8.10337e-06

> <r_epik_State_Penalty>
0.737017

> <r_epik_Charging_Adjusted_Penalty>
1.45027

> <i_epik_Tot_Q>
1

> <i_epik_Tot_abs_Q>
1

> <r_epik_Metal_State_Penalty>
0.73702

> <b_epik_Metal_Only>
0

> <s_lp_Force_Field>
OPLS_2005

> <r_lp_Energy>
26.8661

> <b_lp_Chiralities_Consistent>
1

> <s_lp_Variant>
AV-unprocessed.smi:3349-6

> <Gold.Version>
5.8.1

> <Gold.Id.Protein>
6NUR|6NUR_protein|mol2

> <Gold.PLP.Fitness>
48.8130

> <Gold.PLP.PLP>
-41.1447

> <Gold.PLP.part.hbond>
-3.2375

> <Gold.PLP.part.metal>
0.0000

> <Gold.PLP.part.buried>
-7.5869

> <Gold.PLP.part.nonpolar>
-31.3602

> <Gold.PLP.part.repulsive>
0.4212

> <Gold.PLP.ligand.clash>
0.0000

> <Gold.PLP.ligand.torsion>
0.8206

> <Gold.PLP.Chemscore.Hbond>
3.0616

> <Gold.PLP.Chemscore.CHOScore>
0.0000

> <Gold.PLP.Chemscore.Metal>
0.0000

> <Gold.Chemscore.Hbonds>
donor molecule, donor type, donor heavy atom, donor atom, acceptor molecule, acceptor atom, score
      L1  H     4    26       P1  8028  0.92
      L1  H    14    41       P1  8028  2.00
      P1  H  6933  6945       L1    13  0.14

> <Gold.PLP.Chemscore.Internal.Correction>
0.1248

> <Gold.Rescore>
     Score         DG    S(hbond)    S(metal)    S(lipo)     H(rot)  DE(clash)    DE(int)     intcor
      9.60     -11.79       1.73        0.00      62.05       2.63       0.00       2.18       ----

> <Gold.Chemscore.Fitness>
9.6040

> <Gold.Chemscore.DG>
-11.7858

> <Gold.Chemscore.ZeroCoef>
-5.4800

> <Gold.Chemscore.Hbond>
1.7325

> <Gold.Chemscore.Metal>
0.0000

> <Gold.Chemscore.Lipo>
62.0468

> <Gold.Chemscore.Internal_Hbond>
0.0000

> <Gold.Chemscore.DEClash>
0.0048

> <Gold.Chemscore.DEInternal>
2.1769

> <Gold.Chemscore.Rot>
2.6329

> <Gold.Chemscore.Internal.Correction>
   9.000000E+99

> <Gold.Chemscore.Hbonds>
donor molecule, donor type, donor heavy atom, donor atom, acceptor molecule, acceptor atom, score
      L1  H     4    26       P1  8028  0.83
      L1  H    14    41       P1  8028  0.81
      P1  H  6933  6945       L1    13  0.01

> <Gold.Chemscore.Hbond.Weighted>
-5.7866

> <Gold.Chemscore.Metal.Weighted>
-0.0000

> <Gold.Chemscore.Lipo.Weighted>
-7.2595

> <Gold.Chemscore.Internal_Hbond.Weighted>
0.0000

> <Gold.Chemscore.DEClash.Weighted>
0.0048

> <Gold.Chemscore.DEInternal.Weighted>
2.1769

> <Gold.Chemscore.Rot.Weighted>
6.7403

> <Gold.Chemscore.Internal.Correction.Weighted>
   9.000000E+99

> <Gold.Protein.RotatedTorsions>
[ 6907 6896 6895 6894 ] final  166.75 input  -60.11 | X-H torsion
[ 7974 7965 7964 7962 ] final   31.26 input  175.53 | X-H torsion
[ 8008 7997 7996 7995 ] final -138.76 input   59.86 | X-H torsion
[ 10167 10162 10161 10158 ] final   27.46 input  -65.29 | X-H torsion
[ 10718 10713 10712 10709 ] final  158.48 input   66.30 | X-H torsion
[ 10763 10752 10751 10750 ] final   55.34 input  -60.55 | X-H torsion
[ 11005 11000 10999 10996 ] final   96.40 input  -57.11 | X-H torsion

> <Gold.Protein.ActiveResidues>
 VAL166  LYS551  ARG553  GLY616  TRP617  ASP618  TYR619  PRO620  LYS621  CYS622 
 ASP623  PHE694  ASN695  SER759  ASP760  ASP761  ALA762  ILE779  LEU786  VAL792 
 PHE793  MET794  SER795  GLU796  ALA797  LYS798  CYS799  TRP800  GLU811  SER814 

> <Gold.Protein.RotatedAtoms>
  151.8740  133.3481  159.3744 H   0  0  0  0  0  0  0  0  0  0  0  0  # atno 6907 bound_to 6896
  150.7145  134.5084  159.5605 H   0  0  0  0  0  0  0  0  0  0  0  0  # atno 6908 bound_to 6896
  152.2623  134.8022  160.0479 H   0  0  0  0  0  0  0  0  0  0  0  0  # atno 6909 bound_to 6896
  146.1561  139.6680  142.9065 H   0  0  0  0  0  0  0  0  0  0  0  0  # atno 7974 bound_to 7965
  155.4337  140.0527  157.3016 H   0  0  0  0  0  0  0  0  0  0  0  0  # atno 8008 bound_to 7997
  154.4848  140.2096  155.9637 H   0  0  0  0  0  0  0  0  0  0  0  0  # atno 8009 bound_to 7997
  156.1259  140.3180  155.8281 H   0  0  0  0  0  0  0  0  0  0  0  0  # atno 8010 bound_to 7997
  140.4936  144.0427  150.6306 H   0  0  0  0  0  0  0  0  0  0  0  0  # atno 10167 bound_to 10162
  157.1773  131.0624  151.2151 H   0  0  0  0  0  0  0  0  0  0  0  0  # atno 10718 bound_to 10713
  152.9815  135.5714  154.5050 H   0  0  0  0  0  0  0  0  0  0  0  0  # atno 10763 bound_to 10752
  154.4563  135.2780  155.1747 H   0  0  0  0  0  0  0  0  0  0  0  0  # atno 10764 bound_to 10752
  154.3353  135.6240  153.5624 H   0  0  0  0  0  0  0  0  0  0  0  0  # atno 10765 bound_to 10752
  139.8782  134.8949  156.4153 H   0  0  0  0  0  0  0  0  0  0  0  0  # atno 11005 bound_to 11000
  145.4705  141.0436  143.2701 LP  0  0  0  0  0  0  0  0  0  0  0  0  # atno 17320 bound_to 7965
  144.7965  139.6224  143.7090 LP  0  0  0  0  0  0  0  0  0  0  0  0  # atno 17321 bound_to 7965
  140.3704  143.2858  152.0285 LP  0  0  0  0  0  0  0  0  0  0  0  0  # atno 17342 bound_to 10162
  139.4856  144.6235  151.7210 LP  0  0  0  0  0  0  0  0  0  0  0  0  # atno 17343 bound_to 10162
  157.3986  130.7321  149.6750 LP  0  0  0  0  0  0  0  0  0  0  0  0  # atno 17370 bound_to 10713
  155.9729  130.4127  150.4044 LP  0  0  0  0  0  0  0  0  0  0  0  0  # atno 17371 bound_to 10713
  140.9172  133.7670  155.9862 LP  0  0  0  0  0  0  0  0  0  0  0  0  # atno 17394 bound_to 11000
  140.8481  134.2987  157.5287 LP  0  0  0  0  0  0  0  0  0  0  0  0  # atno 17395 bound_to 11000

$$$$
