AV-unprocessed.smi:1159|AV-procd|sdf|4914|dock2
  -GOLD-   22720 3493D 1   1.00000     0.00000
 Structure written by MMmdl.
 41 42  0  0  0  0  0  0  0  0  1 V2000
  146.2032  137.8066  155.1938 O   0  0  0  0  0  0  0  0  0  0  0  0
  146.9333  137.5258  154.2441 C   0  0  0  0  0  0  0  0  0  0  0  0
  148.2216  137.8874  154.1131 N   0  0  0  0  0  0  0  0  0  0  0  0
  149.0265  138.6813  154.9766 C   0  0  0  0  0  0  0  0  0  0  0  0
  148.7552  138.9149  156.3467 C   0  0  0  0  0  0  0  0  0  0  0  0
  149.6301  139.7362  157.0836 C   0  0  0  0  0  0  0  0  0  0  0  0
  150.7431  140.3048  156.4339 C   0  0  0  0  0  0  0  0  0  0  0  0
  151.5926  141.1100  157.1640 O   0  0  0  0  0  0  0  0  0  0  0  0
  151.1291  141.6430  158.4020 C   0  0  0  0  0  0  0  0  0  0  0  0
  152.2142  142.5456  159.0013 C   0  0  0  0  0  0  0  0  0  0  0  0
  153.3176  141.8284  159.2103 F   0  0  0  0  0  0  0  0  0  0  0  0
  152.5033  143.5389  158.1611 F   0  0  0  0  0  0  0  0  0  0  0  0
  151.8043  143.0490  160.1651 F   0  0  0  0  0  0  0  0  0  0  0  0
  151.0052  140.0933  155.1206 N   0  0  0  0  0  0  0  0  0  0  0  0
  150.1630  139.3046  154.4202 C   0  0  0  0  0  0  0  0  0  0  0  0
  146.5299  136.7937  153.1947 N   0  0  0  0  0  0  0  0  0  0  0  0
  145.1786  136.2626  152.9981 C   0  0  2  0  0  0  0  0  0  0  0  0
  144.1791  137.3791  153.3784 C   0  0  0  0  0  0  0  0  0  0  0  0
  142.7854  137.2064  152.7500 C   0  0  0  0  0  0  0  0  0  0  0  0
  142.0079  135.9706  153.2272 C   0  0  0  0  0  0  0  0  0  0  0  0
  142.6901  134.6378  152.8760 C   0  0  0  0  0  0  0  0  0  0  0  0
  143.7998  134.3371  153.7710 N   0  0  0  0  0  0  0  0  0  0  0  0
  144.9387  135.0336  153.9065 C   0  0  0  0  0  0  0  0  0  0  0  0
  145.7749  134.6989  154.7457 O   0  0  0  0  0  0  0  0  0  0  0  0
  148.6965  137.5281  153.2980 H   0  0  0  0  0  0  0  0  0  0  0  0
  147.8968  138.4971  156.8476 H   0  0  0  0  0  0  0  0  0  0  0  0
  149.4465  139.9305  158.1301 H   0  0  0  0  0  0  0  0  0  0  0  0
  150.2161  142.2204  158.2466 H   0  0  0  0  0  0  0  0  0  0  0  0
  150.8994  140.8349  159.0986 H   0  0  0  0  0  0  0  0  0  0  0  0
  150.4078  139.1662  153.3771 H   0  0  0  0  0  0  0  0  0  0  0  0
  147.1968  136.6123  152.4593 H   0  0  0  0  0  0  0  0  0  0  0  0
  145.0517  135.9855  151.9501 H   0  0  0  0  0  0  0  0  0  0  0  0
  144.0951  137.4771  154.4622 H   0  0  0  0  0  0  0  0  0  0  0  0
  144.5681  138.3371  153.0292 H   0  0  0  0  0  0  0  0  0  0  0  0
  142.1926  138.0940  152.9727 H   0  0  0  0  0  0  0  0  0  0  0  0
  142.8789  137.1790  151.6637 H   0  0  0  0  0  0  0  0  0  0  0  0
  141.8274  136.0300  154.3014 H   0  0  0  0  0  0  0  0  0  0  0  0
  141.0236  135.9881  152.7581 H   0  0  0  0  0  0  0  0  0  0  0  0
  141.9677  133.8278  152.9791 H   0  0  0  0  0  0  0  0  0  0  0  0
  143.0210  134.6232  151.8365 H   0  0  0  0  0  0  0  0  0  0  0  0
  143.6804  133.5344  154.3722 H   0  0  0  0  0  0  0  0  0  0  0  0
  1  2  2  0  0  0  0
  2  3  1  0  0  0  0
  2 16  1  0  0  0  0
  3  4  1  0  0  0  0
  3 25  1  0  0  0  0
  4 15  1  0  0  0  0
  4  5  2  0  0  0  0
  5  6  1  0  0  0  0
  5 26  1  0  0  0  0
  6  7  2  0  0  0  0
  6 27  1  0  0  0  0
  7  8  1  0  0  0  0
  7 14  1  0  0  0  0
  8  9  1  0  0  0  0
  9 10  1  0  0  0  0
  9 28  1  0  0  0  0
  9 29  1  0  0  0  0
 10 11  1  0  0  0  0
 10 12  1  0  0  0  0
 10 13  1  0  0  0  0
 14 15  2  0  0  0  0
 15 30  1  0  0  0  0
 16 17  1  0  0  0  0
 16 31  1  0  0  0  0
 17 23  1  0  0  0  0
 17 18  1  0  0  0  0
 17 32  1  0  0  0  0
 18 19  1  0  0  0  0
 18 33  1  0  0  0  0
 18 34  1  0  0  0  0
 19 20  1  0  0  0  0
 19 35  1  0  0  0  0
 19 36  1  0  0  0  0
 20 21  1  0  0  0  0
 20 37  1  0  0  0  0
 20 38  1  0  0  0  0
 21 22  1  0  0  0  0
 21 39  1  0  0  0  0
 21 40  1  0  0  0  0
 22 23  1  0  0  0  0
 22 41  1  0  0  0  0
 23 24  2  0  0  0  0
M  END
> <s_m_source_file>
AV-unprocessed.smi

> <i_m_source_file_index>
1159

> <i_lp_mmshare_version>
43012

> <i_f3d_flags>
0

> <s_epik_input>
Tz1DMVtOSF1bQ0gyXVtDSDJdW0NIMl1bQ0gyXVtDQEhdMVtOSF1DKD1PKVtOSF1jMltjSF1bY0hdYyhuW2NIXTIpT1tDSDJdQyhGKShGKUY=

> <s_epik_cmdline>
J2VwaWtfcHl0aG9uJywgJy1waCcsICc3LjAnLCAnLXRuJywgJzgnLCAnLW1hJywgJzIwMCcsICctbWV0YWxfYmluZGluZycsICctaW1hZScsICc8aW5maWxlLm1hZT4nLCAnLW9tYWUnLCAnPG91dGZpbGUubWFlPic=

> <r_lp_tautomer_probability>
1

> <r_epik_Ionization_Penalty>
3.53205e-05

> <r_epik_Ionization_Penalty_Charging>
0

> <r_epik_Ionization_Penalty_Neutral>
3.53205e-05

> <r_epik_State_Penalty>
-0

> <r_epik_Charging_Adjusted_Penalty>
0

> <i_epik_Tot_Q>
0

> <i_epik_Tot_abs_Q>
0

> <r_epik_Metal_State_Penalty>
-0

> <b_epik_Metal_Only>
0

> <s_lp_Force_Field>
OPLS_2005

> <r_lp_Energy>
13.2476

> <b_lp_Chiralities_Consistent>
1

> <s_lp_Variant>
AV-unprocessed.smi:1159-1

> <Gold.Version>
5.8.1

> <Gold.Id.Protein>
6NUR|6NUR_protein|mol2

> <Gold.PLP.Fitness>
44.1369

> <Gold.PLP.PLP>
-31.9388

> <Gold.PLP.part.hbond>
-4.0000

> <Gold.PLP.part.metal>
0.0000

> <Gold.PLP.part.buried>
-5.9898

> <Gold.PLP.part.nonpolar>
-23.1402

> <Gold.PLP.part.repulsive>
0.1559

> <Gold.PLP.ligand.clash>
0.0000

> <Gold.PLP.ligand.torsion>
0.5619

> <Gold.PLP.Chemscore.Hbond>
3.4244

> <Gold.PLP.Chemscore.CHOScore>
1.0000

> <Gold.PLP.Chemscore.Metal>
0.0000

> <Gold.Chemscore.Hbonds>
donor molecule, donor type, donor heavy atom, donor atom, acceptor molecule, acceptor atom, score
      L1  H     3    25       P1  7948  1.00
      L1  H    16    31       P1  7948  1.00
      L1  H    22    41       P1 10957  0.86
      P1  H  7989  7998       L1    14  0.50
      L1  C    15    30       P1  7957  1.00

> <Gold.PLP.Chemscore.Internal.Correction>
0.0487

> <Gold.Rescore>
     Score         DG    S(hbond)    S(metal)    S(lipo)     H(rot)  DE(clash)    DE(int)     intcor
     13.88     -16.88       2.97        0.00      52.23       1.81       0.03       2.97       ----

> <Gold.Chemscore.Fitness>
13.8796

> <Gold.Chemscore.DG>
-16.8804

> <Gold.Chemscore.ZeroCoef>
-5.4800

> <Gold.Chemscore.Hbond>
2.9682

> <Gold.Chemscore.Metal>
0.0000

> <Gold.Chemscore.Lipo>
52.2273

> <Gold.Chemscore.Internal_Hbond>
0.0000

> <Gold.Chemscore.DEClash>
0.0319

> <Gold.Chemscore.DEInternal>
2.9688

> <Gold.Chemscore.Rot>
1.8062

> <Gold.Chemscore.Internal.Correction>
   9.000000E+99

> <Gold.Chemscore.Hbonds>
donor molecule, donor type, donor heavy atom, donor atom, acceptor molecule, acceptor atom, score
      L1  H     3    25       P1  7948  0.97
      L1  H    16    31       P1  7948  0.97
      L1  H    22    41       P1 10957  0.79
      P1  H  7989  7998       L1    14  0.02

> <Gold.Chemscore.Hbond.Weighted>
-9.9136

> <Gold.Chemscore.Metal.Weighted>
-0.0000

> <Gold.Chemscore.Lipo.Weighted>
-6.1106

> <Gold.Chemscore.Internal_Hbond.Weighted>
0.0000

> <Gold.Chemscore.DEClash.Weighted>
0.0319

> <Gold.Chemscore.DEInternal.Weighted>
2.9688

> <Gold.Chemscore.Rot.Weighted>
4.6238

> <Gold.Chemscore.Internal.Correction.Weighted>
   9.000000E+99

> <Gold.Protein.RotatedTorsions>
[ 6907 6896 6895 6894 ] final   93.21 input  -60.11 | X-H torsion
[ 7974 7965 7964 7962 ] final -135.63 input  175.53 | X-H torsion
[ 8008 7997 7996 7995 ] final    7.60 input   59.86 | X-H torsion
[ 10167 10162 10161 10158 ] final -167.22 input  -65.29 | X-H torsion
[ 10718 10713 10712 10709 ] final  -74.39 input   66.30 | X-H torsion
[ 10763 10752 10751 10750 ] final  -28.36 input  -60.55 | X-H torsion
[ 11005 11000 10999 10996 ] final  124.84 input  -57.11 | X-H torsion

> <Gold.Protein.ActiveResidues>
 VAL166  LYS551  ARG553  GLY616  TRP617  ASP618  TYR619  PRO620  LYS621  CYS622 
 ASP623  PHE694  ASN695  SER759  ASP760  ASP761  ALA762  ILE779  LEU786  VAL792 
 PHE793  MET794  SER795  GLU796  ALA797  LYS798  CYS799  TRP800  GLU811  SER814 

> <Gold.Protein.RotatedAtoms>
  152.5452  134.1383  159.8467 H   0  0  0  0  0  0  0  0  0  0  0  0  # atno 6907 bound_to 6896
  151.1422  133.4957  159.2604 H   0  0  0  0  0  0  0  0  0  0  0  0  # atno 6908 bound_to 6896
  151.1561  135.0261  159.8744 H   0  0  0  0  0  0  0  0  0  0  0  0  # atno 6909 bound_to 6896
  144.8997  140.6754  143.5093 H   0  0  0  0  0  0  0  0  0  0  0  0  # atno 7974 bound_to 7965
  154.7560  140.2776  155.6253 H   0  0  0  0  0  0  0  0  0  0  0  0  # atno 8008 bound_to 7997
  156.2906  140.2669  156.2253 H   0  0  0  0  0  0  0  0  0  0  0  0  # atno 8009 bound_to 7997
  155.0077  140.0372  157.2376 H   0  0  0  0  0  0  0  0  0  0  0  0  # atno 8010 bound_to 7997
  139.6063  144.0905  152.1796 H   0  0  0  0  0  0  0  0  0  0  0  0  # atno 10167 bound_to 10162
  156.0244  130.4416  150.2886 H   0  0  0  0  0  0  0  0  0  0  0  0  # atno 10718 bound_to 10713
  153.7471  135.6928  153.4954 H   0  0  0  0  0  0  0  0  0  0  0  0  # atno 10763 bound_to 10752
  153.2029  135.4430  155.0286 H   0  0  0  0  0  0  0  0  0  0  0  0  # atno 10764 bound_to 10752
  154.8200  135.3417  154.6994 H   0  0  0  0  0  0  0  0  0  0  0  0  # atno 10765 bound_to 10752
  139.9378  134.9638  156.8469 H   0  0  0  0  0  0  0  0  0  0  0  0  # atno 11005 bound_to 11000
  145.3638  139.1675  143.4369 LP  0  0  0  0  0  0  0  0  0  0  0  0  # atno 17320 bound_to 7965
  146.3101  140.3703  142.8673 LP  0  0  0  0  0  0  0  0  0  0  0  0  # atno 17321 bound_to 7965
  140.0513  144.5930  150.7333 LP  0  0  0  0  0  0  0  0  0  0  0  0  # atno 17342 bound_to 10162
  140.7287  143.2665  151.4028 LP  0  0  0  0  0  0  0  0  0  0  0  0  # atno 17343 bound_to 10162
  157.0989  131.0190  151.3093 LP  0  0  0  0  0  0  0  0  0  0  0  0  # atno 17370 bound_to 10713
  157.4795  130.7757  149.7400 LP  0  0  0  0  0  0  0  0  0  0  0  0  # atno 17371 bound_to 10713
  140.6031  134.0153  155.7545 LP  0  0  0  0  0  0  0  0  0  0  0  0  # atno 17394 bound_to 11000
  141.0999  133.9785  157.3097 LP  0  0  0  0  0  0  0  0  0  0  0  0  # atno 17395 bound_to 11000

$$$$
