AV-unprocessed.smi:1588|AV-procd|sdf|6391|dock1
  -GOLD-   22720 7 23D 1   1.00000     0.00000
 Structure written by MMmdl.
 37 38  0  0  0  0  0  0  0  0  2 V2000
  145.4334  132.1712  149.5516 C   0  0  0  0  0  0  0  0  0  0  0  0
  144.1038  132.8760  149.2502 C   0  0  0  0  0  0  0  0  0  0  0  0
  143.7032  133.8044  150.3343 N   0  3  1  0  0  0  0  0  0  0  0  0
  143.8226  133.2537  151.7036 C   0  0  0  0  0  0  0  0  0  0  0  0
  144.1158  134.4525  152.6013 C   0  0  0  0  0  0  0  0  0  0  0  0
  145.0014  135.3208  151.7106 C   0  0  2  0  0  0  0  0  0  0  0  0
  145.0946  136.8003  152.1317 C   0  0  0  0  0  0  0  0  0  0  0  0
  146.4669  137.2110  152.4104 N   0  0  0  0  0  0  0  0  0  0  0  0
  146.8158  138.3092  153.0959 C   0  0  0  0  0  0  0  0  0  0  0  0
  146.0011  139.1075  153.5593 O   0  0  0  0  0  0  0  0  0  0  0  0
  148.1503  138.4164  153.2026 N   0  0  0  0  0  0  0  0  0  0  0  0
  148.8816  139.4394  153.8578 C   0  0  0  0  0  0  0  0  0  0  0  0
  150.1871  139.2824  154.3978 C   0  0  0  0  0  0  0  0  0  0  0  0
  150.6205  140.4065  154.9504 N   0  0  0  0  0  0  0  0  0  0  0  0
  149.6040  141.2796  154.7682 N   0  0  0  0  0  0  0  0  0  0  0  0
  148.5248  140.7350  154.1077 C   0  0  0  0  0  0  0  0  0  0  0  0
  144.4089  135.1087  150.3106 C   0  0  0  0  0  0  0  0  0  0  0  0
  149.6608  142.2331  155.0970 H   0  0  0  0  0  0  0  0  0  0  0  0
  145.6766  131.4557  148.7656 H   0  0  0  0  0  0  0  0  0  0  0  0
  145.3848  131.6238  150.4936 H   0  0  0  0  0  0  0  0  0  0  0  0
  146.2595  132.8797  149.6154 H   0  0  0  0  0  0  0  0  0  0  0  0
  144.1631  133.4124  148.3018 H   0  0  0  0  0  0  0  0  0  0  0  0
  143.3276  132.1183  149.1346 H   0  0  0  0  0  0  0  0  0  0  0  0
  142.9201  132.7200  152.0026 H   0  0  0  0  0  0  0  0  0  0  0  0
  144.6586  132.5537  151.7527 H   0  0  0  0  0  0  0  0  0  0  0  0
  143.1889  134.9746  152.8430 H   0  0  0  0  0  0  0  0  0  0  0  0
  144.5999  134.1693  153.5366 H   0  0  0  0  0  0  0  0  0  0  0  0
  146.0024  134.8855  151.7121 H   0  0  0  0  0  0  0  0  0  0  0  0
  144.6690  137.4411  151.3576 H   0  0  0  0  0  0  0  0  0  0  0  0
  144.5034  136.9718  153.0317 H   0  0  0  0  0  0  0  0  0  0  0  0
  147.2023  136.6098  152.0681 H   0  0  0  0  0  0  0  0  0  0  0  0
  148.7026  137.6872  152.7757 H   0  0  0  0  0  0  0  0  0  0  0  0
  150.8216  138.4083  154.4073 H   0  0  0  0  0  0  0  0  0  0  0  0
  147.6346  141.3050  153.8864 H   0  0  0  0  0  0  0  0  0  0  0  0
  145.1862  135.1544  149.5461 H   0  0  0  0  0  0  0  0  0  0  0  0
  143.6748  135.8804  150.0757 H   0  0  0  0  0  0  0  0  0  0  0  0
  142.7266  134.0196  150.1928 H   0  0  0  0  0  0  0  0  0  0  0  0
  1  2  1  0  0  0  0
  1 19  1  0  0  0  0
  1 20  1  0  0  0  0
  1 21  1  0  0  0  0
  2  3  1  0  0  0  0
  2 22  1  0  0  0  0
  2 23  1  0  0  0  0
  3 17  1  0  0  0  0
  3  4  1  0  0  0  0
  3 37  1  0  0  0  0
  4  5  1  0  0  0  0
  4 24  1  0  0  0  0
  4 25  1  0  0  0  0
  5  6  1  0  0  0  0
  5 26  1  0  0  0  0
  5 27  1  0  0  0  0
  6  7  1  0  0  0  0
  6 17  1  0  0  0  0
  6 28  1  0  0  0  0
  7  8  1  0  0  0  0
  7 29  1  0  0  0  0
  7 30  1  0  0  0  0
  8  9  1  0  0  0  0
  8 31  1  0  0  0  0
  9 10  2  0  0  0  0
  9 11  1  0  0  0  0
 11 12  1  0  0  0  0
 11 32  1  0  0  0  0
 12 16  2  0  0  0  0
 12 13  1  0  0  0  0
 13 14  2  0  0  0  0
 13 33  1  0  0  0  0
 14 15  1  0  0  0  0
 15 18  1  0  0  0  0
 15 16  1  0  0  0  0
 16 34  1  0  0  0  0
 17 35  1  0  0  0  0
 17 36  1  0  0  0  0
M  CHG  1   3   1
M  END
> <s_m_source_file>
AV-unprocessed.smi

> <i_m_source_file_index>
1588

> <i_lp_mmshare_version>
43012

> <i_f3d_flags>
0

> <s_epik_input>
W0NIM11bQ0gyXU4xW0NIMl1bQ0gyXVtDQEhdKFtDSDJdMSlbQ0gyXVtOSF1DKD1PKVtOSF1jMltjSF1uW25IXVtjSF0y

> <s_epik_cmdline>
J2VwaWtfcHl0aG9uJywgJy1waCcsICc3LjAnLCAnLXRuJywgJzgnLCAnLW1hJywgJzIwMCcsICctbWV0YWxfYmluZGluZycsICctaW1hZScsICc8aW5maWxlLm1hZT4nLCAnLW9tYWUnLCAnPG91dGZpbGUubWFlPic=

> <r_lp_tautomer_probability>
0.5

> <r_epik_Ionization_Penalty>
0.000628417

> <r_epik_Ionization_Penalty_Charging>
0.000582718

> <r_epik_Ionization_Penalty_Neutral>
4.56984e-05

> <r_epik_State_Penalty>
0.000366292

> <r_epik_Charging_Adjusted_Penalty>
0.00094901

> <i_epik_Tot_Q>
1

> <i_epik_Tot_abs_Q>
1

> <r_epik_Metal_State_Penalty>
-0

> <b_epik_Metal_Only>
0

> <s_lp_Force_Field>
OPLS_2005

> <r_lp_Energy>
31.1472

> <b_lp_Chiralities_Consistent>
1

> <s_lp_Variant>
AV-unprocessed.smi:1588-3

> <Gold.Version>
5.8.1

> <Gold.Id.Protein>
6NUR|6NUR_protein|mol2

> <Gold.PLP.Fitness>
43.0011

> <Gold.PLP.PLP>
-31.2601

> <Gold.PLP.part.hbond>
-5.0000

> <Gold.PLP.part.metal>
0.0000

> <Gold.PLP.part.buried>
-2.0529

> <Gold.PLP.part.nonpolar>
-25.6222

> <Gold.PLP.part.repulsive>
1.7796

> <Gold.PLP.ligand.clash>
0.0000

> <Gold.PLP.ligand.torsion>
1.1407

> <Gold.PLP.Chemscore.Hbond>
4.6650

> <Gold.PLP.Chemscore.CHOScore>
0.0000

> <Gold.PLP.Chemscore.Metal>
0.0000

> <Gold.Chemscore.Hbonds>
donor molecule, donor type, donor heavy atom, donor atom, acceptor molecule, acceptor atom, score
      L1  H     3    37       P1 10186  2.00
      L1  H     8    31       P1  7948  1.00
      L1  H    11    32       P1  7948  1.00
      P1  H  7989  7998       L1    14  0.63

> <Gold.PLP.Chemscore.Internal.Correction>
0.0274

> <Gold.Rescore>
     Score         DG    S(hbond)    S(metal)    S(lipo)     H(rot)  DE(clash)    DE(int)     intcor
     17.67     -21.36       3.52        0.00      69.75       1.58       1.80       1.89       ----

> <Gold.Chemscore.Fitness>
17.6719

> <Gold.Chemscore.DG>
-21.3569

> <Gold.Chemscore.ZeroCoef>
-5.4800

> <Gold.Chemscore.Hbond>
3.5177

> <Gold.Chemscore.Metal>
0.0000

> <Gold.Chemscore.Lipo>
69.7484

> <Gold.Chemscore.Internal_Hbond>
0.0000

> <Gold.Chemscore.DEClash>
1.7998

> <Gold.Chemscore.DEInternal>
1.8852

> <Gold.Chemscore.Rot>
1.5753

> <Gold.Chemscore.Internal.Correction>
   9.000000E+99

> <Gold.Chemscore.Hbonds>
donor molecule, donor type, donor heavy atom, donor atom, acceptor molecule, acceptor atom, score
      L1  H     3    37       P1 10186  0.98
      L1  H     8    31       P1  7948  0.95
      L1  H    11    32       P1  7948  0.98
      P1  H  7989  7998       L1    14  0.01

> <Gold.Chemscore.Hbond.Weighted>
-11.7491

> <Gold.Chemscore.Metal.Weighted>
-0.0000

> <Gold.Chemscore.Lipo.Weighted>
-8.1606

> <Gold.Chemscore.Internal_Hbond.Weighted>
0.0000

> <Gold.Chemscore.DEClash.Weighted>
1.7998

> <Gold.Chemscore.DEInternal.Weighted>
1.8852

> <Gold.Chemscore.Rot.Weighted>
4.0328

> <Gold.Chemscore.Internal.Correction.Weighted>
   9.000000E+99

> <Gold.Protein.RotatedTorsions>
[ 6907 6896 6895 6894 ] final    4.30 input  -60.11 | X-H torsion
[ 7974 7965 7964 7962 ] final  -53.28 input  175.53 | X-H torsion
[ 8008 7997 7996 7995 ] final  -57.56 input   59.86 | X-H torsion
[ 10167 10162 10161 10158 ] final  146.15 input  -65.29 | X-H torsion
[ 10718 10713 10712 10709 ] final  -37.82 input   66.30 | X-H torsion
[ 10763 10752 10751 10750 ] final  -22.24 input  -60.55 | X-H torsion
[ 11005 11000 10999 10996 ] final  162.58 input  -57.11 | X-H torsion

> <Gold.Protein.ActiveResidues>
 VAL166  LYS551  ARG553  GLY616  TRP617  ASP618  TYR619  PRO620  LYS621  CYS622 
 ASP623  PHE694  ASN695  SER759  ASP760  ASP761  ALA762  ILE779  LEU786  VAL792 
 PHE793  MET794  SER795  GLU796  ALA797  LYS798  CYS799  TRP800  GLU811  SER814 

> <Gold.Protein.RotatedAtoms>
  151.6391  135.1015  160.0137 H   0  0  0  0  0  0  0  0  0  0  0  0  # atno 6907 bound_to 6896
  152.4064  133.6891  159.6368 H   0  0  0  0  0  0  0  0  0  0  0  0  # atno 6908 bound_to 6896
  150.7958  133.8618  159.3275 H   0  0  0  0  0  0  0  0  0  0  0  0  # atno 6909 bound_to 6896
  145.8986  140.8013  142.9755 H   0  0  0  0  0  0  0  0  0  0  0  0  # atno 7974 bound_to 7965
  154.4273  140.1104  156.5818 H   0  0  0  0  0  0  0  0  0  0  0  0  # atno 8008 bound_to 7997
  155.6105  140.3494  155.4602 H   0  0  0  0  0  0  0  0  0  0  0  0  # atno 8009 bound_to 7997
  156.0103  140.1218  157.0450 H   0  0  0  0  0  0  0  0  0  0  0  0  # atno 8010 bound_to 7997
  139.4912  144.5850  151.6796 H   0  0  0  0  0  0  0  0  0  0  0  0  # atno 10167 bound_to 10162
  156.3109  130.4252  149.8052 H   0  0  0  0  0  0  0  0  0  0  0  0  # atno 10718 bound_to 10713
  153.6487  135.6982  153.5216 H   0  0  0  0  0  0  0  0  0  0  0  0  # atno 10763 bound_to 10752
  153.2723  135.4211  155.0999 H   0  0  0  0  0  0  0  0  0  0  0  0  # atno 10764 bound_to 10752
  154.8481  135.3581  154.6032 H   0  0  0  0  0  0  0  0  0  0  0  0  # atno 10765 bound_to 10752
  140.2272  134.8152  157.3280 H   0  0  0  0  0  0  0  0  0  0  0  0  # atno 11005 bound_to 11000
  144.6734  140.1641  143.7420 LP  0  0  0  0  0  0  0  0  0  0  0  0  # atno 17320 bound_to 7965
  145.8820  139.2328  143.1600 LP  0  0  0  0  0  0  0  0  0  0  0  0  # atno 17321 bound_to 7965
  140.5464  144.0496  150.6109 LP  0  0  0  0  0  0  0  0  0  0  0  0  # atno 17342 bound_to 10162
  140.3535  143.2949  152.0461 LP  0  0  0  0  0  0  0  0  0  0  0  0  # atno 17343 bound_to 10162
  156.5395  130.8293  151.3264 LP  0  0  0  0  0  0  0  0  0  0  0  0  # atno 17370 bound_to 10713
  157.7390  130.9824  150.2290 LP  0  0  0  0  0  0  0  0  0  0  0  0  # atno 17371 bound_to 10713
  140.1788  134.4515  155.7785 LP  0  0  0  0  0  0  0  0  0  0  0  0  # atno 17394 bound_to 11000
  141.2220  133.6974  156.7833 LP  0  0  0  0  0  0  0  0  0  0  0  0  # atno 17395 bound_to 11000

$$$$
