AV-unprocessed.smi:1929|AV-procd|sdf|7806|dock3
  -GOLD-   22720 9543D 1   1.00000     0.00000
 Structure written by MMmdl.
 42 43  0  0  0  0  0  0  0  0  3 V2000
  152.6146  136.2625  157.6005 C   0  0  0  0  0  0  0  0  0  0  0  0
  152.0381  135.3717  156.6001 N   0  5  0  0  0  0  0  0  0  0  0  0
  150.7162  135.0555  156.5489 C   0  0  0  0  0  0  0  0  0  0  0  0
  149.9215  134.7622  157.4482 O   0  0  0  0  0  0  0  0  0  0  0  0
  150.2032  135.0613  155.1042 C   0  0  0  0  0  0  0  0  0  0  0  0
  149.9389  136.4511  154.6540 N   0  3  2  0  0  0  0  0  0  0  0  0
  151.1800  137.2356  154.4104 C   0  0  0  0  0  0  0  0  0  0  0  0
  150.8566  138.6246  153.8330 C   0  0  0  0  0  0  0  0  0  0  0  0
  149.8907  139.4133  154.7385 C   0  0  2  0  0  0  0  0  0  0  0  0
  150.5306  139.8202  155.9896 N   0  0  0  0  0  0  0  0  0  0  0  0
  150.5576  141.0695  156.4769 C   0  0  0  0  0  0  0  0  0  0  0  0
  150.0235  142.0255  155.9156 O   0  0  0  0  0  0  0  0  0  0  0  0
  151.2548  141.1264  157.6250 N   0  0  0  0  0  0  0  0  0  0  0  0
  151.5458  142.2574  158.4356 C   0  0  0  0  0  0  0  0  0  0  0  0
  151.0879  143.5154  157.9920 C   0  0  0  0  0  0  0  0  0  0  0  0
  151.3742  144.6556  158.7691 C   0  0  0  0  0  0  0  0  0  0  0  0
  152.0763  144.6110  159.9207 N   0  0  0  0  0  0  0  0  0  0  0  0
  152.5260  143.4082  160.3368 C   0  0  0  0  0  0  0  0  0  0  0  0
  152.2950  142.2075  159.6359 C   0  0  0  0  0  0  0  0  0  0  0  0
  148.6439  138.5586  155.0241 C   0  0  0  0  0  0  0  0  0  0  0  0
  149.0095  137.1647  155.5668 C   0  0  0  0  0  0  0  0  0  0  0  0
  153.7021  136.2952  157.5344 H   0  0  0  0  0  0  0  0  0  0  0  0
  152.3777  135.9550  158.6198 H   0  0  0  0  0  0  0  0  0  0  0  0
  152.2661  137.2900  157.4912 H   0  0  0  0  0  0  0  0  0  0  0  0
  150.9870  134.6155  154.4903 H   0  0  0  0  0  0  0  0  0  0  0  0
  149.3153  134.4399  154.9667 H   0  0  0  0  0  0  0  0  0  0  0  0
  151.7406  137.3324  155.3413 H   0  0  0  0  0  0  0  0  0  0  0  0
  151.8289  136.7104  153.7096 H   0  0  0  0  0  0  0  0  0  0  0  0
  151.7779  139.1846  153.6707 H   0  0  0  0  0  0  0  0  0  0  0  0
  150.4037  138.5023  152.8482 H   0  0  0  0  0  0  0  0  0  0  0  0
  149.5711  140.3158  154.2141 H   0  0  0  0  0  0  0  0  0  0  0  0
  150.9948  139.0969  156.5190 H   0  0  0  0  0  0  0  0  0  0  0  0
  151.6889  140.2647  157.9208 H   0  0  0  0  0  0  0  0  0  0  0  0
  150.5225  143.6102  157.0766 H   0  0  0  0  0  0  0  0  0  0  0  0
  151.0306  145.6303  158.4555 H   0  0  0  0  0  0  0  0  0  0  0  0
  153.0938  143.4020  161.2553 H   0  0  0  0  0  0  0  0  0  0  0  0
  152.7037  141.2880  160.0250 H   0  0  0  0  0  0  0  0  0  0  0  0
  147.9843  139.0729  155.7244 H   0  0  0  0  0  0  0  0  0  0  0  0
  148.0729  138.4412  154.1019 H   0  0  0  0  0  0  0  0  0  0  0  0
  148.0960  136.5813  155.6893 H   0  0  0  0  0  0  0  0  0  0  0  0
  149.4642  137.2485  156.5550 H   0  0  0  0  0  0  0  0  0  0  0  0
  149.4635  136.3689  153.7665 H   0  0  0  0  0  0  0  0  0  0  0  0
  1  2  1  0  0  0  0
  1 22  1  0  0  0  0
  1 23  1  0  0  0  0
  1 24  1  0  0  0  0
  2  3  1  0  0  0  0
  3  4  2  0  0  0  0
  3  5  1  0  0  0  0
  5  6  1  0  0  0  0
  5 25  1  0  0  0  0
  5 26  1  0  0  0  0
  6 21  1  0  0  0  0
  6  7  1  0  0  0  0
  6 42  1  0  0  0  0
  7  8  1  0  0  0  0
  7 27  1  0  0  0  0
  7 28  1  0  0  0  0
  8  9  1  0  0  0  0
  8 29  1  0  0  0  0
  8 30  1  0  0  0  0
  9 10  1  0  0  0  0
  9 20  1  0  0  0  0
  9 31  1  0  0  0  0
 10 11  1  0  0  0  0
 10 32  1  0  0  0  0
 11 12  2  0  0  0  0
 11 13  1  0  0  0  0
 13 14  1  0  0  0  0
 13 33  1  0  0  0  0
 14 19  1  0  0  0  0
 14 15  2  0  0  0  0
 15 16  1  0  0  0  0
 15 34  1  0  0  0  0
 16 17  2  0  0  0  0
 16 35  1  0  0  0  0
 17 18  1  0  0  0  0
 18 19  2  0  0  0  0
 18 36  1  0  0  0  0
 19 37  1  0  0  0  0
 20 21  1  0  0  0  0
 20 38  1  0  0  0  0
 20 39  1  0  0  0  0
 21 40  1  0  0  0  0
 21 41  1  0  0  0  0
M  CHG  1   2  -1
M  CHG  1   6   1
M  END
> <s_m_source_file>
AV-unprocessed.smi

> <i_m_source_file_index>
1929

> <i_lp_mmshare_version>
43012

> <i_f3d_flags>
0

> <s_epik_input>
W0NIM11bTkhdQyg9TylbQ0gyXU4xW0NIMl1bQ0gyXVtDSF0oW0NIMl1bQ0gyXTEpW05IXUMoPU8pW05IXWMyW2NIXVtjSF1uW2NIXVtjSF0y

> <s_epik_cmdline>
J2VwaWtfcHl0aG9uJywgJy1waCcsICc3LjAnLCAnLXRuJywgJzgnLCAnLW1hJywgJzIwMCcsICctbWV0YWxfYmluZGluZycsICctaW1hZScsICc8aW5maWxlLm1hZT4nLCAnLW9tYWUnLCAnPG91dGZpbGUubWFlPic=

> <r_epik_Ionization_Penalty>
6.23856

> <r_epik_Ionization_Penalty_Charging>
6.13946

> <r_epik_Ionization_Penalty_Neutral>
0.0990993

> <r_epik_State_Penalty>
7.04382

> <r_epik_Charging_Adjusted_Penalty>
13.1833

> <i_epik_Tot_Q>
0

> <i_epik_Tot_abs_Q>
2

> <r_epik_Metal_State_Penalty>
3.07449

> <b_epik_Metal_Only>
1

> <s_lp_Force_Field>
OPLS_2005

> <r_lp_Energy>
14.5033

> <b_lp_Chiralities_Consistent>
1

> <s_lp_Variant>
AV-unprocessed.smi:1929-8

> <Gold.Version>
5.8.1

> <Gold.Id.Protein>
6NUR|6NUR_protein|mol2

> <Gold.PLP.Fitness>
46.2130

> <Gold.PLP.PLP>
-33.3497

> <Gold.PLP.part.hbond>
-3.0000

> <Gold.PLP.part.metal>
0.0000

> <Gold.PLP.part.buried>
-4.4248

> <Gold.PLP.part.nonpolar>
-27.3040

> <Gold.PLP.part.repulsive>
1.2240

> <Gold.PLP.ligand.clash>
0.0000

> <Gold.PLP.ligand.torsion>
0.7245

> <Gold.PLP.Chemscore.Hbond>
4.7520

> <Gold.PLP.Chemscore.CHOScore>
0.0000

> <Gold.PLP.Chemscore.Metal>
0.0000

> <Gold.Chemscore.Hbonds>
donor molecule, donor type, donor heavy atom, donor atom, acceptor molecule, acceptor atom, score
      L1  H     6    42       P1  7948  2.00
      P1  H  6896  6908       L1     4  0.58
      P1  H 10752 10763       L1     2  2.00

> <Gold.PLP.Chemscore.Internal.Correction>
0.0564

> <Gold.Rescore>
     Score         DG    S(hbond)    S(metal)    S(lipo)     H(rot)  DE(clash)    DE(int)     intcor
     15.14     -18.92       2.05        0.00      92.21       1.63       0.99       2.80       ----

> <Gold.Chemscore.Fitness>
15.1381

> <Gold.Chemscore.DG>
-18.9233

> <Gold.Chemscore.ZeroCoef>
-5.4800

> <Gold.Chemscore.Hbond>
2.0460

> <Gold.Chemscore.Metal>
0.0000

> <Gold.Chemscore.Lipo>
92.2084

> <Gold.Chemscore.Internal_Hbond>
0.0000

> <Gold.Chemscore.DEClash>
0.9891

> <Gold.Chemscore.DEInternal>
2.7961

> <Gold.Chemscore.Rot>
1.6323

> <Gold.Chemscore.Internal.Correction>
   9.000000E+99

> <Gold.Chemscore.Hbonds>
donor molecule, donor type, donor heavy atom, donor atom, acceptor molecule, acceptor atom, score
      L1  H     6    42       P1  7948  0.78
      P1  H  6896  6908       L1     4  0.56
      P1  H 10752 10763       L1     2  0.29

> <Gold.Chemscore.Hbond.Weighted>
-6.8335

> <Gold.Chemscore.Metal.Weighted>
-0.0000

> <Gold.Chemscore.Lipo.Weighted>
-10.7884

> <Gold.Chemscore.Internal_Hbond.Weighted>
0.0000

> <Gold.Chemscore.DEClash.Weighted>
0.9891

> <Gold.Chemscore.DEInternal.Weighted>
2.7961

> <Gold.Chemscore.Rot.Weighted>
4.1786

> <Gold.Chemscore.Internal.Correction.Weighted>
   9.000000E+99

> <Gold.Protein.RotatedTorsions>
[ 6907 6896 6895 6894 ] final  154.57 input  -60.11 | X-H torsion
[ 7974 7965 7964 7962 ] final    2.79 input  175.53 | X-H torsion
[ 8008 7997 7996 7995 ] final  -20.82 input   59.86 | X-H torsion
[ 10167 10162 10161 10158 ] final   14.02 input  -65.29 | X-H torsion
[ 10718 10713 10712 10709 ] final   23.35 input   66.30 | X-H torsion
[ 10763 10752 10751 10750 ] final  112.29 input  -60.55 | X-H torsion
[ 11005 11000 10999 10996 ] final  113.33 input  -57.11 | X-H torsion

> <Gold.Protein.ActiveResidues>
 VAL166  LYS551  ARG553  GLY616  TRP617  ASP618  TYR619  PRO620  LYS621  CYS622 
 ASP623  PHE694  ASN695  SER759  ASP760  ASP761  ALA762  ILE779  LEU786  VAL792 
 PHE793  MET794  SER795  GLU796  ALA797  LYS798  CYS799  TRP800  GLU811  SER814 

> <Gold.Protein.RotatedAtoms>
  152.0565  133.4042  159.4399 H   0  0  0  0  0  0  0  0  0  0  0  0  # atno 6907 bound_to 6896
  150.6868  134.3248  159.4811 H   0  0  0  0  0  0  0  0  0  0  0  0  # atno 6908 bound_to 6896
  152.1064  134.9305  160.0618 H   0  0  0  0  0  0  0  0  0  0  0  0  # atno 6909 bound_to 6896
  146.2444  140.0783  142.8358 H   0  0  0  0  0  0  0  0  0  0  0  0  # atno 7974 bound_to 7965
  154.4745  140.2051  155.9912 H   0  0  0  0  0  0  0  0  0  0  0  0  # atno 8008 bound_to 7997
  156.1066  140.3235  155.7985 H   0  0  0  0  0  0  0  0  0  0  0  0  # atno 8009 bound_to 7997
  155.4706  140.0531  157.2971 H   0  0  0  0  0  0  0  0  0  0  0  0  # atno 8010 bound_to 7997
  140.5964  143.8693  150.6922 H   0  0  0  0  0  0  0  0  0  0  0  0  # atno 10167 bound_to 10162
  157.1649  130.6733  149.6057 H   0  0  0  0  0  0  0  0  0  0  0  0  # atno 10718 bound_to 10713
  153.4756  135.3691  155.2415 H   0  0  0  0  0  0  0  0  0  0  0  0  # atno 10763 bound_to 10752
  154.8756  135.3942  154.3760 H   0  0  0  0  0  0  0  0  0  0  0  0  # atno 10764 bound_to 10752
  153.4355  135.7083  153.6267 H   0  0  0  0  0  0  0  0  0  0  0  0  # atno 10765 bound_to 10752
  139.8950  134.9548  156.6723 H   0  0  0  0  0  0  0  0  0  0  0  0  # atno 11005 bound_to 11000
  145.0755  140.9185  143.4856 LP  0  0  0  0  0  0  0  0  0  0  0  0  # atno 17320 bound_to 7965
  145.0926  139.2879  143.5727 LP  0  0  0  0  0  0  0  0  0  0  0  0  # atno 17321 bound_to 7965
  140.2229  143.3795  152.1628 LP  0  0  0  0  0  0  0  0  0  0  0  0  # atno 17342 bound_to 10162
  139.5261  144.7103  151.5225 LP  0  0  0  0  0  0  0  0  0  0  0  0  # atno 17343 bound_to 10162
  155.9747  130.4699  150.6411 LP  0  0  0  0  0  0  0  0  0  0  0  0  # atno 17370 bound_to 10713
  157.4098  131.0822  151.1232 LP  0  0  0  0  0  0  0  0  0  0  0  0  # atno 17371 bound_to 10713
  140.7364  133.9015  155.8247 LP  0  0  0  0  0  0  0  0  0  0  0  0  # atno 17394 bound_to 11000
  141.0113  134.1017  157.4219 LP  0  0  0  0  0  0  0  0  0  0  0  0  # atno 17395 bound_to 11000

$$$$
