#       Name:                AV-unprocessed.smi:674
#       Creating user name   scv26
#       Creation time:       Fri Mar 27 00:26:14 2020


#       File generated by GOLD software.
#

@<TRIPOS>MOLECULE
AV-unprocessed.smi:674
    52    53     1
SMALL
NO_CHARGES


@<TRIPOS>ATOM
      1 ****        -5.4203   3.9728  -1.0989 C.3            1 S1                 0.0000
      2 ****        -4.7924   3.9080   0.2981 C.3            1 S1                 0.0000
      3 ****        -4.1122   2.5918   0.5515 C.2            1 S1                 0.0000
      4 ****        -2.7187   2.3009   0.4835 C.2            1 S1                 0.0000
      5 ****        -2.6713   0.9704   0.7990 C.2            1 S1                 0.0000
      6 ****        -1.5879   0.1531   0.8814 N.am           1 S1                 0.0000
      7 ****        -0.2885   0.4609   0.7267 C.2            1 S1                 0.0000
      8 ****         0.1606   1.5884   0.5190 O.2            1 S1                 0.0000
      9 ****         0.4815  -0.6306   0.8285 N.am           1 S1                 0.0000
     10 ****         1.9347  -0.6281   0.6991 C.3            1 S1                 0.0000
     11 ****         2.5472  -2.0107   0.9119 C.3            1 S1                 0.0000
     12 ****         3.5613  -1.6318  -0.1833 C.3            1 S1                 0.0000
     13 ****         4.9064  -1.0339   0.2574 C.3            1 S1                 0.0000
     14 ****         3.7828  -2.6957  -1.1106 O.3            1 S1                 0.0000
     15 ****         4.4089  -3.8629  -0.5938 C.3            1 S1                 0.0000
     16 ****         2.4626  -0.6791  -0.7580 C.3            1 S1                 0.0000
     17 ****         1.5223  -1.2891  -1.8172 C.3            1 S1                 0.0000
     18 ****         2.9419   0.6536  -1.3423 C.3            1 S1                 0.0000
     19 ****        -3.9544   0.5223   1.0294 N.pl3          1 S1                 0.0000
     20 ****        -4.4338  -0.7969   1.3945 C.3            1 S1                 0.0000
     21 ****        -4.8407   1.5292   0.8770 N.2            1 S1                 0.0000
     22 ****        -5.8986   4.9380  -1.2658 H              1 S1                 0.0000
     23 ****        -6.1783   3.1995  -1.2273 H              1 S1                 0.0000
     24 ****        -4.6668   3.8359  -1.8750 H              1 S1                 0.0000
     25 ****        -4.0747   4.7215   0.4078 H              1 S1                 0.0000
     26 ****        -5.5622   4.0824   1.0509 H              1 S1                 0.0000
     27 ****        -1.9085   2.9710   0.2390 H              1 S1                 0.0000
     28 ****        -1.7944  -0.8158   1.0740 H              1 S1                 0.0000
     29 ****         0.0369  -1.5207   0.9990 H              1 S1                 0.0000
     30 ****         2.4299   0.1319   1.3075 H              1 S1                 0.0000
     31 ****         2.9790  -2.1654   1.9011 H              1 S1                 0.0000
     32 ****         1.8854  -2.8328   0.6325 H              1 S1                 0.0000
     33 ****         4.7744  -0.1334   0.8568 H              1 S1                 0.0000
     34 ****         5.5214  -0.7666  -0.6021 H              1 S1                 0.0000
     35 ****         5.4787  -1.7285   0.8715 H              1 S1                 0.0000
     36 ****         4.4431  -4.6233  -1.3738 H              1 S1                 0.0000
     37 ****         3.8596  -4.2815   0.2494 H              1 S1                 0.0000
     38 ****         5.4360  -3.6722  -0.2842 H              1 S1                 0.0000
     39 ****         2.0413  -1.4540  -2.7619 H              1 S1                 0.0000
     40 ****         0.6737  -0.6372  -2.0268 H              1 S1                 0.0000
     41 ****         1.1152  -2.2510  -1.5053 H              1 S1                 0.0000
     42 ****         3.5797   0.5000  -2.2131 H              1 S1                 0.0000
     43 ****         3.5129   1.2353  -0.6189 H              1 S1                 0.0000
     44 ****         2.1051   1.2798  -1.6536 H              1 S1                 0.0000
     45 ****        -3.6366  -1.5348   1.3063 H              1 S1                 0.0000
     46 ****        -5.2531  -1.0878   0.7362 H              1 S1                 0.0000
     47 ****        -4.7909  -0.7833   2.4246 H              1 S1                 0.0000
     48 ****        -0.4602   2.3695   0.4527 LP             1 S1                 0.0000
     49 ****         1.1462   1.7230   0.4166 LP             1 S1                 0.0000
     50 ****         4.3588  -2.3422  -1.8477 LP             1 S1                 0.0000
     51 ****         2.8945  -2.9657  -1.4821 LP             1 S1                 0.0000
     52 ****        -5.8337   1.4848   0.9858 LP             1 S1                 0.0000
@<TRIPOS>BOND
    1    1    2 1     
    2    1   22 1     
    3    1   23 1     
    4    1   24 1     
    5    2    3 1     
    6    2   25 1     
    7    2   26 1     
    8    3   21 2     
    9    3    4 1     
   10    4    5 2     
   11    4   27 1     
   12    5    6 1     
   13    5   19 1     
   14    6    7 am    
   15    6   28 1     
   16    7    8 2     
   17    7    9 am    
   18    9   10 1     
   19    9   29 1     
   20   10   16 1     
   21   10   11 1     
   22   10   30 1     
   23   11   12 1     
   24   11   31 1     
   25   11   32 1     
   26   12   13 1     
   27   12   14 1     
   28   12   16 1     
   29   13   33 1     
   30   13   34 1     
   31   13   35 1     
   32   14   15 1     
   33   15   36 1     
   34   15   37 1     
   35   15   38 1     
   36   16   17 1     
   37   16   18 1     
   38   17   39 1     
   39   17   40 1     
   40   17   41 1     
   41   18   42 1     
   42   18   43 1     
   43   18   44 1     
   44   19   20 1     
   45   19   21 1     
   46   20   45 1     
   47   20   46 1     
   48   20   47 1     
   49    8   48 1     
   50    8   49 1     
   51   14   50 1     
   52   14   51 1     
   53   21   52 1     
@<TRIPOS>SUBSTRUCTURE
      1 S1             1
@<TRIPOS>SET
LONE_PAIRS      STATIC     ATOMS    <user>   **** ""
5 48 49 50 51 52
DONOR_HYDROGENS      STATIC     ATOMS    <user>   **** ""
2 28 29
ATOM$BLUE        STATIC     ATOMS    COLORGROUP SYSTEM
5 48 49 50 51 52
ATOM$RED        STATIC     ATOMS    COLORGROUP SYSTEM
2 28 29
