AV-unprocessed.smi:90|AV-procd|sdf|832|dock7
  -GOLD-   2262017253D 1   1.00000     0.00000
 Structure written by MMmdl.
 64 67  0  0  0  0  0  0  0  0  2 V2000
  149.5104  132.4411  154.6658 C   0  0  0  0  0  0  0  0  0  0  0  0
  148.4715  133.4626  154.5617 N   0  0  0  0  0  0  0  0  0  0  0  0
  147.3290  133.2148  153.6876 C   0  0  0  0  0  0  0  0  0  0  0  0
  147.7347  133.1606  152.2012 C   0  0  0  0  0  0  0  0  0  0  0  0
  146.5634  132.8648  151.2279 C   0  0  1  0  0  0  0  0  0  0  0  0
  145.8462  131.5498  151.6273 C   0  0  0  0  0  0  0  0  0  0  0  0
  144.6638  131.2264  150.7084 C   0  0  0  0  0  0  0  0  0  0  0  0
  143.6938  132.4073  150.6825 C   0  0  0  0  0  0  0  0  0  0  0  0
  144.4283  133.6864  150.2627 C   0  0  0  0  0  0  0  0  0  0  0  0
  145.5703  133.9873  151.1675 N   0  3  2  0  0  0  0  0  0  0  0  0
  146.1555  135.3102  150.8366 C   0  0  0  0  0  0  0  0  0  0  0  0
  148.6320  134.6481  155.2179 C   0  0  0  0  0  0  0  0  0  0  0  0
  147.6628  135.5911  155.0691 N   0  0  0  0  0  0  0  0  0  0  0  0
  147.7638  136.7806  155.6665 C   0  0  0  0  0  0  0  0  0  0  0  0
  148.7357  137.2344  156.4563 N   0  0  0  0  0  0  0  0  0  0  0  0
  149.7092  136.2971  156.6310 C   0  0  0  0  0  0  0  0  0  0  0  0
  149.7408  134.9925  156.0538 C   0  0  0  0  0  0  0  0  0  0  0  0
  150.8960  134.3376  156.4706 N   0  0  0  0  0  0  0  0  0  0  0  0
  151.5106  135.2011  157.2291 C   0  0  0  0  0  0  0  0  0  0  0  0
  150.8603  136.4014  157.3947 N   0  0  0  0  0  0  0  0  0  0  0  0
  151.3228  137.5368  158.1824 C   0  0  0  0  0  0  0  0  0  0  0  0
  151.7585  138.7819  157.3521 C   0  0  0  0  0  0  0  0  0  0  0  0
  152.5691  139.7719  158.2365 C   0  0  0  0  0  0  0  0  0  0  0  0
  153.8243  139.2452  158.6177 O   0  0  0  0  0  0  0  0  0  0  0  0
  152.6249  138.3399  156.1441 C   0  0  0  0  0  0  0  0  0  0  0  0
  152.8230  139.4541  155.0989 C   0  0  0  0  0  0  0  0  0  0  0  0
  151.5638  139.9454  154.6601 O   0  0  0  0  0  0  0  0  0  0  0  0
  150.8018  140.5221  155.7125 C   0  0  0  0  0  0  0  0  0  0  0  0
  150.4865  139.4526  156.7731 C   0  0  0  0  0  0  0  0  0  0  0  0
  150.4877  132.8587  154.4212 H   0  0  0  0  0  0  0  0  0  0  0  0
  149.3203  131.6153  153.9800 H   0  0  0  0  0  0  0  0  0  0  0  0
  149.5494  132.0330  155.6762 H   0  0  0  0  0  0  0  0  0  0  0  0
  146.8876  132.2583  153.9702 H   0  0  0  0  0  0  0  0  0  0  0  0
  146.5518  133.9502  153.8823 H   0  0  0  0  0  0  0  0  0  0  0  0
  148.2231  134.0912  151.9107 H   0  0  0  0  0  0  0  0  0  0  0  0
  148.4956  132.3863  152.1262 H   0  0  0  0  0  0  0  0  0  0  0  0
  146.9781  132.7419  150.2257 H   0  0  0  0  0  0  0  0  0  0  0  0
  146.5340  130.7059  151.5988 H   0  0  0  0  0  0  0  0  0  0  0  0
  145.4930  131.6227  152.6570 H   0  0  0  0  0  0  0  0  0  0  0  0
  145.0233  131.0170  149.7001 H   0  0  0  0  0  0  0  0  0  0  0  0
  144.1534  130.3267  151.0531 H   0  0  0  0  0  0  0  0  0  0  0  0
  142.8743  132.2023  149.9928 H   0  0  0  0  0  0  0  0  0  0  0  0
  143.2460  132.5428  151.6681 H   0  0  0  0  0  0  0  0  0  0  0  0
  144.7898  133.5932  149.2371 H   0  0  0  0  0  0  0  0  0  0  0  0
  143.7205  134.5162  150.2733 H   0  0  0  0  0  0  0  0  0  0  0  0
  146.7569  135.2568  149.9281 H   0  0  0  0  0  0  0  0  0  0  0  0
  146.7750  135.6909  151.6474 H   0  0  0  0  0  0  0  0  0  0  0  0
  145.3746  136.0548  150.6788 H   0  0  0  0  0  0  0  0  0  0  0  0
  146.9504  137.4672  155.4832 H   0  0  0  0  0  0  0  0  0  0  0  0
  152.4590  134.9814  157.6978 H   0  0  0  0  0  0  0  0  0  0  0  0
  150.5142  137.8084  158.8621 H   0  0  0  0  0  0  0  0  0  0  0  0
  152.1382  137.1993  158.8233 H   0  0  0  0  0  0  0  0  0  0  0  0
  152.7335  140.7137  157.7132 H   0  0  0  0  0  0  0  0  0  0  0  0
  152.0345  140.0277  159.1498 H   0  0  0  0  0  0  0  0  0  0  0  0
  153.8267  139.1217  159.5547 H   0  0  0  0  0  0  0  0  0  0  0  0
  153.6009  137.9867  156.4782 H   0  0  0  0  0  0  0  0  0  0  0  0
  152.1478  137.4936  155.6482 H   0  0  0  0  0  0  0  0  0  0  0  0
  153.4297  140.2709  155.4904 H   0  0  0  0  0  0  0  0  0  0  0  0
  153.3593  139.0585  154.2362 H   0  0  0  0  0  0  0  0  0  0  0  0
  151.3306  141.3727  156.1435 H   0  0  0  0  0  0  0  0  0  0  0  0
  149.8741  140.9124  155.2936 H   0  0  0  0  0  0  0  0  0  0  0  0
  149.8587  138.6939  156.3038 H   0  0  0  0  0  0  0  0  0  0  0  0
  149.8789  139.8864  157.5677 H   0  0  0  0  0  0  0  0  0  0  0  0
  145.1778  134.0745  152.0941 H   0  0  0  0  0  0  0  0  0  0  0  0
  1  2  1  0  0  0  0
  1 30  1  0  0  0  0
  1 31  1  0  0  0  0
  1 32  1  0  0  0  0
  2  3  1  0  0  0  0
  2 12  1  0  0  0  0
  3  4  1  0  0  0  0
  3 33  1  0  0  0  0
  3 34  1  0  0  0  0
  4  5  1  0  0  0  0
  4 35  1  0  0  0  0
  4 36  1  0  0  0  0
  5 10  1  0  0  0  0
  5  6  1  0  0  0  0
  5 37  1  0  0  0  0
  6  7  1  0  0  0  0
  6 38  1  0  0  0  0
  6 39  1  0  0  0  0
  7  8  1  0  0  0  0
  7 40  1  0  0  0  0
  7 41  1  0  0  0  0
  8  9  1  0  0  0  0
  8 42  1  0  0  0  0
  8 43  1  0  0  0  0
  9 10  1  0  0  0  0
  9 44  1  0  0  0  0
  9 45  1  0  0  0  0
 10 11  1  0  0  0  0
 10 64  1  0  0  0  0
 11 46  1  0  0  0  0
 11 47  1  0  0  0  0
 11 48  1  0  0  0  0
 12 17  1  0  0  0  0
 12 13  2  0  0  0  0
 13 14  1  0  0  0  0
 14 15  2  0  0  0  0
 14 49  1  0  0  0  0
 15 16  1  0  0  0  0
 16 20  1  0  0  0  0
 16 17  2  0  0  0  0
 17 18  1  0  0  0  0
 18 19  2  0  0  0  0
 19 20  1  0  0  0  0
 19 50  1  0  0  0  0
 20 21  1  0  0  0  0
 21 22  1  0  0  0  0
 21 51  1  0  0  0  0
 21 52  1  0  0  0  0
 22 29  1  0  0  0  0
 22 23  1  0  0  0  0
 22 25  1  0  0  0  0
 23 24  1  0  0  0  0
 23 53  1  0  0  0  0
 23 54  1  0  0  0  0
 24 55  1  0  0  0  0
 25 26  1  0  0  0  0
 25 56  1  0  0  0  0
 25 57  1  0  0  0  0
 26 27  1  0  0  0  0
 26 58  1  0  0  0  0
 26 59  1  0  0  0  0
 27 28  1  0  0  0  0
 28 29  1  0  0  0  0
 28 60  1  0  0  0  0
 28 61  1  0  0  0  0
 29 62  1  0  0  0  0
 29 63  1  0  0  0  0
M  CHG  1  10   1
M  END
> <s_m_source_file>
AV-unprocessed.smi

> <i_m_source_file_index>
90

> <i_lp_mmshare_version>
43012

> <i_f3d_flags>
0

> <s_epik_input>
W0NIM11OMVtDSDJdW0NIMl1bQ0gyXVtDSDJdW0NASF0xW0NIMl1bQ0gyXU4oW0NIM10pYyhuW2NIXW4yKWMoYzIzKW5bY0hdbjNbQ0gyXUM0KFtDSDJdW09IXSlbQ0gyXVtDSDJdT1tDSDJdW0NIMl00

> <s_epik_cmdline>
J2VwaWtfcHl0aG9uJywgJy1waCcsICc3LjAnLCAnLXRuJywgJzgnLCAnLW1hJywgJzIwMCcsICctbWV0YWxfYmluZGluZycsICctaW1hZScsICc8aW5maWxlLm1hZT4nLCAnLW9tYWUnLCAnPG91dGZpbGUubWFlPic=

> <r_lp_tautomer_probability>
1

> <r_epik_Ionization_Penalty>
0.00234895

> <r_epik_Ionization_Penalty_Charging>
0.00106647

> <r_epik_Ionization_Penalty_Neutral>
0.00128248

> <r_epik_State_Penalty>
-0

> <r_epik_Charging_Adjusted_Penalty>
0.00106647

> <i_epik_Tot_Q>
1

> <i_epik_Tot_abs_Q>
1

> <r_epik_Metal_State_Penalty>
-0

> <b_epik_Metal_Only>
0

> <s_lp_Force_Field>
OPLS_2005

> <r_lp_Energy>
42.6574

> <b_lp_Chiralities_Consistent>
1

> <s_lp_Variant>
AV-unprocessed.smi:90-4

> <Gold.Version>
5.8.1

> <Gold.Id.Protein>
6NUR|6NUR_protein|mol2

> <Gold.PLP.Fitness>
43.9950

> <Gold.PLP.PLP>
-38.4833

> <Gold.PLP.part.hbond>
-1.9128

> <Gold.PLP.part.metal>
0.0000

> <Gold.PLP.part.buried>
-1.1025

> <Gold.PLP.part.nonpolar>
-36.0819

> <Gold.PLP.part.repulsive>
0.1713

> <Gold.PLP.ligand.clash>
0.0000

> <Gold.PLP.ligand.torsion>
0.3721

> <Gold.PLP.Chemscore.Hbond>
1.9913

> <Gold.PLP.Chemscore.CHOScore>
0.0000

> <Gold.PLP.Chemscore.Metal>
0.0000

> <Gold.Chemscore.Hbonds>
donor molecule, donor type, donor heavy atom, donor atom, acceptor molecule, acceptor atom, score
      P1  H  7989  7998       L1    27  0.88
      P1  H  7997  8009       L1    24  1.00

> <Gold.PLP.Chemscore.Internal.Correction>
0.2822

> <Gold.Rescore>
     Score         DG    S(hbond)    S(metal)    S(lipo)     H(rot)  DE(clash)    DE(int)     intcor
     11.25     -15.65       1.42        0.00     106.07       2.73       1.35       3.05       ----

> <Gold.Chemscore.Fitness>
11.2479

> <Gold.Chemscore.DG>
-15.6477

> <Gold.Chemscore.ZeroCoef>
-5.4800

> <Gold.Chemscore.Hbond>
1.4245

> <Gold.Chemscore.Metal>
0.0000

> <Gold.Chemscore.Lipo>
106.0736

> <Gold.Chemscore.Internal_Hbond>
0.0000

> <Gold.Chemscore.DEClash>
1.3509

> <Gold.Chemscore.DEInternal>
3.0489

> <Gold.Chemscore.Rot>
2.7347

> <Gold.Chemscore.Internal.Correction>
   9.000000E+99

> <Gold.Chemscore.Hbonds>
donor molecule, donor type, donor heavy atom, donor atom, acceptor molecule, acceptor atom, score
      P1  H  7989  7998       L1    27  0.57
      P1  H  7997  8009       L1    24  0.34

> <Gold.Chemscore.Hbond.Weighted>
-4.7580

> <Gold.Chemscore.Metal.Weighted>
-0.0000

> <Gold.Chemscore.Lipo.Weighted>
-12.4106

> <Gold.Chemscore.Internal_Hbond.Weighted>
0.0000

> <Gold.Chemscore.DEClash.Weighted>
1.3509

> <Gold.Chemscore.DEInternal.Weighted>
3.0489

> <Gold.Chemscore.Rot.Weighted>
7.0009

> <Gold.Chemscore.Internal.Correction.Weighted>
   9.000000E+99

> <Gold.Protein.RotatedTorsions>
[ 6907 6896 6895 6894 ] final   29.96 input  -60.11 | X-H torsion
[ 7974 7965 7964 7962 ] final   45.21 input  175.53 | X-H torsion
[ 8008 7997 7996 7995 ] final  125.05 input   59.86 | X-H torsion
[ 10167 10162 10161 10158 ] final  125.40 input  -65.29 | X-H torsion
[ 10718 10713 10712 10709 ] final   67.11 input   66.30 | X-H torsion
[ 10763 10752 10751 10750 ] final   79.01 input  -60.55 | X-H torsion
[ 11005 11000 10999 10996 ] final  -48.91 input  -57.11 | X-H torsion

> <Gold.Protein.ActiveResidues>
 VAL166  LYS551  ARG553  GLY616  TRP617  ASP618  TYR619  PRO620  LYS621  CYS622 
 ASP623  PHE694  ASN695  SER759  ASP760  ASP761  ALA762  ILE779  LEU786  VAL792 
 PHE793  MET794  SER795  GLU796  ALA797  LYS798  CYS799  TRP800  GLU811  SER814 

> <Gold.Protein.RotatedAtoms>
  152.0391  134.9722  160.0573 H   0  0  0  0  0  0  0  0  0  0  0  0  # atno 6907 bound_to 6896
  152.1168  133.4326  159.4665 H   0  0  0  0  0  0  0  0  0  0  0  0  # atno 6908 bound_to 6896
  150.6846  134.2501  159.4550 H   0  0  0  0  0  0  0  0  0  0  0  0  # atno 6909 bound_to 6896
  146.0500  139.4989  142.9724 H   0  0  0  0  0  0  0  0  0  0  0  0  # atno 7974 bound_to 7965
  156.2822  140.2725  156.1887 H   0  0  0  0  0  0  0  0  0  0  0  0  # atno 8008 bound_to 7997
  155.0481  140.0386  157.2552 H   0  0  0  0  0  0  0  0  0  0  0  0  # atno 8009 bound_to 7997
  154.7218  140.2689  155.6540 H   0  0  0  0  0  0  0  0  0  0  0  0  # atno 8010 bound_to 7997
  139.5688  144.6927  151.3837 H   0  0  0  0  0  0  0  0  0  0  0  0  # atno 10167 bound_to 10162
  157.6210  130.9303  150.0198 H   0  0  0  0  0  0  0  0  0  0  0  0  # atno 10718 bound_to 10713
  153.0919  135.4855  154.8706 H   0  0  0  0  0  0  0  0  0  0  0  0  # atno 10763 bound_to 10752
  154.7279  135.3053  154.8942 H   0  0  0  0  0  0  0  0  0  0  0  0  # atno 10764 bound_to 10752
  153.9587  135.6815  153.4798 H   0  0  0  0  0  0  0  0  0  0  0  0  # atno 10765 bound_to 10752
  141.0728  133.6674  156.3509 H   0  0  0  0  0  0  0  0  0  0  0  0  # atno 11005 bound_to 11000
  145.6740  141.0209  143.1642 LP  0  0  0  0  0  0  0  0  0  0  0  0  # atno 17320 bound_to 7965
  144.7118  139.8344  143.7412 LP  0  0  0  0  0  0  0  0  0  0  0  0  # atno 17321 bound_to 7965
  140.6972  143.7721  150.7345 LP  0  0  0  0  0  0  0  0  0  0  0  0  # atno 17342 bound_to 10162
  140.1220  143.4603  152.2307 LP  0  0  0  0  0  0  0  0  0  0  0  0  # atno 17343 bound_to 10162
  156.1356  130.3643  149.9663 LP  0  0  0  0  0  0  0  0  0  0  0  0  # atno 17370 bound_to 10713
  156.7715  130.9188  151.3644 LP  0  0  0  0  0  0  0  0  0  0  0  0  # atno 17371 bound_to 10713
  140.5637  134.5909  157.5440 LP  0  0  0  0  0  0  0  0  0  0  0  0  # atno 17394 bound_to 11000
  139.9541  134.7566  156.0381 LP  0  0  0  0  0  0  0  0  0  0  0  0  # atno 17395 bound_to 11000

$$$$
