AV-unprocessed.smi:491|AV-procd|sdf|2707|dock10
  -GOLD-   2262023153D 1   1.00000     0.00000
 Structure written by MMmdl.
 45 46  0  0  0  0  0  0  0  0  1 V2000
  152.6273  142.8477  161.6164 C   0  0  0  0  0  0  0  0  0  0  0  0
  153.7168  142.1513  160.7874 C   0  0  0  0  0  0  0  0  0  0  0  0
  153.4312  140.7624  160.5371 N   0  0  0  0  0  0  0  0  0  0  0  0
  154.2116  139.7551  161.0647 C   0  0  0  0  0  0  0  0  0  0  0  0
  153.9599  138.4490  160.8414 C   0  0  0  0  0  0  0  0  0  0  0  0
  154.7802  137.4214  161.3921 C   0  0  0  0  0  0  0  0  0  0  0  0
  155.4258  136.5770  161.8497 N   0  0  0  0  0  0  0  0  0  0  0  0
  152.8299  138.0297  160.0163 C   0  0  0  0  0  0  0  0  0  0  0  0
  152.5742  136.8514  159.7635 O   0  0  0  0  0  0  0  0  0  0  0  0
  152.0296  139.0789  159.4958 N   0  0  0  0  0  0  0  0  0  0  0  0
  150.8810  138.7280  158.6265 C   0  0  0  0  0  0  0  0  0  0  0  0
  151.2357  138.5299  157.1412 C   0  0  0  0  0  0  0  0  0  0  0  0
  152.1319  137.7445  156.8355 O   0  0  0  0  0  0  0  0  0  0  0  0
  150.5481  139.2374  156.2317 N   0  0  0  0  0  0  0  0  0  0  0  0
  150.7615  139.2004  154.7928 C   0  0  0  0  0  0  0  0  0  0  0  0
  149.5679  139.8217  154.0419 C   0  0  0  0  0  0  0  0  0  0  0  0
  149.2548  141.2338  154.5772 C   0  0  0  0  0  0  0  0  0  0  0  0
  148.0766  141.8783  153.8290 C   0  0  0  0  0  0  0  0  0  0  0  0
  146.8252  140.9896  153.8914 C   0  0  0  0  0  0  0  0  0  0  0  0
  147.1222  139.5812  153.3547 C   0  0  0  0  0  0  0  0  0  0  0  0
  148.3018  138.9357  154.0995 C   0  0  0  0  0  0  0  0  0  0  0  0
  152.3078  140.4463  159.7384 C   0  0  0  0  0  0  0  0  0  0  0  0
  151.5958  141.3312  159.2570 O   0  0  0  0  0  0  0  0  0  0  0  0
  152.8969  143.8856  161.8117 H   0  0  0  0  0  0  0  0  0  0  0  0
  152.4904  142.3542  162.5790 H   0  0  0  0  0  0  0  0  0  0  0  0
  151.6670  142.8482  161.1003 H   0  0  0  0  0  0  0  0  0  0  0  0
  153.8834  142.6334  159.8222 H   0  0  0  0  0  0  0  0  0  0  0  0
  154.6716  142.1704  161.3145 H   0  0  0  0  0  0  0  0  0  0  0  0
  155.0586  140.0214  161.6809 H   0  0  0  0  0  0  0  0  0  0  0  0
  150.3888  137.8215  158.9819 H   0  0  0  0  0  0  0  0  0  0  0  0
  150.0993  139.4866  158.6879 H   0  0  0  0  0  0  0  0  0  0  0  0
  149.8272  139.8597  156.5664 H   0  0  0  0  0  0  0  0  0  0  0  0
  151.6814  139.7367  154.5547 H   0  0  0  0  0  0  0  0  0  0  0  0
  150.9021  138.1655  154.4763 H   0  0  0  0  0  0  0  0  0  0  0  0
  149.8559  139.9228  152.9939 H   0  0  0  0  0  0  0  0  0  0  0  0
  149.0222  141.1810  155.6419 H   0  0  0  0  0  0  0  0  0  0  0  0
  150.1349  141.8715  154.4859 H   0  0  0  0  0  0  0  0  0  0  0  0
  147.8576  142.8578  154.2550 H   0  0  0  0  0  0  0  0  0  0  0  0
  148.3534  142.0489  152.7876 H   0  0  0  0  0  0  0  0  0  0  0  0
  146.4749  140.9223  154.9221 H   0  0  0  0  0  0  0  0  0  0  0  0
  146.0166  141.4440  153.3182 H   0  0  0  0  0  0  0  0  0  0  0  0
  146.2358  138.9531  153.4491 H   0  0  0  0  0  0  0  0  0  0  0  0
  147.3497  139.6364  152.2894 H   0  0  0  0  0  0  0  0  0  0  0  0
  148.4978  137.9550  153.6647 H   0  0  0  0  0  0  0  0  0  0  0  0
  148.0228  138.7599  155.1393 H   0  0  0  0  0  0  0  0  0  0  0  0
  1  2  1  0  0  0  0
  1 24  1  0  0  0  0
  1 25  1  0  0  0  0
  1 26  1  0  0  0  0
  2  3  1  0  0  0  0
  2 27  1  0  0  0  0
  2 28  1  0  0  0  0
  3 22  1  0  0  0  0
  3  4  1  0  0  0  0
  4  5  2  0  0  0  0
  4 29  1  0  0  0  0
  5  6  1  0  0  0  0
  5  8  1  0  0  0  0
  6  7  3  0  0  0  0
  8  9  2  0  0  0  0
  8 10  1  0  0  0  0
 10 11  1  0  0  0  0
 10 22  1  0  0  0  0
 11 12  1  0  0  0  0
 11 30  1  0  0  0  0
 11 31  1  0  0  0  0
 12 13  2  0  0  0  0
 12 14  1  0  0  0  0
 14 15  1  0  0  0  0
 14 32  1  0  0  0  0
 15 16  1  0  0  0  0
 15 33  1  0  0  0  0
 15 34  1  0  0  0  0
 16 21  1  0  0  0  0
 16 17  1  0  0  0  0
 16 35  1  0  0  0  0
 17 18  1  0  0  0  0
 17 36  1  0  0  0  0
 17 37  1  0  0  0  0
 18 19  1  0  0  0  0
 18 38  1  0  0  0  0
 18 39  1  0  0  0  0
 19 20  1  0  0  0  0
 19 40  1  0  0  0  0
 19 41  1  0  0  0  0
 20 21  1  0  0  0  0
 20 42  1  0  0  0  0
 20 43  1  0  0  0  0
 21 44  1  0  0  0  0
 21 45  1  0  0  0  0
 22 23  2  0  0  0  0
M  END
> <s_m_source_file>
AV-unprocessed.smi

> <i_m_source_file_index>
491

> <i_lp_mmshare_version>
43012

> <i_f3d_flags>
0

> <s_epik_input>
W0NIM11bQ0gyXW4xW2NIXWMoQyNOKWMoPU8pbihjMT1PKVtDSDJdQyg9TylbTkhdW0NIMl1bQ0hdMltDSDJdW0NIMl1bQ0gyXVtDSDJdW0NIMl0y

> <s_epik_cmdline>
J2VwaWtfcHl0aG9uJywgJy1waCcsICc3LjAnLCAnLXRuJywgJzgnLCAnLW1hJywgJzIwMCcsICctbWV0YWxfYmluZGluZycsICctaW1hZScsICc8aW5maWxlLm1hZT4nLCAnLW9tYWUnLCAnPG91dGZpbGUubWFlPic=

> <r_lp_tautomer_probability>
1

> <r_epik_Ionization_Penalty>
1.98356e-08

> <r_epik_Ionization_Penalty_Charging>
3.77777e-11

> <r_epik_Ionization_Penalty_Neutral>
1.97978e-08

> <r_epik_State_Penalty>
-0

> <r_epik_Charging_Adjusted_Penalty>
3.77777e-11

> <i_epik_Tot_Q>
0

> <i_epik_Tot_abs_Q>
0

> <r_epik_Metal_State_Penalty>
-0

> <b_epik_Metal_Only>
0

> <s_lp_Force_Field>
OPLS_2005

> <r_lp_Energy>
13.3995

> <b_lp_Chiralities_Consistent>
1

> <s_lp_Variant>
AV-unprocessed.smi:491-1

> <Gold.Version>
5.8.1

> <Gold.Id.Protein>
6NUR|6NUR_protein|mol2

> <Gold.PLP.Fitness>
40.1992

> <Gold.PLP.PLP>
-38.3171

> <Gold.PLP.part.hbond>
-1.0000

> <Gold.PLP.part.metal>
0.0000

> <Gold.PLP.part.buried>
-1.7348

> <Gold.PLP.part.nonpolar>
-35.0979

> <Gold.PLP.part.repulsive>
0.0403

> <Gold.PLP.ligand.clash>
0.0000

> <Gold.PLP.ligand.torsion>
0.5718

> <Gold.PLP.Chemscore.Hbond>
1.0000

> <Gold.PLP.Chemscore.CHOScore>
0.0000

> <Gold.PLP.Chemscore.Metal>
0.0000

> <Gold.Chemscore.Hbonds>
donor molecule, donor type, donor heavy atom, donor atom, acceptor molecule, acceptor atom, score
      P1  H  6896  6908       L1     9  1.00

> <Gold.PLP.Chemscore.Internal.Correction>
0.0258

> <Gold.Rescore>
     Score         DG    S(hbond)    S(metal)    S(lipo)     H(rot)  DE(clash)    DE(int)     intcor
     13.20     -14.07       1.00        0.00      87.47       1.95       0.19       0.68       ----

> <Gold.Chemscore.Fitness>
13.2007

> <Gold.Chemscore.DG>
-14.0701

> <Gold.Chemscore.ZeroCoef>
-5.4800

> <Gold.Chemscore.Hbond>
0.9991

> <Gold.Chemscore.Metal>
0.0000

> <Gold.Chemscore.Lipo>
87.4745

> <Gold.Chemscore.Internal_Hbond>
0.0000

> <Gold.Chemscore.DEClash>
0.1886

> <Gold.Chemscore.DEInternal>
0.6809

> <Gold.Chemscore.Rot>
1.9458

> <Gold.Chemscore.Internal.Correction>
   9.000000E+99

> <Gold.Chemscore.Hbonds>
donor molecule, donor type, donor heavy atom, donor atom, acceptor molecule, acceptor atom, score
      P1  H  6896  6908       L1     9  0.99

> <Gold.Chemscore.Hbond.Weighted>
-3.3369

> <Gold.Chemscore.Metal.Weighted>
-0.0000

> <Gold.Chemscore.Lipo.Weighted>
-10.2345

> <Gold.Chemscore.Internal_Hbond.Weighted>
0.0000

> <Gold.Chemscore.DEClash.Weighted>
0.1886

> <Gold.Chemscore.DEInternal.Weighted>
0.6809

> <Gold.Chemscore.Rot.Weighted>
4.9813

> <Gold.Chemscore.Internal.Correction.Weighted>
   9.000000E+99

> <Gold.Protein.RotatedTorsions>
[ 6907 6896 6895 6894 ] final  -90.46 input  -60.11 | X-H torsion
[ 7974 7965 7964 7962 ] final -123.65 input  175.53 | X-H torsion
[ 8008 7997 7996 7995 ] final   40.71 input   59.86 | X-H torsion
[ 10167 10162 10161 10158 ] final   13.95 input  -65.29 | X-H torsion
[ 10718 10713 10712 10709 ] final  -73.22 input   66.30 | X-H torsion
[ 10763 10752 10751 10750 ] final   35.91 input  -60.55 | X-H torsion
[ 11005 11000 10999 10996 ] final   13.96 input  -57.11 | X-H torsion

> <Gold.Protein.ActiveResidues>
 VAL166  LYS551  ARG553  GLY616  TRP617  ASP618  TYR619  PRO620  LYS621  CYS622 
 ASP623  PHE694  ASN695  SER759  ASP760  ASP761  ALA762  ILE779  LEU786  VAL792 
 PHE793  MET794  SER795  GLU796  ALA797  LYS798  CYS799  TRP800  GLU811  SER814 

> <Gold.Protein.RotatedAtoms>
  150.6882  134.2428  159.4479 H   0  0  0  0  0  0  0  0  0  0  0  0  # atno 6907 bound_to 6896
  152.0371  134.9731  160.0582 H   0  0  0  0  0  0  0  0  0  0  0  0  # atno 6908 bound_to 6896
  152.1247  133.4338  159.4729 H   0  0  0  0  0  0  0  0  0  0  0  0  # atno 6909 bound_to 6896
  145.0164  140.7950  143.4407 H   0  0  0  0  0  0  0  0  0  0  0  0  # atno 7974 bound_to 7965
  155.2576  140.3357  155.4276 H   0  0  0  0  0  0  0  0  0  0  0  0  # atno 8008 bound_to 7997
  156.2189  140.1800  156.7567 H   0  0  0  0  0  0  0  0  0  0  0  0  # atno 8009 bound_to 7997
  154.5795  140.0656  156.9067 H   0  0  0  0  0  0  0  0  0  0  0  0  # atno 8010 bound_to 7997
  140.5968  143.8685  150.6926 H   0  0  0  0  0  0  0  0  0  0  0  0  # atno 10167 bound_to 10162
  156.0289  130.4389  150.2710 H   0  0  0  0  0  0  0  0  0  0  0  0  # atno 10718 bound_to 10713
  153.0099  135.6320  154.1902 H   0  0  0  0  0  0  0  0  0  0  0  0  # atno 10763 bound_to 10752
  154.1644  135.2822  155.3101 H   0  0  0  0  0  0  0  0  0  0  0  0  # atno 10764 bound_to 10752
  154.5957  135.5603  153.7383 H   0  0  0  0  0  0  0  0  0  0  0  0  # atno 10765 bound_to 10752
  140.4748  134.0994  155.7739 H   0  0  0  0  0  0  0  0  0  0  0  0  # atno 11005 bound_to 11000
  145.1954  139.2279  143.5221 LP  0  0  0  0  0  0  0  0  0  0  0  0  # atno 17320 bound_to 7965
  146.3478  140.1759  142.8589 LP  0  0  0  0  0  0  0  0  0  0  0  0  # atno 17321 bound_to 7965
  140.2221  143.3800  152.1634 LP  0  0  0  0  0  0  0  0  0  0  0  0  # atno 17342 bound_to 10162
  139.5264  144.7107  151.5216 LP  0  0  0  0  0  0  0  0  0  0  0  0  # atno 17343 bound_to 10162
  157.0813  131.0144  151.3155 LP  0  0  0  0  0  0  0  0  0  0  0  0  # atno 17370 bound_to 10713
  157.4925  130.7831  149.7522 LP  0  0  0  0  0  0  0  0  0  0  0  0  # atno 17371 bound_to 10713
  141.1559  133.8883  157.1977 LP  0  0  0  0  0  0  0  0  0  0  0  0  # atno 17394 bound_to 11000
  139.9862  135.0081  156.9869 LP  0  0  0  0  0  0  0  0  0  0  0  0  # atno 17395 bound_to 11000

$$$$
