AV-unprocessed.smi:1965|AV-procd|sdf|7936|dock2
  -GOLD-   2272010103D 1   1.00000     0.00000
 Structure written by MMmdl.
 37 39  0  0  0  0  0  0  0  0  2 V2000
  149.2786  142.2247  159.4065 O   0  0  0  0  0  0  0  0  0  0  0  0
  148.9987  143.1352  158.6291 C   0  0  0  0  0  0  0  0  0  0  0  0
  147.8622  143.8494  158.7698 N   0  0  0  0  0  0  0  0  0  0  0  0
  146.8120  143.7616  159.7290 C   0  0  0  0  0  0  0  0  0  0  0  0
  146.7682  142.8897  160.7450 N   0  0  0  0  0  0  0  0  0  0  0  0
  145.6282  143.0577  161.5354 C   0  0  0  0  0  0  0  0  0  0  0  0
  144.8117  144.0757  161.1108 C   0  0  0  0  0  0  0  0  0  0  0  0
  145.4470  144.8690  159.6945 S   0  0  0  0  0  0  0  0  0  0  0  0
  149.7888  143.4799  157.5984 N   0  0  0  0  0  0  0  0  0  0  0  0
  151.0353  142.8193  157.2181 C   0  0  2  0  0  0  0  0  0  0  0  0
  150.8237  141.3665  156.7493 C   0  0  0  0  0  0  0  0  0  0  0  0
  151.9688  140.5787  157.3938 C   0  0  0  0  0  0  0  0  0  0  0  0
  152.1803  141.2855  158.6620 N   0  3  1  0  0  0  0  0  0  0  0  0
  153.3806  140.9617  159.4594 C   0  0  0  0  0  0  0  0  0  0  0  0
  153.2783  141.6938  160.8149 C   0  0  0  0  0  0  0  0  0  0  0  0
  153.0135  143.2071  160.6450 C   0  0  0  0  0  0  0  0  0  0  0  0
  151.8256  143.4784  159.6968 C   0  0  0  0  0  0  0  0  0  0  0  0
  152.0579  142.7248  158.3746 C   0  0  2  0  0  0  0  0  0  0  0  0
  147.7734  144.6246  158.1287 H   0  0  0  0  0  0  0  0  0  0  0  0
  145.4773  142.4080  162.3850 H   0  0  0  0  0  0  0  0  0  0  0  0
  143.8804  144.4075  161.5455 H   0  0  0  0  0  0  0  0  0  0  0  0
  149.4815  144.2447  157.0142 H   0  0  0  0  0  0  0  0  0  0  0  0
  151.4971  143.3711  156.3971 H   0  0  0  0  0  0  0  0  0  0  0  0
  149.8715  140.9829  157.1193 H   0  0  0  0  0  0  0  0  0  0  0  0
  150.8146  141.2727  155.6630 H   0  0  0  0  0  0  0  0  0  0  0  0
  151.7241  139.5272  157.5477 H   0  0  0  0  0  0  0  0  0  0  0  0
  152.8699  140.6405  156.7819 H   0  0  0  0  0  0  0  0  0  0  0  0
  153.4385  139.8843  159.6173 H   0  0  0  0  0  0  0  0  0  0  0  0
  154.2816  141.2605  158.9217 H   0  0  0  0  0  0  0  0  0  0  0  0
  152.4654  141.2557  161.3957 H   0  0  0  0  0  0  0  0  0  0  0  0
  154.1880  141.5357  161.3953 H   0  0  0  0  0  0  0  0  0  0  0  0
  152.8297  143.6663  161.6167 H   0  0  0  0  0  0  0  0  0  0  0  0
  153.9087  143.6844  160.2446 H   0  0  0  0  0  0  0  0  0  0  0  0
  150.8941  143.1530  160.1623 H   0  0  0  0  0  0  0  0  0  0  0  0
  151.7343  144.5498  159.5166 H   0  0  0  0  0  0  0  0  0  0  0  0
  153.0135  143.0585  157.9640 H   0  0  0  0  0  0  0  0  0  0  0  0
  151.3836  141.0482  159.2358 H   0  0  0  0  0  0  0  0  0  0  0  0
  1  2  2  0  0  0  0
  2  3  1  0  0  0  0
  2  9  1  0  0  0  0
  3  4  1  0  0  0  0
  3 19  1  0  0  0  0
  4  8  1  0  0  0  0
  4  5  2  0  0  0  0
  5  6  1  0  0  0  0
  6  7  2  0  0  0  0
  6 20  1  0  0  0  0
  7  8  1  0  0  0  0
  7 21  1  0  0  0  0
  9 10  1  0  0  0  0
  9 22  1  0  0  0  0
 10 18  1  0  0  0  0
 10 11  1  0  0  0  0
 10 23  1  0  0  0  0
 11 12  1  0  0  0  0
 11 24  1  0  0  0  0
 11 25  1  0  0  0  0
 12 13  1  0  0  0  0
 12 26  1  0  0  0  0
 12 27  1  0  0  0  0
 13 18  1  0  0  0  0
 13 14  1  0  0  0  0
 13 37  1  0  0  0  0
 14 15  1  0  0  0  0
 14 28  1  0  0  0  0
 14 29  1  0  0  0  0
 15 16  1  0  0  0  0
 15 30  1  0  0  0  0
 15 31  1  0  0  0  0
 16 17  1  0  0  0  0
 16 32  1  0  0  0  0
 16 33  1  0  0  0  0
 17 18  1  0  0  0  0
 17 34  1  0  0  0  0
 17 35  1  0  0  0  0
 18 36  1  0  0  0  0
M  CHG  1  13   1
M  END
> <s_m_source_file>
AV-unprocessed.smi

> <i_m_source_file_index>
1965

> <i_lp_mmshare_version>
43012

> <i_f3d_flags>
0

> <s_epik_input>
czFbY0hdW2NIXW5jMVtOSF1DKD1PKVtOSF1bQ0BIXShbQ0gyXVtDSDJdMilbQ0BASF0oTjIzKVtDSDJdW0NIMl1bQ0gyXVtDSDJdMw==

> <s_epik_cmdline>
J2VwaWtfcHl0aG9uJywgJy1waCcsICc3LjAnLCAnLXRuJywgJzgnLCAnLW1hJywgJzIwMCcsICctbWV0YWxfYmluZGluZycsICctaW1hZScsICc8aW5maWxlLm1hZT4nLCAnLW9tYWUnLCAnPG91dGZpbGUubWFlPic=

> <r_lp_tautomer_probability>
1

> <r_epik_Ionization_Penalty>
0.00125962

> <r_epik_Ionization_Penalty_Charging>
0.00107044

> <r_epik_Ionization_Penalty_Neutral>
0.000189176

> <r_epik_State_Penalty>
-0

> <r_epik_Charging_Adjusted_Penalty>
0.00107044

> <i_epik_Tot_Q>
1

> <i_epik_Tot_abs_Q>
1

> <r_epik_Metal_State_Penalty>
0.0179285

> <b_epik_Metal_Only>
0

> <s_lp_Force_Field>
OPLS_2005

> <r_lp_Energy>
42.3256

> <b_lp_Chiralities_Consistent>
1

> <s_lp_Variant>
AV-unprocessed.smi:1965-5

> <Gold.Version>
5.8.1

> <Gold.Id.Protein>
6NUR|6NUR_protein|mol2

> <Gold.PLP.Fitness>
42.9483

> <Gold.PLP.PLP>
-31.6276

> <Gold.PLP.part.hbond>
-5.5581

> <Gold.PLP.part.metal>
0.0000

> <Gold.PLP.part.buried>
-0.7933

> <Gold.PLP.part.nonpolar>
-25.8592

> <Gold.PLP.part.repulsive>
0.2690

> <Gold.PLP.ligand.clash>
0.0000

> <Gold.PLP.ligand.torsion>
0.0290

> <Gold.PLP.Chemscore.Hbond>
3.7924

> <Gold.PLP.Chemscore.CHOScore>
0.0000

> <Gold.PLP.Chemscore.Metal>
0.0000

> <Gold.Chemscore.Hbonds>
donor molecule, donor type, donor heavy atom, donor atom, acceptor molecule, acceptor atom, score
      L1  H     3    19       P1  8029  1.00
      L1  H     9    22       P1  8028  0.99
      P1  H  6933  6944       L1     5  0.93
      P1  H  6934  6946       L1     5  0.86

> <Gold.PLP.Chemscore.Internal.Correction>
0.0013

> <Gold.Rescore>
     Score         DG    S(hbond)    S(metal)    S(lipo)     H(rot)  DE(clash)    DE(int)     intcor
     17.23     -21.21       2.49        0.00      85.14       1.00       1.30       2.68       ----

> <Gold.Chemscore.Fitness>
17.2314

> <Gold.Chemscore.DG>
-21.2143

> <Gold.Chemscore.ZeroCoef>
-5.4800

> <Gold.Chemscore.Hbond>
2.4948

> <Gold.Chemscore.Metal>
0.0000

> <Gold.Chemscore.Lipo>
85.1416

> <Gold.Chemscore.Internal_Hbond>
0.0000

> <Gold.Chemscore.DEClash>
1.3023

> <Gold.Chemscore.DEInternal>
2.6806

> <Gold.Chemscore.Rot>
1.0000

> <Gold.Chemscore.Internal.Correction>
   9.000000E+99

> <Gold.Chemscore.Hbonds>
donor molecule, donor type, donor heavy atom, donor atom, acceptor molecule, acceptor atom, score
      L1  H     3    19       P1  8029  0.68
      L1  H     9    22       P1  8028  0.35
      P1  H  6933  6944       L1     5  0.82
      P1  H  6934  6946       L1     5  0.24

> <Gold.Chemscore.Hbond.Weighted>
-8.3327

> <Gold.Chemscore.Metal.Weighted>
-0.0000

> <Gold.Chemscore.Lipo.Weighted>
-9.9616

> <Gold.Chemscore.Internal_Hbond.Weighted>
0.0000

> <Gold.Chemscore.DEClash.Weighted>
1.3023

> <Gold.Chemscore.DEInternal.Weighted>
2.6806

> <Gold.Chemscore.Rot.Weighted>
2.5600

> <Gold.Chemscore.Internal.Correction.Weighted>
   9.000000E+99

> <Gold.Protein.RotatedTorsions>
[ 6907 6896 6895 6894 ] final  -86.19 input  -60.11 | X-H torsion
[ 7974 7965 7964 7962 ] final -109.74 input  175.53 | X-H torsion
[ 8008 7997 7996 7995 ] final  -81.75 input   59.86 | X-H torsion
[ 10167 10162 10161 10158 ] final  167.63 input  -65.29 | X-H torsion
[ 10718 10713 10712 10709 ] final  -91.56 input   66.30 | X-H torsion
[ 10763 10752 10751 10750 ] final -153.71 input  -60.55 | X-H torsion
[ 11005 11000 10999 10996 ] final  -94.55 input  -57.11 | X-H torsion

> <Gold.Protein.ActiveResidues>
 VAL166  LYS551  ARG553  GLY616  TRP617  ASP618  TYR619  PRO620  LYS621  CYS622 
 ASP623  PHE694  ASN695  SER759  ASP760  ASP761  ALA762  ILE779  LEU786  VAL792 
 PHE793  MET794  SER795  GLU796  ALA797  LYS798  CYS799  TRP800  GLU811  SER814 

> <Gold.Protein.RotatedAtoms>
  150.6867  134.3089  159.4737 H   0  0  0  0  0  0  0  0  0  0  0  0  # atno 6907 bound_to 6896
  152.0977  134.9361  160.0579 H   0  0  0  0  0  0  0  0  0  0  0  0  # atno 6908 bound_to 6896
  152.0652  133.4046  159.4472 H   0  0  0  0  0  0  0  0  0  0  0  0  # atno 6909 bound_to 6896
  145.1768  140.8952  143.3503 H   0  0  0  0  0  0  0  0  0  0  0  0  # atno 7974 bound_to 7965
  154.6015  140.0643  156.9375 H   0  0  0  0  0  0  0  0  0  0  0  0  # atno 8008 bound_to 7997
  155.2124  140.3323  155.4308 H   0  0  0  0  0  0  0  0  0  0  0  0  # atno 8009 bound_to 7997
  156.2321  140.1846  156.7199 H   0  0  0  0  0  0  0  0  0  0  0  0  # atno 8010 bound_to 7997
  139.4949  144.3901  151.9527 H   0  0  0  0  0  0  0  0  0  0  0  0  # atno 10167 bound_to 10162
  155.9995  130.4953  150.5493 H   0  0  0  0  0  0  0  0  0  0  0  0  # atno 10718 bound_to 10713
  154.7909  135.3206  154.7779 H   0  0  0  0  0  0  0  0  0  0  0  0  # atno 10763 bound_to 10752
  153.8468  135.6866  153.4801 H   0  0  0  0  0  0  0  0  0  0  0  0  # atno 10764 bound_to 10752
  153.1579  135.4673  154.9670 H   0  0  0  0  0  0  0  0  0  0  0  0  # atno 10765 bound_to 10752
  141.1467  133.7964  157.0314 H   0  0  0  0  0  0  0  0  0  0  0  0  # atno 11005 bound_to 11000
  145.0176  139.3453  143.6088 LP  0  0  0  0  0  0  0  0  0  0  0  0  # atno 17320 bound_to 7965
  146.3460  139.9464  142.8734 LP  0  0  0  0  0  0  0  0  0  0  0  0  # atno 17321 bound_to 7965
  140.3338  144.3284  150.5981 LP  0  0  0  0  0  0  0  0  0  0  0  0  # atno 17342 bound_to 10162
  140.5623  143.2190  151.7744 LP  0  0  0  0  0  0  0  0  0  0  0  0  # atno 17343 bound_to 10162
  157.3418  131.0718  151.1782 LP  0  0  0  0  0  0  0  0  0  0  0  0  # atno 17370 bound_to 10713
  157.2627  130.6667  149.5982 LP  0  0  0  0  0  0  0  0  0  0  0  0  # atno 17371 bound_to 10713
  140.0752  134.9680  157.1533 LP  0  0  0  0  0  0  0  0  0  0  0  0  # atno 17394 bound_to 11000
  140.3655  134.2448  155.7183 LP  0  0  0  0  0  0  0  0  0  0  0  0  # atno 17395 bound_to 11000

$$$$
