AV-unprocessed.smi:2414|AV-procd|sdf|9541|dock10
  -GOLD-   2272013173D 1   1.00000     0.00000
 Structure written by MMmdl.
 43 44  0  0  0  0  0  0  0  0  1 V2000
  145.6466  131.8561  149.6433 C   0  0  0  0  0  0  0  0  0  0  0  0
  145.4157  132.8289  150.7498 C   0  0  0  0  0  0  0  0  0  0  0  0
  144.4305  133.7810  150.8345 C   0  0  0  0  0  0  0  0  0  0  0  0
  144.4791  134.5414  152.0050 N   0  0  0  0  0  0  0  0  0  0  0  0
  145.4847  134.1812  152.8079 C   0  0  0  0  0  0  0  0  0  0  0  0
  145.7694  134.8284  154.1268 C   0  0  1  0  0  0  0  0  0  0  0  0
  144.9972  136.1496  154.2881 C   0  0  0  0  0  0  0  0  0  0  0  0
  145.5813  133.8382  155.2965 C   0  0  0  0  0  0  0  0  0  0  0  0
  146.3288  134.2279  156.4874 N   0  0  0  0  0  0  0  0  0  0  0  0
  146.0198  135.2582  157.2861 C   0  0  0  0  0  0  0  0  0  0  0  0
  145.0740  136.0223  157.0932 O   0  0  0  0  0  0  0  0  0  0  0  0
  146.8596  135.3483  158.3244 N   0  0  0  0  0  0  0  0  0  0  0  0
  146.7761  136.3513  159.3797 C   0  0  0  0  0  0  0  0  0  0  0  0
  147.8496  136.1290  160.4672 C   0  0  2  0  0  0  0  0  0  0  0  0
  149.2790  136.3435  159.9344 C   0  0  0  0  0  0  0  0  0  0  0  0
  147.6926  134.7455  161.1247 C   0  0  0  0  0  0  0  0  0  0  0  0
  146.8780  135.0373  162.3659 C   0  0  0  0  0  0  0  0  0  0  0  0
  147.4168  136.4046  162.7558 C   0  0  0  0  0  0  0  0  0  0  0  0
  147.6040  137.0720  161.5146 O   0  0  0  0  0  0  0  0  0  0  0  0
  146.4460  132.8579  152.1573 S   0  0  0  0  0  0  0  0  0  0  0  0
  145.4125  132.3030  148.6767 H   0  0  0  0  0  0  0  0  0  0  0  0
  145.0183  130.9741  149.7686 H   0  0  0  0  0  0  0  0  0  0  0  0
  146.6864  131.5292  149.6179 H   0  0  0  0  0  0  0  0  0  0  0  0
  143.6558  133.9860  150.1103 H   0  0  0  0  0  0  0  0  0  0  0  0
  146.8268  135.0954  154.1057 H   0  0  0  0  0  0  0  0  0  0  0  0
  145.2055  136.8262  153.4589 H   0  0  0  0  0  0  0  0  0  0  0  0
  145.2743  136.6681  155.2060 H   0  0  0  0  0  0  0  0  0  0  0  0
  143.9208  135.9776  154.3152 H   0  0  0  0  0  0  0  0  0  0  0  0
  144.5271  133.7784  155.5684 H   0  0  0  0  0  0  0  0  0  0  0  0
  145.8767  132.8324  154.9923 H   0  0  0  0  0  0  0  0  0  0  0  0
  147.1270  133.6595  156.7301 H   0  0  0  0  0  0  0  0  0  0  0  0
  147.6081  134.6747  158.3972 H   0  0  0  0  0  0  0  0  0  0  0  0
  146.8899  137.3375  158.9278 H   0  0  0  0  0  0  0  0  0  0  0  0
  145.7859  136.3275  159.8385 H   0  0  0  0  0  0  0  0  0  0  0  0
  149.5064  135.6448  159.1287 H   0  0  0  0  0  0  0  0  0  0  0  0
  150.0190  136.1946  160.7212 H   0  0  0  0  0  0  0  0  0  0  0  0
  149.4208  137.3531  159.5485 H   0  0  0  0  0  0  0  0  0  0  0  0
  147.2226  134.0067  160.4744 H   0  0  0  0  0  0  0  0  0  0  0  0
  148.6633  134.3463  161.4231 H   0  0  0  0  0  0  0  0  0  0  0  0
  145.8176  135.1042  162.1187 H   0  0  0  0  0  0  0  0  0  0  0  0
  147.0040  134.2890  163.1486 H   0  0  0  0  0  0  0  0  0  0  0  0
  146.7421  136.9552  163.4113 H   0  0  0  0  0  0  0  0  0  0  0  0
  148.3807  136.3084  163.2577 H   0  0  0  0  0  0  0  0  0  0  0  0
  1  2  1  0  0  0  0
  1 21  1  0  0  0  0
  1 22  1  0  0  0  0
  1 23  1  0  0  0  0
  2 20  1  0  0  0  0
  2  3  2  0  0  0  0
  3  4  1  0  0  0  0
  3 24  1  0  0  0  0
  4  5  2  0  0  0  0
  5  6  1  0  0  0  0
  5 20  1  0  0  0  0
  6  7  1  0  0  0  0
  6  8  1  0  0  0  0
  6 25  1  0  0  0  0
  7 26  1  0  0  0  0
  7 27  1  0  0  0  0
  7 28  1  0  0  0  0
  8  9  1  0  0  0  0
  8 29  1  0  0  0  0
  8 30  1  0  0  0  0
  9 10  1  0  0  0  0
  9 31  1  0  0  0  0
 10 11  2  0  0  0  0
 10 12  1  0  0  0  0
 12 13  1  0  0  0  0
 12 32  1  0  0  0  0
 13 14  1  0  0  0  0
 13 33  1  0  0  0  0
 13 34  1  0  0  0  0
 14 19  1  0  0  0  0
 14 15  1  0  0  0  0
 14 16  1  0  0  0  0
 15 35  1  0  0  0  0
 15 36  1  0  0  0  0
 15 37  1  0  0  0  0
 16 17  1  0  0  0  0
 16 38  1  0  0  0  0
 16 39  1  0  0  0  0
 17 18  1  0  0  0  0
 17 40  1  0  0  0  0
 17 41  1  0  0  0  0
 18 19  1  0  0  0  0
 18 42  1  0  0  0  0
 18 43  1  0  0  0  0
M  END
> <s_m_source_file>
AV-unprocessed.smi

> <i_m_source_file_index>
2414

> <i_lp_mmshare_version>
43012

> <i_f3d_flags>
0

> <s_epik_input>
W0NIM11jMVtjSF1uYyhzMSlbQ0BIXShbQ0gzXSlbQ0gyXVtOSF1DKD1PKVtOSF1bQ0gyXVtDQEBdMihbQ0gzXSlbQ0gyXVtDSDJdW0NIMl1PMg==

> <s_epik_cmdline>
J2VwaWtfcHl0aG9uJywgJy1waCcsICc3LjAnLCAnLXRuJywgJzgnLCAnLW1hJywgJzIwMCcsICctbWV0YWxfYmluZGluZycsICctaW1hZScsICc8aW5maWxlLm1hZT4nLCAnLW9tYWUnLCAnPG91dGZpbGUubWFlPic=

> <r_epik_Ionization_Penalty>
0.000646956

> <r_epik_Ionization_Penalty_Charging>
0

> <r_epik_Ionization_Penalty_Neutral>
0.000646956

> <r_epik_State_Penalty>
0.000375727

> <r_epik_Charging_Adjusted_Penalty>
0.000375727

> <i_epik_Tot_Q>
0

> <i_epik_Tot_abs_Q>
0

> <r_epik_Metal_State_Penalty>
-0

> <b_epik_Metal_Only>
0

> <s_lp_Force_Field>
OPLS_2005

> <r_lp_Energy>
8.05024

> <b_lp_Chiralities_Consistent>
1

> <s_lp_Variant>
AV-unprocessed.smi:2414-4

> <Gold.Version>
5.8.1

> <Gold.Id.Protein>
6NUR|6NUR_protein|mol2

> <Gold.PLP.Fitness>
37.6282

> <Gold.PLP.PLP>
-29.8940

> <Gold.PLP.part.hbond>
-2.0000

> <Gold.PLP.part.metal>
0.0000

> <Gold.PLP.part.buried>
-5.0939

> <Gold.PLP.part.nonpolar>
-23.0117

> <Gold.PLP.part.repulsive>
0.1110

> <Gold.PLP.ligand.clash>
0.0000

> <Gold.PLP.ligand.torsion>
0.4383

> <Gold.PLP.Chemscore.Hbond>
1.8240

> <Gold.PLP.Chemscore.CHOScore>
1.0000

> <Gold.PLP.Chemscore.Metal>
0.0000

> <Gold.Chemscore.Hbonds>
donor molecule, donor type, donor heavy atom, donor atom, acceptor molecule, acceptor atom, score
      P1  H  6931  6943       L1    19  1.00
      P1  H  6934  6947       L1    19  0.74
      L1  C     3    24       P1 10186  0.48

> <Gold.PLP.Chemscore.Internal.Correction>
0.1388

> <Gold.Rescore>
     Score         DG    S(hbond)    S(metal)    S(lipo)     H(rot)  DE(clash)    DE(int)     intcor
     14.06     -14.66       1.25        0.00      78.81       1.65       0.01       0.59       ----

> <Gold.Chemscore.Fitness>
14.0637

> <Gold.Chemscore.DG>
-14.6605

> <Gold.Chemscore.ZeroCoef>
-5.4800

> <Gold.Chemscore.Hbond>
1.2541

> <Gold.Chemscore.Metal>
0.0000

> <Gold.Chemscore.Lipo>
78.8148

> <Gold.Chemscore.Internal_Hbond>
0.0000

> <Gold.Chemscore.DEClash>
0.0074

> <Gold.Chemscore.DEInternal>
0.5894

> <Gold.Chemscore.Rot>
1.6522

> <Gold.Chemscore.Internal.Correction>
   9.000000E+99

> <Gold.Chemscore.Hbonds>
donor molecule, donor type, donor heavy atom, donor atom, acceptor molecule, acceptor atom, score
      P1  H  6931  6943       L1    19  0.31
      P1  H  6934  6947       L1    19  0.66

> <Gold.Chemscore.Hbond.Weighted>
-4.1887

> <Gold.Chemscore.Metal.Weighted>
-0.0000

> <Gold.Chemscore.Lipo.Weighted>
-9.2213

> <Gold.Chemscore.Internal_Hbond.Weighted>
0.0000

> <Gold.Chemscore.DEClash.Weighted>
0.0074

> <Gold.Chemscore.DEInternal.Weighted>
0.5894

> <Gold.Chemscore.Rot.Weighted>
4.2295

> <Gold.Chemscore.Internal.Correction.Weighted>
   9.000000E+99

> <Gold.Protein.RotatedTorsions>
[ 6907 6896 6895 6894 ] final   39.42 input  -60.11 | X-H torsion
[ 7974 7965 7964 7962 ] final   15.21 input  175.53 | X-H torsion
[ 8008 7997 7996 7995 ] final -112.25 input   59.86 | X-H torsion
[ 10167 10162 10161 10158 ] final  -93.78 input  -65.29 | X-H torsion
[ 10718 10713 10712 10709 ] final  114.88 input   66.30 | X-H torsion
[ 10763 10752 10751 10750 ] final  156.51 input  -60.55 | X-H torsion
[ 11005 11000 10999 10996 ] final  -80.22 input  -57.11 | X-H torsion

> <Gold.Protein.ActiveResidues>
 VAL166  LYS551  ARG553  GLY616  TRP617  ASP618  TYR619  PRO620  LYS621  CYS622 
 ASP623  PHE694  ASN695  SER759  ASP760  ASP761  ALA762  ILE779  LEU786  VAL792 
 PHE793  MET794  SER795  GLU796  ALA797  LYS798  CYS799  TRP800  GLU811  SER814 

> <Gold.Protein.RotatedAtoms>
  152.1694  134.8847  160.0535 H   0  0  0  0  0  0  0  0  0  0  0  0  # atno 6907 bound_to 6896
  151.9813  133.3753  159.4116 H   0  0  0  0  0  0  0  0  0  0  0  0  # atno 6908 bound_to 6896
  150.6899  134.3959  159.5141 H   0  0  0  0  0  0  0  0  0  0  0  0  # atno 6909 bound_to 6896
  146.2284  139.8928  142.8552 H   0  0  0  0  0  0  0  0  0  0  0  0  # atno 7974 bound_to 7965
  155.0024  140.0394  157.2365 H   0  0  0  0  0  0  0  0  0  0  0  0  # atno 8008 bound_to 7997
  154.7532  140.2771  155.6252 H   0  0  0  0  0  0  0  0  0  0  0  0  # atno 8009 bound_to 7997
  156.2889  140.2643  156.2291 H   0  0  0  0  0  0  0  0  0  0  0  0  # atno 8010 bound_to 7997
  140.3212  143.3048  152.0044 H   0  0  0  0  0  0  0  0  0  0  0  0  # atno 10167 bound_to 10162
  157.6255  131.1005  150.7250 H   0  0  0  0  0  0  0  0  0  0  0  0  # atno 10718 bound_to 10713
  154.1855  135.2797  155.3038 H   0  0  0  0  0  0  0  0  0  0  0  0  # atno 10763 bound_to 10752
  154.5969  135.5542  153.7338 H   0  0  0  0  0  0  0  0  0  0  0  0  # atno 10764 bound_to 10752
  153.0126  135.6382  154.1994 H   0  0  0  0  0  0  0  0  0  0  0  0  # atno 10765 bound_to 10752
  141.1668  133.7140  156.8240 H   0  0  0  0  0  0  0  0  0  0  0  0  # atno 11005 bound_to 11000
  145.2401  141.0006  143.3941 LP  0  0  0  0  0  0  0  0  0  0  0  0  # atno 17320 bound_to 7965
  144.9459  139.4137  143.6426 LP  0  0  0  0  0  0  0  0  0  0  0  0  # atno 17321 bound_to 7965
  139.4874  144.6309  151.7071 LP  0  0  0  0  0  0  0  0  0  0  0  0  # atno 17342 bound_to 10162
  140.5482  144.0469  150.6116 LP  0  0  0  0  0  0  0  0  0  0  0  0  # atno 17343 bound_to 10162
  156.7599  130.4795  149.5439 LP  0  0  0  0  0  0  0  0  0  0  0  0  # atno 17370 bound_to 10713
  156.1424  130.6254  151.0486 LP  0  0  0  0  0  0  0  0  0  0  0  0  # atno 17371 bound_to 10713
  140.2099  134.8835  157.3262 LP  0  0  0  0  0  0  0  0  0  0  0  0  # atno 17394 bound_to 11000
  140.2098  134.4152  155.7619 LP  0  0  0  0  0  0  0  0  0  0  0  0  # atno 17395 bound_to 11000

$$$$
