#       Name:                AV-unprocessed.smi:2279
#       Creating user name   scv26
#       Creation time:       Fri Mar 27 12:40:30 2020


#       File generated by GOLD software.
#

@<TRIPOS>MOLECULE
AV-unprocessed.smi:2279
    61    63     1
SMALL
NO_CHARGES


@<TRIPOS>ATOM
      1 ****        -7.4958   3.6456   0.8403 C.3            1 S1                 0.0000
      2 ****        -6.8395   2.2919   0.6677 C.ar           1 S1                 0.0000
      3 ****        -7.5904   1.1060   0.7778 C.ar           1 S1                 0.0000
      4 ****        -6.9219  -0.1223   0.6080 C.ar           1 S1                 0.0000
      5 ****        -7.6675  -1.4361   0.7121 C.3            1 S1                 0.0000
      6 ****        -5.5996  -0.2117   0.3502 N.ar           1 S1                 0.0000
      7 ****        -4.8659   0.9238   0.2436 C.ar           1 S1                 0.0000
      8 ****        -3.4722   0.9385  -0.0290 N.am           1 S1                 0.0000
      9 ****        -2.6448  -0.1097  -0.1872 C.2            1 S1                 0.0000
     10 ****        -2.9682  -1.2942  -0.0934 O.2            1 S1                 0.0000
     11 ****        -1.3955   0.2958  -0.4585 N.am           1 S1                 0.0000
     12 ****        -0.2536  -0.5874  -0.6770 C.3            1 S1                 0.0000
     13 ****         0.3909  -0.9914   0.6554 C.3            1 S1                 0.0000
     14 ****         1.6760  -1.8026   0.4192 C.3            1 S1                 0.0000
     15 ****         2.6656  -1.0333  -0.3535 N.3            1 S1                 0.0000
     16 ****         3.9400  -1.7810  -0.4319 C.3            1 S1                 0.0000
     17 ****         4.6989  -1.7533   0.9193 C.3            1 S1                 0.0000
     18 ****         5.3079  -0.3700   1.2136 C.3            1 S1                 0.0000
     19 ****         6.2143   0.0632   0.1225 N.4            1 S1                 1.0000
     20 ****         6.8865   1.3451   0.4242 C.3            1 S1                 0.0000
     21 ****         5.5330   0.0799  -1.1943 C.3            1 S1                 0.0000
     22 ****         4.9317  -1.2984  -1.5213 C.3            1 S1                 0.0000
     23 ****         2.0767  -0.7318  -1.6676 C.3            1 S1                 0.0000
     24 ****         0.8028   0.1213  -1.5303 C.3            1 S1                 0.0000
     25 ****        -5.4596   2.1969   0.3963 C.ar           1 S1                 0.0000
     26 ****        -8.5828   3.5599   0.8481 H              1 S1                 0.0000
     27 ****        -7.2135   4.3125   0.0251 H              1 S1                 0.0000
     28 ****        -7.1813   4.0985   1.7807 H              1 S1                 0.0000
     29 ****        -8.6498   1.1368   0.9873 H              1 S1                 0.0000
     30 ****        -8.7463  -1.2788   0.7257 H              1 S1                 0.0000
     31 ****        -7.3860  -1.9572   1.6274 H              1 S1                 0.0000
     32 ****        -7.4295  -2.0786  -0.1363 H              1 S1                 0.0000
     33 ****        -3.0582   1.8543  -0.1183 H              1 S1                 0.0000
     34 ****        -1.2203   1.2880  -0.5177 H              1 S1                 0.0000
     35 ****        -0.5805  -1.4845  -1.2066 H              1 S1                 0.0000
     36 ****         0.6234  -0.1044   1.2469 H              1 S1                 0.0000
     37 ****        -0.3104  -1.5822   1.2460 H              1 S1                 0.0000
     38 ****         2.0631  -2.0874   1.3942 H              1 S1                 0.0000
     39 ****         1.4389  -2.7314  -0.1024 H              1 S1                 0.0000
     40 ****         3.6901  -2.8162  -0.6706 H              1 S1                 0.0000
     41 ****         4.0850  -2.0708   1.7593 H              1 S1                 0.0000
     42 ****         5.5083  -2.4833   0.8769 H              1 S1                 0.0000
     43 ****         4.5167   0.3691   1.3498 H              1 S1                 0.0000
     44 ****         5.8647  -0.4115   2.1505 H              1 S1                 0.0000
     45 ****         6.1625   2.1572   0.5019 H              1 S1                 0.0000
     46 ****         7.6025   1.5982  -0.3584 H              1 S1                 0.0000
     47 ****         7.4330   1.2816   1.3657 H              1 S1                 0.0000
     48 ****         4.7543   0.8443  -1.1960 H              1 S1                 0.0000
     49 ****         6.2492   0.3561  -1.9690 H              1 S1                 0.0000
     50 ****         5.7501  -2.0176  -1.5786 H              1 S1                 0.0000
     51 ****         4.4981  -1.3124  -2.5204 H              1 S1                 0.0000
     52 ****         2.7679  -0.1509  -2.2751 H              1 S1                 0.0000
     53 ****         1.8650  -1.6560  -2.2073 H              1 S1                 0.0000
     54 ****         0.3977   0.3380  -2.5194 H              1 S1                 0.0000
     55 ****         1.0606   1.0832  -1.0839 H              1 S1                 0.0000
     56 ****        -4.8636   3.0940   0.3086 H              1 S1                 0.0000
     57 ****         6.9421  -0.6343   0.0606 H              1 S1                 0.0000
     58 ****        -5.1658  -1.1058   0.2390 LP             1 S1                 0.0000
     59 ****        -3.9148  -1.5389   0.1165 LP             1 S1                 0.0000
     60 ****        -2.2842  -2.0113  -0.2272 LP             1 S1                 0.0000
     61 ****         2.8881  -0.1655   0.0909 LP             1 S1                 0.0000
@<TRIPOS>BOND
    1    1    2 1     
    2    1   26 1     
    3    1   27 1     
    4    1   28 1     
    5    2   25 ar    
    6    2    3 ar    
    7    3    4 ar    
    8    3   29 1     
    9    4    5 1     
   10    4    6 ar    
   11    5   30 1     
   12    5   31 1     
   13    5   32 1     
   14    6    7 ar    
   15    7    8 1     
   16    7   25 ar    
   17    8    9 am    
   18    8   33 1     
   19    9   10 2     
   20    9   11 am    
   21   11   12 1     
   22   11   34 1     
   23   12   24 1     
   24   12   13 1     
   25   12   35 1     
   26   13   14 1     
   27   13   36 1     
   28   13   37 1     
   29   14   15 1     
   30   14   38 1     
   31   14   39 1     
   32   15   16 1     
   33   15   23 1     
   34   16   22 1     
   35   16   17 1     
   36   16   40 1     
   37   17   18 1     
   38   17   41 1     
   39   17   42 1     
   40   18   19 1     
   41   18   43 1     
   42   18   44 1     
   43   19   20 1     
   44   19   21 1     
   45   19   57 1     
   46   20   45 1     
   47   20   46 1     
   48   20   47 1     
   49   21   22 1     
   50   21   48 1     
   51   21   49 1     
   52   22   50 1     
   53   22   51 1     
   54   23   24 1     
   55   23   52 1     
   56   23   53 1     
   57   24   54 1     
   58   24   55 1     
   59   25   56 1     
   60    6   58 1     
   61   10   59 1     
   62   10   60 1     
   63   15   61 1     
@<TRIPOS>SUBSTRUCTURE
      1 S1             1
@<TRIPOS>SET
LONE_PAIRS      STATIC     ATOMS    <user>   **** ""
4 58 59 60 61
DONOR_HYDROGENS      STATIC     ATOMS    <user>   **** ""
3 33 34 57
ATOM$BLUE        STATIC     ATOMS    COLORGROUP SYSTEM
4 58 59 60 61
ATOM$RED        STATIC     ATOMS    COLORGROUP SYSTEM
3 33 34 57
