AV-unprocessed.smi:2104|AV-procd|sdf|8588|dock2
  -GOLD-   2272011323D 1   1.00000     0.00000
 Structure written by MMmdl.
 42 43  0  0  0  0  0  0  0  0  2 V2000
  145.7451  134.5088  162.1492 C   0  0  0  0  0  0  0  0  0  0  0  0
  146.6794  135.3658  161.3657 C   0  0  0  0  0  0  0  0  0  0  0  0
  147.6209  135.0849  160.4170 C   0  0  0  0  0  0  0  0  0  0  0  0
  148.1472  136.3653  160.0930 C   0  0  0  0  0  0  0  0  0  0  0  0
  149.1036  136.6160  159.1861 N   0  5  0  0  0  0  0  0  0  0  0  0
  149.2355  137.8557  158.6609 C   0  0  0  0  0  0  0  0  0  0  0  0
  148.3384  138.6904  158.5221 O   0  0  0  0  0  0  0  0  0  0  0  0
  150.4887  138.1514  158.2878 N   0  0  0  0  0  0  0  0  0  0  0  0
  150.9526  139.4353  157.7702 C   0  0  0  0  0  0  0  0  0  0  0  0
  150.4030  140.6083  158.5962 C   0  0  0  0  0  0  0  0  0  0  0  0
  151.4386  141.0987  159.4356 O   0  0  0  0  0  0  0  0  0  0  0  0
  152.3577  141.9766  158.7967 C   0  0  1  0  0  0  0  0  0  0  0  0
  151.6116  143.2047  158.2273 C   0  0  0  0  0  0  0  0  0  0  0  0
  150.9780  144.0532  159.3419 C   0  0  0  0  0  0  0  0  0  0  0  0
  152.0274  144.4825  160.3778 C   0  0  0  0  0  0  0  0  0  0  0  0
  152.7777  143.2690  160.9500 C   0  0  0  0  0  0  0  0  0  0  0  0
  153.4155  142.4174  159.8332 C   0  0  1  0  0  0  0  0  0  0  0  0
  154.1998  141.2241  160.4009 C   0  0  0  0  0  0  0  0  0  0  0  0
  147.5647  137.3388  160.7726 N   0  0  0  0  0  0  0  0  0  0  0  0
  146.6255  136.7054  161.5955 O   0  0  0  0  0  0  0  0  0  0  0  0
  146.2448  133.6007  162.4866 H   0  0  0  0  0  0  0  0  0  0  0  0
  144.8886  134.2185  161.5411 H   0  0  0  0  0  0  0  0  0  0  0  0
  145.3730  135.0354  163.0283 H   0  0  0  0  0  0  0  0  0  0  0  0
  147.8945  134.1193  160.0196 H   0  0  0  0  0  0  0  0  0  0  0  0
  151.1888  137.4363  158.4195 H   0  0  0  0  0  0  0  0  0  0  0  0
  152.0423  139.4408  157.7987 H   0  0  0  0  0  0  0  0  0  0  0  0
  150.6654  139.5392  156.7228 H   0  0  0  0  0  0  0  0  0  0  0  0
  150.0623  141.4100  157.9402 H   0  0  0  0  0  0  0  0  0  0  0  0
  149.5359  140.2826  159.1700 H   0  0  0  0  0  0  0  0  0  0  0  0
  152.8644  141.4476  157.9873 H   0  0  0  0  0  0  0  0  0  0  0  0
  152.3141  143.8210  157.6654 H   0  0  0  0  0  0  0  0  0  0  0  0
  150.8437  142.9050  157.5149 H   0  0  0  0  0  0  0  0  0  0  0  0
  150.4975  144.9322  158.9122 H   0  0  0  0  0  0  0  0  0  0  0  0
  150.1889  143.4831  159.8338 H   0  0  0  0  0  0  0  0  0  0  0  0
  152.7391  145.1663  159.9139 H   0  0  0  0  0  0  0  0  0  0  0  0
  151.5469  145.0367  161.1845 H   0  0  0  0  0  0  0  0  0  0  0  0
  153.5468  143.6116  161.6429 H   0  0  0  0  0  0  0  0  0  0  0  0
  152.0885  142.6578  161.5344 H   0  0  0  0  0  0  0  0  0  0  0  0
  154.1364  143.0500  159.3128 H   0  0  0  0  0  0  0  0  0  0  0  0
  153.5505  140.5493  160.9599 H   0  0  0  0  0  0  0  0  0  0  0  0
  154.9879  141.5592  161.0756 H   0  0  0  0  0  0  0  0  0  0  0  0
  154.6705  140.6488  159.6034 H   0  0  0  0  0  0  0  0  0  0  0  0
  1  2  1  0  0  0  0
  1 21  1  0  0  0  0
  1 22  1  0  0  0  0
  1 23  1  0  0  0  0
  2 20  1  0  0  0  0
  2  3  2  0  0  0  0
  3  4  1  0  0  0  0
  3 24  1  0  0  0  0
  4  5  1  0  0  0  0
  4 19  2  0  0  0  0
  5  6  1  0  0  0  0
  6  7  2  0  0  0  0
  6  8  1  0  0  0  0
  8  9  1  0  0  0  0
  8 25  1  0  0  0  0
  9 10  1  0  0  0  0
  9 26  1  0  0  0  0
  9 27  1  0  0  0  0
 10 11  1  0  0  0  0
 10 28  1  0  0  0  0
 10 29  1  0  0  0  0
 11 12  1  0  0  0  0
 12 17  1  0  0  0  0
 12 13  1  0  0  0  0
 12 30  1  0  0  0  0
 13 14  1  0  0  0  0
 13 31  1  0  0  0  0
 13 32  1  0  0  0  0
 14 15  1  0  0  0  0
 14 33  1  0  0  0  0
 14 34  1  0  0  0  0
 15 16  1  0  0  0  0
 15 35  1  0  0  0  0
 15 36  1  0  0  0  0
 16 17  1  0  0  0  0
 16 37  1  0  0  0  0
 16 38  1  0  0  0  0
 17 18  1  0  0  0  0
 17 39  1  0  0  0  0
 18 40  1  0  0  0  0
 18 41  1  0  0  0  0
 18 42  1  0  0  0  0
 19 20  1  0  0  0  0
M  CHG  1   5  -1
M  END
> <s_m_source_file>
AV-unprocessed.smi

> <i_m_source_file_index>
2104

> <i_lp_mmshare_version>
43012

> <i_f3d_flags>
0

> <s_epik_input>
W0NIM11jMVtjSF1jKG5vMSlbTkhdQyg9TylbTkhdW0NIMl1bQ0gyXU9bQ0BASF0yW0NIMl1bQ0gyXVtDSDJdW0NIMl1bQ0BIXTJbQ0gzXQ==

> <s_epik_cmdline>
J2VwaWtfcHl0aG9uJywgJy1waCcsICc3LjAnLCAnLXRuJywgJzgnLCAnLW1hJywgJzIwMCcsICctbWV0YWxfYmluZGluZycsICctaW1hZScsICc8aW5maWxlLm1hZT4nLCAnLW9tYWUnLCAnPG91dGZpbGUubWFlPic=

> <r_lp_tautomer_probability>
1

> <r_epik_Ionization_Penalty>
6.47137

> <r_epik_Ionization_Penalty_Charging>
6.47125

> <r_epik_Ionization_Penalty_Neutral>
0.000118933

> <r_epik_State_Penalty>
6.47124

> <r_epik_Charging_Adjusted_Penalty>
12.9425

> <i_epik_Tot_Q>
-1

> <i_epik_Tot_abs_Q>
1

> <r_epik_Metal_State_Penalty>
2.3995

> <b_epik_Metal_Only>
1

> <s_lp_Force_Field>
OPLS_2005

> <r_lp_Energy>
3.93088

> <b_lp_Chiralities_Consistent>
1

> <s_lp_Variant>
AV-unprocessed.smi:2104-6

> <Gold.Version>
5.8.1

> <Gold.Id.Protein>
6NUR|6NUR_protein|mol2

> <Gold.PLP.Fitness>
50.4493

> <Gold.PLP.PLP>
-40.5595

> <Gold.PLP.part.hbond>
-3.5787

> <Gold.PLP.part.metal>
0.0000

> <Gold.PLP.part.buried>
-6.0386

> <Gold.PLP.part.nonpolar>
-30.7845

> <Gold.PLP.part.repulsive>
0.1252

> <Gold.PLP.ligand.clash>
0.0000

> <Gold.PLP.ligand.torsion>
0.7631

> <Gold.PLP.Chemscore.Hbond>
3.7440

> <Gold.PLP.Chemscore.CHOScore>
0.0000

> <Gold.PLP.Chemscore.Metal>
0.0000

> <Gold.Chemscore.Hbonds>
donor molecule, donor type, donor heavy atom, donor atom, acceptor molecule, acceptor atom, score
      P1  H  6931  6943       L1    19  0.70
      P1  H  6934  6947       L1    19  0.98

> <Gold.PLP.Chemscore.Internal.Correction>
0.1841

> <Gold.Rescore>
     Score         DG    S(hbond)    S(metal)    S(lipo)     H(rot)  DE(clash)    DE(int)     intcor
     16.42     -19.91       1.91        0.00     106.19       1.71       0.12       3.37       ----

> <Gold.Chemscore.Fitness>
16.4205

> <Gold.Chemscore.DG>
-19.9140

> <Gold.Chemscore.ZeroCoef>
-5.4800

> <Gold.Chemscore.Hbond>
1.9127

> <Gold.Chemscore.Metal>
0.0000

> <Gold.Chemscore.Lipo>
106.1867

> <Gold.Chemscore.Internal_Hbond>
0.0000

> <Gold.Chemscore.DEClash>
0.1214

> <Gold.Chemscore.DEInternal>
3.3720

> <Gold.Chemscore.Rot>
1.7103

> <Gold.Chemscore.Internal.Correction>
   9.000000E+99

> <Gold.Chemscore.Hbonds>
donor molecule, donor type, donor heavy atom, donor atom, acceptor molecule, acceptor atom, score
      P1  H  6931  6943       L1    19  0.31
      P1  H  6934  6947       L1    19  0.42

> <Gold.Chemscore.Hbond.Weighted>
-6.3885

> <Gold.Chemscore.Metal.Weighted>
-0.0000

> <Gold.Chemscore.Lipo.Weighted>
-12.4238

> <Gold.Chemscore.Internal_Hbond.Weighted>
0.0000

> <Gold.Chemscore.DEClash.Weighted>
0.1214

> <Gold.Chemscore.DEInternal.Weighted>
3.3720

> <Gold.Chemscore.Rot.Weighted>
4.3784

> <Gold.Chemscore.Internal.Correction.Weighted>
   9.000000E+99

> <Gold.Protein.RotatedTorsions>
[ 6907 6896 6895 6894 ] final   69.22 input  -60.11 | X-H torsion
[ 7974 7965 7964 7962 ] final -178.00 input  175.53 | X-H torsion
[ 8008 7997 7996 7995 ] final  154.50 input   59.86 | X-H torsion
[ 10167 10162 10161 10158 ] final  168.07 input  -65.29 | X-H torsion
[ 10718 10713 10712 10709 ] final -122.31 input   66.30 | X-H torsion
[ 10763 10752 10751 10750 ] final    1.56 input  -60.55 | X-H torsion
[ 11005 11000 10999 10996 ] final   64.01 input  -57.11 | X-H torsion

> <Gold.Protein.ActiveResidues>
 VAL166  LYS551  ARG553  GLY616  TRP617  ASP618  TYR619  PRO620  LYS621  CYS622 
 ASP623  PHE694  ASN695  SER759  ASP760  ASP761  ALA762  ILE779  LEU786  VAL792 
 PHE793  MET794  SER795  GLU796  ALA797  LYS798  CYS799  TRP800  GLU811  SER814 

> <Gold.Protein.RotatedAtoms>
  152.4672  134.5048  159.9735 H   0  0  0  0  0  0  0  0  0  0  0  0  # atno 6907 bound_to 6896
  151.5083  133.3484  159.2888 H   0  0  0  0  0  0  0  0  0  0  0  0  # atno 6908 bound_to 6896
  150.8662  134.8054  159.7182 H   0  0  0  0  0  0  0  0  0  0  0  0  # atno 6909 bound_to 6896
  144.7129  140.0934  143.6420 H   0  0  0  0  0  0  0  0  0  0  0  0  # atno 7974 bound_to 7965
  156.2528  140.1965  156.6656 H   0  0  0  0  0  0  0  0  0  0  0  0  # atno 8008 bound_to 7997
  154.6431  140.0581  156.9894 H   0  0  0  0  0  0  0  0  0  0  0  0  # atno 8009 bound_to 7997
  155.1532  140.3253  155.4429 H   0  0  0  0  0  0  0  0  0  0  0  0  # atno 8010 bound_to 7997
  139.4959  144.3854  151.9576 H   0  0  0  0  0  0  0  0  0  0  0  0  # atno 10167 bound_to 10162
  156.1408  130.6464  150.9768 H   0  0  0  0  0  0  0  0  0  0  0  0  # atno 10718 bound_to 10713
  153.3065  135.6959  153.7155 H   0  0  0  0  0  0  0  0  0  0  0  0  # atno 10763 bound_to 10752
  153.6049  135.3455  155.2959 H   0  0  0  0  0  0  0  0  0  0  0  0  # atno 10764 bound_to 10752
  154.8564  135.4349  154.2191 H   0  0  0  0  0  0  0  0  0  0  0  0  # atno 10765 bound_to 10752
  139.9987  134.6476  155.9967 H   0  0  0  0  0  0  0  0  0  0  0  0  # atno 11005 bound_to 11000
  145.9600  139.2794  143.1161 LP  0  0  0  0  0  0  0  0  0  0  0  0  # atno 17320 bound_to 7965
  145.9230  140.9102  143.0395 LP  0  0  0  0  0  0  0  0  0  0  0  0  # atno 17321 bound_to 7965
  140.3291  144.3337  150.5991 LP  0  0  0  0  0  0  0  0  0  0  0  0  # atno 17342 bound_to 10162
  140.5660  143.2186  151.7683 LP  0  0  0  0  0  0  0  0  0  0  0  0  # atno 17343 bound_to 10162
  157.6574  131.0887  150.7916 LP  0  0  0  0  0  0  0  0  0  0  0  0  # atno 17370 bound_to 10713
  156.7992  130.4915  149.5372 LP  0  0  0  0  0  0  0  0  0  0  0  0  # atno 17371 bound_to 10713
  141.1625  133.6538  156.4366 LP  0  0  0  0  0  0  0  0  0  0  0  0  # atno 17394 bound_to 11000
  140.4769  134.6701  157.5154 LP  0  0  0  0  0  0  0  0  0  0  0  0  # atno 17395 bound_to 11000

$$$$
