AV-unprocessed.smi:2087|AV-procd|sdf|8522|dock1
  -GOLD-   2272011233D 1   1.00000     0.00000
 Structure written by MMmdl.
 51 52  0  0  0  0  0  0  0  0  2 V2000
  145.8858  128.9561  151.3234 C   0  0  0  0  0  0  0  0  0  0  0  0
  146.9381  129.8611  151.9862 C   0  0  0  0  0  0  0  0  0  0  0  0
  147.3065  129.3228  153.3772 C   0  0  0  0  0  0  0  0  0  0  0  0
  146.4611  131.3267  152.0832 C   0  0  0  0  0  0  0  0  0  0  0  0
  146.5888  132.0726  150.8009 N   0  3  1  0  0  0  0  0  0  0  0  0
  145.5535  131.7121  149.8016 C   0  0  0  0  0  0  0  0  0  0  0  0
  144.2111  132.3951  150.1197 C   0  0  0  0  0  0  0  0  0  0  0  0
  144.4040  133.8025  150.1787 O   0  0  0  0  0  0  0  0  0  0  0  0
  145.3033  134.1857  151.2150 C   0  0  2  0  0  0  0  0  0  0  0  0
  145.3743  135.7232  151.2499 C   0  0  0  0  0  0  0  0  0  0  0  0
  146.2687  136.1932  152.3017 N   0  0  0  0  0  0  0  0  0  0  0  0
  145.8724  136.7840  153.4385 C   0  0  0  0  0  0  0  0  0  0  0  0
  144.6882  136.9374  153.7409 O   0  0  0  0  0  0  0  0  0  0  0  0
  146.9857  137.2711  154.3742 C   0  0  0  0  0  0  0  0  0  0  0  0
  146.7601  138.6410  154.8528 N   0  0  0  0  0  0  0  0  0  0  0  0
  147.3497  139.7047  154.1941 C   0  0  0  0  0  0  0  0  0  0  0  0
  147.1964  140.9922  154.5729 C   0  0  0  0  0  0  0  0  0  0  0  0
  146.3812  141.3414  155.7303 C   0  0  0  0  0  0  0  0  0  0  0  0
  146.2037  142.5029  156.0986 O   0  0  0  0  0  0  0  0  0  0  0  0
  145.8002  140.2334  156.3933 N   0  0  0  0  0  0  0  0  0  0  0  0
  144.9631  140.4710  157.5512 C   0  0  0  0  0  0  0  0  0  0  0  0
  145.9527  138.8904  155.9839 C   0  0  0  0  0  0  0  0  0  0  0  0
  145.4055  137.9609  156.5835 O   0  0  0  0  0  0  0  0  0  0  0  0
  146.6829  133.5494  150.9383 C   0  0  0  0  0  0  0  0  0  0  0  0
  144.9510  128.9576  151.8850 H   0  0  0  0  0  0  0  0  0  0  0  0
  146.2365  127.9252  151.2672 H   0  0  0  0  0  0  0  0  0  0  0  0
  145.6643  129.2780  150.3056 H   0  0  0  0  0  0  0  0  0  0  0  0
  147.8455  129.8161  151.3846 H   0  0  0  0  0  0  0  0  0  0  0  0
  146.4447  129.3259  154.0457 H   0  0  0  0  0  0  0  0  0  0  0  0
  148.0883  129.9268  153.8392 H   0  0  0  0  0  0  0  0  0  0  0  0
  147.6774  128.2991  153.3176 H   0  0  0  0  0  0  0  0  0  0  0  0
  145.4142  131.3194  152.3902 H   0  0  0  0  0  0  0  0  0  0  0  0
  146.9988  131.8483  152.8749 H   0  0  0  0  0  0  0  0  0  0  0  0
  145.8975  132.0383  148.8192 H   0  0  0  0  0  0  0  0  0  0  0  0
  145.4347  130.6298  149.7390 H   0  0  0  0  0  0  0  0  0  0  0  0
  143.4843  132.1733  149.3384 H   0  0  0  0  0  0  0  0  0  0  0  0
  143.7895  132.0298  151.0572 H   0  0  0  0  0  0  0  0  0  0  0  0
  144.9209  133.8294  152.1723 H   0  0  0  0  0  0  0  0  0  0  0  0
  145.7085  136.1112  150.2863 H   0  0  0  0  0  0  0  0  0  0  0  0
  144.3833  136.1425  151.4265 H   0  0  0  0  0  0  0  0  0  0  0  0
  147.2603  136.0981  152.1357 H   0  0  0  0  0  0  0  0  0  0  0  0
  147.0472  136.5819  155.2173 H   0  0  0  0  0  0  0  0  0  0  0  0
  147.9530  137.2118  153.8716 H   0  0  0  0  0  0  0  0  0  0  0  0
  147.9660  139.4997  153.3308 H   0  0  0  0  0  0  0  0  0  0  0  0
  147.6836  141.7757  154.0110 H   0  0  0  0  0  0  0  0  0  0  0  0
  145.2540  139.7637  158.3300 H   0  0  0  0  0  0  0  0  0  0  0  0
  143.9312  140.3142  157.2340 H   0  0  0  0  0  0  0  0  0  0  0  0
  145.1026  141.4822  157.9329 H   0  0  0  0  0  0  0  0  0  0  0  0
  147.3963  133.8283  151.7124 H   0  0  0  0  0  0  0  0  0  0  0  0
  147.0820  133.9474  150.0046 H   0  0  0  0  0  0  0  0  0  0  0  0
  147.4668  131.7637  150.4086 H   0  0  0  0  0  0  0  0  0  0  0  0
  1  2  1  0  0  0  0
  1 25  1  0  0  0  0
  1 26  1  0  0  0  0
  1 27  1  0  0  0  0
  2  3  1  0  0  0  0
  2  4  1  0  0  0  0
  2 28  1  0  0  0  0
  3 29  1  0  0  0  0
  3 30  1  0  0  0  0
  3 31  1  0  0  0  0
  4  5  1  0  0  0  0
  4 32  1  0  0  0  0
  4 33  1  0  0  0  0
  5 24  1  0  0  0  0
  5  6  1  0  0  0  0
  5 51  1  0  0  0  0
  6  7  1  0  0  0  0
  6 34  1  0  0  0  0
  6 35  1  0  0  0  0
  7  8  1  0  0  0  0
  7 36  1  0  0  0  0
  7 37  1  0  0  0  0
  8  9  1  0  0  0  0
  9 10  1  0  0  0  0
  9 24  1  0  0  0  0
  9 38  1  0  0  0  0
 10 11  1  0  0  0  0
 10 39  1  0  0  0  0
 10 40  1  0  0  0  0
 11 12  1  0  0  0  0
 11 41  1  0  0  0  0
 12 13  2  0  0  0  0
 12 14  1  0  0  0  0
 14 15  1  0  0  0  0
 14 42  1  0  0  0  0
 14 43  1  0  0  0  0
 15 22  1  0  0  0  0
 15 16  1  0  0  0  0
 16 17  2  0  0  0  0
 16 44  1  0  0  0  0
 17 18  1  0  0  0  0
 17 45  1  0  0  0  0
 18 19  2  0  0  0  0
 18 20  1  0  0  0  0
 20 21  1  0  0  0  0
 20 22  1  0  0  0  0
 21 46  1  0  0  0  0
 21 47  1  0  0  0  0
 21 48  1  0  0  0  0
 22 23  2  0  0  0  0
 24 49  1  0  0  0  0
 24 50  1  0  0  0  0
M  CHG  1   5   1
M  END
> <s_m_source_file>
AV-unprocessed.smi

> <i_m_source_file_index>
2087

> <i_lp_mmshare_version>
43012

> <i_f3d_flags>
0

> <s_epik_input>
W0NIM11bQ0hdKFtDSDNdKVtDSDJdTjFbQ0gyXVtDSDJdT1tDQEhdKFtDSDJdMSlbQ0gyXVtOSF1DKD1PKVtDSDJdbjJbY0hdW2NIXWMoPU8pbihbQ0gzXSljMj1P

> <s_epik_cmdline>
J2VwaWtfcHl0aG9uJywgJy1waCcsICc3LjAnLCAnLXRuJywgJzgnLCAnLW1hJywgJzIwMCcsICctbWV0YWxfYmluZGluZycsICctaW1hZScsICc8aW5maWxlLm1hZT4nLCAnLW9tYWUnLCAnPG91dGZpbGUubWFlPic=

> <r_lp_tautomer_probability>
1

> <r_epik_Ionization_Penalty>
0.097593

> <r_epik_Ionization_Penalty_Charging>
0.097593

> <r_epik_Ionization_Penalty_Neutral>
6.27044e-08

> <r_epik_State_Penalty>
0.0877056

> <r_epik_Charging_Adjusted_Penalty>
0.185299

> <i_epik_Tot_Q>
1

> <i_epik_Tot_abs_Q>
1

> <r_epik_Metal_State_Penalty>
0.0877109

> <b_epik_Metal_Only>
0

> <s_lp_Force_Field>
OPLS_2005

> <r_lp_Energy>
27.8921

> <b_lp_Chiralities_Consistent>
1

> <s_lp_Variant>
AV-unprocessed.smi:2087-3

> <Gold.Version>
5.8.1

> <Gold.Id.Protein>
6NUR|6NUR_protein|mol2

> <Gold.PLP.Fitness>
45.2157

> <Gold.PLP.PLP>
-37.8522

> <Gold.PLP.part.hbond>
-2.0000

> <Gold.PLP.part.metal>
0.0000

> <Gold.PLP.part.buried>
-8.8957

> <Gold.PLP.part.nonpolar>
-29.1708

> <Gold.PLP.part.repulsive>
1.3471

> <Gold.PLP.ligand.clash>
0.0000

> <Gold.PLP.ligand.torsion>
0.9360

> <Gold.PLP.Chemscore.Hbond>
2.0000

> <Gold.PLP.Chemscore.CHOScore>
1.0000

> <Gold.PLP.Chemscore.Metal>
0.0000

> <Gold.Chemscore.Hbonds>
donor molecule, donor type, donor heavy atom, donor atom, acceptor molecule, acceptor atom, score
      L1  H     5    51       P1 10747  1.00
      L1  H    11    41       P1  7948  1.00
      L1  C    16    44       P1  7957  0.41

> <Gold.PLP.Chemscore.Internal.Correction>
0.2353

> <Gold.Rescore>
     Score         DG    S(hbond)    S(metal)    S(lipo)     H(rot)  DE(clash)    DE(int)     intcor
     15.63     -16.58       1.99        0.00      86.68       2.22       0.07       0.88       ----

> <Gold.Chemscore.Fitness>
15.6305

> <Gold.Chemscore.DG>
-16.5763

> <Gold.Chemscore.ZeroCoef>
-5.4800

> <Gold.Chemscore.Hbond>
1.9912

> <Gold.Chemscore.Metal>
0.0000

> <Gold.Chemscore.Lipo>
86.6778

> <Gold.Chemscore.Internal_Hbond>
0.0000

> <Gold.Chemscore.DEClash>
0.0703

> <Gold.Chemscore.DEInternal>
0.8755

> <Gold.Chemscore.Rot>
2.2249

> <Gold.Chemscore.Internal.Correction>
   9.000000E+99

> <Gold.Chemscore.Hbonds>
donor molecule, donor type, donor heavy atom, donor atom, acceptor molecule, acceptor atom, score
      L1  H     5    51       P1 10747  0.99
      L1  H    11    41       P1  7948  1.00

> <Gold.Chemscore.Hbond.Weighted>
-6.6507

> <Gold.Chemscore.Metal.Weighted>
-0.0000

> <Gold.Chemscore.Lipo.Weighted>
-10.1413

> <Gold.Chemscore.Internal_Hbond.Weighted>
0.0000

> <Gold.Chemscore.DEClash.Weighted>
0.0703

> <Gold.Chemscore.DEInternal.Weighted>
0.8755

> <Gold.Chemscore.Rot.Weighted>
5.6957

> <Gold.Chemscore.Internal.Correction.Weighted>
   9.000000E+99

> <Gold.Protein.RotatedTorsions>
[ 6907 6896 6895 6894 ] final  -78.40 input  -60.11 | X-H torsion
[ 7974 7965 7964 7962 ] final  -90.27 input  175.53 | X-H torsion
[ 8008 7997 7996 7995 ] final  168.55 input   59.86 | X-H torsion
[ 10167 10162 10161 10158 ] final    3.31 input  -65.29 | X-H torsion
[ 10718 10713 10712 10709 ] final   54.03 input   66.30 | X-H torsion
[ 10763 10752 10751 10750 ] final  -40.48 input  -60.55 | X-H torsion
[ 11005 11000 10999 10996 ] final  169.09 input  -57.11 | X-H torsion

> <Gold.Protein.ActiveResidues>
 VAL166  LYS551  ARG553  GLY616  TRP617  ASP618  TYR619  PRO620  LYS621  CYS622 
 ASP623  PHE694  ASN695  SER759  ASP760  ASP761  ALA762  ILE779  LEU786  VAL792 
 PHE793  MET794  SER795  GLU796  ALA797  LYS798  CYS799  TRP800  GLU811  SER814 

> <Gold.Protein.RotatedAtoms>
  150.6974  134.4278  159.5234 H   0  0  0  0  0  0  0  0  0  0  0  0  # atno 6907 bound_to 6896
  152.2010  134.8585  160.0517 H   0  0  0  0  0  0  0  0  0  0  0  0  # atno 6908 bound_to 6896
  151.9505  133.3629  159.4035 H   0  0  0  0  0  0  0  0  0  0  0  0  # atno 6909 bound_to 6896
  145.4286  140.9555  143.2140 H   0  0  0  0  0  0  0  0  0  0  0  0  # atno 7974 bound_to 7965
  156.1537  140.1587  156.8728 H   0  0  0  0  0  0  0  0  0  0  0  0  # atno 8008 bound_to 7997
  154.5095  140.0804  156.7997 H   0  0  0  0  0  0  0  0  0  0  0  0  # atno 8009 bound_to 7997
  155.3845  140.3407  155.4250 H   0  0  0  0  0  0  0  0  0  0  0  0  # atno 8010 bound_to 7997
  140.6592  143.7348  150.7708 H   0  0  0  0  0  0  0  0  0  0  0  0  # atno 10167 bound_to 10162
  157.5220  130.8571  149.8571 H   0  0  0  0  0  0  0  0  0  0  0  0  # atno 10718 bound_to 10713
  153.9466  135.6755  153.4744 H   0  0  0  0  0  0  0  0  0  0  0  0  # atno 10763 bound_to 10752
  153.0905  135.4877  154.8677 H   0  0  0  0  0  0  0  0  0  0  0  0  # atno 10764 bound_to 10752
  154.7348  135.3146  154.8789 H   0  0  0  0  0  0  0  0  0  0  0  0  # atno 10765 bound_to 10752
  140.2941  134.7649  157.3863 H   0  0  0  0  0  0  0  0  0  0  0  0  # atno 11005 bound_to 11000
  144.8197  139.5813  143.6992 LP  0  0  0  0  0  0  0  0  0  0  0  0  # atno 17320 bound_to 7965
  146.2619  139.6429  142.9356 LP  0  0  0  0  0  0  0  0  0  0  0  0  # atno 17321 bound_to 7965
  140.1013  143.4785  152.2423 LP  0  0  0  0  0  0  0  0  0  0  0  0  # atno 17342 bound_to 10162
  139.5822  144.7515  151.3611 LP  0  0  0  0  0  0  0  0  0  0  0  0  # atno 17343 bound_to 10162
  156.0360  130.3751  150.1559 LP  0  0  0  0  0  0  0  0  0  0  0  0  # atno 17370 bound_to 10713
  156.9747  130.9845  151.3451 LP  0  0  0  0  0  0  0  0  0  0  0  0  # atno 17371 bound_to 10713
  140.1168  134.5272  155.8218 LP  0  0  0  0  0  0  0  0  0  0  0  0  # atno 17394 bound_to 11000
  141.2140  133.6743  156.6792 LP  0  0  0  0  0  0  0  0  0  0  0  0  # atno 17395 bound_to 11000

$$$$
