#       Name:                AV-unprocessed.smi:2572
#       Creating user name   scv26
#       Creation time:       Fri Mar 27 14:12:50 2020


#       File generated by GOLD software.
#

@<TRIPOS>MOLECULE
AV-unprocessed.smi:2572
    45    46     1
SMALL
NO_CHARGES


@<TRIPOS>ATOM
      1 ****        -1.9549   2.9024   3.4454 C.3            1 S1                 0.0000
      2 ****        -2.4547   3.8457   2.4996 O.3            1 S1                 0.0000
      3 ****        -2.5000   3.4412   1.1768 C.2            1 S1                 0.0000
      4 ****        -2.9976   4.3746   0.1885 C.2            1 S1                 0.0000
      5 ****        -3.0446   3.9943  -1.1065 C.2            1 S1                 0.0000
      6 ****        -2.6048   2.6675  -1.5367 C.2            1 S1                 0.0000
      7 ****        -2.6300   2.2984  -2.7106 O.2            1 S1                 0.0000
      8 ****        -2.1618   1.8758  -0.5151 N.am           1 S1                 0.0000
      9 ****        -1.6709   0.5151  -0.7639 C.3            1 S1                 0.0000
     10 ****        -0.1333   0.4716  -0.9006 C.3            1 S1                 0.0000
     11 ****         0.2183   0.8470  -2.2184 O.3            1 S1                 0.0000
     12 ****         0.4213  -0.9428  -0.6477 C.3            1 S1                 0.0000
     13 ****         1.9578  -1.0017  -0.6127 C.3            1 S1                 0.0000
     14 ****         2.4674  -2.3982  -0.3114 C.ar           1 S1                 0.0000
     15 ****         2.6757  -2.8042   1.0237 C.ar           1 S1                 0.0000
     16 ****         3.1408  -4.1042   1.3033 C.ar           1 S1                 0.0000
     17 ****         3.3981  -5.0024   0.2494 C.ar           1 S1                 0.0000
     18 ****         3.1917  -4.6001  -1.0844 C.ar           1 S1                 0.0000
     19 ****         2.7274  -3.3001  -1.3647 C.ar           1 S1                 0.0000
     20 ****        -2.1109   2.2592   0.8150 N.2            1 S1                 0.0000
     21 ****        -1.9732   3.3513   4.4384 H              1 S1                 0.0000
     22 ****        -0.9212   2.6232   3.2337 H              1 S1                 0.0000
     23 ****        -2.5692   2.0010   3.4843 H              1 S1                 0.0000
     24 ****        -3.3239   5.3577   0.4940 H              1 S1                 0.0000
     25 ****        -3.4163   4.6877  -1.8465 H              1 S1                 0.0000
     26 ****        -1.9736  -0.1010   0.0848 H              1 S1                 0.0000
     27 ****        -2.1542   0.0519  -1.6263 H              1 S1                 0.0000
     28 ****         0.3273   1.1656  -0.1962 H              1 S1                 0.0000
     29 ****        -0.2140   0.2646  -2.8242 H              1 S1                 0.0000
     30 ****         0.0447  -1.3030   0.3107 H              1 S1                 0.0000
     31 ****         0.0394  -1.6329  -1.4016 H              1 S1                 0.0000
     32 ****         2.3735  -0.6723  -1.5656 H              1 S1                 0.0000
     33 ****         2.3407  -0.3136   0.1419 H              1 S1                 0.0000
     34 ****         2.4766  -2.1211   1.8364 H              1 S1                 0.0000
     35 ****         3.2981  -4.4126   2.3264 H              1 S1                 0.0000
     36 ****         3.7529  -5.9999   0.4639 H              1 S1                 0.0000
     37 ****         3.3884  -5.2887  -1.8929 H              1 S1                 0.0000
     38 ****         2.5689  -2.9981  -2.3899 H              1 S1                 0.0000
     39 ****        -1.8739   4.6584   2.5474 LP             1 S1                 0.0000
     40 ****        -3.3859   4.0850   2.7745 LP             1 S1                 0.0000
     41 ****        -2.9628   2.9172  -3.4222 LP             1 S1                 0.0000
     42 ****        -2.3177   1.3798  -2.9527 LP             1 S1                 0.0000
     43 ****         1.2092   0.7789  -2.3348 LP             1 S1                 0.0000
     44 ****        -0.0735   1.7880  -2.3896 LP             1 S1                 0.0000
     45 ****        -1.7707   1.6178   1.5026 LP             1 S1                 0.0000
@<TRIPOS>BOND
    1    1    2 1     
    2    1   21 1     
    3    1   22 1     
    4    1   23 1     
    5    2    3 1     
    6    3   20 2     
    7    3    4 1     
    8    4    5 2     
    9    4   24 1     
   10    5    6 1     
   11    5   25 1     
   12    6    7 2     
   13    6    8 am    
   14    8    9 1     
   15    8   20 1     
   16    9   10 1     
   17    9   26 1     
   18    9   27 1     
   19   10   11 1     
   20   10   12 1     
   21   10   28 1     
   22   11   29 1     
   23   12   13 1     
   24   12   30 1     
   25   12   31 1     
   26   13   14 1     
   27   13   32 1     
   28   13   33 1     
   29   14   19 ar    
   30   14   15 ar    
   31   15   16 ar    
   32   15   34 1     
   33   16   17 ar    
   34   16   35 1     
   35   17   18 ar    
   36   17   36 1     
   37   18   19 ar    
   38   18   37 1     
   39   19   38 1     
   40    2   39 1     
   41    2   40 1     
   42    7   41 1     
   43    7   42 1     
   44   11   43 1     
   45   11   44 1     
   46   20   45 1     
@<TRIPOS>SUBSTRUCTURE
      1 S1             1
@<TRIPOS>SET
LONE_PAIRS      STATIC     ATOMS    <user>   **** ""
7 39 40 41 42 43 44 45
DONOR_HYDROGENS      STATIC     ATOMS    <user>   **** ""
1 29
ATOM$BLUE        STATIC     ATOMS    COLORGROUP SYSTEM
7 39 40 41 42 43 44 45
ATOM$RED        STATIC     ATOMS    COLORGROUP SYSTEM
1 29
