AV-unprocessed.smi:460|AV-procd|sdf|2626|dock10
  -GOLD-   2262023 33D 1   1.00000     0.00000
 Structure written by MMmdl.
 46 48  0  0  0  0  0  0  0  0  1 V2000
  150.0433  137.2806  158.4413 C   0  0  0  0  0  0  0  0  0  0  0  0
  151.4964  137.2026  157.9539 C   0  0  0  0  0  0  0  0  0  0  0  0
  152.5068  137.8254  158.9362 C   0  0  2  0  0  0  0  0  0  0  0  0
  152.3490  137.2213  160.2050 O   0  0  0  0  0  0  0  0  0  0  0  0
  152.3613  139.3225  159.0080 C   0  0  0  0  0  0  0  0  0  0  0  0
  151.4393  139.9688  158.2904 N   0  0  0  0  0  0  0  0  0  0  0  0
  151.6564  141.2894  158.6265 C   0  0  0  0  0  0  0  0  0  0  0  0
  151.0010  142.4649  158.1951 C   0  0  0  0  0  0  0  0  0  0  0  0
  151.4041  143.7259  158.6806 C   0  0  0  0  0  0  0  0  0  0  0  0
  152.4669  143.8291  159.6011 C   0  0  0  0  0  0  0  0  0  0  0  0
  153.1331  142.6699  160.0435 C   0  0  0  0  0  0  0  0  0  0  0  0
  152.7255  141.4124  159.5576 C   0  0  0  0  0  0  0  0  0  0  0  0
  153.1549  140.1074  159.7847 N   0  0  0  0  0  0  0  0  0  0  0  0
  154.2338  139.7113  160.6789 C   0  0  0  0  0  0  0  0  0  0  0  0
  154.3464  140.6424  161.8923 C   0  0  0  0  0  0  0  0  0  0  0  0
  155.1917  140.0296  162.8548 O   0  0  0  0  0  0  0  0  0  0  0  0
  155.3329  140.6348  164.0869 C   0  0  0  0  0  0  0  0  0  0  0  0
  154.9319  141.9680  164.3578 C   0  0  0  0  0  0  0  0  0  0  0  0
  155.1063  142.5203  165.6396 C   0  0  0  0  0  0  0  0  0  0  0  0
  155.6819  141.7496  166.6635 C   0  0  0  0  0  0  0  0  0  0  0  0
  156.0837  140.4265  166.4063 C   0  0  0  0  0  0  0  0  0  0  0  0
  155.9124  139.8588  165.1180 C   0  0  0  0  0  0  0  0  0  0  0  0
  156.2820  138.5683  164.7972 O   0  0  0  0  0  0  0  0  0  0  0  0
  156.8424  137.7546  165.8174 C   0  0  0  0  0  0  0  0  0  0  0  0
  149.3717  136.7962  157.7322 H   0  0  0  0  0  0  0  0  0  0  0  0
  149.7152  138.3142  158.5536 H   0  0  0  0  0  0  0  0  0  0  0  0
  149.9239  136.7828  159.4042 H   0  0  0  0  0  0  0  0  0  0  0  0
  151.7427  136.1504  157.8067 H   0  0  0  0  0  0  0  0  0  0  0  0
  151.5873  137.6714  156.9730 H   0  0  0  0  0  0  0  0  0  0  0  0
  153.5113  137.5719  158.6036 H   0  0  0  0  0  0  0  0  0  0  0  0
  152.0780  137.8848  160.8205 H   0  0  0  0  0  0  0  0  0  0  0  0
  150.1863  142.3955  157.4895 H   0  0  0  0  0  0  0  0  0  0  0  0
  150.8957  144.6180  158.3451 H   0  0  0  0  0  0  0  0  0  0  0  0
  152.7698  144.7989  159.9682 H   0  0  0  0  0  0  0  0  0  0  0  0
  153.9473  142.7493  160.7484 H   0  0  0  0  0  0  0  0  0  0  0  0
  154.0514  138.6908  161.0166 H   0  0  0  0  0  0  0  0  0  0  0  0
  155.1705  139.6748  160.1230 H   0  0  0  0  0  0  0  0  0  0  0  0
  154.7636  141.6025  161.5888 H   0  0  0  0  0  0  0  0  0  0  0  0
  153.3561  140.8168  162.3167 H   0  0  0  0  0  0  0  0  0  0  0  0
  154.4858  142.5913  163.5980 H   0  0  0  0  0  0  0  0  0  0  0  0
  154.7975  143.5363  165.8370 H   0  0  0  0  0  0  0  0  0  0  0  0
  155.8156  142.1732  167.6482 H   0  0  0  0  0  0  0  0  0  0  0  0
  156.5218  139.8661  167.2180 H   0  0  0  0  0  0  0  0  0  0  0  0
  157.0724  136.7714  165.4073 H   0  0  0  0  0  0  0  0  0  0  0  0
  156.1444  137.6113  166.6431 H   0  0  0  0  0  0  0  0  0  0  0  0
  157.7726  138.1781  166.1985 H   0  0  0  0  0  0  0  0  0  0  0  0
  1  2  1  0  0  0  0
  1 25  1  0  0  0  0
  1 26  1  0  0  0  0
  1 27  1  0  0  0  0
  2  3  1  0  0  0  0
  2 28  1  0  0  0  0
  2 29  1  0  0  0  0
  3  4  1  0  0  0  0
  3  5  1  0  0  0  0
  3 30  1  0  0  0  0
  4 31  1  0  0  0  0
  5 13  1  0  0  0  0
  5  6  2  0  0  0  0
  6  7  1  0  0  0  0
  7 12  2  0  0  0  0
  7  8  1  0  0  0  0
  8  9  2  0  0  0  0
  8 32  1  0  0  0  0
  9 10  1  0  0  0  0
  9 33  1  0  0  0  0
 10 11  2  0  0  0  0
 10 34  1  0  0  0  0
 11 12  1  0  0  0  0
 11 35  1  0  0  0  0
 12 13  1  0  0  0  0
 13 14  1  0  0  0  0
 14 15  1  0  0  0  0
 14 36  1  0  0  0  0
 14 37  1  0  0  0  0
 15 16  1  0  0  0  0
 15 38  1  0  0  0  0
 15 39  1  0  0  0  0
 16 17  1  0  0  0  0
 17 22  1  0  0  0  0
 17 18  2  0  0  0  0
 18 19  1  0  0  0  0
 18 40  1  0  0  0  0
 19 20  2  0  0  0  0
 19 41  1  0  0  0  0
 20 21  1  0  0  0  0
 20 42  1  0  0  0  0
 21 22  2  0  0  0  0
 21 43  1  0  0  0  0
 22 23  1  0  0  0  0
 23 24  1  0  0  0  0
 24 44  1  0  0  0  0
 24 45  1  0  0  0  0
 24 46  1  0  0  0  0
M  END
> <s_m_source_file>
AV-unprocessed.smi

> <i_m_source_file_index>
460

> <i_lp_mmshare_version>
43012

> <i_f3d_flags>
0

> <s_epik_input>
W2NIXTFbY0hdW2NIXVtjSF1jKGMxMiluKGMobjIpW0NAQEhdKFtPSF0pW0NIMl1bQ0gzXSlbQ0gyXVtDSDJdT2MzW2NIXVtjSF1bY0hdW2NIXWMzT1tDSDNd

> <s_epik_cmdline>
J2VwaWtfcHl0aG9uJywgJy1waCcsICc3LjAnLCAnLXRuJywgJzgnLCAnLW1hJywgJzIwMCcsICctbWV0YWxfYmluZGluZycsICctaW1hZScsICc8aW5maWxlLm1hZT4nLCAnLW9tYWUnLCAnPG91dGZpbGUubWFlPic=

> <r_lp_tautomer_probability>
1

> <r_epik_Ionization_Penalty>
0.0507825

> <r_epik_Ionization_Penalty_Charging>
0

> <r_epik_Ionization_Penalty_Neutral>
0.0507825

> <r_epik_State_Penalty>
0.0434615

> <r_epik_Charging_Adjusted_Penalty>
0.0434615

> <i_epik_Tot_Q>
0

> <i_epik_Tot_abs_Q>
0

> <r_epik_Metal_State_Penalty>
4.50935e-05

> <b_epik_Metal_Only>
0

> <s_lp_Force_Field>
OPLS_2005

> <r_lp_Energy>
20.8142

> <b_lp_Chiralities_Consistent>
1

> <s_lp_Variant>
AV-unprocessed.smi:460-1

> <Gold.Version>
5.8.1

> <Gold.Id.Protein>
6NUR|6NUR_protein|mol2

> <Gold.PLP.Fitness>
45.1755

> <Gold.PLP.PLP>
-44.3450

> <Gold.PLP.part.hbond>
-0.5121

> <Gold.PLP.part.metal>
0.0000

> <Gold.PLP.part.buried>
-5.8770

> <Gold.PLP.part.nonpolar>
-38.4500

> <Gold.PLP.part.repulsive>
0.0241

> <Gold.PLP.ligand.clash>
0.0000

> <Gold.PLP.ligand.torsion>
0.6337

> <Gold.PLP.Chemscore.Hbond>
0.6663

> <Gold.PLP.Chemscore.CHOScore>
0.0000

> <Gold.PLP.Chemscore.Metal>
0.0000

> <Gold.Chemscore.Hbonds>
donor molecule, donor type, donor heavy atom, donor atom, acceptor molecule, acceptor atom, score
      P1  H  6896  6909       L1     4  0.68

> <Gold.PLP.Chemscore.Internal.Correction>
0.0992

> <Gold.Rescore>
     Score         DG    S(hbond)    S(metal)    S(lipo)     H(rot)  DE(clash)    DE(int)     intcor
     16.07     -17.84       0.93        0.00     130.71       2.36       0.05       1.72       ----

> <Gold.Chemscore.Fitness>
16.0720

> <Gold.Chemscore.DG>
-17.8436

> <Gold.Chemscore.ZeroCoef>
-5.4800

> <Gold.Chemscore.Hbond>
0.9308

> <Gold.Chemscore.Metal>
0.0000

> <Gold.Chemscore.Lipo>
130.7105

> <Gold.Chemscore.Internal_Hbond>
0.0000

> <Gold.Chemscore.DEClash>
0.0549

> <Gold.Chemscore.DEInternal>
1.7167

> <Gold.Chemscore.Rot>
2.3587

> <Gold.Chemscore.Internal.Correction>
   9.000000E+99

> <Gold.Chemscore.Hbonds>
donor molecule, donor type, donor heavy atom, donor atom, acceptor molecule, acceptor atom, score
      P1  H  6896  6909       L1     4  0.56

> <Gold.Chemscore.Hbond.Weighted>
-3.1089

> <Gold.Chemscore.Metal.Weighted>
-0.0000

> <Gold.Chemscore.Lipo.Weighted>
-15.2931

> <Gold.Chemscore.Internal_Hbond.Weighted>
0.0000

> <Gold.Chemscore.DEClash.Weighted>
0.0549

> <Gold.Chemscore.DEInternal.Weighted>
1.7167

> <Gold.Chemscore.Rot.Weighted>
6.0384

> <Gold.Chemscore.Internal.Correction.Weighted>
   9.000000E+99

> <Gold.Protein.RotatedTorsions>
[ 6907 6896 6895 6894 ] final  135.18 input  -60.11 | X-H torsion
[ 7974 7965 7964 7962 ] final   84.71 input  175.53 | X-H torsion
[ 8008 7997 7996 7995 ] final  -78.82 input   59.86 | X-H torsion
[ 10167 10162 10161 10158 ] final -111.93 input  -65.29 | X-H torsion
[ 10718 10713 10712 10709 ] final  -95.60 input   66.30 | X-H torsion
[ 10763 10752 10751 10750 ] final -178.43 input  -60.55 | X-H torsion
[ 11005 11000 10999 10996 ] final   84.72 input  -57.11 | X-H torsion

> <Gold.Protein.ActiveResidues>
 VAL166  LYS551  ARG553  GLY616  TRP617  ASP618  TYR619  PRO620  LYS621  CYS622 
 ASP623  PHE694  ASN695  SER759  ASP760  ASP761  ALA762  ILE779  LEU786  VAL792 
 PHE793  MET794  SER795  GLU796  ALA797  LYS798  CYS799  TRP800  GLU811  SER814 

> <Gold.Protein.RotatedAtoms>
  152.3032  133.5676  159.5631 H   0  0  0  0  0  0  0  0  0  0  0  0  # atno 6907 bound_to 6896
  150.7287  134.0261  159.3726 H   0  0  0  0  0  0  0  0  0  0  0  0  # atno 6908 bound_to 6896
  151.8159  135.0667  160.0470 H   0  0  0  0  0  0  0  0  0  0  0  0  # atno 6909 bound_to 6896
  145.5952  139.2344  143.2277 H   0  0  0  0  0  0  0  0  0  0  0  0  # atno 7974 bound_to 7965
  154.5726  140.0688  156.8987 H   0  0  0  0  0  0  0  0  0  0  0  0  # atno 8008 bound_to 7997
  155.2607  140.3358  155.4255 H   0  0  0  0  0  0  0  0  0  0  0  0  # atno 8009 bound_to 7997
  156.2130  140.1767  156.7638 H   0  0  0  0  0  0  0  0  0  0  0  0  # atno 8010 bound_to 7997
  140.1283  143.4383  152.1645 H   0  0  0  0  0  0  0  0  0  0  0  0  # atno 10167 bound_to 10162
  156.0046  130.5116  150.6101 H   0  0  0  0  0  0  0  0  0  0  0  0  # atno 10718 bound_to 10713
  154.5478  135.2810  155.1037 H   0  0  0  0  0  0  0  0  0  0  0  0  # atno 10763 bound_to 10752
  154.2494  135.6342  153.5238 H   0  0  0  0  0  0  0  0  0  0  0  0  # atno 10764 bound_to 10752
  152.9995  135.5579  154.6035 H   0  0  0  0  0  0  0  0  0  0  0  0  # atno 10765 bound_to 10752
  139.8992  134.8236  156.2484 H   0  0  0  0  0  0  0  0  0  0  0  0  # atno 11005 bound_to 11000
  146.1617  140.6778  142.9274 LP  0  0  0  0  0  0  0  0  0  0  0  0  # atno 17320 bound_to 7965
  144.7334  140.4738  143.6921 LP  0  0  0  0  0  0  0  0  0  0  0  0  # atno 17321 bound_to 7965
  139.5533  144.7354  151.4370 LP  0  0  0  0  0  0  0  0  0  0  0  0  # atno 17342 bound_to 10162
  140.6832  143.8034  150.7150 LP  0  0  0  0  0  0  0  0  0  0  0  0  # atno 17343 bound_to 10162
  157.3935  131.0799  151.1373 LP  0  0  0  0  0  0  0  0  0  0  0  0  # atno 17370 bound_to 10713
  157.2057  130.6415  149.5755 LP  0  0  0  0  0  0  0  0  0  0  0  0  # atno 17371 bound_to 10713
  141.0240  133.7025  156.1315 LP  0  0  0  0  0  0  0  0  0  0  0  0  # atno 17394 bound_to 11000
  140.7193  134.4376  157.5576 LP  0  0  0  0  0  0  0  0  0  0  0  0  # atno 17395 bound_to 11000

$$$$
