AV-unprocessed.smi:2270|AV-procd|sdf|9154|dock4
  -GOLD-   2272012363D 1   1.00000     0.00000
 Structure written by MMmdl.
 53 54  0  0  0  0  0  0  0  0  2 V2000
  153.1823  141.7805  160.7154 C   0  0  0  0  0  0  0  0  0  0  0  0
  152.2789  142.8799  160.1977 C   0  0  0  0  0  0  0  0  0  0  0  0
  152.1541  144.1003  160.8891 C   0  0  0  0  0  0  0  0  0  0  0  0
  151.3034  145.0821  160.3514 C   0  0  0  0  0  0  0  0  0  0  0  0
  150.6114  144.8033  159.1572 C   0  0  0  0  0  0  0  0  0  0  0  0
  150.7798  143.5400  158.5344 C   0  0  0  0  0  0  0  0  0  0  0  0
  150.1175  143.2430  157.3139 N   0  0  0  0  0  0  0  0  0  0  0  0
  150.3388  142.2139  156.4776 C   0  0  0  0  0  0  0  0  0  0  0  0
  151.1840  141.3339  156.6419 O   0  0  0  0  0  0  0  0  0  0  0  0
  149.5215  142.2670  155.4164 N   0  0  0  0  0  0  0  0  0  0  0  0
  149.4794  141.2873  154.3376 C   0  0  0  0  0  0  0  0  0  0  0  0
  148.6991  139.9940  154.7262 C   0  0  2  0  0  0  0  0  0  0  0  0
  149.5890  138.7021  154.7001 C   0  0  0  0  0  0  0  0  0  0  0  0
  148.9150  137.4810  155.3524 C   0  0  0  0  0  0  0  0  0  0  0  0
  151.0118  138.9131  155.2506 C   0  0  0  0  0  0  0  0  0  0  0  0
  147.4985  139.7757  153.8822 N   0  0  0  0  0  0  0  0  0  0  0  0
  146.3011  139.3225  154.6132 C   0  0  0  0  0  0  0  0  0  0  0  0
  145.6469  140.4518  155.4395 C   0  0  0  0  0  0  0  0  0  0  0  0
  145.2848  141.5911  154.5667 N   0  3  0  0  0  0  0  0  0  0  0  0
  144.6136  142.6847  155.3003 C   0  0  0  0  0  0  0  0  0  0  0  0
  146.4666  142.0494  153.8035 C   0  0  0  0  0  0  0  0  0  0  0  0
  147.0651  140.8731  153.0038 C   0  0  0  0  0  0  0  0  0  0  0  0
  151.6179  142.6114  159.0505 N   0  0  0  0  0  0  0  0  0  0  0  0
  153.6916  142.0849  161.6302 H   0  0  0  0  0  0  0  0  0  0  0  0
  153.9393  141.5293  159.9719 H   0  0  0  0  0  0  0  0  0  0  0  0
  152.6015  140.8836  160.9322 H   0  0  0  0  0  0  0  0  0  0  0  0
  152.6981  144.2845  161.8040 H   0  0  0  0  0  0  0  0  0  0  0  0
  151.1863  146.0361  160.8435 H   0  0  0  0  0  0  0  0  0  0  0  0
  149.9740  145.5642  158.7325 H   0  0  0  0  0  0  0  0  0  0  0  0
  149.4678  143.9460  156.9943 H   0  0  0  0  0  0  0  0  0  0  0  0
  148.8630  143.0304  155.3627 H   0  0  0  0  0  0  0  0  0  0  0  0
  148.9987  141.8053  153.5094 H   0  0  0  0  0  0  0  0  0  0  0  0
  150.4855  141.0327  154.0000 H   0  0  0  0  0  0  0  0  0  0  0  0
  148.3528  140.1443  155.7478 H   0  0  0  0  0  0  0  0  0  0  0  0
  149.7353  138.3893  153.6699 H   0  0  0  0  0  0  0  0  0  0  0  0
  148.8558  137.5612  156.4363 H   0  0  0  0  0  0  0  0  0  0  0  0
  149.4765  136.5720  155.1350 H   0  0  0  0  0  0  0  0  0  0  0  0
  147.9046  137.3359  154.9693 H   0  0  0  0  0  0  0  0  0  0  0  0
  151.0137  139.0935  156.3254 H   0  0  0  0  0  0  0  0  0  0  0  0
  151.4993  139.7604  154.7676 H   0  0  0  0  0  0  0  0  0  0  0  0
  151.6321  138.0345  155.0709 H   0  0  0  0  0  0  0  0  0  0  0  0
  145.5787  138.9501  153.8856 H   0  0  0  0  0  0  0  0  0  0  0  0
  146.5092  138.4775  155.2649 H   0  0  0  0  0  0  0  0  0  0  0  0
  144.7436  140.0703  155.9169 H   0  0  0  0  0  0  0  0  0  0  0  0
  146.3029  140.7868  156.2433 H   0  0  0  0  0  0  0  0  0  0  0  0
  145.2768  143.1198  156.0493 H   0  0  0  0  0  0  0  0  0  0  0  0
  143.7209  142.3161  155.8064 H   0  0  0  0  0  0  0  0  0  0  0  0
  144.3055  143.4748  154.6148 H   0  0  0  0  0  0  0  0  0  0  0  0
  146.1649  142.8397  153.1153 H   0  0  0  0  0  0  0  0  0  0  0  0
  147.2014  142.4843  154.4821 H   0  0  0  0  0  0  0  0  0  0  0  0
  147.8750  141.2082  152.3570 H   0  0  0  0  0  0  0  0  0  0  0  0
  146.3075  140.4865  152.3204 H   0  0  0  0  0  0  0  0  0  0  0  0
  144.6214  141.2408  153.8903 H   0  0  0  0  0  0  0  0  0  0  0  0
  1  2  1  0  0  0  0
  1 24  1  0  0  0  0
  1 25  1  0  0  0  0
  1 26  1  0  0  0  0
  2 23  1  0  0  0  0
  2  3  2  0  0  0  0
  3  4  1  0  0  0  0
  3 27  1  0  0  0  0
  4  5  2  0  0  0  0
  4 28  1  0  0  0  0
  5  6  1  0  0  0  0
  5 29  1  0  0  0  0
  6  7  1  0  0  0  0
  6 23  2  0  0  0  0
  7  8  1  0  0  0  0
  7 30  1  0  0  0  0
  8  9  2  0  0  0  0
  8 10  1  0  0  0  0
 10 11  1  0  0  0  0
 10 31  1  0  0  0  0
 11 12  1  0  0  0  0
 11 32  1  0  0  0  0
 11 33  1  0  0  0  0
 12 13  1  0  0  0  0
 12 16  1  0  0  0  0
 12 34  1  0  0  0  0
 13 14  1  0  0  0  0
 13 15  1  0  0  0  0
 13 35  1  0  0  0  0
 14 36  1  0  0  0  0
 14 37  1  0  0  0  0
 14 38  1  0  0  0  0
 15 39  1  0  0  0  0
 15 40  1  0  0  0  0
 15 41  1  0  0  0  0
 16 22  1  0  0  0  0
 16 17  1  0  0  0  0
 17 18  1  0  0  0  0
 17 42  1  0  0  0  0
 17 43  1  0  0  0  0
 18 19  1  0  0  0  0
 18 44  1  0  0  0  0
 18 45  1  0  0  0  0
 19 20  1  0  0  0  0
 19 21  1  0  0  0  0
 19 53  1  0  0  0  0
 20 46  1  0  0  0  0
 20 47  1  0  0  0  0
 20 48  1  0  0  0  0
 21 22  1  0  0  0  0
 21 49  1  0  0  0  0
 21 50  1  0  0  0  0
 22 51  1  0  0  0  0
 22 52  1  0  0  0  0
M  CHG  1  19   1
M  END
> <s_m_source_file>
AV-unprocessed.smi

> <i_m_source_file_index>
2270

> <i_lp_mmshare_version>
43012

> <i_f3d_flags>
0

> <s_epik_input>
W0NIM11jMVtjSF1bY0hdW2NIXWMobjEpW05IXUMoPU8pW05IXVtDSDJdW0NASF0oW0NIXShbQ0gzXSlbQ0gzXSlOMltDSDJdW0NIMl1OKFtDSDNdKVtDSDJdW0NIMl0y

> <s_epik_cmdline>
J2VwaWtfcHl0aG9uJywgJy1waCcsICc3LjAnLCAnLXRuJywgJzgnLCAnLW1hJywgJzIwMCcsICctbWV0YWxfYmluZGluZycsICctaW1hZScsICc8aW5maWxlLm1hZT4nLCAnLW9tYWUnLCAnPG91dGZpbGUubWFlPic=

> <r_epik_Ionization_Penalty>
0.0278292

> <r_epik_Ionization_Penalty_Charging>
0.0272987

> <r_epik_Ionization_Penalty_Neutral>
0.000530468

> <r_epik_State_Penalty>
0.0776825

> <r_epik_Charging_Adjusted_Penalty>
0.104981

> <i_epik_Tot_Q>
1

> <i_epik_Tot_abs_Q>
1

> <r_epik_Metal_State_Penalty>
0.0776809

> <b_epik_Metal_Only>
0

> <s_lp_Force_Field>
OPLS_2005

> <r_lp_Energy>
34.9975

> <b_lp_Chiralities_Consistent>
1

> <s_lp_Variant>
AV-unprocessed.smi:2270-1

> <Gold.Version>
5.8.1

> <Gold.Id.Protein>
6NUR|6NUR_protein|mol2

> <Gold.PLP.Fitness>
51.3121

> <Gold.PLP.PLP>
-43.6809

> <Gold.PLP.part.hbond>
-3.0000

> <Gold.PLP.part.metal>
0.0000

> <Gold.PLP.part.buried>
-5.4911

> <Gold.PLP.part.nonpolar>
-35.8029

> <Gold.PLP.part.repulsive>
0.3667

> <Gold.PLP.ligand.clash>
0.0000

> <Gold.PLP.ligand.torsion>
2.2700

> <Gold.PLP.Chemscore.Hbond>
3.9440

> <Gold.PLP.Chemscore.CHOScore>
0.0000

> <Gold.PLP.Chemscore.Metal>
0.0000

> <Gold.Chemscore.Hbonds>
donor molecule, donor type, donor heavy atom, donor atom, acceptor molecule, acceptor atom, score
      L1  H     7    30       P1  8028  0.91
      L1  H    10    31       P1  8028  0.75
      L1  H    19    53       P1 10175  2.00

> <Gold.PLP.Chemscore.Internal.Correction>
0.3392

> <Gold.Rescore>
     Score         DG    S(hbond)    S(metal)    S(lipo)     H(rot)  DE(clash)    DE(int)     intcor
     16.85     -23.11       2.77        0.00     106.76       1.61       1.41       4.85       ----

> <Gold.Chemscore.Fitness>
16.8513

> <Gold.Chemscore.DG>
-23.1128

> <Gold.Chemscore.ZeroCoef>
-5.4800

> <Gold.Chemscore.Hbond>
2.7712

> <Gold.Chemscore.Metal>
0.0000

> <Gold.Chemscore.Lipo>
106.7598

> <Gold.Chemscore.Internal_Hbond>
0.0000

> <Gold.Chemscore.DEClash>
1.4123

> <Gold.Chemscore.DEInternal>
4.8492

> <Gold.Chemscore.Rot>
1.6070

> <Gold.Chemscore.Internal.Correction>
   9.000000E+99

> <Gold.Chemscore.Hbonds>
donor molecule, donor type, donor heavy atom, donor atom, acceptor molecule, acceptor atom, score
      L1  H     7    30       P1  8028  0.61
      L1  H    10    31       P1  8028  0.76
      L1  H    19    53       P1 10175  0.50

> <Gold.Chemscore.Hbond.Weighted>
-9.2559

> <Gold.Chemscore.Metal.Weighted>
-0.0000

> <Gold.Chemscore.Lipo.Weighted>
-12.4909

> <Gold.Chemscore.Internal_Hbond.Weighted>
0.0000

> <Gold.Chemscore.DEClash.Weighted>
1.4123

> <Gold.Chemscore.DEInternal.Weighted>
4.8492

> <Gold.Chemscore.Rot.Weighted>
4.1140

> <Gold.Chemscore.Internal.Correction.Weighted>
   9.000000E+99

> <Gold.Protein.RotatedTorsions>
[ 6907 6896 6895 6894 ] final   96.85 input  -60.11 | X-H torsion
[ 7974 7965 7964 7962 ] final   24.11 input  175.53 | X-H torsion
[ 8008 7997 7996 7995 ] final   63.12 input   59.86 | X-H torsion
[ 10167 10162 10161 10158 ] final -118.45 input  -65.29 | X-H torsion
[ 10718 10713 10712 10709 ] final -147.13 input   66.30 | X-H torsion
[ 10763 10752 10751 10750 ] final  175.90 input  -60.55 | X-H torsion
[ 11005 11000 10999 10996 ] final  -95.65 input  -57.11 | X-H torsion

> <Gold.Protein.ActiveResidues>
 VAL166  LYS551  ARG553  GLY616  TRP617  ASP618  TYR619  PRO620  LYS621  CYS622 
 ASP623  PHE694  ASN695  SER759  ASP760  ASP761  ALA762  ILE779  LEU786  VAL792 
 PHE793  MET794  SER795  GLU796  ALA797  LYS798  CYS799  TRP800  GLU811  SER814 

> <Gold.Protein.RotatedAtoms>
  152.5430  134.0823  159.8240 H   0  0  0  0  0  0  0  0  0  0  0  0  # atno 6907 bound_to 6896
  151.0923  133.5299  159.2621 H   0  0  0  0  0  0  0  0  0  0  0  0  # atno 6908 bound_to 6896
  151.2086  135.0481  159.8956 H   0  0  0  0  0  0  0  0  0  0  0  0  # atno 6909 bound_to 6896
  146.1953  139.7651  142.8802 H   0  0  0  0  0  0  0  0  0  0  0  0  # atno 7974 bound_to 7965
  155.6252  140.3496  155.4665 H   0  0  0  0  0  0  0  0  0  0  0  0  # atno 8008 bound_to 7997
  156.0047  140.1220  157.0537 H   0  0  0  0  0  0  0  0  0  0  0  0  # atno 8009 bound_to 7997
  154.4260  140.1093  156.5732 H   0  0  0  0  0  0  0  0  0  0  0  0  # atno 8010 bound_to 7997
  140.0573  143.5002  152.2050 H   0  0  0  0  0  0  0  0  0  0  0  0  # atno 10167 bound_to 10162
  156.4037  130.7946  151.2159 H   0  0  0  0  0  0  0  0  0  0  0  0  # atno 10718 bound_to 10713
  154.4738  135.2772  155.1622 H   0  0  0  0  0  0  0  0  0  0  0  0  # atno 10763 bound_to 10752
  154.3360  135.6180  153.5577 H   0  0  0  0  0  0  0  0  0  0  0  0  # atno 10764 bound_to 10752
  152.9867  135.5777  154.5125 H   0  0  0  0  0  0  0  0  0  0  0  0  # atno 10765 bound_to 10752
  141.1435  133.8041  157.0465 H   0  0  0  0  0  0  0  0  0  0  0  0  # atno 11005 bound_to 11000
  145.3663  141.0335  143.3256 LP  0  0  0  0  0  0  0  0  0  0  0  0  # atno 17320 bound_to 7965
  144.8568  139.5237  143.6831 LP  0  0  0  0  0  0  0  0  0  0  0  0  # atno 17321 bound_to 7965
  139.5915  144.7552  151.3388 LP  0  0  0  0  0  0  0  0  0  0  0  0  # atno 17342 bound_to 10162
  140.7188  143.7192  150.7709 LP  0  0  0  0  0  0  0  0  0  0  0  0  # atno 17343 bound_to 10162
  157.7505  131.0279  150.4025 LP  0  0  0  0  0  0  0  0  0  0  0  0  # atno 17370 bound_to 10713
  156.4310  130.3972  149.6761 LP  0  0  0  0  0  0  0  0  0  0  0  0  # atno 17371 bound_to 10713
  140.0659  134.9729  157.1385 LP  0  0  0  0  0  0  0  0  0  0  0  0  # atno 17394 bound_to 11000
  140.3780  134.2318  155.7173 LP  0  0  0  0  0  0  0  0  0  0  0  0  # atno 17395 bound_to 11000

$$$$
