AV-unprocessed.smi:2624|AV-procd|sdf|10234|dock6
  -GOLD-   2272014243D 1   1.00000     0.00000
 Structure written by MMmdl.
 38 39  0  0  0  0  0  0  0  0  2 V2000
  145.9114  138.1648  153.7917 C   0  0  0  0  0  0  0  0  0  0  0  0
  146.2820  139.4975  154.0983 O   0  0  0  0  0  0  0  0  0  0  0  0
  147.0792  140.0860  153.0848 C   0  0  0  0  0  0  0  0  0  0  0  0
  147.4942  141.4942  153.5359 C   0  0  0  0  0  0  0  0  0  0  0  0
  147.9320  141.5012  154.9381 N   0  0  0  0  0  0  0  0  0  0  0  0
  149.3095  141.3308  155.1741 C   0  0  0  0  0  0  0  0  0  0  0  0
  149.8298  141.3228  156.4159 C   0  0  0  0  0  0  0  0  0  0  0  0
  151.2867  141.1334  156.6186 C   0  0  0  0  0  0  0  0  0  0  0  0
  151.9680  140.5220  155.7938 O   0  0  0  0  0  0  0  0  0  0  0  0
  151.9063  141.7311  157.8401 C   0  0  0  0  0  0  0  0  0  0  0  0
  151.6138  143.0766  158.1664 C   0  0  0  0  0  0  0  0  0  0  0  0
  152.1832  143.6872  159.3011 C   0  0  0  0  0  0  0  0  0  0  0  0
  151.8553  145.1302  159.6239 C   0  0  0  0  0  0  0  0  0  0  0  0
  153.0547  142.9507  160.1260 C   0  0  0  0  0  0  0  0  0  0  0  0
  153.3512  141.6109  159.8159 C   0  0  0  0  0  0  0  0  0  0  0  0
  152.7848  140.9955  158.6811 C   0  0  0  0  0  0  0  0  0  0  0  0
  153.0929  139.6837  158.4435 O   0  5  0  0  0  0  0  0  0  0  0  0
  148.9144  141.4818  157.5294 C   0  0  0  0  0  0  0  0  0  0  0  0
  147.5933  141.6341  157.3105 C   0  0  0  0  0  0  0  0  0  0  0  0
  146.6749  141.7823  158.3905 C   0  0  0  0  0  0  0  0  0  0  0  0
  145.9417  141.8910  159.2796 N   0  0  0  0  0  0  0  0  0  0  0  0
  147.0282  141.6479  155.9539 C   0  0  0  0  0  0  0  0  0  0  0  0
  145.8222  141.7789  155.7371 O   0  0  0  0  0  0  0  0  0  0  0  0
  145.3051  137.7582  154.6010 H   0  0  0  0  0  0  0  0  0  0  0  0
  146.7894  137.5279  153.6764 H   0  0  0  0  0  0  0  0  0  0  0  0
  145.3226  138.1198  152.8747 H   0  0  0  0  0  0  0  0  0  0  0  0
  147.9615  139.4703  152.9025 H   0  0  0  0  0  0  0  0  0  0  0  0
  146.5156  140.1406  152.1518 H   0  0  0  0  0  0  0  0  0  0  0  0
  148.2939  141.8617  152.8911 H   0  0  0  0  0  0  0  0  0  0  0  0
  146.6686  142.1918  153.3855 H   0  0  0  0  0  0  0  0  0  0  0  0
  149.9069  141.2079  154.2813 H   0  0  0  0  0  0  0  0  0  0  0  0
  150.9529  143.6558  157.5374 H   0  0  0  0  0  0  0  0  0  0  0  0
  152.3901  145.4712  160.5109 H   0  0  0  0  0  0  0  0  0  0  0  0
  150.7863  145.2419  159.8057 H   0  0  0  0  0  0  0  0  0  0  0  0
  152.1320  145.7762  158.7902 H   0  0  0  0  0  0  0  0  0  0  0  0
  153.4979  143.4065  160.9989 H   0  0  0  0  0  0  0  0  0  0  0  0
  154.0161  141.0516  160.4580 H   0  0  0  0  0  0  0  0  0  0  0  0
  149.2808  141.4650  158.5461 H   0  0  0  0  0  0  0  0  0  0  0  0
  1  2  1  0  0  0  0
  1 24  1  0  0  0  0
  1 25  1  0  0  0  0
  1 26  1  0  0  0  0
  2  3  1  0  0  0  0
  3  4  1  0  0  0  0
  3 27  1  0  0  0  0
  3 28  1  0  0  0  0
  4  5  1  0  0  0  0
  4 29  1  0  0  0  0
  4 30  1  0  0  0  0
  5 22  1  0  0  0  0
  5  6  1  0  0  0  0
  6  7  2  0  0  0  0
  6 31  1  0  0  0  0
  7  8  1  0  0  0  0
  7 18  1  0  0  0  0
  8  9  2  0  0  0  0
  8 10  1  0  0  0  0
 10 16  1  0  0  0  0
 10 11  2  0  0  0  0
 11 12  1  0  0  0  0
 11 32  1  0  0  0  0
 12 13  1  0  0  0  0
 12 14  2  0  0  0  0
 13 33  1  0  0  0  0
 13 34  1  0  0  0  0
 13 35  1  0  0  0  0
 14 15  1  0  0  0  0
 14 36  1  0  0  0  0
 15 16  2  0  0  0  0
 15 37  1  0  0  0  0
 16 17  1  0  0  0  0
 18 19  2  0  0  0  0
 18 38  1  0  0  0  0
 19 20  1  0  0  0  0
 19 22  1  0  0  0  0
 20 21  3  0  0  0  0
 22 23  2  0  0  0  0
M  CHG  1  17  -1
M  END
> <s_m_source_file>
AV-unprocessed.smi

> <i_m_source_file_index>
2624

> <i_lp_mmshare_version>
43012

> <i_f3d_flags>
0

> <s_epik_input>
W0NIM11PW0NIMl1bQ0gyXW4xW2NIXWMoW2NIXWMoQyNOKWMxPU8pQyg9TyljMltjSF1jKFtDSDNdKVtjSF1bY0hdYzJbT0hd

> <s_epik_cmdline>
J2VwaWtfcHl0aG9uJywgJy1waCcsICc3LjAnLCAnLXRuJywgJzgnLCAnLW1hJywgJzIwMCcsICctbWV0YWxfYmluZGluZycsICctaW1hZScsICc8aW5maWxlLm1hZT4nLCAnLW9tYWUnLCAnPG91dGZpbGUubWFlPic=

> <r_epik_Ionization_Penalty>
0.985482

> <r_epik_Ionization_Penalty_Charging>
0.985482

> <r_epik_Ionization_Penalty_Neutral>
1.08437e-11

> <r_epik_State_Penalty>
1.03272

> <r_epik_Charging_Adjusted_Penalty>
2.0182

> <i_epik_Tot_Q>
-1

> <i_epik_Tot_abs_Q>
1

> <r_epik_Metal_State_Penalty>
1.03272

> <b_epik_Metal_Only>
0

> <s_lp_Force_Field>
OPLS_2005

> <r_lp_Energy>
23.2451

> <b_lp_Chiralities_Consistent>
1

> <s_lp_Variant>
AV-unprocessed.smi:2624-2

> <Gold.Version>
5.8.1

> <Gold.Id.Protein>
6NUR|6NUR_protein|mol2

> <Gold.PLP.Fitness>
49.5352

> <Gold.PLP.PLP>
-41.6399

> <Gold.PLP.part.hbond>
-2.9910

> <Gold.PLP.part.metal>
0.0000

> <Gold.PLP.part.buried>
-4.8285

> <Gold.PLP.part.nonpolar>
-33.1882

> <Gold.PLP.part.repulsive>
0.2390

> <Gold.PLP.ligand.clash>
0.0000

> <Gold.PLP.ligand.torsion>
1.5870

> <Gold.PLP.Chemscore.Hbond>
3.1188

> <Gold.PLP.Chemscore.CHOScore>
0.0000

> <Gold.PLP.Chemscore.Metal>
0.0000

> <Gold.Chemscore.Hbonds>
donor molecule, donor type, donor heavy atom, donor atom, acceptor molecule, acceptor atom, score
      P1  H  6934  6946       L1    21  1.00
      P1  H  7989  7998       L1     9  0.17
      P1  H  7997  8008       L1    17  1.44

> <Gold.PLP.Chemscore.Internal.Correction>
1.7130

> <Gold.Rescore>
     Score         DG    S(hbond)    S(metal)    S(lipo)     H(rot)  DE(clash)    DE(int)     intcor
     16.18     -19.61       1.61        0.00     105.54       1.41       0.32       3.11       ----

> <Gold.Chemscore.Fitness>
16.1764

> <Gold.Chemscore.DG>
-19.6082

> <Gold.Chemscore.ZeroCoef>
-5.4800

> <Gold.Chemscore.Hbond>
1.6113

> <Gold.Chemscore.Metal>
0.0000

> <Gold.Chemscore.Lipo>
105.5441

> <Gold.Chemscore.Internal_Hbond>
0.0000

> <Gold.Chemscore.DEClash>
0.3190

> <Gold.Chemscore.DEInternal>
3.1128

> <Gold.Chemscore.Rot>
1.4071

> <Gold.Chemscore.Internal.Correction>
   9.000000E+99

> <Gold.Chemscore.Hbonds>
donor molecule, donor type, donor heavy atom, donor atom, acceptor molecule, acceptor atom, score
      P1  H  6934  6946       L1    21  0.28
      P1  H  7989  7998       L1     9  0.17
      P1  H  7997  8008       L1    17  0.12

> <Gold.Chemscore.Hbond.Weighted>
-5.3817

> <Gold.Chemscore.Metal.Weighted>
-0.0000

> <Gold.Chemscore.Lipo.Weighted>
-12.3487

> <Gold.Chemscore.Internal_Hbond.Weighted>
0.0000

> <Gold.Chemscore.DEClash.Weighted>
0.3190

> <Gold.Chemscore.DEInternal.Weighted>
3.1128

> <Gold.Chemscore.Rot.Weighted>
3.6022

> <Gold.Chemscore.Internal.Correction.Weighted>
   9.000000E+99

> <Gold.Protein.RotatedTorsions>
[ 6907 6896 6895 6894 ] final  -55.83 input  -60.11 | X-H torsion
[ 7974 7965 7964 7962 ] final -179.45 input  175.53 | X-H torsion
[ 8008 7997 7996 7995 ] final  -89.63 input   59.86 | X-H torsion
[ 10167 10162 10161 10158 ] final   84.88 input  -65.29 | X-H torsion
[ 10718 10713 10712 10709 ] final   65.78 input   66.30 | X-H torsion
[ 10763 10752 10751 10750 ] final   17.59 input  -60.55 | X-H torsion
[ 11005 11000 10999 10996 ] final  145.24 input  -57.11 | X-H torsion

> <Gold.Protein.ActiveResidues>
 VAL166  LYS551  ARG553  GLY616  TRP617  ASP618  TYR619  PRO620  LYS621  CYS622 
 ASP623  PHE694  ASN695  SER759  ASP760  ASP761  ALA762  ILE779  LEU786  VAL792 
 PHE793  MET794  SER795  GLU796  ALA797  LYS798  CYS799  TRP800  GLU811  SER814 

> <Gold.Protein.RotatedAtoms>
  150.8218  134.7430  159.6778 H   0  0  0  0  0  0  0  0  0  0  0  0  # atno 6907 bound_to 6896
  152.4333  134.5732  159.9937 H   0  0  0  0  0  0  0  0  0  0  0  0  # atno 6908 bound_to 6896
  151.5914  133.3329  159.3064 H   0  0  0  0  0  0  0  0  0  0  0  0  # atno 6909 bound_to 6896
  144.7137  140.0715  143.6429 H   0  0  0  0  0  0  0  0  0  0  0  0  # atno 7974 bound_to 7965
  154.6888  140.0539  157.0342 H   0  0  0  0  0  0  0  0  0  0  0  0  # atno 8008 bound_to 7997
  155.0846  140.3213  155.4572 H   0  0  0  0  0  0  0  0  0  0  0  0  # atno 8009 bound_to 7997
  156.2721  140.2059  156.5973 H   0  0  0  0  0  0  0  0  0  0  0  0  # atno 8010 bound_to 7997
  139.9035  144.6315  150.8612 H   0  0  0  0  0  0  0  0  0  0  0  0  # atno 10167 bound_to 10162
  157.6127  130.9232  150.0021 H   0  0  0  0  0  0  0  0  0  0  0  0  # atno 10718 bound_to 10713
  153.1325  135.6743  153.9156 H   0  0  0  0  0  0  0  0  0  0  0  0  # atno 10763 bound_to 10752
  153.8637  135.3078  155.3440 H   0  0  0  0  0  0  0  0  0  0  0  0  # atno 10764 bound_to 10752
  154.7719  135.4934  153.9748 H   0  0  0  0  0  0  0  0  0  0  0  0  # atno 10765 bound_to 10752
  140.0696  134.9159  157.1322 H   0  0  0  0  0  0  0  0  0  0  0  0  # atno 11005 bound_to 11000
  145.9779  139.2919  143.1059 LP  0  0  0  0  0  0  0  0  0  0  0  0  # atno 17320 bound_to 7965
  145.9043  140.9222  143.0486 LP  0  0  0  0  0  0  0  0  0  0  0  0  # atno 17321 bound_to 7965
  140.7701  143.3419  151.2191 LP  0  0  0  0  0  0  0  0  0  0  0  0  # atno 17342 bound_to 10162
  139.7005  143.9542  152.2903 LP  0  0  0  0  0  0  0  0  0  0  0  0  # atno 17343 bound_to 10162
  156.1236  130.3645  149.9846 LP  0  0  0  0  0  0  0  0  0  0  0  0  # atno 17370 bound_to 10713
  156.7921  130.9260  151.3646 LP  0  0  0  0  0  0  0  0  0  0  0  0  # atno 17371 bound_to 10713
  140.3647  134.2455  155.7183 LP  0  0  0  0  0  0  0  0  0  0  0  0  # atno 17394 bound_to 11000
  141.2006  133.7982  157.0479 LP  0  0  0  0  0  0  0  0  0  0  0  0  # atno 17395 bound_to 11000

$$$$
