AV-unprocessed.smi:1368|AV-procd|sdf|5578|dock3
  -GOLD-   22720 5173D 1   1.00000     0.00000
 Structure written by MMmdl.
 47 49  0  0  0  0  0  0  0  0  2 V2000
  143.5645  134.3717  163.5395 C   0  0  0  0  0  0  0  0  0  0  0  0
  145.0182  134.6709  163.1876 C   0  0  0  0  0  0  0  0  0  0  0  0
  145.9151  134.2703  163.9285 O   0  0  0  0  0  0  0  0  0  0  0  0
  145.2083  135.3899  162.0661 N   0  0  0  0  0  0  0  0  0  0  0  0
  146.4332  135.8208  161.4882 C   0  0  0  0  0  0  0  0  0  0  0  0
  147.6216  135.5063  162.1769 C   0  0  0  0  0  0  0  0  0  0  0  0
  148.8699  135.9141  161.6697 C   0  0  0  0  0  0  0  0  0  0  0  0
  148.9569  136.6538  160.4736 C   0  0  0  0  0  0  0  0  0  0  0  0
  150.2185  137.0109  160.0479 O   0  0  0  0  0  0  0  0  0  0  0  0
  150.3391  137.7171  158.8201 C   0  0  0  0  0  0  0  0  0  0  0  0
  151.5217  138.6929  158.9220 C   0  0  1  0  0  0  0  0  0  0  0  0
  152.6472  137.9818  159.3984 O   0  0  0  0  0  0  0  0  0  0  0  0
  151.8592  139.3266  157.5575 C   0  0  0  0  0  0  0  0  0  0  0  0
  151.4993  140.7520  157.4798 N   0  0  0  0  0  0  0  0  0  0  0  0
  150.6626  141.3965  156.6172 C   0  0  0  0  0  0  0  0  0  0  0  0
  149.8810  140.7801  155.5062 C   0  0  0  0  0  0  0  0  0  0  0  0
  150.6722  142.7169  156.9541 N   0  3  0  0  0  0  0  0  0  0  0  0
  151.5206  142.9200  158.0432 C   0  0  0  0  0  0  0  0  0  0  0  0
  151.8521  144.0815  158.7342 C   0  0  0  0  0  0  0  0  0  0  0  0
  152.7520  143.9422  159.8111 C   0  0  0  0  0  0  0  0  0  0  0  0
  153.2847  142.6855  160.1644 C   0  0  0  0  0  0  0  0  0  0  0  0
  152.9430  141.5154  159.4549 C   0  0  0  0  0  0  0  0  0  0  0  0
  152.0540  141.6612  158.3896 C   0  0  0  0  0  0  0  0  0  0  0  0
  147.7604  136.9872  159.7912 C   0  0  0  0  0  0  0  0  0  0  0  0
  146.5106  136.5785  160.2959 C   0  0  0  0  0  0  0  0  0  0  0  0
  142.9540  135.2714  163.4558 H   0  0  0  0  0  0  0  0  0  0  0  0
  143.4817  133.9995  164.5614 H   0  0  0  0  0  0  0  0  0  0  0  0
  143.1606  133.6153  162.8662 H   0  0  0  0  0  0  0  0  0  0  0  0
  144.3725  135.7268  161.6109 H   0  0  0  0  0  0  0  0  0  0  0  0
  147.5820  134.9414  163.0970 H   0  0  0  0  0  0  0  0  0  0  0  0
  149.7714  135.6565  162.2063 H   0  0  0  0  0  0  0  0  0  0  0  0
  150.4688  137.0399  157.9737 H   0  0  0  0  0  0  0  0  0  0  0  0
  149.4189  138.2813  158.6586 H   0  0  0  0  0  0  0  0  0  0  0  0
  151.2810  139.4862  159.6307 H   0  0  0  0  0  0  0  0  0  0  0  0
  153.4272  138.4107  159.0795 H   0  0  0  0  0  0  0  0  0  0  0  0
  152.9152  139.2059  157.3149 H   0  0  0  0  0  0  0  0  0  0  0  0
  151.3097  138.8153  156.7662 H   0  0  0  0  0  0  0  0  0  0  0  0
  149.2536  141.5267  155.0187 H   0  0  0  0  0  0  0  0  0  0  0  0
  149.2397  139.9870  155.8906 H   0  0  0  0  0  0  0  0  0  0  0  0
  150.5552  140.3549  154.7627 H   0  0  0  0  0  0  0  0  0  0  0  0
  151.4437  145.0449  158.4661 H   0  0  0  0  0  0  0  0  0  0  0  0
  153.0379  144.8163  160.3781 H   0  0  0  0  0  0  0  0  0  0  0  0
  153.9689  142.6166  160.9979 H   0  0  0  0  0  0  0  0  0  0  0  0
  153.3526  140.5578  159.7397 H   0  0  0  0  0  0  0  0  0  0  0  0
  147.7715  137.5618  158.8777 H   0  0  0  0  0  0  0  0  0  0  0  0
  145.6225  136.8708  159.7574 H   0  0  0  0  0  0  0  0  0  0  0  0
  150.1357  143.4265  156.4721 H   0  0  0  0  0  0  0  0  0  0  0  0
  1  2  1  0  0  0  0
  1 26  1  0  0  0  0
  1 27  1  0  0  0  0
  1 28  1  0  0  0  0
  2  3  2  0  0  0  0
  2  4  1  0  0  0  0
  4  5  1  0  0  0  0
  4 29  1  0  0  0  0
  5 25  1  0  0  0  0
  5  6  2  0  0  0  0
  6  7  1  0  0  0  0
  6 30  1  0  0  0  0
  7  8  2  0  0  0  0
  7 31  1  0  0  0  0
  8  9  1  0  0  0  0
  8 24  1  0  0  0  0
  9 10  1  0  0  0  0
 10 11  1  0  0  0  0
 10 32  1  0  0  0  0
 10 33  1  0  0  0  0
 11 12  1  0  0  0  0
 11 13  1  0  0  0  0
 11 34  1  0  0  0  0
 12 35  1  0  0  0  0
 13 14  1  0  0  0  0
 13 36  1  0  0  0  0
 13 37  1  0  0  0  0
 14 23  1  0  0  0  0
 14 15  1  0  0  0  0
 15 16  1  0  0  0  0
 15 17  2  0  0  0  0
 16 38  1  0  0  0  0
 16 39  1  0  0  0  0
 16 40  1  0  0  0  0
 17 18  1  0  0  0  0
 17 47  1  0  0  0  0
 18 23  2  0  0  0  0
 18 19  1  0  0  0  0
 19 20  2  0  0  0  0
 19 41  1  0  0  0  0
 20 21  1  0  0  0  0
 20 42  1  0  0  0  0
 21 22  2  0  0  0  0
 21 43  1  0  0  0  0
 22 23  1  0  0  0  0
 22 44  1  0  0  0  0
 24 25  2  0  0  0  0
 24 45  1  0  0  0  0
 25 46  1  0  0  0  0
M  CHG  1  17   1
M  END
> <s_m_source_file>
AV-unprocessed.smi

> <i_m_source_file_index>
1368

> <i_lp_mmshare_version>
43012

> <i_f3d_flags>
0

> <s_epik_input>
W0NIM11DKD1PKVtOSF1jMVtjSF1bY0hdYyhbY0hdW2NIXTEpT1tDSDJdW0NASF0oW09IXSlbQ0gyXW4oYyhuMilbQ0gzXSljKGMyMylbY0hdW2NIXVtjSF1bY0hdMw==

> <s_epik_cmdline>
J2VwaWtfcHl0aG9uJywgJy1waCcsICc3LjAnLCAnLXRuJywgJzgnLCAnLW1hJywgJzIwMCcsICctbWV0YWxfYmluZGluZycsICctaW1hZScsICc8aW5maWxlLm1hZT4nLCAnLW9tYWUnLCAnPG91dGZpbGUubWFlPic=

> <r_lp_tautomer_probability>
1

> <r_epik_Ionization_Penalty>
1.00673

> <r_epik_Ionization_Penalty_Charging>
1.00673

> <r_epik_Ionization_Penalty_Neutral>
2.60899e-06

> <r_epik_State_Penalty>
1.05579

> <r_epik_Charging_Adjusted_Penalty>
2.06252

> <i_epik_Tot_Q>
1

> <i_epik_Tot_abs_Q>
1

> <r_epik_Metal_State_Penalty>
1.15682

> <b_epik_Metal_Only>
0

> <s_lp_Force_Field>
OPLS_2005

> <r_lp_Energy>
24.3516

> <b_lp_Chiralities_Consistent>
1

> <s_lp_Variant>
AV-unprocessed.smi:1368-4

> <Gold.Version>
5.8.1

> <Gold.Id.Protein>
6NUR|6NUR_protein|mol2

> <Gold.PLP.Fitness>
52.1753

> <Gold.PLP.PLP>
-46.4311

> <Gold.PLP.part.hbond>
-3.0759

> <Gold.PLP.part.metal>
0.0000

> <Gold.PLP.part.buried>
-7.5992

> <Gold.PLP.part.nonpolar>
-36.3420

> <Gold.PLP.part.repulsive>
0.0850

> <Gold.PLP.ligand.clash>
0.3639

> <Gold.PLP.ligand.torsion>
0.9641

> <Gold.PLP.Chemscore.Hbond>
2.6175

> <Gold.PLP.Chemscore.CHOScore>
0.0000

> <Gold.PLP.Chemscore.Metal>
0.0000

> <Gold.Chemscore.Hbonds>
donor molecule, donor type, donor heavy atom, donor atom, acceptor molecule, acceptor atom, score
      L1  H    17    47       P1  8028  2.00
      P1  H  6896  6909       L1     9  0.64

> <Gold.PLP.Chemscore.Internal.Correction>
0.1838

> <Gold.Rescore>
     Score         DG    S(hbond)    S(metal)    S(lipo)     H(rot)  DE(clash)    DE(int)     intcor
     14.94     -17.57       1.44        0.00     116.43       2.47       0.16       2.47       ----

> <Gold.Chemscore.Fitness>
14.9382

> <Gold.Chemscore.DG>
-17.5689

> <Gold.Chemscore.ZeroCoef>
-5.4800

> <Gold.Chemscore.Hbond>
1.4351

> <Gold.Chemscore.Metal>
0.0000

> <Gold.Chemscore.Lipo>
116.4340

> <Gold.Chemscore.Internal_Hbond>
0.0000

> <Gold.Chemscore.DEClash>
0.1635

> <Gold.Chemscore.DEInternal>
2.4672

> <Gold.Chemscore.Rot>
2.4715

> <Gold.Chemscore.Internal.Correction>
   9.000000E+99

> <Gold.Chemscore.Hbonds>
donor molecule, donor type, donor heavy atom, donor atom, acceptor molecule, acceptor atom, score
      L1  H    17    47       P1  8028  0.98
      P1  H  6896  6909       L1     9  0.09

> <Gold.Chemscore.Hbond.Weighted>
-4.7932

> <Gold.Chemscore.Metal.Weighted>
-0.0000

> <Gold.Chemscore.Lipo.Weighted>
-13.6228

> <Gold.Chemscore.Internal_Hbond.Weighted>
0.0000

> <Gold.Chemscore.DEClash.Weighted>
0.1635

> <Gold.Chemscore.DEInternal.Weighted>
2.4672

> <Gold.Chemscore.Rot.Weighted>
6.3271

> <Gold.Chemscore.Internal.Correction.Weighted>
   9.000000E+99

> <Gold.Protein.RotatedTorsions>
[ 6907 6896 6895 6894 ] final   86.45 input  -60.11 | X-H torsion
[ 7974 7965 7964 7962 ] final -166.02 input  175.53 | X-H torsion
[ 8008 7997 7996 7995 ] final   63.31 input   59.86 | X-H torsion
[ 10167 10162 10161 10158 ] final  143.16 input  -65.29 | X-H torsion
[ 10718 10713 10712 10709 ] final  174.65 input   66.30 | X-H torsion
[ 10763 10752 10751 10750 ] final -147.01 input  -60.55 | X-H torsion
[ 11005 11000 10999 10996 ] final  122.56 input  -57.11 | X-H torsion

> <Gold.Protein.ActiveResidues>
 VAL166  LYS551  ARG553  GLY616  TRP617  ASP618  TYR619  PRO620  LYS621  CYS622 
 ASP623  PHE694  ASN695  SER759  ASP760  ASP761  ALA762  ILE779  LEU786  VAL792 
 PHE793  MET794  SER795  GLU796  ALA797  LYS798  CYS799  TRP800  GLU811  SER814 

> <Gold.Protein.RotatedAtoms>
  152.5394  134.2429  159.8868 H   0  0  0  0  0  0  0  0  0  0  0  0  # atno 6907 bound_to 6896
  151.2396  133.4400  159.2614 H   0  0  0  0  0  0  0  0  0  0  0  0  # atno 6908 bound_to 6896
  151.0639  134.9768  159.8330 H   0  0  0  0  0  0  0  0  0  0  0  0  # atno 6909 bound_to 6896
  144.7255  140.2728  143.6248 H   0  0  0  0  0  0  0  0  0  0  0  0  # atno 7974 bound_to 7965
  155.6282  140.3496  155.4674 H   0  0  0  0  0  0  0  0  0  0  0  0  # atno 8008 bound_to 7997
  156.0024  140.1216  157.0558 H   0  0  0  0  0  0  0  0  0  0  0  0  # atno 8009 bound_to 7997
  154.4253  140.1098  156.5702 H   0  0  0  0  0  0  0  0  0  0  0  0  # atno 8010 bound_to 7997
  139.4976  144.6059  151.6380 H   0  0  0  0  0  0  0  0  0  0  0  0  # atno 10167 bound_to 10162
  156.9465  131.0018  151.2957 H   0  0  0  0  0  0  0  0  0  0  0  0  # atno 10718 bound_to 10713
  154.8307  135.3371  154.6751 H   0  0  0  0  0  0  0  0  0  0  0  0  # atno 10763 bound_to 10752
  153.7371  135.6948  153.4980 H   0  0  0  0  0  0  0  0  0  0  0  0  # atno 10764 bound_to 10752
  153.2270  135.4429  155.0505 H   0  0  0  0  0  0  0  0  0  0  0  0  # atno 10765 bound_to 10752
  139.9273  134.9641  156.8127 H   0  0  0  0  0  0  0  0  0  0  0  0  # atno 11005 bound_to 11000
  145.8026  139.1970  143.2039 LP  0  0  0  0  0  0  0  0  0  0  0  0  # atno 17320 bound_to 7965
  146.0664  140.7916  142.9709 LP  0  0  0  0  0  0  0  0  0  0  0  0  # atno 17321 bound_to 7965
  140.5720  144.0092  150.6222 LP  0  0  0  0  0  0  0  0  0  0  0  0  # atno 17342 bound_to 10162
  140.3213  143.3135  152.0781 LP  0  0  0  0  0  0  0  0  0  0  0  0  # atno 17343 bound_to 10162
  157.5750  130.8337  149.8443 LP  0  0  0  0  0  0  0  0  0  0  0  0  # atno 17370 bound_to 10713
  156.0381  130.3746  150.1506 LP  0  0  0  0  0  0  0  0  0  0  0  0  # atno 17371 bound_to 10713
  140.6299  133.9916  155.7657 LP  0  0  0  0  0  0  0  0  0  0  0  0  # atno 17394 bound_to 11000
  141.0840  134.0019  157.3342 LP  0  0  0  0  0  0  0  0  0  0  0  0  # atno 17395 bound_to 11000

$$$$
