AV-unprocessed.smi:1572|AV-procd|sdf|6328|dock5
  -GOLD-   22720 6533D 1   1.00000     0.00000
 Structure written by MMmdl.
 43 44  0  0  0  0  0  0  0  0  2 V2000
  150.6752  140.1768  158.1144 C   0  0  0  0  0  0  0  0  0  0  0  0
  150.5630  141.5591  157.6616 N   0  0  0  0  0  0  0  0  0  0  0  0
  150.7312  141.7146  156.2181 C   0  0  0  0  0  0  0  0  0  0  0  0
  149.5311  141.1518  155.4302 C   0  0  0  0  0  0  0  0  0  0  0  0
  148.2600  141.8179  155.8411 N   0  3  0  0  0  0  0  0  0  0  0  0
  147.0546  141.4964  154.9883 C   0  0  0  0  0  0  0  0  0  0  0  0
  145.9991  142.6268  155.0567 C   0  0  0  0  0  0  0  0  0  0  0  0
  147.4620  141.3190  153.5008 C   0  0  0  0  0  0  0  0  0  0  0  0
  146.4323  140.1572  155.4913 C   0  0  0  0  0  0  0  0  0  0  0  0
  145.2599  139.7174  154.7341 N   0  0  0  0  0  0  0  0  0  0  0  0
  144.5136  138.6384  155.0140 C   0  0  0  0  0  0  0  0  0  0  0  0
  144.7536  137.8726  155.9476 O   0  0  0  0  0  0  0  0  0  0  0  0
  143.4936  138.5125  154.1469 N   0  0  0  0  0  0  0  0  0  0  0  0
  142.5090  137.4907  154.0902 C   0  0  0  0  0  0  0  0  0  0  0  0
  142.6712  136.2705  154.6255 N   0  0  0  0  0  0  0  0  0  0  0  0
  141.5590  135.4633  154.4257 N   0  0  0  0  0  0  0  0  0  0  0  0
  140.6037  136.1047  153.7467 C   0  0  0  0  0  0  0  0  0  0  0  0
  140.9707  137.7573  153.2826 S   0  0  0  0  0  0  0  0  0  0  0  0
  148.0887  141.6645  157.3158 C   0  0  0  0  0  0  0  0  0  0  0  0
  149.3188  142.2022  158.0781 C   0  0  0  0  0  0  0  0  0  0  0  0
  151.6405  139.7620  157.8226 H   0  0  0  0  0  0  0  0  0  0  0  0
  149.8948  139.5350  157.7071 H   0  0  0  0  0  0  0  0  0  0  0  0
  150.6126  140.1317  159.2022 H   0  0  0  0  0  0  0  0  0  0  0  0
  150.8518  142.7750  155.9922 H   0  0  0  0  0  0  0  0  0  0  0  0
  151.6544  141.2253  155.9051 H   0  0  0  0  0  0  0  0  0  0  0  0
  149.7367  141.3097  154.3745 H   0  0  0  0  0  0  0  0  0  0  0  0
  149.4638  140.0734  155.5712 H   0  0  0  0  0  0  0  0  0  0  0  0
  145.1771  142.4440  154.3635 H   0  0  0  0  0  0  0  0  0  0  0  0
  146.4249  143.5947  154.7927 H   0  0  0  0  0  0  0  0  0  0  0  0
  145.5555  142.7165  156.0481 H   0  0  0  0  0  0  0  0  0  0  0  0
  146.6239  141.0085  152.8779 H   0  0  0  0  0  0  0  0  0  0  0  0
  148.2454  140.5685  153.3873 H   0  0  0  0  0  0  0  0  0  0  0  0
  147.8111  142.2486  153.0517 H   0  0  0  0  0  0  0  0  0  0  0  0
  147.1946  139.3761  155.5112 H   0  0  0  0  0  0  0  0  0  0  0  0
  146.0791  140.2482  156.5164 H   0  0  0  0  0  0  0  0  0  0  0  0
  144.9900  140.2869  153.9452 H   0  0  0  0  0  0  0  0  0  0  0  0
  143.4124  139.2295  153.4412 H   0  0  0  0  0  0  0  0  0  0  0  0
  139.6766  135.6006  153.5173 H   0  0  0  0  0  0  0  0  0  0  0  0
  147.2415  142.2436  157.6772 H   0  0  0  0  0  0  0  0  0  0  0  0
  147.8925  140.6233  157.5720 H   0  0  0  0  0  0  0  0  0  0  0  0
  149.1847  142.0752  159.1530 H   0  0  0  0  0  0  0  0  0  0  0  0
  149.4114  143.2756  157.9055 H   0  0  0  0  0  0  0  0  0  0  0  0
  148.4150  142.8064  155.7026 H   0  0  0  0  0  0  0  0  0  0  0  0
  1  2  1  0  0  0  0
  1 21  1  0  0  0  0
  1 22  1  0  0  0  0
  1 23  1  0  0  0  0
  2 20  1  0  0  0  0
  2  3  1  0  0  0  0
  3  4  1  0  0  0  0
  3 24  1  0  0  0  0
  3 25  1  0  0  0  0
  4  5  1  0  0  0  0
  4 26  1  0  0  0  0
  4 27  1  0  0  0  0
  5  6  1  0  0  0  0
  5 19  1  0  0  0  0
  5 43  1  0  0  0  0
  6  7  1  0  0  0  0
  6  8  1  0  0  0  0
  6  9  1  0  0  0  0
  7 28  1  0  0  0  0
  7 29  1  0  0  0  0
  7 30  1  0  0  0  0
  8 31  1  0  0  0  0
  8 32  1  0  0  0  0
  8 33  1  0  0  0  0
  9 10  1  0  0  0  0
  9 34  1  0  0  0  0
  9 35  1  0  0  0  0
 10 11  1  0  0  0  0
 10 36  1  0  0  0  0
 11 12  2  0  0  0  0
 11 13  1  0  0  0  0
 13 14  1  0  0  0  0
 13 37  1  0  0  0  0
 14 18  1  0  0  0  0
 14 15  2  0  0  0  0
 15 16  1  0  0  0  0
 16 17  2  0  0  0  0
 17 18  1  0  0  0  0
 17 38  1  0  0  0  0
 19 20  1  0  0  0  0
 19 39  1  0  0  0  0
 19 40  1  0  0  0  0
 20 41  1  0  0  0  0
 20 42  1  0  0  0  0
M  CHG  1   5   1
M  END
> <s_m_source_file>
AV-unprocessed.smi

> <i_m_source_file_index>
1572

> <i_lp_mmshare_version>
43012

> <i_f3d_flags>
0

> <s_epik_input>
W0NIM11OMVtDSDJdW0NIMl1OKFtDSDJdW0NIMl0xKUMoW0NIM10pKFtDSDNdKVtDSDJdW05IXUMoPU8pW05IXWMybm5bY0hdczI=

> <s_epik_cmdline>
J2VwaWtfcHl0aG9uJywgJy1waCcsICc3LjAnLCAnLXRuJywgJzgnLCAnLW1hJywgJzIwMCcsICctbWV0YWxfYmluZGluZycsICctaW1hZScsICc8aW5maWxlLm1hZT4nLCAnLW9tYWUnLCAnPG91dGZpbGUubWFlPic=

> <r_epik_Ionization_Penalty>
0.104337

> <r_epik_Ionization_Penalty_Charging>
0.0985296

> <r_epik_Ionization_Penalty_Neutral>
0.00580738

> <r_epik_State_Penalty>
1.056

> <r_epik_Charging_Adjusted_Penalty>
1.15453

> <i_epik_Tot_Q>
1

> <i_epik_Tot_abs_Q>
1

> <r_epik_Metal_State_Penalty>
1.38982

> <b_epik_Metal_Only>
0

> <s_lp_Force_Field>
OPLS_2005

> <r_lp_Energy>
26.4424

> <b_lp_Chiralities_Consistent>
1

> <s_lp_Variant>
AV-unprocessed.smi:1572-2

> <Gold.Version>
5.8.1

> <Gold.Id.Protein>
6NUR|6NUR_protein|mol2

> <Gold.PLP.Fitness>
40.4720

> <Gold.PLP.PLP>
-27.9839

> <Gold.PLP.part.hbond>
-3.9826

> <Gold.PLP.part.metal>
0.0000

> <Gold.PLP.part.buried>
-6.3369

> <Gold.PLP.part.nonpolar>
-18.7400

> <Gold.PLP.part.repulsive>
0.2611

> <Gold.PLP.ligand.clash>
0.0000

> <Gold.PLP.ligand.torsion>
0.6834

> <Gold.PLP.Chemscore.Hbond>
4.3160

> <Gold.PLP.Chemscore.CHOScore>
0.2728

> <Gold.PLP.Chemscore.Metal>
0.0000

> <Gold.Chemscore.Hbonds>
donor molecule, donor type, donor heavy atom, donor atom, acceptor molecule, acceptor atom, score
      L1  H     5    43       P1  8028  2.00
      L1  H    10    36       P1 10175  0.88
      L1  H    13    37       P1 10175  1.00
      P1  H 11000 11005       L1    16  0.51
      L1  C    17    38       P1 10187  0.18

> <Gold.PLP.Chemscore.Internal.Correction>
0.0885

> <Gold.Rescore>
     Score         DG    S(hbond)    S(metal)    S(lipo)     H(rot)  DE(clash)    DE(int)     intcor
     16.86     -18.77       3.30        0.00      56.49       1.70       0.11       1.80       ----

> <Gold.Chemscore.Fitness>
16.8641

> <Gold.Chemscore.DG>
-18.7723

> <Gold.Chemscore.ZeroCoef>
-5.4800

> <Gold.Chemscore.Hbond>
3.3004

> <Gold.Chemscore.Metal>
0.0000

> <Gold.Chemscore.Lipo>
56.4943

> <Gold.Chemscore.Internal_Hbond>
0.0000

> <Gold.Chemscore.DEClash>
0.1052

> <Gold.Chemscore.DEInternal>
1.8030

> <Gold.Chemscore.Rot>
1.6956

> <Gold.Chemscore.Internal.Correction>
   9.000000E+99

> <Gold.Chemscore.Hbonds>
donor molecule, donor type, donor heavy atom, donor atom, acceptor molecule, acceptor atom, score
      L1  H     5    43       P1  8028  0.98
      L1  H    10    36       P1 10175  0.85
      L1  H    13    37       P1 10175  0.96
      P1  H 11000 11005       L1    16  0.23

> <Gold.Chemscore.Hbond.Weighted>
-11.0232

> <Gold.Chemscore.Metal.Weighted>
-0.0000

> <Gold.Chemscore.Lipo.Weighted>
-6.6098

> <Gold.Chemscore.Internal_Hbond.Weighted>
0.0000

> <Gold.Chemscore.DEClash.Weighted>
0.1052

> <Gold.Chemscore.DEInternal.Weighted>
1.8030

> <Gold.Chemscore.Rot.Weighted>
4.3407

> <Gold.Chemscore.Internal.Correction.Weighted>
   9.000000E+99

> <Gold.Protein.RotatedTorsions>
[ 6907 6896 6895 6894 ] final  156.01 input  -60.11 | X-H torsion
[ 7974 7965 7964 7962 ] final  -55.03 input  175.53 | X-H torsion
[ 8008 7997 7996 7995 ] final -161.29 input   59.86 | X-H torsion
[ 10167 10162 10161 10158 ] final   -4.93 input  -65.29 | X-H torsion
[ 10718 10713 10712 10709 ] final  -77.41 input   66.30 | X-H torsion
[ 10763 10752 10751 10750 ] final -119.23 input  -60.55 | X-H torsion
[ 11005 11000 10999 10996 ] final   16.97 input  -57.11 | X-H torsion

> <Gold.Protein.ActiveResidues>
 VAL166  LYS551  ARG553  GLY616  TRP617  ASP618  TYR619  PRO620  LYS621  CYS622 
 ASP623  PHE694  ASN695  SER759  ASP760  ASP761  ALA762  ILE779  LEU786  VAL792 
 PHE793  MET794  SER795  GLU796  ALA797  LYS798  CYS799  TRP800  GLU811  SER814 

> <Gold.Protein.RotatedAtoms>
  152.0359  133.3957  159.4316 H   0  0  0  0  0  0  0  0  0  0  0  0  # atno 6907 bound_to 6896
  150.6879  134.3469  159.4901 H   0  0  0  0  0  0  0  0  0  0  0  0  # atno 6908 bound_to 6896
  152.1261  134.9169  160.0611 H   0  0  0  0  0  0  0  0  0  0  0  0  # atno 6909 bound_to 6896
  145.8788  140.8160  142.9850 H   0  0  0  0  0  0  0  0  0  0  0  0  # atno 7974 bound_to 7965
  155.7901  140.0877  157.2013 H   0  0  0  0  0  0  0  0  0  0  0  0  # atno 8008 bound_to 7997
  154.3986  140.1492  156.3210 H   0  0  0  0  0  0  0  0  0  0  0  0  # atno 8009 bound_to 7997
  155.8568  140.3432  155.5732 H   0  0  0  0  0  0  0  0  0  0  0  0  # atno 8010 bound_to 7997
  140.6945  143.6367  150.8473 H   0  0  0  0  0  0  0  0  0  0  0  0  # atno 10167 bound_to 10162
  156.0146  130.4491  150.3341 H   0  0  0  0  0  0  0  0  0  0  0  0  # atno 10718 bound_to 10713
  154.8611  135.4245  154.2266 H   0  0  0  0  0  0  0  0  0  0  0  0  # atno 10763 bound_to 10752
  153.3260  135.6985  153.6995 H   0  0  0  0  0  0  0  0  0  0  0  0  # atno 10764 bound_to 10752
  153.6031  135.3533  155.2926 H   0  0  0  0  0  0  0  0  0  0  0  0  # atno 10765 bound_to 10752
  140.4412  134.1320  155.7690 H   0  0  0  0  0  0  0  0  0  0  0  0  # atno 11005 bound_to 11000
  144.6727  140.1351  143.7441 LP  0  0  0  0  0  0  0  0  0  0  0  0  # atno 17320 bound_to 7965
  145.9049  139.2452  143.1472 LP  0  0  0  0  0  0  0  0  0  0  0  0  # atno 17321 bound_to 7965
  140.0084  143.5669  152.2849 LP  0  0  0  0  0  0  0  0  0  0  0  0  # atno 17342 bound_to 10162
  139.6384  144.7652  151.2390 LP  0  0  0  0  0  0  0  0  0  0  0  0  # atno 17343 bound_to 10162
  157.1438  131.0303  151.2916 LP  0  0  0  0  0  0  0  0  0  0  0  0  # atno 17370 bound_to 10713
  157.4449  130.7565  149.7101 LP  0  0  0  0  0  0  0  0  0  0  0  0  # atno 17371 bound_to 10713
  141.1705  133.8619  157.1586 LP  0  0  0  0  0  0  0  0  0  0  0  0  # atno 17394 bound_to 11000
  140.0069  135.0005  157.0311 LP  0  0  0  0  0  0  0  0  0  0  0  0  # atno 17395 bound_to 11000

$$$$
