AV-unprocessed.smi:35|AV-procd|sdf|276|dock10
  -GOLD-   2262016 43D 1   1.00000     0.00000
 Structure written by MMmdl.
 28 29  0  0  0  0  0  0  0  0  2 V2000
  152.6608  136.9319  160.1805 O   0  0  0  0  0  0  0  0  0  0  0  0
  152.3316  137.9064  159.5066 C   0  0  0  0  0  0  0  0  0  0  0  0
  151.2464  137.9029  158.6791 N   0  5  0  0  0  0  0  0  0  0  0  0
  150.8809  138.9898  157.9375 C   0  0  0  0  0  0  0  0  0  0  0  0
  149.9200  138.9872  157.1677 O   0  0  0  0  0  0  0  0  0  0  0  0
  151.6469  140.1830  158.0436 N   0  0  0  0  0  0  0  0  0  0  0  0
  151.2559  141.3912  157.2235 C   0  0  1  0  0  0  0  0  0  0  0  0
  150.9656  140.9821  155.9176 O   0  0  0  0  0  0  0  0  0  0  0  0
  149.6888  141.4697  155.5183 C   0  0  1  0  0  0  0  0  0  0  0  0
  149.0822  140.5068  154.4851 C   0  0  0  0  0  0  0  0  0  0  0  0
  149.4996  140.8468  153.1799 O   0  0  0  0  0  0  0  0  0  0  0  0
  148.9200  141.5747  156.8371 C   0  0  2  0  0  0  0  0  0  0  0  0
  147.8119  142.4530  156.7832 O   0  0  0  0  0  0  0  0  0  0  0  0
  149.9943  142.0439  157.8102 C   0  0  2  0  0  0  0  0  0  0  0  0
  150.1300  143.4531  157.8438 O   0  0  0  0  0  0  0  0  0  0  0  0
  152.7671  140.2096  158.8573 C   0  0  0  0  0  0  0  0  0  0  0  0
  153.1267  139.1295  159.5798 C   0  0  0  0  0  0  0  0  0  0  0  0
  154.7520  139.3091  160.6991 Br  0  0  0  0  0  0  0  0  0  0  0  0
  152.1315  142.0425  157.2044 H   0  0  0  0  0  0  0  0  0  0  0  0
  149.8378  142.4598  155.0834 H   0  0  0  0  0  0  0  0  0  0  0  0
  149.4113  139.4876  154.6889 H   0  0  0  0  0  0  0  0  0  0  0  0
  147.9931  140.5087  154.5379 H   0  0  0  0  0  0  0  0  0  0  0  0
  149.0823  140.2600  152.5682 H   0  0  0  0  0  0  0  0  0  0  0  0
  148.5735  140.5851  157.1382 H   0  0  0  0  0  0  0  0  0  0  0  0
  148.1373  143.3271  156.6302 H   0  0  0  0  0  0  0  0  0  0  0  0
  149.8008  141.6944  158.8256 H   0  0  0  0  0  0  0  0  0  0  0  0
  149.7160  143.8075  157.0712 H   0  0  0  0  0  0  0  0  0  0  0  0
  153.3724  141.1013  158.9174 H   0  0  0  0  0  0  0  0  0  0  0  0
  1  2  2  0  0  0  0
  2 17  1  0  0  0  0
  2  3  1  0  0  0  0
  3  4  1  0  0  0  0
  4  5  2  0  0  0  0
  4  6  1  0  0  0  0
  6  7  1  0  0  0  0
  6 16  1  0  0  0  0
  7 14  1  0  0  0  0
  7  8  1  0  0  0  0
  7 19  1  0  0  0  0
  8  9  1  0  0  0  0
  9 10  1  0  0  0  0
  9 12  1  0  0  0  0
  9 20  1  0  0  0  0
 10 11  1  0  0  0  0
 10 21  1  0  0  0  0
 10 22  1  0  0  0  0
 11 23  1  0  0  0  0
 12 13  1  0  0  0  0
 12 14  1  0  0  0  0
 12 24  1  0  0  0  0
 13 25  1  0  0  0  0
 14 15  1  0  0  0  0
 14 26  1  0  0  0  0
 15 27  1  0  0  0  0
 16 17  2  0  0  0  0
 16 28  1  0  0  0  0
 17 18  1  0  0  0  0
M  CHG  1   3  -1
M  END
> <s_m_source_file>
AV-unprocessed.smi

> <i_m_source_file_index>
35

> <i_lp_mmshare_version>
43012

> <i_f3d_flags>
0

> <s_epik_input>
Tz1jMVtuSF1jKD1PKW4oW2NIXWMxQnIpW0NAQEhdMk9bQ0BASF0oW0NIMl1bT0hdKVtDQEBIXShbT0hdKVtDQEhdMltPSF0=

> <s_epik_cmdline>
J2VwaWtfcHl0aG9uJywgJy1waCcsICc3LjAnLCAnLXRuJywgJzgnLCAnLW1hJywgJzIwMCcsICctbWV0YWxfYmluZGluZycsICctaW1hZScsICc8aW5maWxlLm1hZT4nLCAnLW9tYWUnLCAnPG91dGZpbGUubWFlPic=

> <r_epik_Ionization_Penalty>
1.06112

> <r_epik_Ionization_Penalty_Charging>
2.1796e-09

> <r_epik_Ionization_Penalty_Neutral>
1.06112

> <r_epik_State_Penalty>
1.11484

> <r_epik_Charging_Adjusted_Penalty>
1.11484

> <i_epik_Tot_Q>
-1

> <i_epik_Tot_abs_Q>
1

> <r_epik_Metal_State_Penalty>
0.0032876

> <b_epik_Metal_Only>
0

> <s_epik_Chemistry_Notes>
This compound contains an acetal/aminal-like group ( X-CH(R)-Y where X, Y are N, S, or O) that may be acid/base labile, releasing an aldehyde.

> <s_lp_Force_Field>
OPLS_2005

> <r_lp_Energy>
40.7288

> <b_lp_Chiralities_Consistent>
1

> <s_lp_Variant>
AV-unprocessed.smi:35-30

> <Gold.Version>
5.8.1

> <Gold.Id.Protein>
6NUR|6NUR_protein|mol2

> <Gold.PLP.Fitness>
39.2060

> <Gold.PLP.PLP>
-26.6486

> <Gold.PLP.part.hbond>
-4.8083

> <Gold.PLP.part.metal>
0.0000

> <Gold.PLP.part.buried>
-6.0459

> <Gold.PLP.part.nonpolar>
-16.4990

> <Gold.PLP.part.repulsive>
0.0337

> <Gold.PLP.ligand.clash>
0.0000

> <Gold.PLP.ligand.torsion>
0.6033

> <Gold.PLP.Chemscore.Hbond>
4.5836

> <Gold.PLP.Chemscore.CHOScore>
0.0000

> <Gold.PLP.Chemscore.Metal>
0.0000

> <Gold.Chemscore.Hbonds>
donor molecule, donor type, donor heavy atom, donor atom, acceptor molecule, acceptor atom, score
      L1  H    11    23       P1  7957  0.44
      L1  H    13    25       P1  8028  0.90
      L1  H    15    27       P1  8028  1.00
      P1  H  6896  6908       L1     1  1.00
      P1  H  7989  7998       L1    11  0.17
      P1  H  8011  8017       L1    11  1.00

> <Gold.PLP.Chemscore.Internal.Correction>
0.0129

> <Gold.Rescore>
     Score         DG    S(hbond)    S(metal)    S(lipo)     H(rot)  DE(clash)    DE(int)     intcor
      8.53     -13.22       3.62        0.00      42.12       3.63       0.00       4.69       ----

> <Gold.Chemscore.Fitness>
8.5327

> <Gold.Chemscore.DG>
-13.2249

> <Gold.Chemscore.ZeroCoef>
-5.4800

> <Gold.Chemscore.Hbond>
3.6228

> <Gold.Chemscore.Metal>
0.0000

> <Gold.Chemscore.Lipo>
42.1167

> <Gold.Chemscore.Internal_Hbond>
0.0000

> <Gold.Chemscore.DEClash>
0.0004

> <Gold.Chemscore.DEInternal>
4.6918

> <Gold.Chemscore.Rot>
3.6261

> <Gold.Chemscore.Internal.Correction>
   9.000000E+99

> <Gold.Chemscore.Hbonds>
donor molecule, donor type, donor heavy atom, donor atom, acceptor molecule, acceptor atom, score
      L1  H    11    23       P1  7957  0.42
      L1  H    13    25       P1  8028  0.18
      L1  H    15    27       P1  8028  0.88
      P1  H  6896  6908       L1     1  0.98
      P1  H  7989  7998       L1    11  0.05
      P1  H  8011  8017       L1    11  0.60

> <Gold.Chemscore.Hbond.Weighted>
-12.1000

> <Gold.Chemscore.Metal.Weighted>
-0.0000

> <Gold.Chemscore.Lipo.Weighted>
-4.9277

> <Gold.Chemscore.Internal_Hbond.Weighted>
0.0000

> <Gold.Chemscore.DEClash.Weighted>
0.0004

> <Gold.Chemscore.DEInternal.Weighted>
4.6918

> <Gold.Chemscore.Rot.Weighted>
9.2828

> <Gold.Chemscore.Internal.Correction.Weighted>
   9.000000E+99

> <Gold.Protein.RotatedTorsions>
[ 6907 6896 6895 6894 ] final  -99.09 input  -60.11 | X-H torsion
[ 7974 7965 7964 7962 ] final  -32.80 input  175.53 | X-H torsion
[ 8008 7997 7996 7995 ] final -143.88 input   59.86 | X-H torsion
[ 10167 10162 10161 10158 ] final   92.91 input  -65.29 | X-H torsion
[ 10718 10713 10712 10709 ] final  130.43 input   66.30 | X-H torsion
[ 10763 10752 10751 10750 ] final  -24.70 input  -60.55 | X-H torsion
[ 11005 11000 10999 10996 ] final  -67.62 input  -57.11 | X-H torsion

> <Gold.Protein.ActiveResidues>
 VAL166  LYS551  ARG553  GLY616  TRP617  ASP618  TYR619  PRO620  LYS621  CYS622 
 ASP623  PHE694  ASN695  SER759  ASP760  ASP761  ALA762  ILE779  LEU786  VAL792 
 PHE793  MET794  SER795  GLU796  ALA797  LYS798  CYS799  TRP800  GLU811  SER814 

> <Gold.Protein.RotatedAtoms>
  150.7068  134.1094  159.3994 H   0  0  0  0  0  0  0  0  0  0  0  0  # atno 6907 bound_to 6896
  151.9081  135.0348  160.0521 H   0  0  0  0  0  0  0  0  0  0  0  0  # atno 6908 bound_to 6896
  152.2359  133.5060  159.5279 H   0  0  0  0  0  0  0  0  0  0  0  0  # atno 6909 bound_to 6896
  146.0961  140.5837  142.8842 H   0  0  0  0  0  0  0  0  0  0  0  0  # atno 7974 bound_to 7965
  155.5178  140.0589  157.2912 H   0  0  0  0  0  0  0  0  0  0  0  0  # atno 8008 bound_to 7997
  154.4528  140.1958  156.0414 H   0  0  0  0  0  0  0  0  0  0  0  0  # atno 8009 bound_to 7997
  156.0740  140.3256  155.7614 H   0  0  0  0  0  0  0  0  0  0  0  0  # atno 8010 bound_to 7997
  139.8231  144.6722  150.9494 H   0  0  0  0  0  0  0  0  0  0  0  0  # atno 10167 bound_to 10162
  157.5063  131.1095  150.9357 H   0  0  0  0  0  0  0  0  0  0  0  0  # atno 10718 bound_to 10713
  153.6880  135.6963  153.5098 H   0  0  0  0  0  0  0  0  0  0  0  0  # atno 10763 bound_to 10752
  153.2435  135.4298  155.0722 H   0  0  0  0  0  0  0  0  0  0  0  0  # atno 10764 bound_to 10752
  154.8381  135.3513  154.6422 H   0  0  0  0  0  0  0  0  0  0  0  0  # atno 10765 bound_to 10752
  141.1512  133.6723  156.6320 H   0  0  0  0  0  0  0  0  0  0  0  0  # atno 11005 bound_to 11000
  144.7396  140.4907  143.6878 LP  0  0  0  0  0  0  0  0  0  0  0  0  # atno 17320 bound_to 7965
  145.5945  139.1498  143.3163 LP  0  0  0  0  0  0  0  0  0  0  0  0  # atno 17321 bound_to 7965
  140.7812  143.4073  151.1051 LP  0  0  0  0  0  0  0  0  0  0  0  0  # atno 17342 bound_to 10162
  139.7732  143.8464  152.3124 LP  0  0  0  0  0  0  0  0  0  0  0  0  # atno 17343 bound_to 10162
  157.0011  130.5600  149.5311 LP  0  0  0  0  0  0  0  0  0  0  0  0  # atno 17370 bound_to 10713
  156.0260  130.5354  150.8408 LP  0  0  0  0  0  0  0  0  0  0  0  0  # atno 17371 bound_to 10713
  140.3459  134.7810  157.4432 LP  0  0  0  0  0  0  0  0  0  0  0  0  # atno 17394 bound_to 11000
  140.0900  134.5614  155.8454 LP  0  0  0  0  0  0  0  0  0  0  0  0  # atno 17395 bound_to 11000

$$$$
