AV-unprocessed.smi:834|AV-procd|sdf|3884|dock6
  -GOLD-   22720 1343D 1   1.00000     0.00000
 Structure written by MMmdl.
 39 40  0  0  0  0  0  0  0  0  1 V2000
  149.4274  130.8267  154.5796 C   0  0  0  0  0  0  0  0  0  0  0  0
  149.8289  132.2496  154.7698 C   0  0  0  0  0  0  0  0  0  0  0  0
  150.7386  132.6326  155.6740 N   0  0  0  0  0  0  0  0  0  0  0  0
  150.9429  134.0053  155.6663 N   0  0  0  0  0  0  0  0  0  0  0  0
  150.1771  134.6193  154.7538 C   0  0  0  0  0  0  0  0  0  0  0  0
  150.1804  136.0223  154.5354 N   0  0  0  0  0  0  0  0  0  0  0  0
  151.0077  136.9454  155.0566 C   0  0  0  0  0  0  0  0  0  0  0  0
  151.9451  136.7124  155.8202 O   0  0  0  0  0  0  0  0  0  0  0  0
  150.6862  138.1770  154.6356 N   0  0  0  0  0  0  0  0  0  0  0  0
  151.3810  139.4009  155.0189 C   0  0  0  0  0  0  0  0  0  0  0  0
  150.8315  139.9742  156.3399 C   0  0  0  0  0  0  0  0  0  0  0  0
  151.9344  140.4557  157.2877 C   0  0  0  0  0  0  0  0  0  0  0  0
  152.9125  139.7462  157.5252 O   0  0  0  0  0  0  0  0  0  0  0  0
  151.7643  141.6746  157.8228 N   0  0  0  0  0  0  0  0  0  0  0  0
  152.6824  142.3184  158.7591 C   0  0  0  0  0  0  0  0  0  0  0  0
  152.2484  142.0622  160.2152 C   0  0  0  0  0  0  0  0  0  0  0  0
  152.2884  143.4212  160.9159 C   0  0  0  0  0  0  0  0  0  0  0  0
  151.9904  144.4259  159.8078 C   0  0  0  0  0  0  0  0  0  0  0  0
  152.6971  143.8501  158.5799 C   0  0  0  0  0  0  0  0  0  0  0  0
  149.1352  133.5586  153.8207 S   0  0  0  0  0  0  0  0  0  0  0  0
  150.1169  130.1594  155.0977 H   0  0  0  0  0  0  0  0  0  0  0  0
  149.4313  130.5760  153.5187 H   0  0  0  0  0  0  0  0  0  0  0  0
  148.4238  130.6680  154.9740 H   0  0  0  0  0  0  0  0  0  0  0  0
  149.4615  136.3646  153.9152 H   0  0  0  0  0  0  0  0  0  0  0  0
  149.9012  138.2777  154.0086 H   0  0  0  0  0  0  0  0  0  0  0  0
  152.4397  139.1608  155.1252 H   0  0  0  0  0  0  0  0  0  0  0  0
  151.3089  140.1371  154.2159 H   0  0  0  0  0  0  0  0  0  0  0  0
  150.1606  140.8102  156.1382 H   0  0  0  0  0  0  0  0  0  0  0  0
  150.2384  139.2117  156.8477 H   0  0  0  0  0  0  0  0  0  0  0  0
  150.9354  142.1923  157.5693 H   0  0  0  0  0  0  0  0  0  0  0  0
  153.6901  141.9260  158.6087 H   0  0  0  0  0  0  0  0  0  0  0  0
  151.2278  141.6768  160.2510 H   0  0  0  0  0  0  0  0  0  0  0  0
  152.8855  141.3298  160.7120 H   0  0  0  0  0  0  0  0  0  0  0  0
  151.5827  143.4875  161.7445 H   0  0  0  0  0  0  0  0  0  0  0  0
  153.2880  143.6001  161.3142 H   0  0  0  0  0  0  0  0  0  0  0  0
  150.9151  144.4671  159.6283 H   0  0  0  0  0  0  0  0  0  0  0  0
  152.3270  145.4340  160.0523 H   0  0  0  0  0  0  0  0  0  0  0  0
  153.7313  144.1971  158.5644 H   0  0  0  0  0  0  0  0  0  0  0  0
  152.2353  144.1853  157.6500 H   0  0  0  0  0  0  0  0  0  0  0  0
  1  2  1  0  0  0  0
  1 21  1  0  0  0  0
  1 22  1  0  0  0  0
  1 23  1  0  0  0  0
  2 20  1  0  0  0  0
  2  3  2  0  0  0  0
  3  4  1  0  0  0  0
  4  5  2  0  0  0  0
  5  6  1  0  0  0  0
  5 20  1  0  0  0  0
  6  7  1  0  0  0  0
  6 24  1  0  0  0  0
  7  8  2  0  0  0  0
  7  9  1  0  0  0  0
  9 10  1  0  0  0  0
  9 25  1  0  0  0  0
 10 11  1  0  0  0  0
 10 26  1  0  0  0  0
 10 27  1  0  0  0  0
 11 12  1  0  0  0  0
 11 28  1  0  0  0  0
 11 29  1  0  0  0  0
 12 13  2  0  0  0  0
 12 14  1  0  0  0  0
 14 15  1  0  0  0  0
 14 30  1  0  0  0  0
 15 19  1  0  0  0  0
 15 16  1  0  0  0  0
 15 31  1  0  0  0  0
 16 17  1  0  0  0  0
 16 32  1  0  0  0  0
 16 33  1  0  0  0  0
 17 18  1  0  0  0  0
 17 34  1  0  0  0  0
 17 35  1  0  0  0  0
 18 19  1  0  0  0  0
 18 36  1  0  0  0  0
 18 37  1  0  0  0  0
 19 38  1  0  0  0  0
 19 39  1  0  0  0  0
M  END
> <s_m_source_file>
AV-unprocessed.smi

> <i_m_source_file_index>
834

> <i_lp_mmshare_version>
43012

> <i_f3d_flags>
0

> <s_epik_input>
W0NIM11jMW5uYyhzMSlbTkhdQyg9TylbTkhdW0NIMl1bQ0gyXUMoPU8pW05IXVtDSF0yW0NIMl1bQ0gyXVtDSDJdW0NIMl0y

> <s_epik_cmdline>
J2VwaWtfcHl0aG9uJywgJy1waCcsICc3LjAnLCAnLXRuJywgJzgnLCAnLW1hJywgJzIwMCcsICctbWV0YWxfYmluZGluZycsICctaW1hZScsICc8aW5maWxlLm1hZT4nLCAnLW9tYWUnLCAnPG91dGZpbGUubWFlPic=

> <r_lp_tautomer_probability>
1

> <r_epik_Ionization_Penalty>
0.00240541

> <r_epik_Ionization_Penalty_Charging>
0

> <r_epik_Ionization_Penalty_Neutral>
0.00240541

> <r_epik_State_Penalty>
-0

> <r_epik_Charging_Adjusted_Penalty>
0

> <i_epik_Tot_Q>
0

> <i_epik_Tot_abs_Q>
0

> <r_epik_Metal_State_Penalty>
0.349697

> <b_epik_Metal_Only>
0

> <s_lp_Force_Field>
OPLS_2005

> <r_lp_Energy>
16.3225

> <b_lp_Chiralities_Consistent>
1

> <s_lp_Variant>
AV-unprocessed.smi:834-1

> <Gold.Version>
5.8.1

> <Gold.Id.Protein>
6NUR|6NUR_protein|mol2

> <Gold.PLP.Fitness>
45.4910

> <Gold.PLP.PLP>
-39.2631

> <Gold.PLP.part.hbond>
-3.5483

> <Gold.PLP.part.metal>
0.0000

> <Gold.PLP.part.buried>
-2.5427

> <Gold.PLP.part.nonpolar>
-33.0574

> <Gold.PLP.part.repulsive>
0.2745

> <Gold.PLP.ligand.clash>
0.0000

> <Gold.PLP.ligand.torsion>
0.9917

> <Gold.PLP.Chemscore.Hbond>
2.7296

> <Gold.PLP.Chemscore.CHOScore>
0.0000

> <Gold.PLP.Chemscore.Metal>
0.0000

> <Gold.Chemscore.Hbonds>
donor molecule, donor type, donor heavy atom, donor atom, acceptor molecule, acceptor atom, score
      L1  H     6    24       P1  7948  0.62
      P1  H  7997  8008       L1    13  1.00
      P1  H 10752 10763       L1     8  1.00

> <Gold.PLP.Chemscore.Internal.Correction>
0.0227

> <Gold.Rescore>
     Score         DG    S(hbond)    S(metal)    S(lipo)     H(rot)  DE(clash)    DE(int)     intcor
     16.37     -18.91       2.50        0.00      87.00       1.99       0.18       2.36       ----

> <Gold.Chemscore.Fitness>
16.3717

> <Gold.Chemscore.DG>
-18.9120

> <Gold.Chemscore.ZeroCoef>
-5.4800

> <Gold.Chemscore.Hbond>
2.4956

> <Gold.Chemscore.Metal>
0.0000

> <Gold.Chemscore.Lipo>
87.0049

> <Gold.Chemscore.Internal_Hbond>
0.0000

> <Gold.Chemscore.DEClash>
0.1792

> <Gold.Chemscore.DEInternal>
2.3612

> <Gold.Chemscore.Rot>
1.9855

> <Gold.Chemscore.Internal.Correction>
   9.000000E+99

> <Gold.Chemscore.Hbonds>
donor molecule, donor type, donor heavy atom, donor atom, acceptor molecule, acceptor atom, score
      L1  H     6    24       P1  7948  0.48
      P1  H  7997  8008       L1    13  0.97
      P1  H 10752 10763       L1     8  0.69

> <Gold.Chemscore.Hbond.Weighted>
-8.3353

> <Gold.Chemscore.Metal.Weighted>
-0.0000

> <Gold.Chemscore.Lipo.Weighted>
-10.1796

> <Gold.Chemscore.Internal_Hbond.Weighted>
0.0000

> <Gold.Chemscore.DEClash.Weighted>
0.1792

> <Gold.Chemscore.DEInternal.Weighted>
2.3612

> <Gold.Chemscore.Rot.Weighted>
5.0828

> <Gold.Chemscore.Internal.Correction.Weighted>
   9.000000E+99

> <Gold.Protein.RotatedTorsions>
[ 6907 6896 6895 6894 ] final   56.02 input  -60.11 | X-H torsion
[ 7974 7965 7964 7962 ] final -156.07 input  175.53 | X-H torsion
[ 8008 7997 7996 7995 ] final  -85.16 input   59.86 | X-H torsion
[ 10167 10162 10161 10158 ] final  -90.07 input  -65.29 | X-H torsion
[ 10718 10713 10712 10709 ] final  -83.99 input   66.30 | X-H torsion
[ 10763 10752 10751 10750 ] final   85.91 input  -60.55 | X-H torsion
[ 11005 11000 10999 10996 ] final    3.68 input  -57.11 | X-H torsion

> <Gold.Protein.ActiveResidues>
 VAL166  LYS551  ARG553  GLY616  TRP617  ASP618  TYR619  PRO620  LYS621  CYS622 
 ASP623  PHE694  ASN695  SER759  ASP760  ASP761  ALA762  ILE779  LEU786  VAL792 
 PHE793  MET794  SER795  GLU796  ALA797  LYS798  CYS799  TRP800  GLU811  SER814 

> <Gold.Protein.RotatedAtoms>
  152.3596  134.6891  160.0211 H   0  0  0  0  0  0  0  0  0  0  0  0  # atno 6907 bound_to 6896
  151.7219  133.3309  159.3325 H   0  0  0  0  0  0  0  0  0  0  0  0  # atno 6908 bound_to 6896
  150.7595  134.6375  159.6264 H   0  0  0  0  0  0  0  0  0  0  0  0  # atno 6909 bound_to 6896
  144.7610  140.4161  143.5976 H   0  0  0  0  0  0  0  0  0  0  0  0  # atno 7974 bound_to 7965
  154.6377  140.0595  156.9808 H   0  0  0  0  0  0  0  0  0  0  0  0  # atno 8008 bound_to 7997
  155.1566  140.3279  155.4401 H   0  0  0  0  0  0  0  0  0  0  0  0  # atno 8009 bound_to 7997
  156.2515  140.1938  156.6675 H   0  0  0  0  0  0  0  0  0  0  0  0  # atno 8010 bound_to 7997
  140.3585  143.2854  151.9642 H   0  0  0  0  0  0  0  0  0  0  0  0  # atno 10167 bound_to 10162
  156.0011  130.4683  150.4341 H   0  0  0  0  0  0  0  0  0  0  0  0  # atno 10718 bound_to 10713
  153.1520  135.4600  154.9650 H   0  0  0  0  0  0  0  0  0  0  0  0  # atno 10763 bound_to 10752
  154.7832  135.3195  154.7947 H   0  0  0  0  0  0  0  0  0  0  0  0  # atno 10764 bound_to 10752
  153.8451  135.6926  153.4853 H   0  0  0  0  0  0  0  0  0  0  0  0  # atno 10765 bound_to 10752
  140.5904  133.9929  155.8086 H   0  0  0  0  0  0  0  0  0  0  0  0  # atno 11005 bound_to 11000
  145.6620  139.1583  143.2803 LP  0  0  0  0  0  0  0  0  0  0  0  0  # atno 17320 bound_to 7965
  146.1673  140.6699  142.9250 LP  0  0  0  0  0  0  0  0  0  0  0  0  # atno 17321 bound_to 7965
  139.4817  144.6013  151.7600 LP  0  0  0  0  0  0  0  0  0  0  0  0  # atno 17342 bound_to 10162
  140.5150  144.0967  150.6006 LP  0  0  0  0  0  0  0  0  0  0  0  0  # atno 17343 bound_to 10162
  157.2388  131.0520  151.2449 LP  0  0  0  0  0  0  0  0  0  0  0  0  # atno 17370 bound_to 10713
  157.3641  130.7146  149.6521 LP  0  0  0  0  0  0  0  0  0  0  0  0  # atno 17371 bound_to 10713
  141.0938  133.9875  157.3193 LP  0  0  0  0  0  0  0  0  0  0  0  0  # atno 17394 bound_to 11000
  139.9276  135.0201  156.8290 LP  0  0  0  0  0  0  0  0  0  0  0  0  # atno 17395 bound_to 11000

$$$$
