AV-unprocessed.smi:72|AV-procd|sdf|747|dock10
  -GOLD-   2262017 83D 1   1.00000     0.00000
 Structure written by MMmdl.
 29 30  0  0  0  0  0  0  0  0  1 V2000
  149.2286  142.2763  154.7818 N   0  0  0  0  0  0  0  0  0  0  0  0
  149.9529  141.4683  155.6331 C   0  0  0  0  0  0  0  0  0  0  0  0
  150.4814  140.2939  155.0795 N   0  0  0  0  0  0  0  0  0  0  0  0
  151.1689  139.5364  155.8745 C   0  0  0  0  0  0  0  0  0  0  0  0
  151.3869  139.9023  157.2627 N   0  0  0  0  0  0  0  0  0  0  0  0
  152.1724  139.0156  158.2021 C   0  0  2  0  0  0  0  0  0  0  0  0
  153.4764  138.8782  157.7210 O   0  0  0  0  0  0  0  0  0  0  0  0
  153.9068  137.5346  157.8985 C   0  0  2  0  0  0  0  0  0  0  0  0
  155.0798  137.1933  156.9626 C   0  0  0  0  0  0  0  0  0  0  0  0
  154.8386  137.7106  155.6714 O   0  0  0  0  0  0  0  0  0  0  0  0
  152.6222  136.7246  157.6740 C   0  0  2  0  0  0  0  0  0  0  0  0
  152.3771  136.5220  156.2940 O   0  0  0  0  0  0  0  0  0  0  0  0
  151.5426  137.6133  158.2799 C   0  0  1  0  0  0  0  0  0  0  0  0
  151.3020  137.2373  159.6209 O   0  0  0  0  0  0  0  0  0  0  0  0
  150.7973  141.0938  157.7657 C   0  0  0  0  0  0  0  0  0  0  0  0
  150.9300  141.3985  158.9511 O   0  0  0  0  0  0  0  0  0  0  0  0
  150.0688  141.8788  156.8637 N   0  0  0  0  0  0  0  0  0  0  0  0
  152.2128  139.5367  159.1602 H   0  0  0  0  0  0  0  0  0  0  0  0
  154.2087  137.4056  158.9401 H   0  0  0  0  0  0  0  0  0  0  0  0
  152.6744  135.7446  158.1504 H   0  0  0  0  0  0  0  0  0  0  0  0
  150.6019  137.5643  157.7286 H   0  0  0  0  0  0  0  0  0  0  0  0
  148.8003  143.1442  155.0690 H   0  0  0  0  0  0  0  0  0  0  0  0
  149.0720  142.0595  153.8082 H   0  0  0  0  0  0  0  0  0  0  0  0
  151.6157  138.5925  155.5598 H   0  0  0  0  0  0  0  0  0  0  0  0
  155.9981  137.6534  157.3289 H   0  0  0  0  0  0  0  0  0  0  0  0
  155.2503  136.1173  156.9134 H   0  0  0  0  0  0  0  0  0  0  0  0
  155.0661  138.6278  155.6670 H   0  0  0  0  0  0  0  0  0  0  0  0
  151.4431  136.5234  156.1514 H   0  0  0  0  0  0  0  0  0  0  0  0
  151.1314  138.0187  160.1246 H   0  0  0  0  0  0  0  0  0  0  0  0
  1  2  1  0  0  0  0
  1 22  1  0  0  0  0
  1 23  1  0  0  0  0
  2 17  2  0  0  0  0
  2  3  1  0  0  0  0
  3  4  2  0  0  0  0
  4  5  1  0  0  0  0
  4 24  1  0  0  0  0
  5  6  1  0  0  0  0
  5 15  1  0  0  0  0
  6 18  1  0  0  0  0
  6 13  1  0  0  0  0
  6  7  1  0  0  0  0
  7  8  1  0  0  0  0
  8 19  1  0  0  0  0
  8  9  1  0  0  0  0
  8 11  1  0  0  0  0
  9 10  1  0  0  0  0
  9 25  1  0  0  0  0
  9 26  1  0  0  0  0
 10 27  1  0  0  0  0
 11 20  1  0  0  0  0
 11 12  1  0  0  0  0
 11 13  1  0  0  0  0
 12 28  1  0  0  0  0
 13 21  1  0  0  0  0
 13 14  1  0  0  0  0
 14 29  1  0  0  0  0
 15 16  2  0  0  0  0
 15 17  1  0  0  0  0
M  END
> <s_m_source_file>
AV-unprocessed.smi

> <i_m_source_file_index>
72

> <i_lp_mmshare_version>
43012

> <i_f3d_flags>
0

> <s_epik_input>
W05IMl1jMW5bY0hdbihjKD1PKW4xKVtDQEBIXTJPW0NASF0oW0NIMl1bT0hdKVtDQEBIXShbT0hdKVtDQEhdMltPSF0=

> <s_epik_cmdline>
J2VwaWtfcHl0aG9uJywgJy1waCcsICc3LjAnLCAnLXRuJywgJzgnLCAnLW1hJywgJzIwMCcsICctbWV0YWxfYmluZGluZycsICctaW1hZScsICc8aW5maWxlLm1hZT4nLCAnLW9tYWUnLCAnPG91dGZpbGUubWFlPic=

> <r_lp_tautomer_probability>
4.77166e-05

> <r_epik_Ionization_Penalty>
1.3546

> <r_epik_Ionization_Penalty_Charging>
1.46833e-10

> <r_epik_Ionization_Penalty_Neutral>
1.3546

> <r_epik_State_Penalty>
3.51908

> <r_epik_Charging_Adjusted_Penalty>
3.51908

> <i_epik_Tot_Q>
0

> <i_epik_Tot_abs_Q>
0

> <r_epik_Metal_State_Penalty>
3.44088

> <b_epik_Metal_Only>
1

> <s_epik_Chemistry_Notes>
This compound contains an acetal/aminal-like group ( X-CH(R)-Y where X, Y are N, S, or O) that may be acid/base labile, releasing an aldehyde.

> <s_lp_Force_Field>
OPLS_2005

> <r_lp_Energy>
27.1219

> <b_lp_Chiralities_Consistent>
1

> <s_lp_Variant>
AV-unprocessed.smi:72-85

> <Gold.Version>
5.8.1

> <Gold.Id.Protein>
6NUR|6NUR_protein|mol2

> <Gold.PLP.Fitness>
36.8198

> <Gold.PLP.PLP>
-22.0763

> <Gold.PLP.part.hbond>
-7.0554

> <Gold.PLP.part.metal>
0.0000

> <Gold.PLP.part.buried>
-5.2756

> <Gold.PLP.part.nonpolar>
-10.8459

> <Gold.PLP.part.repulsive>
1.4315

> <Gold.PLP.ligand.clash>
0.0000

> <Gold.PLP.ligand.torsion>
0.1221

> <Gold.PLP.Chemscore.Hbond>
4.9920

> <Gold.PLP.Chemscore.CHOScore>
0.0000

> <Gold.PLP.Chemscore.Metal>
0.0000

> <Gold.Chemscore.Hbonds>
donor molecule, donor type, donor heavy atom, donor atom, acceptor molecule, acceptor atom, score
      L1  H     1    22       P1  8028  1.00
      P1  H  6896  6907       L1    14  0.83
      P1  H  7989  7998       L1     3  0.99
      P1  H  7997  8009       L1     7  0.98
      P1  H 10752 10764       L1    12  1.00

> <Gold.PLP.Chemscore.Internal.Correction>
0.0117

> <Gold.Rescore>
     Score         DG    S(hbond)    S(metal)    S(lipo)     H(rot)  DE(clash)    DE(int)     intcor
     11.11     -11.32       4.31        0.00      15.59       4.06       0.03       0.18       ----

> <Gold.Chemscore.Fitness>
11.1073

> <Gold.Chemscore.DG>
-11.3192

> <Gold.Chemscore.ZeroCoef>
-5.4800

> <Gold.Chemscore.Hbond>
4.3141

> <Gold.Chemscore.Metal>
0.0000

> <Gold.Chemscore.Lipo>
15.5868

> <Gold.Chemscore.Internal_Hbond>
0.0000

> <Gold.Chemscore.DEClash>
0.0310

> <Gold.Chemscore.DEInternal>
0.1810

> <Gold.Chemscore.Rot>
4.0600

> <Gold.Chemscore.Internal.Correction>
   9.000000E+99

> <Gold.Chemscore.Hbonds>
donor molecule, donor type, donor heavy atom, donor atom, acceptor molecule, acceptor atom, score
      L1  H     1    22       P1  8028  0.97
      P1  H  6896  6907       L1    14  0.73
      P1  H  7989  7998       L1     3  0.37
      P1  H  7997  8009       L1     7  0.92
      P1  H 10752 10764       L1    12  0.64

> <Gold.Chemscore.Hbond.Weighted>
-14.4092

> <Gold.Chemscore.Metal.Weighted>
-0.0000

> <Gold.Chemscore.Lipo.Weighted>
-1.8237

> <Gold.Chemscore.Internal_Hbond.Weighted>
0.0000

> <Gold.Chemscore.DEClash.Weighted>
0.0310

> <Gold.Chemscore.DEInternal.Weighted>
0.1810

> <Gold.Chemscore.Rot.Weighted>
10.3936

> <Gold.Chemscore.Internal.Correction.Weighted>
   9.000000E+99

> <Gold.Protein.RotatedTorsions>
[ 6907 6896 6895 6894 ] final   -8.71 input  -60.11 | X-H torsion
[ 7974 7965 7964 7962 ] final -144.50 input  175.53 | X-H torsion
[ 8008 7997 7996 7995 ] final  177.98 input   59.86 | X-H torsion
[ 10167 10162 10161 10158 ] final   84.88 input  -65.29 | X-H torsion
[ 10718 10713 10712 10709 ] final  177.35 input   66.30 | X-H torsion
[ 10763 10752 10751 10750 ] final  -31.53 input  -60.55 | X-H torsion
[ 11005 11000 10999 10996 ] final -109.40 input  -57.11 | X-H torsion

> <Gold.Protein.ActiveResidues>
 VAL166  LYS551  ARG553  GLY616  TRP617  ASP618  TYR619  PRO620  LYS621  CYS622 
 ASP623  PHE694  ASN695  SER759  ASP760  ASP761  ALA762  ILE779  LEU786  VAL792 
 PHE793  MET794  SER795  GLU796  ALA797  LYS798  CYS799  TRP800  GLU811  SER814 

> <Gold.Protein.RotatedAtoms>
  151.4293  135.1007  159.9637 H   0  0  0  0  0  0  0  0  0  0  0  0  # atno 6907 bound_to 6896
  152.4962  133.8633  159.7272 H   0  0  0  0  0  0  0  0  0  0  0  0  # atno 6908 bound_to 6896
  150.9167  133.6872  159.2869 H   0  0  0  0  0  0  0  0  0  0  0  0  # atno 6909 bound_to 6896
  144.8293  140.5702  143.5526 H   0  0  0  0  0  0  0  0  0  0  0  0  # atno 7974 bound_to 7965
  156.0597  140.1345  156.9955 H   0  0  0  0  0  0  0  0  0  0  0  0  # atno 8008 bound_to 7997
  154.4475  140.0994  156.6569 H   0  0  0  0  0  0  0  0  0  0  0  0  # atno 8009 bound_to 7997
  155.5397  140.3460  155.4446 H   0  0  0  0  0  0  0  0  0  0  0  0  # atno 8010 bound_to 7997
  139.9035  144.6315  150.8612 H   0  0  0  0  0  0  0  0  0  0  0  0  # atno 10167 bound_to 10162
  156.9066  130.9896  151.3027 H   0  0  0  0  0  0  0  0  0  0  0  0  # atno 10718 bound_to 10713
  153.7988  135.6892  153.4859 H   0  0  0  0  0  0  0  0  0  0  0  0  # atno 10763 bound_to 10752
  153.1702  135.4546  154.9890 H   0  0  0  0  0  0  0  0  0  0  0  0  # atno 10764 bound_to 10752
  154.8015  135.3339  154.7478 H   0  0  0  0  0  0  0  0  0  0  0  0  # atno 10765 bound_to 10752
  141.0849  133.9155  157.2207 H   0  0  0  0  0  0  0  0  0  0  0  0  # atno 11005 bound_to 11000
  145.4931  139.1487  143.3699 LP  0  0  0  0  0  0  0  0  0  0  0  0  # atno 17320 bound_to 7965
  146.2597  140.5069  142.8859 LP  0  0  0  0  0  0  0  0  0  0  0  0  # atno 17321 bound_to 7965
  140.7701  143.3419  151.2190 LP  0  0  0  0  0  0  0  0  0  0  0  0  # atno 17342 bound_to 10162
  139.7005  143.9541  152.2903 LP  0  0  0  0  0  0  0  0  0  0  0  0  # atno 17343 bound_to 10162
  157.5993  130.8501  149.8777 LP  0  0  0  0  0  0  0  0  0  0  0  0  # atno 17370 bound_to 10713
  156.0556  130.3709  150.1099 LP  0  0  0  0  0  0  0  0  0  0  0  0  # atno 17371 bound_to 10713
  139.9667  135.0140  156.9404 LP  0  0  0  0  0  0  0  0  0  0  0  0  # atno 17394 bound_to 11000
  140.5385  134.0744  155.7335 LP  0  0  0  0  0  0  0  0  0  0  0  0  # atno 17395 bound_to 11000

$$$$
