AV-unprocessed.smi:1947|AV-procd|sdf|7868|dock8
  -GOLD-   2272010 23D 1   1.00000     0.00000
 Structure written by MMmdl.
 39 40  0  0  0  0  0  0  0  0  1 V2000
  153.7318  140.5738  159.9267 C   0  0  0  0  0  0  0  0  0  0  0  0
  152.6875  141.6708  160.1898 C   0  0  1  0  0  0  0  0  0  0  0  0
  153.1803  142.6395  161.2834 C   0  0  0  0  0  0  0  0  0  0  0  0
  152.1563  143.7488  161.5657 C   0  0  0  0  0  0  0  0  0  0  0  0
  151.8088  144.5161  160.2826 C   0  0  0  0  0  0  0  0  0  0  0  0
  151.3078  143.5626  159.1880 C   0  0  0  0  0  0  0  0  0  0  0  0
  152.3283  142.4407  158.8985 C   0  0  2  0  0  0  0  0  0  0  0  0
  151.7611  141.5123  157.9832 O   0  0  0  0  0  0  0  0  0  0  0  0
  151.3077  142.0861  156.7658 C   0  0  0  0  0  0  0  0  0  0  0  0
  149.8426  141.6832  156.5464 C   0  0  0  0  0  0  0  0  0  0  0  0
  148.9298  142.5846  157.2410 N   0  0  0  0  0  0  0  0  0  0  0  0
  148.2668  142.2919  158.3682 C   0  0  0  0  0  0  0  0  0  0  0  0
  148.3871  141.2236  158.9675 O   0  0  0  0  0  0  0  0  0  0  0  0
  147.4656  143.3044  158.7365 N   0  0  0  0  0  0  0  0  0  0  0  0
  146.5978  143.3663  159.8551 C   0  0  0  0  0  0  0  0  0  0  0  0
  146.7261  142.4299  160.8025 N   0  0  0  0  0  0  0  0  0  0  0  0
  145.8172  142.6090  161.8380 N   0  0  0  0  0  0  0  0  0  0  0  0
  145.0379  143.6746  161.6304 C   0  0  0  0  0  0  0  0  0  0  0  0
  145.3356  144.5664  160.1488 S   0  0  0  0  0  0  0  0  0  0  0  0
  154.6579  140.9943  159.5339 H   0  0  0  0  0  0  0  0  0  0  0  0
  153.3670  139.8424  159.2052 H   0  0  0  0  0  0  0  0  0  0  0  0
  153.9734  140.0346  160.8428 H   0  0  0  0  0  0  0  0  0  0  0  0
  151.7823  141.1852  160.5577 H   0  0  0  0  0  0  0  0  0  0  0  0
  153.3837  142.0905  162.2034 H   0  0  0  0  0  0  0  0  0  0  0  0
  154.1261  143.0895  160.9781 H   0  0  0  0  0  0  0  0  0  0  0  0
  151.2508  143.3131  161.9900 H   0  0  0  0  0  0  0  0  0  0  0  0
  152.5498  144.4360  162.3151 H   0  0  0  0  0  0  0  0  0  0  0  0
  151.0503  145.2704  160.4945 H   0  0  0  0  0  0  0  0  0  0  0  0
  152.6889  145.0529  159.9263 H   0  0  0  0  0  0  0  0  0  0  0  0
  150.3600  143.1210  159.4985 H   0  0  0  0  0  0  0  0  0  0  0  0
  151.0975  144.1349  158.2850 H   0  0  0  0  0  0  0  0  0  0  0  0
  153.2424  142.8707  158.4840 H   0  0  0  0  0  0  0  0  0  0  0  0
  151.4023  143.1719  156.7784 H   0  0  0  0  0  0  0  0  0  0  0  0
  151.9186  141.7194  155.9400 H   0  0  0  0  0  0  0  0  0  0  0  0
  149.6101  141.6675  155.4805 H   0  0  0  0  0  0  0  0  0  0  0  0
  149.6764  140.6710  156.9159 H   0  0  0  0  0  0  0  0  0  0  0  0
  148.7698  143.4847  156.8129 H   0  0  0  0  0  0  0  0  0  0  0  0
  147.4681  144.1212  158.1434 H   0  0  0  0  0  0  0  0  0  0  0  0
  144.2815  143.9371  162.3549 H   0  0  0  0  0  0  0  0  0  0  0  0
  1  2  1  0  0  0  0
  1 20  1  0  0  0  0
  1 21  1  0  0  0  0
  1 22  1  0  0  0  0
  2  7  1  0  0  0  0
  2  3  1  0  0  0  0
  2 23  1  0  0  0  0
  3  4  1  0  0  0  0
  3 24  1  0  0  0  0
  3 25  1  0  0  0  0
  4  5  1  0  0  0  0
  4 26  1  0  0  0  0
  4 27  1  0  0  0  0
  5  6  1  0  0  0  0
  5 28  1  0  0  0  0
  5 29  1  0  0  0  0
  6  7  1  0  0  0  0
  6 30  1  0  0  0  0
  6 31  1  0  0  0  0
  7  8  1  0  0  0  0
  7 32  1  0  0  0  0
  8  9  1  0  0  0  0
  9 10  1  0  0  0  0
  9 33  1  0  0  0  0
  9 34  1  0  0  0  0
 10 11  1  0  0  0  0
 10 35  1  0  0  0  0
 10 36  1  0  0  0  0
 11 12  1  0  0  0  0
 11 37  1  0  0  0  0
 12 13  2  0  0  0  0
 12 14  1  0  0  0  0
 14 15  1  0  0  0  0
 14 38  1  0  0  0  0
 15 19  1  0  0  0  0
 15 16  2  0  0  0  0
 16 17  1  0  0  0  0
 17 18  2  0  0  0  0
 18 19  1  0  0  0  0
 18 39  1  0  0  0  0
M  END
> <s_m_source_file>
AV-unprocessed.smi

> <i_m_source_file_index>
1947

> <i_lp_mmshare_version>
43012

> <i_f3d_flags>
0

> <s_epik_input>
W0NIM11bQ0BASF0xW0NIMl1bQ0gyXVtDSDJdW0NIMl1bQ0BIXTFPW0NIMl1bQ0gyXVtOSF1DKD1PKVtOSF1jMm5uW2NIXXMy

> <s_epik_cmdline>
J2VwaWtfcHl0aG9uJywgJy1waCcsICc3LjAnLCAnLXRuJywgJzgnLCAnLW1hJywgJzIwMCcsICctbWV0YWxfYmluZGluZycsICctaW1hZScsICc8aW5maWxlLm1hZT4nLCAnLW9tYWUnLCAnPG91dGZpbGUubWFlPic=

> <r_lp_tautomer_probability>
1

> <r_epik_Ionization_Penalty>
0.00220897

> <r_epik_Ionization_Penalty_Charging>
0

> <r_epik_Ionization_Penalty_Neutral>
0.00220897

> <r_epik_State_Penalty>
-0

> <r_epik_Charging_Adjusted_Penalty>
0

> <i_epik_Tot_Q>
0

> <i_epik_Tot_abs_Q>
0

> <r_epik_Metal_State_Penalty>
0.345002

> <b_epik_Metal_Only>
0

> <s_lp_Force_Field>
OPLS_2005

> <r_lp_Energy>
7.32574

> <b_lp_Chiralities_Consistent>
1

> <s_lp_Variant>
AV-unprocessed.smi:1947-4

> <Gold.Version>
5.8.1

> <Gold.Id.Protein>
6NUR|6NUR_protein|mol2

> <Gold.PLP.Fitness>
46.1234

> <Gold.PLP.PLP>
-35.9972

> <Gold.PLP.part.hbond>
-6.0000

> <Gold.PLP.part.metal>
0.0000

> <Gold.PLP.part.buried>
-3.1236

> <Gold.PLP.part.nonpolar>
-28.1166

> <Gold.PLP.part.repulsive>
0.1605

> <Gold.PLP.ligand.clash>
0.0000

> <Gold.PLP.ligand.torsion>
0.6383

> <Gold.PLP.Chemscore.Hbond>
3.7920

> <Gold.PLP.Chemscore.CHOScore>
0.0000

> <Gold.PLP.Chemscore.Metal>
0.0000

> <Gold.Chemscore.Hbonds>
donor molecule, donor type, donor heavy atom, donor atom, acceptor molecule, acceptor atom, score
      L1  H    11    37       P1  8028  1.00
      L1  H    14    38       P1  8029  0.96
      P1  H  6933  6944       L1    16  0.66
      P1  H  6934  6946       L1    16  0.90

> <Gold.PLP.Chemscore.Internal.Correction>
0.0268

> <Gold.Rescore>
     Score         DG    S(hbond)    S(metal)    S(lipo)     H(rot)  DE(clash)    DE(int)     intcor
     17.40     -20.70       2.55        0.00      99.60       1.94       1.26       2.04       ----

> <Gold.Chemscore.Fitness>
17.4027

> <Gold.Chemscore.DG>
-20.6981

> <Gold.Chemscore.ZeroCoef>
-5.4800

> <Gold.Chemscore.Hbond>
2.5532

> <Gold.Chemscore.Metal>
0.0000

> <Gold.Chemscore.Lipo>
99.5986

> <Gold.Chemscore.Internal_Hbond>
0.0000

> <Gold.Chemscore.DEClash>
1.2595

> <Gold.Chemscore.DEInternal>
2.0360

> <Gold.Chemscore.Rot>
1.9385

> <Gold.Chemscore.Internal.Correction>
   9.000000E+99

> <Gold.Chemscore.Hbonds>
donor molecule, donor type, donor heavy atom, donor atom, acceptor molecule, acceptor atom, score
      L1  H    11    37       P1  8028  0.55
      L1  H    14    38       P1  8029  0.31
      P1  H  6933  6944       L1    16  0.42
      P1  H  6934  6946       L1    16  0.37

> <Gold.Chemscore.Hbond.Weighted>
-8.5276

> <Gold.Chemscore.Metal.Weighted>
-0.0000

> <Gold.Chemscore.Lipo.Weighted>
-11.6530

> <Gold.Chemscore.Internal_Hbond.Weighted>
0.0000

> <Gold.Chemscore.DEClash.Weighted>
1.2595

> <Gold.Chemscore.DEInternal.Weighted>
2.0360

> <Gold.Chemscore.Rot.Weighted>
4.9625

> <Gold.Chemscore.Internal.Correction.Weighted>
   9.000000E+99

> <Gold.Protein.RotatedTorsions>
[ 6907 6896 6895 6894 ] final   39.34 input  -60.11 | X-H torsion
[ 7974 7965 7964 7962 ] final  -39.47 input  175.53 | X-H torsion
[ 8008 7997 7996 7995 ] final   92.28 input   59.86 | X-H torsion
[ 10167 10162 10161 10158 ] final  123.51 input  -65.29 | X-H torsion
[ 10718 10713 10712 10709 ] final  157.16 input   66.30 | X-H torsion
[ 10763 10752 10751 10750 ] final -157.20 input  -60.55 | X-H torsion
[ 11005 11000 10999 10996 ] final  -90.89 input  -57.11 | X-H torsion

> <Gold.Protein.ActiveResidues>
 VAL166  LYS551  ARG553  GLY616  TRP617  ASP618  TYR619  PRO620  LYS621  CYS622 
 ASP623  PHE694  ASN695  SER759  ASP760  ASP761  ALA762  ILE779  LEU786  VAL792 
 PHE793  MET794  SER795  GLU796  ALA797  LYS798  CYS799  TRP800  GLU811  SER814 

> <Gold.Protein.RotatedAtoms>
  152.1683  134.8855  160.0536 H   0  0  0  0  0  0  0  0  0  0  0  0  # atno 6907 bound_to 6896
  151.9825  133.3757  159.4121 H   0  0  0  0  0  0  0  0  0  0  0  0  # atno 6908 bound_to 6896
  150.6898  134.3946  159.5136 H   0  0  0  0  0  0  0  0  0  0  0  0  # atno 6909 bound_to 6896
  146.0393  140.6629  142.9095 H   0  0  0  0  0  0  0  0  0  0  0  0  # atno 7974 bound_to 7965
  156.0335  140.3327  155.7166 H   0  0  0  0  0  0  0  0  0  0  0  0  # atno 8008 bound_to 7997
  155.5849  140.0640  157.2791 H   0  0  0  0  0  0  0  0  0  0  0  0  # atno 8009 bound_to 7997
  154.4363  140.1837  156.1003 H   0  0  0  0  0  0  0  0  0  0  0  0  # atno 8010 bound_to 7997
  139.5795  144.6979  151.3565 H   0  0  0  0  0  0  0  0  0  0  0  0  # atno 10167 bound_to 10162
  157.1952  131.0663  151.2057 H   0  0  0  0  0  0  0  0  0  0  0  0  # atno 10718 bound_to 10713
  154.7654  135.3129  154.8296 H   0  0  0  0  0  0  0  0  0  0  0  0  # atno 10763 bound_to 10752
  153.9046  135.6812  153.4758 H   0  0  0  0  0  0  0  0  0  0  0  0  # atno 10764 bound_to 10752
  153.1259  135.4801  154.9205 H   0  0  0  0  0  0  0  0  0  0  0  0  # atno 10765 bound_to 10752
  141.1556  133.7721  156.9802 H   0  0  0  0  0  0  0  0  0  0  0  0  # atno 11005 bound_to 11000
  144.7067  140.3879  143.7113 LP  0  0  0  0  0  0  0  0  0  0  0  0  # atno 17320 bound_to 7965
  145.6911  139.1639  143.2646 LP  0  0  0  0  0  0  0  0  0  0  0  0  # atno 17321 bound_to 7965
  140.7075  143.7477  150.7507 LP  0  0  0  0  0  0  0  0  0  0  0  0  # atno 17342 bound_to 10162
  140.1005  143.4792  152.2428 LP  0  0  0  0  0  0  0  0  0  0  0  0  # atno 17343 bound_to 10162
  157.3821  130.7237  149.6637 LP  0  0  0  0  0  0  0  0  0  0  0  0  # atno 17370 bound_to 10713
  155.9707  130.4169  150.4255 LP  0  0  0  0  0  0  0  0  0  0  0  0  # atno 17371 bound_to 10713
  140.1071  134.9500  157.2010 LP  0  0  0  0  0  0  0  0  0  0  0  0  # atno 17394 bound_to 11000
  140.3242  134.2882  155.7240 LP  0  0  0  0  0  0  0  0  0  0  0  0  # atno 17395 bound_to 11000

$$$$
