#       Name:                AV-unprocessed.smi:370
#       Creating user name   scv26
#       Creation time:       Thu Mar 26 22:37:36 2020


#       File generated by GOLD software.
#

@<TRIPOS>MOLECULE
AV-unprocessed.smi:370
    50    51     1
SMALL
NO_CHARGES


@<TRIPOS>ATOM
      1 ****        -4.3996   3.9907  -4.0763 C.3            1 S1                 0.0000
      2 ****        -3.7070   3.4324  -2.8808 C.2            1 S1                 0.0000
      3 ****        -3.1221   2.2244  -2.6254 C.2            1 S1                 0.0000
      4 ****        -2.6581   2.3712  -1.2857 C.2            1 S1                 0.0000
      5 ****        -1.9764   1.3900  -0.5207 N.am           1 S1                 0.0000
      6 ****        -1.5481   0.1774  -0.9098 C.2            1 S1                 0.0000
      7 ****        -1.6561  -0.2858  -2.0451 O.2            1 S1                 0.0000
      8 ****        -0.9660  -0.4761   0.1055 N.am           1 S1                 0.0000
      9 ****        -0.3611  -1.8063   0.0355 C.3            1 S1                 0.0000
     10 ****         1.1917  -1.7668   0.1446 C.3            1 S1                 0.0000
     11 ****         1.6857  -3.2338   0.1570 C.3            1 S1                 0.0000
     12 ****         1.7092  -1.1231  -1.1671 C.3            1 S1                 0.0000
     13 ****         1.6398  -0.9906   1.3354 N.3            1 S1                 0.0000
     14 ****         1.1299  -1.4823   2.6211 C.3            1 S1                 0.0000
     15 ****         1.5279  -0.5656   3.7900 C.3            1 S1                 0.0000
     16 ****         2.9433  -0.4344   3.8339 O.3            1 S1                 0.0000
     17 ****         3.4757   0.0964   2.6266 C.3            1 S1                 0.0000
     18 ****         3.0920  -0.8115   1.4457 C.3            1 S1                 0.0000
     19 ****        -2.9422   3.5557  -0.7760 N.2            1 S1                 0.0000
     20 ****        -3.6123   4.2444  -1.7938 O.3            1 S1                 0.0000
     21 ****        -4.2767   3.3353  -4.9389 H              1 S1                 0.0000
     22 ****        -3.9964   4.9696  -4.3359 H              1 S1                 0.0000
     23 ****        -5.4671   4.1029  -3.8864 H              1 S1                 0.0000
     24 ****        -3.0502   1.3833  -3.2982 H              1 S1                 0.0000
     25 ****        -1.7890   1.6451   0.4377 H              1 S1                 0.0000
     26 ****        -0.9129  -0.0084   0.9985 H              1 S1                 0.0000
     27 ****        -0.7932  -2.4094   0.8335 H              1 S1                 0.0000
     28 ****        -0.6609  -2.3183  -0.8807 H              1 S1                 0.0000
     29 ****         1.3476  -3.7670  -0.7323 H              1 S1                 0.0000
     30 ****         1.3090  -3.7880   1.0163 H              1 S1                 0.0000
     31 ****         2.7731  -3.3038   0.1681 H              1 S1                 0.0000
     32 ****         1.2409  -1.5713  -2.0443 H              1 S1                 0.0000
     33 ****         2.7833  -1.2547  -1.2967 H              1 S1                 0.0000
     34 ****         1.5026  -0.0529  -1.2002 H              1 S1                 0.0000
     35 ****         0.0438  -1.5496   2.6099 H              1 S1                 0.0000
     36 ****         1.5075  -2.4857   2.8180 H              1 S1                 0.0000
     37 ****         1.0660   0.4174   3.6843 H              1 S1                 0.0000
     38 ****         1.1796  -0.9829   4.7348 H              1 S1                 0.0000
     39 ****         3.1039   1.1103   2.4708 H              1 S1                 0.0000
     40 ****         4.5599   0.1637   2.7155 H              1 S1                 0.0000
     41 ****         3.5827  -1.7767   1.5718 H              1 S1                 0.0000
     42 ****         3.4984  -0.3647   0.5402 H              1 S1                 0.0000
     43 ****        -2.0924   0.2532  -2.7656 LP             1 S1                 0.0000
     44 ****        -1.3075  -1.2011  -2.2469 LP             1 S1                 0.0000
     45 ****         1.2250  -0.0997   1.1508 LP             1 S1                 0.0000
     46 ****         3.3448  -1.3364   3.9928 LP             1 S1                 0.0000
     47 ****         3.1862   0.1760   4.5878 LP             1 S1                 0.0000
     48 ****        -2.7250   3.8895   0.1413 LP             1 S1                 0.0000
     49 ****        -4.5281   4.4977  -1.4822 LP             1 S1                 0.0000
     50 ****        -3.1017   5.0700  -2.0340 LP             1 S1                 0.0000
@<TRIPOS>BOND
    1    1    2 1     
    2    1   21 1     
    3    1   22 1     
    4    1   23 1     
    5    2   20 1     
    6    2    3 2     
    7    3    4 1     
    8    3   24 1     
    9    4    5 1     
   10    4   19 2     
   11    5    6 am    
   12    5   25 1     
   13    6    7 2     
   14    6    8 am    
   15    8    9 1     
   16    8   26 1     
   17    9   10 1     
   18    9   27 1     
   19    9   28 1     
   20   10   11 1     
   21   10   12 1     
   22   10   13 1     
   23   11   29 1     
   24   11   30 1     
   25   11   31 1     
   26   12   32 1     
   27   12   33 1     
   28   12   34 1     
   29   13   18 1     
   30   13   14 1     
   31   14   15 1     
   32   14   35 1     
   33   14   36 1     
   34   15   16 1     
   35   15   37 1     
   36   15   38 1     
   37   16   17 1     
   38   17   18 1     
   39   17   39 1     
   40   17   40 1     
   41   18   41 1     
   42   18   42 1     
   43   19   20 1     
   44    7   43 1     
   45    7   44 1     
   46   13   45 1     
   47   16   46 1     
   48   16   47 1     
   49   19   48 1     
   50   20   49 1     
   51   20   50 1     
@<TRIPOS>SUBSTRUCTURE
      1 S1             1
@<TRIPOS>SET
LONE_PAIRS      STATIC     ATOMS    <user>   **** ""
8 43 44 45 46 47 48 49 50
DONOR_HYDROGENS      STATIC     ATOMS    <user>   **** ""
2 25 26
ATOM$BLUE        STATIC     ATOMS    COLORGROUP SYSTEM
8 43 44 45 46 47 48 49 50
ATOM$RED        STATIC     ATOMS    COLORGROUP SYSTEM
2 25 26
