AV-unprocessed.smi:151|AV-procd|sdf|1245|dock4
  -GOLD-   2262018463D 1   1.00000     0.00000
 Structure written by MMmdl.
 56 59  0  0  0  0  0  0  0  0  1 V2000
  153.4007  139.1538  160.2425 C   0  0  0  0  0  0  0  0  0  0  0  0
  153.0798  139.9493  158.9698 C   0  0  0  0  0  0  0  0  0  0  0  0
  152.1539  141.1732  159.1997 C   0  0  1  0  0  0  0  0  0  0  0  0
  152.8525  142.2411  160.0715 C   0  0  0  0  0  0  0  0  0  0  0  0
  152.0351  143.3979  160.2309 O   0  0  0  0  0  0  0  0  0  0  0  0
  151.6294  144.0315  159.0165 C   0  0  0  0  0  0  0  0  0  0  0  0
  150.6494  145.1374  159.4380 C   0  0  0  0  0  0  0  0  0  0  0  0
  152.8297  144.6673  158.2828 C   0  0  0  0  0  0  0  0  0  0  0  0
  150.9016  142.9884  158.1450 C   0  0  0  0  0  0  0  0  0  0  0  0
  151.7226  141.7983  157.9439 N   0  0  0  0  0  0  0  0  0  0  0  0
  151.1741  140.9621  157.0337 C   0  0  0  0  0  0  0  0  0  0  0  0
  151.9516  140.3894  156.0773 N   0  0  0  0  0  0  0  0  0  0  0  0
  151.3988  139.5815  155.1678 C   0  0  0  0  0  0  0  0  0  0  0  0
  150.1190  139.2264  155.0342 N   0  0  0  0  0  0  0  0  0  0  0  0
  149.3370  139.8042  155.9924 C   0  0  0  0  0  0  0  0  0  0  0  0
  149.7843  140.6758  157.0241 C   0  0  0  0  0  0  0  0  0  0  0  0
  148.7146  141.0724  157.8147 N   0  0  0  0  0  0  0  0  0  0  0  0
  147.6879  140.4691  157.2796 C   0  0  0  0  0  0  0  0  0  0  0  0
  147.9683  139.6892  156.1787 N   0  0  0  0  0  0  0  0  0  0  0  0
  147.0246  138.9289  155.4076 C   0  0  0  0  0  0  0  0  0  0  0  0
  147.4910  137.9793  154.3022 C   0  0  0  0  0  0  0  0  0  0  0  0
  146.2846  138.3836  153.4250 C   0  0  0  0  0  0  0  0  0  0  0  0
  146.6319  138.7458  151.9729 C   0  0  0  0  0  0  0  0  0  0  0  0
  147.0608  137.6113  151.2476 O   0  0  0  0  0  0  0  0  0  0  0  0
  145.0907  137.4054  153.3794 C   0  0  0  0  0  0  0  0  0  0  0  0
  143.9241  137.9818  152.8273 O   0  0  0  0  0  0  0  0  0  0  0  0
  146.1277  139.6011  154.3645 C   0  0  0  0  0  0  0  0  0  0  0  0
  153.9671  138.2545  159.9997 H   0  0  0  0  0  0  0  0  0  0  0  0
  152.4887  138.8422  160.7520 H   0  0  0  0  0  0  0  0  0  0  0  0
  154.0009  139.7329  160.9436 H   0  0  0  0  0  0  0  0  0  0  0  0
  154.0089  140.2722  158.4984 H   0  0  0  0  0  0  0  0  0  0  0  0
  152.6161  139.2515  158.2726 H   0  0  0  0  0  0  0  0  0  0  0  0
  151.2588  140.8367  159.7251 H   0  0  0  0  0  0  0  0  0  0  0  0
  153.0480  141.8490  161.0688 H   0  0  0  0  0  0  0  0  0  0  0  0
  153.8222  142.5146  159.6552 H   0  0  0  0  0  0  0  0  0  0  0  0
  150.2581  145.6724  158.5721 H   0  0  0  0  0  0  0  0  0  0  0  0
  151.1340  145.8670  160.0877 H   0  0  0  0  0  0  0  0  0  0  0  0
  149.7999  144.7261  159.9843 H   0  0  0  0  0  0  0  0  0  0  0  0
  152.4963  145.2458  157.4208 H   0  0  0  0  0  0  0  0  0  0  0  0
  153.5330  143.9230  157.9102 H   0  0  0  0  0  0  0  0  0  0  0  0
  153.3789  145.3420  158.9399 H   0  0  0  0  0  0  0  0  0  0  0  0
  149.9678  142.6974  158.6289 H   0  0  0  0  0  0  0  0  0  0  0  0
  150.6350  143.4266  157.1816 H   0  0  0  0  0  0  0  0  0  0  0  0
  152.0779  139.1623  154.4402 H   0  0  0  0  0  0  0  0  0  0  0  0
  146.6894  140.5808  157.6771 H   0  0  0  0  0  0  0  0  0  0  0  0
  146.4097  138.3834  156.1250 H   0  0  0  0  0  0  0  0  0  0  0  0
  148.4472  138.2737  153.8677 H   0  0  0  0  0  0  0  0  0  0  0  0
  147.5080  136.9292  154.5951 H   0  0  0  0  0  0  0  0  0  0  0  0
  145.7783  139.1911  151.4606 H   0  0  0  0  0  0  0  0  0  0  0  0
  147.4334  139.4848  151.9369 H   0  0  0  0  0  0  0  0  0  0  0  0
  147.5973  137.0786  151.8150 H   0  0  0  0  0  0  0  0  0  0  0  0
  145.3372  136.5232  152.7874 H   0  0  0  0  0  0  0  0  0  0  0  0
  144.8364  137.0495  154.3782 H   0  0  0  0  0  0  0  0  0  0  0  0
  144.1266  138.8630  152.5521 H   0  0  0  0  0  0  0  0  0  0  0  0
  145.1092  139.7857  154.7077 H   0  0  0  0  0  0  0  0  0  0  0  0
  146.5629  140.5138  153.9560 H   0  0  0  0  0  0  0  0  0  0  0  0
  1  2  1  0  0  0  0
  1 28  1  0  0  0  0
  1 29  1  0  0  0  0
  1 30  1  0  0  0  0
  2  3  1  0  0  0  0
  2 31  1  0  0  0  0
  2 32  1  0  0  0  0
  3 10  1  0  0  0  0
  3  4  1  0  0  0  0
  3 33  1  0  0  0  0
  4  5  1  0  0  0  0
  4 34  1  0  0  0  0
  4 35  1  0  0  0  0
  5  6  1  0  0  0  0
  6  7  1  0  0  0  0
  6  8  1  0  0  0  0
  6  9  1  0  0  0  0
  7 36  1  0  0  0  0
  7 37  1  0  0  0  0
  7 38  1  0  0  0  0
  8 39  1  0  0  0  0
  8 40  1  0  0  0  0
  8 41  1  0  0  0  0
  9 10  1  0  0  0  0
  9 42  1  0  0  0  0
  9 43  1  0  0  0  0
 10 11  1  0  0  0  0
 11 16  1  0  0  0  0
 11 12  2  0  0  0  0
 12 13  1  0  0  0  0
 13 14  2  0  0  0  0
 13 44  1  0  0  0  0
 14 15  1  0  0  0  0
 15 19  1  0  0  0  0
 15 16  2  0  0  0  0
 16 17  1  0  0  0  0
 17 18  2  0  0  0  0
 18 19  1  0  0  0  0
 18 45  1  0  0  0  0
 19 20  1  0  0  0  0
 20 27  1  0  0  0  0
 20 21  1  0  0  0  0
 20 46  1  0  0  0  0
 21 22  1  0  0  0  0
 21 47  1  0  0  0  0
 21 48  1  0  0  0  0
 22 23  1  0  0  0  0
 22 25  1  0  0  0  0
 22 27  1  0  0  0  0
 23 24  1  0  0  0  0
 23 49  1  0  0  0  0
 23 50  1  0  0  0  0
 24 51  1  0  0  0  0
 25 26  1  0  0  0  0
 25 52  1  0  0  0  0
 25 53  1  0  0  0  0
 26 54  1  0  0  0  0
 27 55  1  0  0  0  0
 27 56  1  0  0  0  0
M  END
> <s_m_source_file>
AV-unprocessed.smi

> <i_m_source_file_index>
151

> <i_lp_mmshare_version>
43012

> <i_f3d_flags>
0

> <s_epik_input>
W0NIM11DMShbQ0gzXSlPW0NIMl1bQ0BASF0oW0NIMl1bQ0gzXSlOKFtDSDJdMSljKG5bY0hdbjIpYyhjMjMpbltjSF1uM1tDSF0oW0NIMl00KVtDSDJdQzQoW0NIMl1bT0hdKVtDSDJdW09IXQ==

> <s_epik_cmdline>
J2VwaWtfcHl0aG9uJywgJy1waCcsICc3LjAnLCAnLXRuJywgJzgnLCAnLW1hJywgJzIwMCcsICctbWV0YWxfYmluZGluZycsICctaW1hZScsICc8aW5maWxlLm1hZT4nLCAnLW9tYWUnLCAnPG91dGZpbGUubWFlPic=

> <r_lp_tautomer_probability>
1

> <r_epik_Ionization_Penalty>
0.000102837

> <r_epik_Ionization_Penalty_Charging>
0

> <r_epik_Ionization_Penalty_Neutral>
0.000102837

> <r_epik_State_Penalty>
-0

> <r_epik_Charging_Adjusted_Penalty>
0

> <i_epik_Tot_Q>
0

> <i_epik_Tot_abs_Q>
0

> <r_epik_Metal_State_Penalty>
-0

> <b_epik_Metal_Only>
0

> <s_lp_Force_Field>
OPLS_2005

> <r_lp_Energy>
49.3626

> <b_lp_Chiralities_Consistent>
1

> <s_lp_Variant>
AV-unprocessed.smi:151-2

> <Gold.Version>
5.8.1

> <Gold.Id.Protein>
6NUR|6NUR_protein|mol2

> <Gold.PLP.Fitness>
49.2575

> <Gold.PLP.PLP>
-42.2830

> <Gold.PLP.part.hbond>
-3.3138

> <Gold.PLP.part.metal>
0.0000

> <Gold.PLP.part.buried>
-6.2945

> <Gold.PLP.part.nonpolar>
-34.0648

> <Gold.PLP.part.repulsive>
0.1702

> <Gold.PLP.ligand.clash>
0.0000

> <Gold.PLP.ligand.torsion>
1.0466

> <Gold.PLP.Chemscore.Hbond>
2.8400

> <Gold.PLP.Chemscore.CHOScore>
0.0000

> <Gold.PLP.Chemscore.Metal>
0.0000

> <Gold.Chemscore.Hbonds>
donor molecule, donor type, donor heavy atom, donor atom, acceptor molecule, acceptor atom, score
      L1  H    24    51       P1  7948  0.82
      L1  H    26    54       P1 10175  0.96
      P1  H  7954  7966       L1    24  1.00

> <Gold.PLP.Chemscore.Internal.Correction>
0.5477

> <Gold.Rescore>
     Score         DG    S(hbond)    S(metal)    S(lipo)     H(rot)  DE(clash)    DE(int)     intcor
     13.45     -17.05       2.25        0.00     105.95       3.26       0.37       3.23       ----

> <Gold.Chemscore.Fitness>
13.4521

> <Gold.Chemscore.DG>
-17.0467

> <Gold.Chemscore.ZeroCoef>
-5.4800

> <Gold.Chemscore.Hbond>
2.2502

> <Gold.Chemscore.Metal>
0.0000

> <Gold.Chemscore.Lipo>
105.9454

> <Gold.Chemscore.Internal_Hbond>
0.0000

> <Gold.Chemscore.DEClash>
0.3662

> <Gold.Chemscore.DEInternal>
3.2285

> <Gold.Chemscore.Rot>
3.2596

> <Gold.Chemscore.Internal.Correction>
   9.000000E+99

> <Gold.Chemscore.Hbonds>
donor molecule, donor type, donor heavy atom, donor atom, acceptor molecule, acceptor atom, score
      L1  H    24    51       P1  7948  0.79
      L1  H    26    54       P1 10175  0.92
      P1  H  7954  7966       L1    24  0.25
      P1  H  7997  8009       L1    12  0.01

> <Gold.Chemscore.Hbond.Weighted>
-7.5158

> <Gold.Chemscore.Metal.Weighted>
-0.0000

> <Gold.Chemscore.Lipo.Weighted>
-12.3956

> <Gold.Chemscore.Internal_Hbond.Weighted>
0.0000

> <Gold.Chemscore.DEClash.Weighted>
0.3662

> <Gold.Chemscore.DEInternal.Weighted>
3.2285

> <Gold.Chemscore.Rot.Weighted>
8.3447

> <Gold.Chemscore.Internal.Correction.Weighted>
   9.000000E+99

> <Gold.Protein.RotatedTorsions>
[ 6907 6896 6895 6894 ] final  -33.50 input  -60.11 | X-H torsion
[ 7974 7965 7964 7962 ] final  -51.68 input  175.53 | X-H torsion
[ 8008 7997 7996 7995 ] final  179.85 input   59.86 | X-H torsion
[ 10167 10162 10161 10158 ] final  -49.80 input  -65.29 | X-H torsion
[ 10718 10713 10712 10709 ] final  -84.28 input   66.30 | X-H torsion
[ 10763 10752 10751 10750 ] final -111.95 input  -60.55 | X-H torsion
[ 11005 11000 10999 10996 ] final -114.75 input  -57.11 | X-H torsion

> <Gold.Protein.ActiveResidues>
 VAL166  LYS551  ARG553  GLY616  TRP617  ASP618  TYR619  PRO620  LYS621  CYS622 
 ASP623  PHE694  ASN695  SER759  ASP760  ASP761  ALA762  ILE779  LEU786  VAL792 
 PHE793  MET794  SER795  GLU796  ALA797  LYS798  CYS799  TRP800  GLU811  SER814 

> <Gold.Protein.RotatedAtoms>
  151.0648  134.9760  159.8278 H   0  0  0  0  0  0  0  0  0  0  0  0  # atno 6907 bound_to 6896
  152.5400  134.2372  159.8858 H   0  0  0  0  0  0  0  0  0  0  0  0  # atno 6908 bound_to 6896
  151.2394  133.4364  159.2640 H   0  0  0  0  0  0  0  0  0  0  0  0  # atno 6909 bound_to 6896
  145.9163  140.7872  142.9670 H   0  0  0  0  0  0  0  0  0  0  0  0  # atno 7974 bound_to 7965
  156.0387  140.1298  157.0179 H   0  0  0  0  0  0  0  0  0  0  0  0  # atno 8008 bound_to 7997
  154.4381  140.1034  156.6276 H   0  0  0  0  0  0  0  0  0  0  0  0  # atno 8009 bound_to 7997
  155.5699  140.3466  155.4515 H   0  0  0  0  0  0  0  0  0  0  0  0  # atno 8010 bound_to 7997
  140.6668  143.2683  151.4267 H   0  0  0  0  0  0  0  0  0  0  0  0  # atno 10167 bound_to 10162
  156.0008  130.4693  150.4386 H   0  0  0  0  0  0  0  0  0  0  0  0  # atno 10718 bound_to 10713
  154.8326  135.4508  154.1119 H   0  0  0  0  0  0  0  0  0  0  0  0  # atno 10763 bound_to 10752
  153.2379  135.6913  153.7822 H   0  0  0  0  0  0  0  0  0  0  0  0  # atno 10764 bound_to 10752
  153.7181  135.3346  155.3237 H   0  0  0  0  0  0  0  0  0  0  0  0  # atno 10765 bound_to 10752
  141.0531  133.9655  157.2801 H   0  0  0  0  0  0  0  0  0  0  0  0  # atno 11005 bound_to 11000
  144.6748  140.1905  143.7397 LP  0  0  0  0  0  0  0  0  0  0  0  0  # atno 17320 bound_to 7965
  145.8607  139.2221  143.1718 LP  0  0  0  0  0  0  0  0  0  0  0  0  # atno 17321 bound_to 7965
  139.5920  144.1479  152.2099 LP  0  0  0  0  0  0  0  0  0  0  0  0  # atno 17342 bound_to 10162
  140.0836  144.5680  150.7104 LP  0  0  0  0  0  0  0  0  0  0  0  0  # atno 17343 bound_to 10162
  157.2429  131.0529  151.2426 LP  0  0  0  0  0  0  0  0  0  0  0  0  # atno 17370 bound_to 10713
  157.3603  130.7128  149.6497 LP  0  0  0  0  0  0  0  0  0  0  0  0  # atno 17371 bound_to 10713
  139.9367  135.0195  156.8579 LP  0  0  0  0  0  0  0  0  0  0  0  0  # atno 17394 bound_to 11000
  140.6016  134.0167  155.7539 LP  0  0  0  0  0  0  0  0  0  0  0  0  # atno 17395 bound_to 11000

$$$$
