AV-unprocessed.smi:290|AV-procd|sdf|2235|dock10
  -GOLD-   2262022103D 1   1.00000     0.00000
 Structure written by MMmdl.
 59 62  0  0  0  0  0  0  0  0  2 V2000
  152.9650  138.9700  156.2527 C   0  0  0  0  0  0  0  0  0  0  0  0
  152.0512  139.0789  155.0233 C   0  0  2  0  0  0  0  0  0  0  0  0
  151.1134  140.1400  155.1838 O   0  0  0  0  0  0  0  0  0  0  0  0
  149.8818  139.8082  154.5486 C   0  0  0  0  0  0  0  0  0  0  0  0
  150.1355  138.4947  153.8146 C   0  0  0  0  0  0  0  0  0  0  0  0
  151.2107  137.8367  154.6709 C   0  0  1  0  0  0  0  0  0  0  0  0
  151.9591  136.9493  153.8621 O   0  0  0  0  0  0  0  0  0  0  0  0
  150.6565  137.0770  155.9079 C   0  0  0  0  0  0  0  0  0  0  0  0
  149.9471  135.8495  155.5835 N   0  0  0  0  0  0  0  0  0  0  0  0
  148.8163  135.7338  154.8076 C   0  0  0  0  0  0  0  0  0  0  0  0
  148.3622  134.5190  154.6635 N   0  0  0  0  0  0  0  0  0  0  0  0
  149.2346  133.7382  155.4131 C   0  0  0  0  0  0  0  0  0  0  0  0
  149.3347  132.3463  155.6999 C   0  0  0  0  0  0  0  0  0  0  0  0
  148.5078  131.3868  155.2279 N   0  0  0  0  0  0  0  0  0  0  0  0
  147.1266  131.3826  155.7059 C   0  0  0  0  0  0  0  0  0  0  0  0
  146.2326  131.2989  154.4632 C   0  0  0  0  0  0  0  0  0  0  0  0
  147.1449  131.7830  153.3289 C   0  0  2  0  0  0  0  0  0  0  0  0
  146.7295  131.3961  151.9483 N   0  3  1  0  0  0  0  0  0  0  0  0
  146.0938  130.0545  151.8947 C   0  0  0  0  0  0  0  0  0  0  0  0
  145.8844  132.4388  151.3024 C   0  0  0  0  0  0  0  0  0  0  0  0
  145.5888  132.1503  149.8194 C   0  0  0  0  0  0  0  0  0  0  0  0
  144.7964  133.1799  149.2686 O   0  0  0  0  0  0  0  0  0  0  0  0
  148.5173  131.2367  153.7769 C   0  0  2  0  0  0  0  0  0  0  0  0
  148.7671  129.7616  153.4089 C   0  0  0  0  0  0  0  0  0  0  0  0
  150.3644  131.9304  156.4763 N   0  0  0  0  0  0  0  0  0  0  0  0
  151.2346  132.8185  156.9661 C   0  0  0  0  0  0  0  0  0  0  0  0
  151.2624  134.1419  156.7951 N   0  0  0  0  0  0  0  0  0  0  0  0
  150.2381  134.5614  155.9980 C   0  0  0  0  0  0  0  0  0  0  0  0
  147.1712  132.8729  153.3683 H   0  0  0  0  0  0  0  0  0  0  0  0
  149.3160  131.8388  153.3401 H   0  0  0  0  0  0  0  0  0  0  0  0
  153.6600  138.1360  156.1523 H   0  0  0  0  0  0  0  0  0  0  0  0
  152.3939  138.8275  157.1701 H   0  0  0  0  0  0  0  0  0  0  0  0
  153.5539  139.8793  156.3745 H   0  0  0  0  0  0  0  0  0  0  0  0
  152.6643  139.3447  154.1598 H   0  0  0  0  0  0  0  0  0  0  0  0
  149.1173  139.6787  155.3152 H   0  0  0  0  0  0  0  0  0  0  0  0
  149.5554  140.6011  153.8754 H   0  0  0  0  0  0  0  0  0  0  0  0
  149.2345  137.8999  153.6718 H   0  0  0  0  0  0  0  0  0  0  0  0
  150.5312  138.7194  152.8224 H   0  0  0  0  0  0  0  0  0  0  0  0
  151.5348  136.8807  153.0203 H   0  0  0  0  0  0  0  0  0  0  0  0
  151.4670  136.8212  156.5914 H   0  0  0  0  0  0  0  0  0  0  0  0
  149.9769  137.7169  156.4722 H   0  0  0  0  0  0  0  0  0  0  0  0
  148.3411  136.5849  154.3419 H   0  0  0  0  0  0  0  0  0  0  0  0
  146.9620  130.5267  156.3609 H   0  0  0  0  0  0  0  0  0  0  0  0
  146.8948  132.2752  156.2869 H   0  0  0  0  0  0  0  0  0  0  0  0
  145.9336  130.2630  154.2986 H   0  0  0  0  0  0  0  0  0  0  0  0
  145.3279  131.8985  154.5693 H   0  0  0  0  0  0  0  0  0  0  0  0
  145.2038  130.0212  152.5245 H   0  0  0  0  0  0  0  0  0  0  0  0
  146.7780  129.2748  152.2282 H   0  0  0  0  0  0  0  0  0  0  0  0
  145.7994  129.7848  150.8820 H   0  0  0  0  0  0  0  0  0  0  0  0
  144.9504  132.5364  151.8576 H   0  0  0  0  0  0  0  0  0  0  0  0
  146.3669  133.4141  151.3605 H   0  0  0  0  0  0  0  0  0  0  0  0
  146.4943  132.0262  149.2273 H   0  0  0  0  0  0  0  0  0  0  0  0
  145.0332  131.2161  149.7346 H   0  0  0  0  0  0  0  0  0  0  0  0
  145.3493  133.7384  148.7430 H   0  0  0  0  0  0  0  0  0  0  0  0
  148.8132  129.6196  152.3303 H   0  0  0  0  0  0  0  0  0  0  0  0
  147.9905  129.1042  153.8001 H   0  0  0  0  0  0  0  0  0  0  0  0
  149.7194  129.4207  153.8164 H   0  0  0  0  0  0  0  0  0  0  0  0
  152.0227  132.4097  157.5814 H   0  0  0  0  0  0  0  0  0  0  0  0
  147.5794  131.3379  151.4050 H   0  0  0  0  0  0  0  0  0  0  0  0
  1  2  1  0  0  0  0
  1 31  1  0  0  0  0
  1 32  1  0  0  0  0
  1 33  1  0  0  0  0
  2  6  1  0  0  0  0
  2  3  1  0  0  0  0
  2 34  1  0  0  0  0
  3  4  1  0  0  0  0
  4  5  1  0  0  0  0
  4 35  1  0  0  0  0
  4 36  1  0  0  0  0
  5  6  1  0  0  0  0
  5 37  1  0  0  0  0
  5 38  1  0  0  0  0
  6  7  1  0  0  0  0
  6  8  1  0  0  0  0
  7 39  1  0  0  0  0
  8  9  1  0  0  0  0
  8 40  1  0  0  0  0
  8 41  1  0  0  0  0
  9 28  1  0  0  0  0
  9 10  1  0  0  0  0
 10 11  2  0  0  0  0
 10 42  1  0  0  0  0
 11 12  1  0  0  0  0
 12 28  2  0  0  0  0
 12 13  1  0  0  0  0
 13 14  1  0  0  0  0
 13 25  2  0  0  0  0
 14 23  1  0  0  0  0
 14 15  1  0  0  0  0
 15 16  1  0  0  0  0
 15 43  1  0  0  0  0
 15 44  1  0  0  0  0
 16 17  1  0  0  0  0
 16 45  1  0  0  0  0
 16 46  1  0  0  0  0
 17 29  1  0  0  0  0
 17 18  1  0  0  0  0
 17 23  1  0  0  0  0
 18 19  1  0  0  0  0
 18 20  1  0  0  0  0
 18 59  1  0  0  0  0
 19 47  1  0  0  0  0
 19 48  1  0  0  0  0
 19 49  1  0  0  0  0
 20 21  1  0  0  0  0
 20 50  1  0  0  0  0
 20 51  1  0  0  0  0
 21 22  1  0  0  0  0
 21 52  1  0  0  0  0
 21 53  1  0  0  0  0
 22 54  1  0  0  0  0
 23 30  1  0  0  0  0
 23 24  1  0  0  0  0
 24 55  1  0  0  0  0
 24 56  1  0  0  0  0
 24 57  1  0  0  0  0
 25 26  1  0  0  0  0
 26 27  2  0  0  0  0
 26 58  1  0  0  0  0
 27 28  1  0  0  0  0
M  CHG  1  18   1
M  END
> <s_m_source_file>
AV-unprocessed.smi

> <i_m_source_file_index>
290

> <i_lp_mmshare_version>
43012

> <i_f3d_flags>
0

> <s_epik_input>
W0NIMl0xW0NIMl1PW0NAQEhdKFtDSDNdKVtDQEBdMShbT0hdKVtDSDJdbihbY0hdbjIpYyhjMjMpbltjSF1uYzNONFtDSDJdW0NIMl1bQ0BIXShbQ0BIXTRbQ0gzXSlOKFtDSDNdKVtDSDJdW0NIMl1bT0hd

> <s_epik_cmdline>
J2VwaWtfcHl0aG9uJywgJy1waCcsICc3LjAnLCAnLXRuJywgJzgnLCAnLW1hJywgJzIwMCcsICctbWV0YWxfYmluZGluZycsICctaW1hZScsICc8aW5maWxlLm1hZT4nLCAnLW9tYWUnLCAnPG91dGZpbGUubWFlPic=

> <r_lp_tautomer_probability>
1

> <r_epik_Ionization_Penalty>
0.0036983

> <r_epik_Ionization_Penalty_Charging>
0.0032725

> <r_epik_Ionization_Penalty_Neutral>
0.000425798

> <r_epik_State_Penalty>
-0

> <r_epik_Charging_Adjusted_Penalty>
0.0032725

> <i_epik_Tot_Q>
1

> <i_epik_Tot_abs_Q>
1

> <r_epik_Metal_State_Penalty>
-0

> <b_epik_Metal_Only>
0

> <s_lp_Force_Field>
OPLS_2005

> <r_lp_Energy>
64.7341

> <b_lp_Chiralities_Consistent>
1

> <s_lp_Variant>
AV-unprocessed.smi:290-21

> <Gold.Version>
5.8.1

> <Gold.Id.Protein>
6NUR|6NUR_protein|mol2

> <Gold.PLP.Fitness>
54.4476

> <Gold.PLP.PLP>
-41.9385

> <Gold.PLP.part.hbond>
-5.3274

> <Gold.PLP.part.metal>
0.0000

> <Gold.PLP.part.buried>
-0.4276

> <Gold.PLP.part.nonpolar>
-35.2681

> <Gold.PLP.part.repulsive>
0.1613

> <Gold.PLP.ligand.clash>
0.0000

> <Gold.PLP.ligand.torsion>
0.8127

> <Gold.PLP.Chemscore.Hbond>
4.1925

> <Gold.PLP.Chemscore.CHOScore>
0.4289

> <Gold.PLP.Chemscore.Metal>
0.0000

> <Gold.Chemscore.Hbonds>
donor molecule, donor type, donor heavy atom, donor atom, acceptor molecule, acceptor atom, score
      L1  H     7    39       P1  7949  1.00
      L1  H    18    59       P1 10747  1.00
      L1  H    22    54       P1  7921  1.00
      P1  H  7989  7998       L1     3  0.18
      P1  H 10752 10764       L1     7  1.00
      L1  C    10    42       P1  7948  0.38

> <Gold.PLP.Chemscore.Internal.Correction>
0.2702

> <Gold.Rescore>
     Score         DG    S(hbond)    S(metal)    S(lipo)     H(rot)  DE(clash)    DE(int)     intcor
     15.95     -19.28       3.66        0.00      93.58       3.67       2.33       1.00       ----

> <Gold.Chemscore.Fitness>
15.9471

> <Gold.Chemscore.DG>
-19.2760

> <Gold.Chemscore.ZeroCoef>
-5.4800

> <Gold.Chemscore.Hbond>
3.6623

> <Gold.Chemscore.Metal>
0.0000

> <Gold.Chemscore.Lipo>
93.5767

> <Gold.Chemscore.Internal_Hbond>
0.0000

> <Gold.Chemscore.DEClash>
2.3304

> <Gold.Chemscore.DEInternal>
0.9986

> <Gold.Chemscore.Rot>
3.6658

> <Gold.Chemscore.Internal.Correction>
   9.000000E+99

> <Gold.Chemscore.Hbonds>
donor molecule, donor type, donor heavy atom, donor atom, acceptor molecule, acceptor atom, score
      L1  H     7    39       P1  7949  0.90
      L1  H    18    59       P1 10747  1.00
      L1  H    22    54       P1  7921  0.65
      P1  H 10752 10764       L1     7  0.65

> <Gold.Chemscore.Hbond.Weighted>
-12.2320

> <Gold.Chemscore.Metal.Weighted>
-0.0000

> <Gold.Chemscore.Lipo.Weighted>
-10.9485

> <Gold.Chemscore.Internal_Hbond.Weighted>
0.0000

> <Gold.Chemscore.DEClash.Weighted>
2.3304

> <Gold.Chemscore.DEInternal.Weighted>
0.9986

> <Gold.Chemscore.Rot.Weighted>
9.3844

> <Gold.Chemscore.Internal.Correction.Weighted>
   9.000000E+99

> <Gold.Protein.RotatedTorsions>
[ 6907 6896 6895 6894 ] final -157.17 input  -60.11 | X-H torsion
[ 7974 7965 7964 7962 ] final  -43.67 input  175.53 | X-H torsion
[ 8008 7997 7996 7995 ] final   25.44 input   59.86 | X-H torsion
[ 10167 10162 10161 10158 ] final  -82.16 input  -65.29 | X-H torsion
[ 10718 10713 10712 10709 ] final -128.98 input   66.30 | X-H torsion
[ 10763 10752 10751 10750 ] final  -95.22 input  -60.55 | X-H torsion
[ 11005 11000 10999 10996 ] final  -41.57 input  -57.11 | X-H torsion

> <Gold.Protein.ActiveResidues>
 VAL166  LYS551  ARG553  GLY616  TRP617  ASP618  TYR619  PRO620  LYS621  CYS622 
 ASP623  PHE694  ASN695  SER759  ASP760  ASP761  ALA762  ILE779  LEU786  VAL792 
 PHE793  MET794  SER795  GLU796  ALA797  LYS798  CYS799  TRP800  GLU811  SER814 

> <Gold.Protein.RotatedAtoms>
  151.2988  133.4132  159.2637 H   0  0  0  0  0  0  0  0  0  0  0  0  # atno 6907 bound_to 6896
  151.0213  134.9472  159.8071 H   0  0  0  0  0  0  0  0  0  0  0  0  # atno 6908 bound_to 6896
  152.5325  134.2951  159.9110 H   0  0  0  0  0  0  0  0  0  0  0  0  # atno 6909 bound_to 6896
  145.9996  140.7089  142.9277 H   0  0  0  0  0  0  0  0  0  0  0  0  # atno 7974 bound_to 7965
  155.0118  140.3137  155.4827 H   0  0  0  0  0  0  0  0  0  0  0  0  # atno 8008 bound_to 7997
  156.2908  140.2213  156.5174 H   0  0  0  0  0  0  0  0  0  0  0  0  # atno 8009 bound_to 7997
  154.7528  140.0465  157.0895 H   0  0  0  0  0  0  0  0  0  0  0  0  # atno 8010 bound_to 7997
  140.4346  143.2536  151.8712 H   0  0  0  0  0  0  0  0  0  0  0  0  # atno 10167 bound_to 10162
  156.2003  130.6853  151.0531 H   0  0  0  0  0  0  0  0  0  0  0  0  # atno 10718 bound_to 10713
  154.7128  135.5128  153.8693 H   0  0  0  0  0  0  0  0  0  0  0  0  # atno 10763 bound_to 10752
  153.0795  135.6627  154.0083 H   0  0  0  0  0  0  0  0  0  0  0  0  # atno 10764 bound_to 10752
  153.9922  135.3019  155.3390 H   0  0  0  0  0  0  0  0  0  0  0  0  # atno 10765 bound_to 10752
  141.0255  133.6843  156.2475 H   0  0  0  0  0  0  0  0  0  0  0  0  # atno 11005 bound_to 11000
  144.6915  140.3210  143.7232 LP  0  0  0  0  0  0  0  0  0  0  0  0  # atno 17320 bound_to 7965
  145.7508  139.1793  143.2323 LP  0  0  0  0  0  0  0  0  0  0  0  0  # atno 17321 bound_to 7965
  139.4786  144.5297  151.8684 LP  0  0  0  0  0  0  0  0  0  0  0  0  # atno 17342 bound_to 10162
  140.4389  144.2014  150.5890 LP  0  0  0  0  0  0  0  0  0  0  0  0  # atno 17343 bound_to 10162
  157.6982  131.0786  150.6904 LP  0  0  0  0  0  0  0  0  0  0  0  0  # atno 17370 bound_to 10713
  156.6962  130.4609  149.5586 LP  0  0  0  0  0  0  0  0  0  0  0  0  # atno 17371 bound_to 10713
  140.6499  134.5078  157.5576 LP  0  0  0  0  0  0  0  0  0  0  0  0  # atno 17394 bound_to 11000
  139.9173  134.8220  156.1324 LP  0  0  0  0  0  0  0  0  0  0  0  0  # atno 17395 bound_to 11000

$$$$
