#       Name:                AV-unprocessed.smi:2310
#       Creating user name   scv26
#       Creation time:       Fri Mar 27 12:48:26 2020


#       File generated by GOLD software.
#

@<TRIPOS>MOLECULE
AV-unprocessed.smi:2310
    49    50     1
SMALL
NO_CHARGES


@<TRIPOS>ATOM
      1 ****        -4.4521  -2.2604  -3.5947 C.3            1 S1                 0.0000
      2 ****        -4.5088  -3.1335  -2.3261 C.3            1 S1                 0.0000
      3 ****        -4.1532  -2.3990  -1.0136 C.3            1 S1                 0.0000
      4 ****        -4.5008  -3.2387   0.2322 C.3            1 S1                 0.0000
      5 ****        -3.9266  -4.5965   0.2515 C.1            1 S1                 0.0000
      6 ****        -3.4786  -5.6648   0.2701 N.1            1 S1                 0.0000
      7 ****        -2.7220  -2.0751  -1.0017 N.pl3          1 S1                -1.0000
      8 ****        -2.1689  -1.0115  -0.3602 C.2            1 S1                 0.0000
      9 ****        -2.7465  -0.1555   0.3200 O.2            1 S1                 0.0000
     10 ****        -0.8333  -0.9712  -0.5077 N.am           1 S1                 0.0000
     11 ****         0.0865  -0.0124  -0.0028 C.ar           1 S1                 0.0000
     12 ****        -0.2339   1.3607   0.1243 C.ar           1 S1                 0.0000
     13 ****         0.7360   2.2621   0.6063 C.ar           1 S1                 0.0000
     14 ****         2.0251   1.7892   0.9450 C.ar           1 S1                 0.0000
     15 ****         3.0427   2.6279   1.4375 N.pl3          1 S1                 0.0000
     16 ****         4.4409   2.2170   1.4405 C.3            1 S1                 0.0000
     17 ****         5.2511   3.5154   1.3545 C.3            1 S1                 0.0000
     18 ****         4.2861   4.5906   1.8545 C.3            1 S1                 0.0000
     19 ****         2.9229   4.0756   1.3949 C.3            1 S1                 0.0000
     20 ****         2.2899   0.4700   0.7939 N.pl3          1 S1                 1.0000
     21 ****         1.3936  -0.4325   0.3362 C.ar           1 S1                 0.0000
     22 ****         1.8482  -1.8758   0.2205 C.3            1 S1                 0.0000
     23 ****        -4.7445  -2.8449  -4.4671 H              1 S1                 0.0000
     24 ****        -3.4478  -1.8792  -3.7879 H              1 S1                 0.0000
     25 ****        -5.1309  -1.4076  -3.5375 H              1 S1                 0.0000
     26 ****        -5.5201  -3.5316  -2.2376 H              1 S1                 0.0000
     27 ****        -3.8598  -4.0003  -2.4583 H              1 S1                 0.0000
     28 ****        -4.7640  -1.4957  -0.9701 H              1 S1                 0.0000
     29 ****        -4.1837  -2.7271   1.1415 H              1 S1                 0.0000
     30 ****        -5.5824  -3.3536   0.3035 H              1 S1                 0.0000
     31 ****        -0.4251  -1.7685  -0.9733 H              1 S1                 0.0000
     32 ****        -1.2063   1.7384  -0.1541 H              1 S1                 0.0000
     33 ****         0.4766   3.3055   0.7045 H              1 S1                 0.0000
     34 ****         4.6505   1.6914   2.3726 H              1 S1                 0.0000
     35 ****         4.6819   1.5515   0.6106 H              1 S1                 0.0000
     36 ****         6.1780   3.4754   1.9272 H              1 S1                 0.0000
     37 ****         5.5101   3.7158   0.3142 H              1 S1                 0.0000
     38 ****         4.3166   4.6347   2.9442 H              1 S1                 0.0000
     39 ****         4.5160   5.5843   1.4694 H              1 S1                 0.0000
     40 ****         2.7153   4.3940   0.3724 H              1 S1                 0.0000
     41 ****         2.1209   4.4336   2.0410 H              1 S1                 0.0000
     42 ****         1.7851  -2.2112  -0.8149 H              1 S1                 0.0000
     43 ****         1.2158  -2.5219   0.8298 H              1 S1                 0.0000
     44 ****         2.8787  -1.9980   0.5557 H              1 S1                 0.0000
     45 ****         3.2214   0.1353   1.0394 H              1 S1                 0.0000
     46 ****        -3.0919  -6.5869   0.2861 LP             1 S1                 0.0000
     47 ****        -2.1067  -2.6829  -1.5036 LP             1 S1                 0.0000
     48 ****        -3.7374  -0.2025   0.4466 LP             1 S1                 0.0000
     49 ****        -2.2228   0.5836   0.7435 LP             1 S1                 0.0000
@<TRIPOS>BOND
    1    1    2 1     
    2    1   23 1     
    3    1   24 1     
    4    1   25 1     
    5    2    3 1     
    6    2   26 1     
    7    2   27 1     
    8    3    4 1     
    9    3    7 1     
   10    3   28 1     
   11    4    5 1     
   12    4   29 1     
   13    4   30 1     
   14    5    6 3     
   15    7    8 1     
   16    8    9 2     
   17    8   10 am    
   18   10   11 1     
   19   10   31 1     
   20   11   21 ar    
   21   11   12 ar    
   22   12   13 ar    
   23   12   32 1     
   24   13   14 ar    
   25   13   33 1     
   26   14   15 1     
   27   14   20 ar    
   28   15   19 1     
   29   15   16 1     
   30   16   17 1     
   31   16   34 1     
   32   16   35 1     
   33   17   18 1     
   34   17   36 1     
   35   17   37 1     
   36   18   19 1     
   37   18   38 1     
   38   18   39 1     
   39   19   40 1     
   40   19   41 1     
   41   20   21 ar    
   42   20   45 1     
   43   21   22 1     
   44   22   42 1     
   45   22   43 1     
   46   22   44 1     
   47    6   46 1     
   48    7   47 1     
   49    9   48 1     
   50    9   49 1     
@<TRIPOS>SUBSTRUCTURE
      1 S1             1
@<TRIPOS>SET
LONE_PAIRS      STATIC     ATOMS    <user>   **** ""
4 46 47 48 49
DONOR_HYDROGENS      STATIC     ATOMS    <user>   **** ""
2 31 45
ATOM$BLUE        STATIC     ATOMS    COLORGROUP SYSTEM
4 46 47 48 49
ATOM$RED        STATIC     ATOMS    COLORGROUP SYSTEM
2 31 45
