#       Name:                AV-unprocessed.smi:999
#       Creating user name   scv26
#       Creation time:       Fri Mar 27 02:25:12 2020


#       File generated by GOLD software.
#

@<TRIPOS>MOLECULE
AV-unprocessed.smi:999
    44    45     1
SMALL
NO_CHARGES


@<TRIPOS>ATOM
      1 ****        -3.0818  -2.8527   1.1054 C.3            1 S1                 0.0000
      2 ****        -2.5224  -1.5619   0.4722 C.3            1 S1                 0.0000
      3 ****        -1.0220  -1.3672   0.7431 C.2            1 S1                 0.0000
      4 ****        -0.2954  -2.3318   0.9855 O.2            1 S1                 0.0000
      5 ****        -0.5718  -0.1032   0.6927 N.am           1 S1                 0.0000
      6 ****         0.8142   0.3111   0.8850 C.3            1 S1                 0.0000
      7 ****         0.8509   1.7726   1.3657 C.3            1 S1                 0.0000
      8 ****         2.2935   2.2765   1.5289 C.3            1 S1                 0.0000
      9 ****         3.1020   2.1186   0.2192 C.3            1 S1                 0.0000
     10 ****         4.5589   2.6033   0.3699 C.2            1 S1                 0.0000
     11 ****         5.3446   2.3481  -0.5697 O.co2          1 S1                 0.0000
     12 ****         4.8704   3.2406   1.4009 O.co2          1 S1                -1.0000
     13 ****         3.0566   0.6536  -0.2726 C.3            1 S1                 0.0000
     14 ****         1.6119   0.1507  -0.4242 C.3            1 S1                 0.0000
     15 ****        -2.7898  -1.4857  -0.9599 N.pl3          1 S1                 0.0000
     16 ****        -3.2314  -0.3957  -1.6829 C.2            1 S1                 0.0000
     17 ****        -3.2975  -0.7706  -2.9941 C.2            1 S1                 0.0000
     18 ****        -2.8586  -2.1235  -2.9806 C.2            1 S1                 0.0000
     19 ****        -2.5476  -2.5458  -1.7664 N.2            1 S1                 0.0000
     20 ****        -2.9230  -2.8609   2.1842 H              1 S1                 0.0000
     21 ****        -2.6128  -3.7485   0.6965 H              1 S1                 0.0000
     22 ****        -4.1553  -2.9353   0.9337 H              1 S1                 0.0000
     23 ****        -3.0454  -0.7255   0.9394 H              1 S1                 0.0000
     24 ****        -1.2377   0.6275   0.4883 H              1 S1                 0.0000
     25 ****         1.2701  -0.3120   1.6570 H              1 S1                 0.0000
     26 ****         0.3255   2.4108   0.6536 H              1 S1                 0.0000
     27 ****         0.3216   1.8674   2.3146 H              1 S1                 0.0000
     28 ****         2.2707   3.3223   1.8385 H              1 S1                 0.0000
     29 ****         2.7772   1.7232   2.3357 H              1 S1                 0.0000
     30 ****         2.6424   2.7501  -0.5423 H              1 S1                 0.0000
     31 ****         3.5666   0.5528  -1.2314 H              1 S1                 0.0000
     32 ****         3.5897   0.0105   0.4296 H              1 S1                 0.0000
     33 ****         1.6226  -0.8952  -0.7330 H              1 S1                 0.0000
     34 ****         1.1203   0.7033  -1.2262 H              1 S1                 0.0000
     35 ****        -3.4589   0.5479  -1.2088 H              1 S1                 0.0000
     36 ****        -3.6067  -0.1684  -3.8356 H              1 S1                 0.0000
     37 ****        -2.7526  -2.8052  -3.8116 H              1 S1                 0.0000
     38 ****        -0.6802  -3.2546   1.0077 LP             1 S1                 0.0000
     39 ****         0.6793  -2.1922   1.1601 LP             1 S1                 0.0000
     40 ****         6.2938   2.6598  -0.5264 LP             1 S1                 0.0000
     41 ****         5.0234   1.8324  -1.3640 LP             1 S1                 0.0000
     42 ****         5.8028   3.5838   1.5139 LP             1 S1                 0.0000
     43 ****         4.1869   3.4065   2.1117 LP             1 S1                 0.0000
     44 ****        -2.2084  -3.4488  -1.5024 LP             1 S1                 0.0000
@<TRIPOS>BOND
    1    1    2 1     
    2    1   20 1     
    3    1   21 1     
    4    1   22 1     
    5    2    3 1     
    6    2   15 1     
    7    2   23 1     
    8    3    4 2     
    9    3    5 am    
   10    5    6 1     
   11    5   24 1     
   12    6   14 1     
   13    6    7 1     
   14    6   25 1     
   15    7    8 1     
   16    7   26 1     
   17    7   27 1     
   18    8    9 1     
   19    8   28 1     
   20    8   29 1     
   21    9   10 1     
   22    9   13 1     
   23    9   30 1     
   24   10   11 ar    
   25   10   12 ar    
   26   13   14 1     
   27   13   31 1     
   28   13   32 1     
   29   14   33 1     
   30   14   34 1     
   31   15   19 1     
   32   15   16 1     
   33   16   17 2     
   34   16   35 1     
   35   17   18 1     
   36   17   36 1     
   37   18   19 2     
   38   18   37 1     
   39    4   38 1     
   40    4   39 1     
   41   11   40 1     
   42   11   41 1     
   43   12   42 1     
   44   12   43 1     
   45   19   44 1     
@<TRIPOS>SUBSTRUCTURE
      1 S1             1
@<TRIPOS>SET
LONE_PAIRS      STATIC     ATOMS    <user>   **** ""
7 38 39 40 41 42 43 44
DONOR_HYDROGENS      STATIC     ATOMS    <user>   **** ""
1 24
ATOM$BLUE        STATIC     ATOMS    COLORGROUP SYSTEM
7 38 39 40 41 42 43 44
ATOM$RED        STATIC     ATOMS    COLORGROUP SYSTEM
1 24
