#       Name:                AV-unprocessed.smi:3145
#       Creating user name   scv26
#       Creation time:       Fri Mar 27 17:38:41 2020


#       File generated by GOLD software.
#

@<TRIPOS>MOLECULE
AV-unprocessed.smi:3145
    39    39     1
SMALL
NO_CHARGES


@<TRIPOS>ATOM
      1 ****        -1.5898   0.8949   0.9173 C.3            1 S1                 0.0000
      2 ****        -0.4620   0.8732  -0.1284 C.3            1 S1                 0.0000
      3 ****        -0.9382   1.3238  -1.5289 C.3            1 S1                 0.0000
      4 ****        -1.6018   2.6151  -1.5180 N.pl3          1 S1                 0.0000
      5 ****        -2.9273   2.9005  -1.7704 C.2            1 S1                 0.0000
      6 ****        -3.0815   4.2519  -1.6512 C.2            1 S1                 0.0000
      7 ****        -1.7755   4.7138  -1.3259 C.2            1 S1                 0.0000
      8 ****        -0.8912   3.7320  -1.2502 N.2            1 S1                 0.0000
      9 ****         0.1272  -0.4820  -0.1791 N.4            1 S1                 1.0000
     10 ****         1.4618  -0.5767  -0.8077 C.3            1 S1                 0.0000
     11 ****         1.9922  -2.0024  -0.6441 C.2            1 S1                 0.0000
     12 ****         2.1374  -2.6949  -1.6561 O.2            1 S1                 0.0000
     13 ****         2.2219  -2.2874   0.6673 N.pl3          1 S1                -1.0000
     14 ****         2.6649  -3.5937   1.1476 C.3            1 S1                 0.0000
     15 ****         2.5192  -3.6661   2.6752 C.3            1 S1                 0.0000
     16 ****         1.1254  -3.5985   3.1494 C.1            1 S1                 0.0000
     17 ****         0.0306  -3.5447   3.5251 N.1            1 S1                 0.0000
     18 ****        -1.9785   1.9022   1.0692 H              1 S1                 0.0000
     19 ****        -1.2326   0.5401   1.8849 H              1 S1                 0.0000
     20 ****        -2.4221   0.2579   0.6165 H              1 S1                 0.0000
     21 ****         0.3131   1.5582   0.2189 H              1 S1                 0.0000
     22 ****        -0.1001   1.3864  -2.2235 H              1 S1                 0.0000
     23 ****        -1.6303   0.5889  -1.9426 H              1 S1                 0.0000
     24 ****        -3.6426   2.1270  -2.0085 H              1 S1                 0.0000
     25 ****        -3.9887   4.8236  -1.7792 H              1 S1                 0.0000
     26 ****        -1.4460   5.7265  -1.1456 H              1 S1                 0.0000
     27 ****         0.2432  -0.8076   0.7706 H              1 S1                 0.0000
     28 ****         1.4010  -0.3277  -1.8674 H              1 S1                 0.0000
     29 ****         2.1523   0.1300  -0.3442 H              1 S1                 0.0000
     30 ****         2.0975  -4.4111   0.7005 H              1 S1                 0.0000
     31 ****         3.7076  -3.7775   0.8870 H              1 S1                 0.0000
     32 ****         2.9391  -4.6034   3.0409 H              1 S1                 0.0000
     33 ****         3.0785  -2.8608   3.1527 H              1 S1                 0.0000
     34 ****        -0.5056  -1.1103  -0.6524 H              1 S1                 0.0000
     35 ****         0.0843   3.8015  -1.0415 LP             1 S1                 0.0000
     36 ****         1.9100  -2.3205  -2.5550 LP             1 S1                 0.0000
     37 ****         2.4825  -3.6302  -1.5767 LP             1 S1                 0.0000
     38 ****         2.0792  -1.5612   1.3398 LP             1 S1                 0.0000
     39 ****        -0.9142  -3.4983   3.8493 LP             1 S1                 0.0000
@<TRIPOS>BOND
    1    1    2 1     
    2    1   18 1     
    3    1   19 1     
    4    1   20 1     
    5    2    3 1     
    6    2    9 1     
    7    2   21 1     
    8    3    4 1     
    9    3   22 1     
   10    3   23 1     
   11    4    8 1     
   12    4    5 1     
   13    5    6 2     
   14    5   24 1     
   15    6    7 1     
   16    6   25 1     
   17    7    8 2     
   18    7   26 1     
   19    9   10 1     
   20    9   27 1     
   21    9   34 1     
   22   10   11 1     
   23   10   28 1     
   24   10   29 1     
   25   11   12 2     
   26   11   13 1     
   27   13   14 1     
   28   14   15 1     
   29   14   30 1     
   30   14   31 1     
   31   15   16 1     
   32   15   32 1     
   33   15   33 1     
   34   16   17 3     
   35    8   35 1     
   36   12   36 1     
   37   12   37 1     
   38   13   38 1     
   39   17   39 1     
@<TRIPOS>SUBSTRUCTURE
      1 S1             1
@<TRIPOS>SET
LONE_PAIRS      STATIC     ATOMS    <user>   **** ""
5 35 36 37 38 39
DONOR_HYDROGENS      STATIC     ATOMS    <user>   **** ""
2 27 34
ATOM$BLUE        STATIC     ATOMS    COLORGROUP SYSTEM
5 35 36 37 38 39
ATOM$RED        STATIC     ATOMS    COLORGROUP SYSTEM
2 27 34
