AV-unprocessed.smi:104|AV-procd|sdf|998|dock10
  -GOLD-   2262017583D 1   1.00000     0.00000
 Structure written by MMmdl.
 47 49  0  0  0  0  0  0  0  0  1 V2000
  147.2964  135.4422  161.9892 C   0  0  0  0  0  0  0  0  0  0  0  0
  147.2080  136.2585  160.7066 C   0  0  0  0  0  0  0  0  0  0  0  0
  146.5563  137.3010  160.6561 O   0  0  0  0  0  0  0  0  0  0  0  0
  147.9047  135.7048  159.6983 O   0  0  0  0  0  0  0  0  0  0  0  0
  147.9523  136.3225  158.4187 C   0  0  0  0  0  0  0  0  0  0  0  0
  148.0738  135.2644  157.3075 C   0  0  1  0  0  0  0  0  0  0  0  0
  146.9839  135.3351  156.4048 O   0  0  0  0  0  0  0  0  0  0  0  0
  147.3200  134.5717  155.2925 C   0  0  1  0  0  0  0  0  0  0  0  0
  146.6124  135.1309  154.1037 N   0  0  0  0  0  0  0  0  0  0  0  0
  146.0045  136.3555  153.9443 C   0  0  0  0  0  0  0  0  0  0  0  0
  145.9469  137.6562  155.3343 Br  0  0  0  0  0  0  0  0  0  0  0  0
  145.4460  136.5958  152.7908 N   0  0  0  0  0  0  0  0  0  0  0  0
  145.6875  135.4243  152.0835 C   0  0  0  0  0  0  0  0  0  0  0  0
  145.3678  134.9777  150.7766 C   0  0  0  0  0  0  0  0  0  0  0  0
  144.6886  135.7239  149.8950 N   0  0  0  0  0  0  0  0  0  0  0  0
  145.7652  133.7394  150.4002 N   0  0  0  0  0  0  0  0  0  0  0  0
  146.4443  132.9743  151.2611 C   0  0  0  0  0  0  0  0  0  0  0  0
  146.8177  133.2541  152.5124 N   0  0  0  0  0  0  0  0  0  0  0  0
  146.4158  134.5029  152.8910 C   0  0  0  0  0  0  0  0  0  0  0  0
  148.8431  134.6705  155.1087 C   0  0  2  0  0  0  0  0  0  0  0  0
  149.4277  133.3806  154.9921 O   0  0  0  0  0  0  0  0  0  0  0  0
  149.2833  132.4841  155.9837 C   0  0  0  0  0  0  0  0  0  0  0  0
  150.2319  131.3018  155.8399 C   0  0  0  0  0  0  0  0  0  0  0  0
  148.4971  132.5668  156.9273 O   0  0  0  0  0  0  0  0  0  0  0  0
  149.3081  135.3425  156.3995 C   0  0  1  0  0  0  0  0  0  0  0  0
  149.6740  136.6920  156.1351 O   0  0  0  0  0  0  0  0  0  0  0  0
  150.6939  136.9726  155.3061 C   0  0  0  0  0  0  0  0  0  0  0  0
  150.8165  138.4640  155.0262 C   0  0  0  0  0  0  0  0  0  0  0  0
  151.4639  136.1552  154.8020 O   0  0  0  0  0  0  0  0  0  0  0  0
  148.1976  135.7063  162.5421 H   0  0  0  0  0  0  0  0  0  0  0  0
  147.3267  134.3759  161.7642 H   0  0  0  0  0  0  0  0  0  0  0  0
  146.4312  135.6349  162.6240 H   0  0  0  0  0  0  0  0  0  0  0  0
  147.0058  136.8488  158.2946 H   0  0  0  0  0  0  0  0  0  0  0  0
  148.7298  137.0842  158.3466 H   0  0  0  0  0  0  0  0  0  0  0  0
  148.0319  134.2718  157.7607 H   0  0  0  0  0  0  0  0  0  0  0  0
  146.9570  133.5513  155.4147 H   0  0  0  0  0  0  0  0  0  0  0  0
  144.3804  136.6505  150.1526 H   0  0  0  0  0  0  0  0  0  0  0  0
  144.4846  135.3583  148.9761 H   0  0  0  0  0  0  0  0  0  0  0  0
  146.7290  131.9985  150.8961 H   0  0  0  0  0  0  0  0  0  0  0  0
  149.0858  135.2905  154.2436 H   0  0  0  0  0  0  0  0  0  0  0  0
  151.2644  131.6294  155.9616 H   0  0  0  0  0  0  0  0  0  0  0  0
  150.1250  130.8465  154.8553 H   0  0  0  0  0  0  0  0  0  0  0  0
  150.0181  130.5454  156.5952 H   0  0  0  0  0  0  0  0  0  0  0  0
  150.1472  134.8185  156.8607 H   0  0  0  0  0  0  0  0  0  0  0  0
  151.0610  139.0007  155.9429 H   0  0  0  0  0  0  0  0  0  0  0  0
  149.8763  138.8538  154.6356 H   0  0  0  0  0  0  0  0  0  0  0  0
  151.6012  138.6541  154.2936 H   0  0  0  0  0  0  0  0  0  0  0  0
  1  2  1  0  0  0  0
  1 30  1  0  0  0  0
  1 31  1  0  0  0  0
  1 32  1  0  0  0  0
  2  3  2  0  0  0  0
  2  4  1  0  0  0  0
  4  5  1  0  0  0  0
  5  6  1  0  0  0  0
  5 33  1  0  0  0  0
  5 34  1  0  0  0  0
  6 25  1  0  0  0  0
  6  7  1  0  0  0  0
  6 35  1  0  0  0  0
  7  8  1  0  0  0  0
  8  9  1  0  0  0  0
  8 20  1  0  0  0  0
  8 36  1  0  0  0  0
  9 19  1  0  0  0  0
  9 10  1  0  0  0  0
 10 11  1  0  0  0  0
 10 12  2  0  0  0  0
 12 13  1  0  0  0  0
 13 19  2  0  0  0  0
 13 14  1  0  0  0  0
 14 15  1  0  0  0  0
 14 16  2  0  0  0  0
 15 37  1  0  0  0  0
 15 38  1  0  0  0  0
 16 17  1  0  0  0  0
 17 18  2  0  0  0  0
 17 39  1  0  0  0  0
 18 19  1  0  0  0  0
 20 21  1  0  0  0  0
 20 25  1  0  0  0  0
 20 40  1  0  0  0  0
 21 22  1  0  0  0  0
 22 23  1  0  0  0  0
 22 24  2  0  0  0  0
 23 41  1  0  0  0  0
 23 42  1  0  0  0  0
 23 43  1  0  0  0  0
 25 26  1  0  0  0  0
 25 44  1  0  0  0  0
 26 27  1  0  0  0  0
 27 28  1  0  0  0  0
 27 29  2  0  0  0  0
 28 45  1  0  0  0  0
 28 46  1  0  0  0  0
 28 47  1  0  0  0  0
M  END
> <s_m_source_file>
AV-unprocessed.smi

> <i_m_source_file_index>
104

> <i_lp_mmshare_version>
43012

> <i_f3d_flags>
0

> <s_epik_input>
W0NIM11DKD1PKU9bQ0gyXVtDQEBIXTFPW0NASF0oW0NAQEhdKE9DKD1PKVtDSDNdKVtDQEhdMU9DKD1PKVtDSDNdKW4oYyhCciluMiljKGMyMyluW2NIXW5jM1tOSDJd

> <s_epik_cmdline>
J2VwaWtfcHl0aG9uJywgJy1waCcsICc3LjAnLCAnLXRuJywgJzgnLCAnLW1hJywgJzIwMCcsICctbWV0YWxfYmluZGluZycsICctaW1hZScsICc8aW5maWxlLm1hZT4nLCAnLW9tYWUnLCAnPG91dGZpbGUubWFlPic=

> <r_lp_tautomer_probability>
1

> <r_epik_Ionization_Penalty>
7.36622e-05

> <r_epik_Ionization_Penalty_Charging>
0

> <r_epik_Ionization_Penalty_Neutral>
7.36622e-05

> <r_epik_State_Penalty>
-0

> <r_epik_Charging_Adjusted_Penalty>
0

> <i_epik_Tot_Q>
0

> <i_epik_Tot_abs_Q>
0

> <r_epik_Metal_State_Penalty>
-0

> <b_epik_Metal_Only>
0

> <s_epik_Chemistry_Notes>
This compound has an ester and may undergo hydrolysis at high or low pH. This compound contains an acetal/aminal-like group ( X-CH(R)-Y where X, Y are N, S, or O) that may be acid/base labile, releasing an aldehyde.

> <s_lp_Force_Field>
OPLS_2005

> <r_lp_Energy>
14.1863

> <b_lp_Chiralities_Consistent>
1

> <s_lp_Variant>
AV-unprocessed.smi:104-6

> <Gold.Version>
5.8.1

> <Gold.Id.Protein>
6NUR|6NUR_protein|mol2

> <Gold.PLP.Fitness>
40.0135

> <Gold.PLP.PLP>
-30.4612

> <Gold.PLP.part.hbond>
-4.0000

> <Gold.PLP.part.metal>
0.0000

> <Gold.PLP.part.buried>
-4.7833

> <Gold.PLP.part.nonpolar>
-22.6625

> <Gold.PLP.part.repulsive>
1.7669

> <Gold.PLP.ligand.clash>
0.0000

> <Gold.PLP.ligand.torsion>
1.6329

> <Gold.PLP.Chemscore.Hbond>
3.2231

> <Gold.PLP.Chemscore.CHOScore>
1.0000

> <Gold.PLP.Chemscore.Metal>
0.0000

> <Gold.Chemscore.Hbonds>
donor molecule, donor type, donor heavy atom, donor atom, acceptor molecule, acceptor atom, score
      L1  H    15    37       P1 10171  1.00
      L1  H    15    38       P1  7921  0.25
      P1  H  6934  6947       L1     3  1.00
      P1  H 10752 10763       L1    29  1.00
      L1  C    17    39       P1 10747  0.84

> <Gold.PLP.Chemscore.Internal.Correction>
0.1488

> <Gold.Rescore>
     Score         DG    S(hbond)    S(metal)    S(lipo)     H(rot)  DE(clash)    DE(int)     intcor
      2.86      -9.35       3.18        0.00      36.54       4.31       0.41       6.08       ----

> <Gold.Chemscore.Fitness>
2.8631

> <Gold.Chemscore.DG>
-9.3527

> <Gold.Chemscore.ZeroCoef>
-5.4800

> <Gold.Chemscore.Hbond>
3.1808

> <Gold.Chemscore.Metal>
0.0000

> <Gold.Chemscore.Lipo>
36.5353

> <Gold.Chemscore.Internal_Hbond>
0.0000

> <Gold.Chemscore.DEClash>
0.4137

> <Gold.Chemscore.DEInternal>
6.0759

> <Gold.Chemscore.Rot>
4.3070

> <Gold.Chemscore.Internal.Correction>
   9.000000E+99

> <Gold.Chemscore.Hbonds>
donor molecule, donor type, donor heavy atom, donor atom, acceptor molecule, acceptor atom, score
      L1  H    15    37       P1 10171  0.93
      L1  H    15    38       P1  7921  0.24
      P1  H  6934  6947       L1     3  1.00
      P1  H 10752 10763       L1    29  0.99

> <Gold.Chemscore.Hbond.Weighted>
-10.6239

> <Gold.Chemscore.Metal.Weighted>
-0.0000

> <Gold.Chemscore.Lipo.Weighted>
-4.2746

> <Gold.Chemscore.Internal_Hbond.Weighted>
0.0000

> <Gold.Chemscore.DEClash.Weighted>
0.4137

> <Gold.Chemscore.DEInternal.Weighted>
6.0759

> <Gold.Chemscore.Rot.Weighted>
11.0259

> <Gold.Chemscore.Internal.Correction.Weighted>
   9.000000E+99

> <Gold.Protein.RotatedTorsions>
[ 6907 6896 6895 6894 ] final  -54.06 input  -60.11 | X-H torsion
[ 7974 7965 7964 7962 ] final  170.32 input  175.53 | X-H torsion
[ 8008 7997 7996 7995 ] final  -14.53 input   59.86 | X-H torsion
[ 10167 10162 10161 10158 ] final  130.58 input  -65.29 | X-H torsion
[ 10718 10713 10712 10709 ] final   80.99 input   66.30 | X-H torsion
[ 10763 10752 10751 10750 ] final   42.64 input  -60.55 | X-H torsion
[ 11005 11000 10999 10996 ] final -158.50 input  -57.11 | X-H torsion

> <Gold.Protein.ActiveResidues>
 VAL166  LYS551  ARG553  GLY616  TRP617  ASP618  TYR619  PRO620  LYS621  CYS622 
 ASP623  PHE694  ASN695  SER759  ASP760  ASP761  ALA762  ILE779  LEU786  VAL792 
 PHE793  MET794  SER795  GLU796  ALA797  LYS798  CYS799  TRP800  GLU811  SER814 

> <Gold.Protein.RotatedAtoms>
  150.8372  134.7649  159.6902 H   0  0  0  0  0  0  0  0  0  0  0  0  # atno 6907 bound_to 6896
  152.4466  134.5478  159.9868 H   0  0  0  0  0  0  0  0  0  0  0  0  # atno 6908 bound_to 6896
  151.5626  133.3363  159.3010 H   0  0  0  0  0  0  0  0  0  0  0  0  # atno 6909 bound_to 6896
  144.7327  139.9184  143.6419 H   0  0  0  0  0  0  0  0  0  0  0  0  # atno 7974 bound_to 7965
  154.5203  140.2220  155.8988 H   0  0  0  0  0  0  0  0  0  0  0  0  # atno 8008 bound_to 7997
  156.1654  140.3133  155.8845 H   0  0  0  0  0  0  0  0  0  0  0  0  # atno 8009 bound_to 7997
  155.3667  140.0464  157.3036 H   0  0  0  0  0  0  0  0  0  0  0  0  # atno 8010 bound_to 7997
  139.5423  144.6742  151.4583 H   0  0  0  0  0  0  0  0  0  0  0  0  # atno 10167 bound_to 10162
  157.6821  130.9984  150.2160 H   0  0  0  0  0  0  0  0  0  0  0  0  # atno 10718 bound_to 10713
  152.9878  135.6125  154.2982 H   0  0  0  0  0  0  0  0  0  0  0  0  # atno 10763 bound_to 10752
  154.2704  135.2779  155.2742 H   0  0  0  0  0  0  0  0  0  0  0  0  # atno 10764 bound_to 10752
  154.5127  135.5836  153.6674 H   0  0  0  0  0  0  0  0  0  0  0  0  # atno 10765 bound_to 10752
  140.6529  134.4431  157.5235 H   0  0  0  0  0  0  0  0  0  0  0  0  # atno 11005 bound_to 11000
  146.0948  139.3940  143.0383 LP  0  0  0  0  0  0  0  0  0  0  0  0  # atno 17320 bound_to 7965
  145.7661  140.9916  143.1174 LP  0  0  0  0  0  0  0  0  0  0  0  0  # atno 17321 bound_to 7965
  140.6658  143.8400  150.6941 LP  0  0  0  0  0  0  0  0  0  0  0  0  # atno 17342 bound_to 10162
  140.1809  143.4116  152.1933 LP  0  0  0  0  0  0  0  0  0  0  0  0  # atno 17343 bound_to 10162
  156.2821  130.3735  149.7924 LP  0  0  0  0  0  0  0  0  0  0  0  0  # atno 17370 bound_to 10713
  156.5609  130.8383  151.3328 LP  0  0  0  0  0  0  0  0  0  0  0  0  # atno 17371 bound_to 10713
  139.9039  134.8492  156.1782 LP  0  0  0  0  0  0  0  0  0  0  0  0  # atno 17394 bound_to 11000
  141.0523  133.6882  156.1795 LP  0  0  0  0  0  0  0  0  0  0  0  0  # atno 17395 bound_to 11000

$$$$
