AV-unprocessed.smi:2881|AV-procd|sdf|11060|dock8
  -GOLD-   2272015533D 1   1.00000     0.00000
 Structure written by MMmdl.
 40 42  0  0  0  0  0  0  0  0  1 V2000
  146.3719  133.9080  162.5064 C   0  0  0  0  0  0  0  0  0  0  0  0
  147.0602  134.9988  161.7587 C   0  0  0  0  0  0  0  0  0  0  0  0
  147.8765  134.9679  160.6636 C   0  0  0  0  0  0  0  0  0  0  0  0
  148.2048  136.3367  160.4277 C   0  0  0  0  0  0  0  0  0  0  0  0
  149.0739  136.9092  159.3396 C   0  0  0  0  0  0  0  0  0  0  0  0
  148.2776  137.9136  158.5061 C   0  0  0  0  0  0  0  0  0  0  0  0
  147.0840  138.1024  158.7399 O   0  0  0  0  0  0  0  0  0  0  0  0
  148.9500  138.5499  157.5351 N   0  0  0  0  0  0  0  0  0  0  0  0
  148.3679  139.5172  156.6086 C   0  0  1  0  0  0  0  0  0  0  0  0
  148.6296  140.9921  157.0050 C   0  0  1  0  0  0  0  0  0  0  0  0
  150.1296  141.2517  157.2628 C   0  0  0  0  0  0  0  0  0  0  0  0
  150.7362  141.1498  155.8509 C   0  0  0  0  0  0  0  0  0  0  0  0
  149.5032  140.8718  154.9693 C   0  0  2  0  0  0  0  0  0  0  0  0
  148.4351  141.7024  155.6720 C   0  0  0  0  0  0  0  0  0  0  0  0
  149.0221  139.4199  155.2062 C   0  0  2  0  0  0  0  0  0  0  0  0
  148.0468  138.9050  154.1301 C   0  0  0  0  0  0  0  0  0  0  0  0
  148.7184  138.7326  152.9001 O   0  0  0  0  0  0  0  0  0  0  0  0
  147.6440  137.1480  161.3139 N   0  0  0  0  0  0  0  0  0  0  0  0
  146.9483  136.3221  162.1171 N   0  0  0  0  0  0  0  0  0  0  0  0
  146.4075  136.6719  162.8952 H   0  0  0  0  0  0  0  0  0  0  0  0
  146.3539  132.9876  161.9222 H   0  0  0  0  0  0  0  0  0  0  0  0
  145.3412  134.1813  162.7343 H   0  0  0  0  0  0  0  0  0  0  0  0
  146.8842  133.7010  163.4461 H   0  0  0  0  0  0  0  0  0  0  0  0
  148.1893  134.0972  160.1067 H   0  0  0  0  0  0  0  0  0  0  0  0
  149.9517  137.4038  159.7583 H   0  0  0  0  0  0  0  0  0  0  0  0
  149.4475  136.1140  158.6931 H   0  0  0  0  0  0  0  0  0  0  0  0
  149.9294  138.3358  157.4162 H   0  0  0  0  0  0  0  0  0  0  0  0
  147.2918  139.3460  156.5350 H   0  0  0  0  0  0  0  0  0  0  0  0
  147.9835  141.3482  157.8081 H   0  0  0  0  0  0  0  0  0  0  0  0
  150.2786  142.2540  157.6663 H   0  0  0  0  0  0  0  0  0  0  0  0
  150.5792  140.5503  157.9655 H   0  0  0  0  0  0  0  0  0  0  0  0
  151.2107  142.0908  155.5702 H   0  0  0  0  0  0  0  0  0  0  0  0
  151.4876  140.3628  155.7760 H   0  0  0  0  0  0  0  0  0  0  0  0
  149.6627  141.1222  153.9201 H   0  0  0  0  0  0  0  0  0  0  0  0
  147.4343  141.5753  155.2564 H   0  0  0  0  0  0  0  0  0  0  0  0
  148.6698  142.7678  155.7095 H   0  0  0  0  0  0  0  0  0  0  0  0
  149.8827  138.7482  155.2277 H   0  0  0  0  0  0  0  0  0  0  0  0
  147.6326  137.9419  154.4302 H   0  0  0  0  0  0  0  0  0  0  0  0
  147.2076  139.5865  153.9908 H   0  0  0  0  0  0  0  0  0  0  0  0
  148.8116  137.8066  152.7352 H   0  0  0  0  0  0  0  0  0  0  0  0
  1  2  1  0  0  0  0
  1 21  1  0  0  0  0
  1 22  1  0  0  0  0
  1 23  1  0  0  0  0
  2 19  1  0  0  0  0
  2  3  2  0  0  0  0
  3  4  1  0  0  0  0
  3 24  1  0  0  0  0
  4  5  1  0  0  0  0
  4 18  2  0  0  0  0
  5  6  1  0  0  0  0
  5 25  1  0  0  0  0
  5 26  1  0  0  0  0
  6  7  2  0  0  0  0
  6  8  1  0  0  0  0
  8  9  1  0  0  0  0
  8 27  1  0  0  0  0
  9 15  1  0  0  0  0
  9 10  1  0  0  0  0
  9 28  1  0  0  0  0
 10 14  1  0  0  0  0
 10 11  1  0  0  0  0
 10 29  1  0  0  0  0
 11 12  1  0  0  0  0
 11 30  1  0  0  0  0
 11 31  1  0  0  0  0
 12 13  1  0  0  0  0
 12 32  1  0  0  0  0
 12 33  1  0  0  0  0
 13 14  1  0  0  0  0
 13 15  1  0  0  0  0
 13 34  1  0  0  0  0
 14 35  1  0  0  0  0
 14 36  1  0  0  0  0
 15 16  1  0  0  0  0
 15 37  1  0  0  0  0
 16 17  1  0  0  0  0
 16 38  1  0  0  0  0
 16 39  1  0  0  0  0
 17 40  1  0  0  0  0
 18 19  1  0  0  0  0
 19 20  1  0  0  0  0
M  END
> <s_m_source_file>
AV-unprocessed.smi

> <i_m_source_file_index>
2881

> <i_lp_mmshare_version>
43012

> <i_f3d_flags>
0

> <s_epik_input>
W0NIM11jMVtjSF1jKG5bbkhdMSlbQ0gyXUMoPU8pW05IXVtDQEhdKFtDQEBIXTIzKVtDQEhdKFtDSDJdW09IXSlbQ0BASF0oW0NIMl0zKVtDSDJdW0NIMl0y

> <s_epik_cmdline>
J2VwaWtfcHl0aG9uJywgJy1waCcsICc3LjAnLCAnLXRuJywgJzgnLCAnLW1hJywgJzIwMCcsICctbWV0YWxfYmluZGluZycsICctaW1hZScsICc8aW5maWxlLm1hZT4nLCAnLW9tYWUnLCAnPG91dGZpbGUubWFlPic=

> <r_lp_tautomer_probability>
0.5

> <r_epik_Ionization_Penalty>
9.4349e-05

> <r_epik_Ionization_Penalty_Charging>
0

> <r_epik_Ionization_Penalty_Neutral>
9.4349e-05

> <r_epik_State_Penalty>
0.41068

> <r_epik_Charging_Adjusted_Penalty>
0.41068

> <i_epik_Tot_Q>
0

> <i_epik_Tot_abs_Q>
0

> <r_epik_Metal_State_Penalty>
0.4107

> <b_epik_Metal_Only>
0

> <s_lp_Force_Field>
OPLS_2005

> <r_lp_Energy>
47.9612

> <b_lp_Chiralities_Consistent>
1

> <s_lp_Variant>
AV-unprocessed.smi:2881-6

> <Gold.Version>
5.8.1

> <Gold.Id.Protein>
6NUR|6NUR_protein|mol2

> <Gold.PLP.Fitness>
37.7930

> <Gold.PLP.PLP>
-29.9494

> <Gold.PLP.part.hbond>
-4.4325

> <Gold.PLP.part.metal>
0.0000

> <Gold.PLP.part.buried>
-3.3744

> <Gold.PLP.part.nonpolar>
-22.3910

> <Gold.PLP.part.repulsive>
0.2052

> <Gold.PLP.ligand.clash>
0.0000

> <Gold.PLP.ligand.torsion>
0.3601

> <Gold.PLP.Chemscore.Hbond>
2.8480

> <Gold.PLP.Chemscore.CHOScore>
0.0000

> <Gold.PLP.Chemscore.Metal>
0.0000

> <Gold.Chemscore.Hbonds>
donor molecule, donor type, donor heavy atom, donor atom, acceptor molecule, acceptor atom, score
      L1  H    17    40       P1  7948  1.00
      P1  H  6931  6943       L1    18  0.98
      P1  H  6934  6947       L1    18  0.85

> <Gold.PLP.Chemscore.Internal.Correction>
0.0198

> <Gold.Rescore>
     Score         DG    S(hbond)    S(metal)    S(lipo)     H(rot)  DE(clash)    DE(int)     intcor
     14.65     -16.40       2.65        0.00      67.62       2.28       0.16       1.60       ----

> <Gold.Chemscore.Fitness>
14.6456

> <Gold.Chemscore.DG>
-16.4012

> <Gold.Chemscore.ZeroCoef>
-5.4800

> <Gold.Chemscore.Hbond>
2.6453

> <Gold.Chemscore.Metal>
0.0000

> <Gold.Chemscore.Lipo>
67.6155

> <Gold.Chemscore.Internal_Hbond>
0.0000

> <Gold.Chemscore.DEClash>
0.1550

> <Gold.Chemscore.DEInternal>
1.6006

> <Gold.Chemscore.Rot>
2.2755

> <Gold.Chemscore.Internal.Correction>
   9.000000E+99

> <Gold.Chemscore.Hbonds>
donor molecule, donor type, donor heavy atom, donor atom, acceptor molecule, acceptor atom, score
      L1  H    17    40       P1  7948  1.00
      P1  H  6931  6943       L1    18  0.46
      P1  H  6934  6947       L1    18  0.83

> <Gold.Chemscore.Hbond.Weighted>
-8.8354

> <Gold.Chemscore.Metal.Weighted>
-0.0000

> <Gold.Chemscore.Lipo.Weighted>
-7.9110

> <Gold.Chemscore.Internal_Hbond.Weighted>
0.0000

> <Gold.Chemscore.DEClash.Weighted>
0.1550

> <Gold.Chemscore.DEInternal.Weighted>
1.6006

> <Gold.Chemscore.Rot.Weighted>
5.8252

> <Gold.Chemscore.Internal.Correction.Weighted>
   9.000000E+99

> <Gold.Protein.RotatedTorsions>
[ 6907 6896 6895 6894 ] final   11.32 input  -60.11 | X-H torsion
[ 7974 7965 7964 7962 ] final -120.78 input  175.53 | X-H torsion
[ 8008 7997 7996 7995 ] final   85.57 input   59.86 | X-H torsion
[ 10167 10162 10161 10158 ] final -161.76 input  -65.29 | X-H torsion
[ 10718 10713 10712 10709 ] final  123.94 input   66.30 | X-H torsion
[ 10763 10752 10751 10750 ] final  -22.87 input  -60.55 | X-H torsion
[ 11005 11000 10999 10996 ] final -110.83 input  -57.11 | X-H torsion

> <Gold.Protein.ActiveResidues>
 VAL166  LYS551  ARG553  GLY616  TRP617  ASP618  TYR619  PRO620  LYS621  CYS622 
 ASP623  PHE694  ASN695  SER759  ASP760  ASP761  ALA762  ILE779  LEU786  VAL792 
 PHE793  MET794  SER795  GLU796  ALA797  LYS798  CYS799  TRP800  GLU811  SER814 

> <Gold.Protein.RotatedAtoms>
  151.7524  135.0829  160.0332 H   0  0  0  0  0  0  0  0  0  0  0  0  # atno 6907 bound_to 6896
  152.3408  133.6060  159.5883 H   0  0  0  0  0  0  0  0  0  0  0  0  # atno 6908 bound_to 6896
  150.7478  133.9642  159.3567 H   0  0  0  0  0  0  0  0  0  0  0  0  # atno 6909 bound_to 6896
  145.0476  140.8193  143.4229 H   0  0  0  0  0  0  0  0  0  0  0  0  # atno 7974 bound_to 7965
  155.9518  140.3400  155.6414 H   0  0  0  0  0  0  0  0  0  0  0  0  # atno 8008 bound_to 7997
  155.6911  140.0749  157.2466 H   0  0  0  0  0  0  0  0  0  0  0  0  # atno 8009 bound_to 7997
  154.4123  140.1657  156.2074 H   0  0  0  0  0  0  0  0  0  0  0  0  # atno 8010 bound_to 7997
  139.6441  144.0204  152.2114 H   0  0  0  0  0  0  0  0  0  0  0  0  # atno 10167 bound_to 10162
  157.5625  131.1088  150.8514 H   0  0  0  0  0  0  0  0  0  0  0  0  # atno 10718 bound_to 10713
  153.6588  135.6977  153.5184 H   0  0  0  0  0  0  0  0  0  0  0  0  # atno 10763 bound_to 10752
  153.2648  135.4233  155.0929 H   0  0  0  0  0  0  0  0  0  0  0  0  # atno 10764 bound_to 10752
  154.8457  135.3564  154.6132 H   0  0  0  0  0  0  0  0  0  0  0  0  # atno 10765 bound_to 10752
  141.0769  133.9285  157.2370 H   0  0  0  0  0  0  0  0  0  0  0  0  # atno 11005 bound_to 11000
  145.1568  139.2482  143.5412 LP  0  0  0  0  0  0  0  0  0  0  0  0  # atno 17320 bound_to 7965
  146.3515  140.1285  142.8598 LP  0  0  0  0  0  0  0  0  0  0  0  0  # atno 17321 bound_to 7965
  139.9901  144.6367  150.7822 LP  0  0  0  0  0  0  0  0  0  0  0  0  # atno 17342 bound_to 10162
  140.7506  143.2958  151.3209 LP  0  0  0  0  0  0  0  0  0  0  0  0  # atno 17343 bound_to 10162
  156.9008  130.5246  149.5283 LP  0  0  0  0  0  0  0  0  0  0  0  0  # atno 17370 bound_to 10713
  156.0676  130.5716  150.9319 LP  0  0  0  0  0  0  0  0  0  0  0  0  # atno 17371 bound_to 10713
  139.9582  135.0160  156.9187 LP  0  0  0  0  0  0  0  0  0  0  0  0  # atno 17394 bound_to 11000
  140.5553  134.0588  155.7381 LP  0  0  0  0  0  0  0  0  0  0  0  0  # atno 17395 bound_to 11000

$$$$
