#       Name:                AV-unprocessed.smi:2124
#       Creating user name   scv26
#       Creation time:       Fri Mar 27 11:40:17 2020


#       File generated by GOLD software.
#

@<TRIPOS>MOLECULE
AV-unprocessed.smi:2124
    52    54     1
SMALL
NO_CHARGES


@<TRIPOS>ATOM
      1 ****        -4.1304   5.6167  -0.5439 C.3            1 S1                 0.0000
      2 ****        -3.5981   4.2193  -0.7797 C.2            1 S1                 0.0000
      3 ****        -3.4566   3.6899  -1.9503 N.2            1 S1                 0.0000
      4 ****        -2.9478   2.3870  -2.0439 C.2            1 S1                 0.0000
      5 ****        -2.8041   1.8396  -3.4534 C.3            1 S1                 0.0000
      6 ****        -2.6096   1.6698  -0.9324 C.2            1 S1                 0.0000
      7 ****        -2.0450   0.2516  -0.9924 C.3            1 S1                 0.0000
      8 ****        -0.5217   0.1412  -1.1019 C.2            1 S1                 0.0000
      9 ****         0.1417   1.0671  -1.5693 O.2            1 S1                 0.0000
     10 ****         0.0186  -1.0036  -0.6577 N.am           1 S1                 0.0000
     11 ****         1.4461  -1.3176  -0.6280 C.3            1 S1                 0.0000
     12 ****         1.8342  -1.9946  -1.9548 C.3            1 S1                 0.0000
     13 ****         1.7529  -2.1953   0.6108 C.3            1 S1                 0.0000
     14 ****         1.3225  -1.5483   1.9523 C.3            1 S1                 0.0000
     15 ****         2.6039  -1.6031   2.8018 C.3            1 S1                 0.0000
     16 ****         2.9170  -3.0640   3.1717 C.3            1 S1                 0.0000
     17 ****         3.3976  -3.6549   1.8333 C.3            1 S1                 0.0000
     18 ****         3.2581  -2.4640   0.8650 C.3            1 S1                 0.0000
     19 ****         3.6716  -1.2999   1.7598 C.3            1 S1                 0.0000
     20 ****        -2.7749   2.2839   0.3989 C.2            1 S1                 0.0000
     21 ****        -2.4930   1.7305   1.4607 O.2            1 S1                 0.0000
     22 ****        -3.2672   3.5429   0.3934 N.am           1 S1                 0.0000
     23 ****        -3.3957   4.0083   1.2799 H              1 S1                 0.0000
     24 ****        -3.5071   6.3469  -1.0606 H              1 S1                 0.0000
     25 ****        -4.1436   5.8699   0.5172 H              1 S1                 0.0000
     26 ****        -5.1473   5.7004  -0.9278 H              1 S1                 0.0000
     27 ****        -3.5122   1.0277  -3.6191 H              1 S1                 0.0000
     28 ****        -1.7958   1.4609  -3.6216 H              1 S1                 0.0000
     29 ****        -2.9971   2.6114  -4.1994 H              1 S1                 0.0000
     30 ****        -2.3855  -0.3136  -0.1232 H              1 S1                 0.0000
     31 ****        -2.4728  -0.2716  -1.8471 H              1 S1                 0.0000
     32 ****        -0.6062  -1.7068  -0.2908 H              1 S1                 0.0000
     33 ****         2.0128  -0.3892  -0.5392 H              1 S1                 0.0000
     34 ****         2.9066  -2.1731  -2.0216 H              1 S1                 0.0000
     35 ****         1.5643  -1.3699  -2.8070 H              1 S1                 0.0000
     36 ****         1.3282  -2.9530  -2.0745 H              1 S1                 0.0000
     37 ****         1.2316  -3.1458   0.4841 H              1 S1                 0.0000
     38 ****         1.0178  -0.5092   1.8176 H              1 S1                 0.0000
     39 ****         0.4902  -2.0759   2.4194 H              1 S1                 0.0000
     40 ****         2.5895  -0.9275   3.6576 H              1 S1                 0.0000
     41 ****         3.7085  -3.1160   3.9202 H              1 S1                 0.0000
     42 ****         2.0448  -3.5852   3.5684 H              1 S1                 0.0000
     43 ****         4.4388  -3.9712   1.9081 H              1 S1                 0.0000
     44 ****         2.8098  -4.5193   1.5223 H              1 S1                 0.0000
     45 ****         3.8613  -2.5816  -0.0343 H              1 S1                 0.0000
     46 ****         3.5537  -0.3225   1.2892 H              1 S1                 0.0000
     47 ****         4.6892  -1.3897   2.1443 H              1 S1                 0.0000
     48 ****        -3.7054   4.2001  -2.7737 LP             1 S1                 0.0000
     49 ****        -0.3139   1.9008  -1.8816 LP             1 S1                 0.0000
     50 ****         1.1361   0.9855  -1.6367 LP             1 S1                 0.0000
     51 ****        -2.1245   0.8009   1.4576 LP             1 S1                 0.0000
     52 ****        -2.6323   2.2103   2.3269 LP             1 S1                 0.0000
@<TRIPOS>BOND
    1    1    2 1     
    2    1   24 1     
    3    1   25 1     
    4    1   26 1     
    5    2   22 1     
    6    2    3 2     
    7    3    4 1     
    8    4    5 1     
    9    4    6 2     
   10    5   27 1     
   11    5   28 1     
   12    5   29 1     
   13    6    7 1     
   14    6   20 1     
   15    7    8 1     
   16    7   30 1     
   17    7   31 1     
   18    8    9 2     
   19    8   10 am    
   20   10   11 1     
   21   10   32 1     
   22   11   12 1     
   23   11   13 1     
   24   11   33 1     
   25   12   34 1     
   26   12   35 1     
   27   12   36 1     
   28   13   18 1     
   29   13   14 1     
   30   13   37 1     
   31   14   15 1     
   32   14   38 1     
   33   14   39 1     
   34   15   19 1     
   35   15   16 1     
   36   15   40 1     
   37   16   17 1     
   38   16   41 1     
   39   16   42 1     
   40   17   18 1     
   41   17   43 1     
   42   17   44 1     
   43   18   19 1     
   44   18   45 1     
   45   19   46 1     
   46   19   47 1     
   47   20   21 2     
   48   20   22 am    
   49   22   23 1     
   50    3   48 1     
   51    9   49 1     
   52    9   50 1     
   53   21   51 1     
   54   21   52 1     
@<TRIPOS>SUBSTRUCTURE
      1 S1             1
@<TRIPOS>SET
LONE_PAIRS      STATIC     ATOMS    <user>   **** ""
5 48 49 50 51 52
DONOR_HYDROGENS      STATIC     ATOMS    <user>   **** ""
2 32 23
ATOM$BLUE        STATIC     ATOMS    COLORGROUP SYSTEM
5 48 49 50 51 52
ATOM$RED        STATIC     ATOMS    COLORGROUP SYSTEM
2 32 23
