AV-unprocessed.smi:2314|AV-procd|sdf|9266|dock2
  -GOLD-   2272012493D 1   1.00000     0.00000
 Structure written by MMmdl.
 37 38  0  0  0  0  0  0  0  0  1 V2000
  150.3396  140.2804  155.1613 C   0  0  0  0  0  0  0  0  0  0  0  0
  148.9824  141.0064  155.1829 C   0  0  0  0  0  0  0  0  0  0  0  0
  148.4244  141.1444  156.6082 C   0  0  0  0  0  0  0  0  0  0  0  0
  147.9905  140.3712  154.3049 N   0  0  0  0  0  0  0  0  0  0  0  0
  147.4099  141.0555  153.1608 C   0  0  0  0  0  0  0  0  0  0  0  0
  146.7287  139.9460  152.3539 C   0  0  0  0  0  0  0  0  0  0  0  0
  146.5071  138.7860  153.3376 C   0  0  1  0  0  0  0  0  0  0  0  0
  146.8037  137.5096  152.6898 N   0  0  0  0  0  0  0  0  0  0  0  0
  145.8861  136.6122  152.3010 C   0  0  0  0  0  0  0  0  0  0  0  0
  144.6741  136.7884  152.4230 O   0  0  0  0  0  0  0  0  0  0  0  0
  146.4678  135.5275  151.7605 N   0  0  0  0  0  0  0  0  0  0  0  0
  145.8611  134.3552  151.2303 C   0  0  0  0  0  0  0  0  0  0  0  0
  144.5984  134.3275  150.5893 C   0  0  0  0  0  0  0  0  0  0  0  0
  144.1058  133.0928  150.1206 C   0  0  0  0  0  0  0  0  0  0  0  0
  144.7708  131.9261  150.2559 N   0  0  0  0  0  0  0  0  0  0  0  0
  145.9679  131.9538  150.8789 C   0  0  0  0  0  0  0  0  0  0  0  0
  146.5506  133.1336  151.3839 C   0  0  0  0  0  0  0  0  0  0  0  0
  147.7556  133.0898  152.0024 F   0  0  0  0  0  0  0  0  0  0  0  0
  147.5412  139.1134  154.4155 C   0  0  0  0  0  0  0  0  0  0  0  0
  147.8864  138.3028  155.2756 O   0  0  0  0  0  0  0  0  0  0  0  0
  151.0813  140.8304  155.7408 H   0  0  0  0  0  0  0  0  0  0  0  0
  150.7218  140.1912  154.1438 H   0  0  0  0  0  0  0  0  0  0  0  0
  150.2730  139.2787  155.5866 H   0  0  0  0  0  0  0  0  0  0  0  0
  149.1655  142.0134  154.8034 H   0  0  0  0  0  0  0  0  0  0  0  0
  149.1326  141.6590  157.2578 H   0  0  0  0  0  0  0  0  0  0  0  0
  148.2175  140.1684  157.0486 H   0  0  0  0  0  0  0  0  0  0  0  0
  147.4964  141.7175  156.6165 H   0  0  0  0  0  0  0  0  0  0  0  0
  146.6771  141.7854  153.5078 H   0  0  0  0  0  0  0  0  0  0  0  0
  148.1653  141.5757  152.5708 H   0  0  0  0  0  0  0  0  0  0  0  0
  145.7952  140.2845  151.9030 H   0  0  0  0  0  0  0  0  0  0  0  0
  147.3887  139.6431  151.5388 H   0  0  0  0  0  0  0  0  0  0  0  0
  145.5039  138.8188  153.7663 H   0  0  0  0  0  0  0  0  0  0  0  0
  147.7781  137.2862  152.5507 H   0  0  0  0  0  0  0  0  0  0  0  0
  147.4728  135.5636  151.6723 H   0  0  0  0  0  0  0  0  0  0  0  0
  143.9962  135.2126  150.4571 H   0  0  0  0  0  0  0  0  0  0  0  0
  143.1463  133.0411  149.6276 H   0  0  0  0  0  0  0  0  0  0  0  0
  146.4769  131.0066  150.9797 H   0  0  0  0  0  0  0  0  0  0  0  0
  1  2  1  0  0  0  0
  1 21  1  0  0  0  0
  1 22  1  0  0  0  0
  1 23  1  0  0  0  0
  2  3  1  0  0  0  0
  2  4  1  0  0  0  0
  2 24  1  0  0  0  0
  3 25  1  0  0  0  0
  3 26  1  0  0  0  0
  3 27  1  0  0  0  0
  4 19  1  0  0  0  0
  4  5  1  0  0  0  0
  5  6  1  0  0  0  0
  5 28  1  0  0  0  0
  5 29  1  0  0  0  0
  6  7  1  0  0  0  0
  6 30  1  0  0  0  0
  6 31  1  0  0  0  0
  7  8  1  0  0  0  0
  7 19  1  0  0  0  0
  7 32  1  0  0  0  0
  8  9  1  0  0  0  0
  8 33  1  0  0  0  0
  9 10  2  0  0  0  0
  9 11  1  0  0  0  0
 11 12  1  0  0  0  0
 11 34  1  0  0  0  0
 12 17  1  0  0  0  0
 12 13  2  0  0  0  0
 13 14  1  0  0  0  0
 13 35  1  0  0  0  0
 14 15  2  0  0  0  0
 14 36  1  0  0  0  0
 15 16  1  0  0  0  0
 16 17  2  0  0  0  0
 16 37  1  0  0  0  0
 17 18  1  0  0  0  0
 19 20  2  0  0  0  0
M  END
> <s_m_source_file>
AV-unprocessed.smi

> <i_m_source_file_index>
2314

> <i_lp_mmshare_version>
43012

> <i_f3d_flags>
0

> <s_epik_input>
W0NIM11bQ0hdKFtDSDNdKU4xW0NIMl1bQ0gyXVtDQEhdKEMxPU8pW05IXUMoPU8pW05IXWMyW2NIXVtjSF1uW2NIXWMyRg==

> <s_epik_cmdline>
J2VwaWtfcHl0aG9uJywgJy1waCcsICc3LjAnLCAnLXRuJywgJzgnLCAnLW1hJywgJzIwMCcsICctbWV0YWxfYmluZGluZycsICctaW1hZScsICc8aW5maWxlLm1hZT4nLCAnLW9tYWUnLCAnPG91dGZpbGUubWFlPic=

> <r_epik_Ionization_Penalty>
0.00267735

> <r_epik_Ionization_Penalty_Charging>
0

> <r_epik_Ionization_Penalty_Neutral>
0.00267735

> <r_epik_State_Penalty>
0.00184148

> <r_epik_Charging_Adjusted_Penalty>
0.00184148

> <i_epik_Tot_Q>
0

> <i_epik_Tot_abs_Q>
0

> <r_epik_Metal_State_Penalty>
-0

> <b_epik_Metal_Only>
0

> <s_lp_Force_Field>
OPLS_2005

> <r_lp_Energy>
26.6557

> <b_lp_Chiralities_Consistent>
1

> <s_lp_Variant>
AV-unprocessed.smi:2314-1

> <Gold.Version>
5.8.1

> <Gold.Id.Protein>
6NUR|6NUR_protein|mol2

> <Gold.PLP.Fitness>
40.1174

> <Gold.PLP.PLP>
-30.3546

> <Gold.PLP.part.hbond>
-2.0000

> <Gold.PLP.part.metal>
0.0000

> <Gold.PLP.part.buried>
-0.2980

> <Gold.PLP.part.nonpolar>
-27.8949

> <Gold.PLP.part.repulsive>
0.4964

> <Gold.PLP.ligand.clash>
0.0000

> <Gold.PLP.ligand.torsion>
0.4773

> <Gold.PLP.Chemscore.Hbond>
1.9600

> <Gold.PLP.Chemscore.CHOScore>
1.5848

> <Gold.PLP.Chemscore.Metal>
0.0000

> <Gold.Chemscore.Hbonds>
donor molecule, donor type, donor heavy atom, donor atom, acceptor molecule, acceptor atom, score
      L1  H     8    33       P1  7948  0.96
      L1  H    11    34       P1  7948  1.00
      L1  C    14    36       P1 10186  0.96
      L1  C    16    37       P1 10747  0.65

> <Gold.PLP.Chemscore.Internal.Correction>
0.0830

> <Gold.Rescore>
     Score         DG    S(hbond)    S(metal)    S(lipo)     H(rot)  DE(clash)    DE(int)     intcor
     16.67     -17.36       1.91        0.00      74.57       1.26       0.20       0.49       ----

> <Gold.Chemscore.Fitness>
16.6666

> <Gold.Chemscore.DG>
-17.3577

> <Gold.Chemscore.ZeroCoef>
-5.4800

> <Gold.Chemscore.Hbond>
1.9118

> <Gold.Chemscore.Metal>
0.0000

> <Gold.Chemscore.Lipo>
74.5679

> <Gold.Chemscore.Internal_Hbond>
0.0000

> <Gold.Chemscore.DEClash>
0.2049

> <Gold.Chemscore.DEInternal>
0.4862

> <Gold.Chemscore.Rot>
1.2626

> <Gold.Chemscore.Internal.Correction>
   9.000000E+99

> <Gold.Chemscore.Hbonds>
donor molecule, donor type, donor heavy atom, donor atom, acceptor molecule, acceptor atom, score
      L1  H     8    33       P1  7948  0.92
      L1  H    11    34       P1  7948  0.96

> <Gold.Chemscore.Hbond.Weighted>
-6.3855

> <Gold.Chemscore.Metal.Weighted>
-0.0000

> <Gold.Chemscore.Lipo.Weighted>
-8.7244

> <Gold.Chemscore.Internal_Hbond.Weighted>
0.0000

> <Gold.Chemscore.DEClash.Weighted>
0.2049

> <Gold.Chemscore.DEInternal.Weighted>
0.4862

> <Gold.Chemscore.Rot.Weighted>
3.2322

> <Gold.Chemscore.Internal.Correction.Weighted>
   9.000000E+99

> <Gold.Protein.RotatedTorsions>
[ 6907 6896 6895 6894 ] final  -14.14 input  -60.11 | X-H torsion
[ 7974 7965 7964 7962 ] final -136.88 input  175.53 | X-H torsion
[ 8008 7997 7996 7995 ] final   63.48 input   59.86 | X-H torsion
[ 10167 10162 10161 10158 ] final  -57.29 input  -65.29 | X-H torsion
[ 10718 10713 10712 10709 ] final  -22.75 input   66.30 | X-H torsion
[ 10763 10752 10751 10750 ] final  -84.01 input  -60.55 | X-H torsion
[ 11005 11000 10999 10996 ] final   39.39 input  -57.11 | X-H torsion

> <Gold.Protein.ActiveResidues>
 VAL166  LYS551  ARG553  GLY616  TRP617  ASP618  TYR619  PRO620  LYS621  CYS622 
 ASP623  PHE694  ASN695  SER759  ASP760  ASP761  ALA762  ILE779  LEU786  VAL792 
 PHE793  MET794  SER795  GLU796  ALA797  LYS798  CYS799  TRP800  GLU811  SER814 

> <Gold.Protein.RotatedAtoms>
  151.3441  135.0870  159.9380 H   0  0  0  0  0  0  0  0  0  0  0  0  # atno 6907 bound_to 6896
  152.5204  133.9418  159.7640 H   0  0  0  0  0  0  0  0  0  0  0  0  # atno 6908 bound_to 6896
  150.9780  133.6221  159.2756 H   0  0  0  0  0  0  0  0  0  0  0  0  # atno 6909 bound_to 6896
  144.8889  140.6614  143.5158 H   0  0  0  0  0  0  0  0  0  0  0  0  # atno 7974 bound_to 7965
  155.6309  140.3496  155.4683 H   0  0  0  0  0  0  0  0  0  0  0  0  # atno 8008 bound_to 7997
  156.0003  140.1212  157.0577 H   0  0  0  0  0  0  0  0  0  0  0  0  # atno 8009 bound_to 7997
  154.4247  140.1102  156.5674 H   0  0  0  0  0  0  0  0  0  0  0  0  # atno 8010 bound_to 7997
  140.6266  143.2441  151.5347 H   0  0  0  0  0  0  0  0  0  0  0  0  # atno 10167 bound_to 10162
  156.5004  130.4586  149.6704 H   0  0  0  0  0  0  0  0  0  0  0  0  # atno 10718 bound_to 10713
  154.5945  135.5535  153.7312 H   0  0  0  0  0  0  0  0  0  0  0  0  # atno 10763 bound_to 10752
  153.0130  135.6351  154.1801 H   0  0  0  0  0  0  0  0  0  0  0  0  # atno 10764 bound_to 10752
  154.1742  135.2890  155.3052 H   0  0  0  0  0  0  0  0  0  0  0  0  # atno 10765 bound_to 10752
  140.2033  134.3844  155.8085 H   0  0  0  0  0  0  0  0  0  0  0  0  # atno 11005 bound_to 11000
  145.3819  139.1635  143.4276 LP  0  0  0  0  0  0  0  0  0  0  0  0  # atno 17320 bound_to 7965
  146.3041  140.3900  142.8693 LP  0  0  0  0  0  0  0  0  0  0  0  0  # atno 17321 bound_to 7965
  139.5486  144.2455  152.1488 LP  0  0  0  0  0  0  0  0  0  0  0  0  # atno 17342 bound_to 10162
  140.1688  144.4955  150.6591 LP  0  0  0  0  0  0  0  0  0  0  0  0  # atno 17343 bound_to 10162
  156.3339  130.7346  151.2280 LP  0  0  0  0  0  0  0  0  0  0  0  0  # atno 17370 bound_to 10713
  157.7463  131.0422  150.4684 LP  0  0  0  0  0  0  0  0  0  0  0  0  # atno 17371 bound_to 10713
  141.2227  133.7105  156.8294 LP  0  0  0  0  0  0  0  0  0  0  0  0  # atno 17394 bound_to 11000
  140.2030  134.8883  157.3191 LP  0  0  0  0  0  0  0  0  0  0  0  0  # atno 17395 bound_to 11000

$$$$
