AV-unprocessed.smi:3335|AV-procd|sdf|12846|dock9
  -GOLD-   2272019233D 1   1.00000     0.00000
 Structure written by MMmdl.
 46 47  0  0  0  0  0  0  0  0  1 V2000
  146.7790  134.1874  162.6389 C   0  0  0  0  0  0  0  0  0  0  0  0
  147.4357  135.2667  161.8277 C   0  0  0  0  0  0  0  0  0  0  0  0
  147.6781  136.6183  162.2017 C   0  0  0  0  0  0  0  0  0  0  0  0
  148.2881  137.3110  161.2549 N   0  0  0  0  0  0  0  0  0  0  0  0
  148.4521  136.4342  160.2382 N   0  0  0  0  0  0  0  0  0  0  0  0
  149.1300  136.8336  159.0066 C   0  0  1  0  0  0  0  0  0  0  0  0
  148.8526  135.8589  157.8445 C   0  0  0  0  0  0  0  0  0  0  0  0
  148.8885  138.3188  158.6219 C   0  0  2  0  0  0  0  0  0  0  0  0
  147.4357  138.6112  158.2075 C   0  0  0  0  0  0  0  0  0  0  0  0
  149.7599  138.7081  157.5148 N   0  0  0  0  0  0  0  0  0  0  0  0
  150.0518  140.1490  157.4406 C   0  0  2  0  0  0  0  0  0  0  0  0
  150.3342  140.5884  155.9914 C   0  0  0  0  0  0  0  0  0  0  0  0
  151.2580  140.4983  158.3352 C   0  0  0  0  0  0  0  0  0  0  0  0
  151.8328  139.5926  158.9423 O   0  0  0  0  0  0  0  0  0  0  0  0
  151.6627  141.7841  158.4321 N   0  0  0  0  0  0  0  0  0  0  0  0
  152.7799  142.2080  159.2747 C   0  0  0  0  0  0  0  0  0  0  0  0
  152.7526  143.7364  159.2692 C   0  0  0  0  0  0  0  0  0  0  0  0
  152.0634  144.0895  157.9593 C   0  0  0  0  0  0  0  0  0  0  0  0
  151.0938  142.9313  157.7240 C   0  0  0  0  0  0  0  0  0  0  0  0
  147.9496  135.1910  160.5644 C   0  0  0  0  0  0  0  0  0  0  0  0
  146.2771  134.5893  163.5192 H   0  0  0  0  0  0  0  0  0  0  0  0
  147.5039  133.4528  162.9897 H   0  0  0  0  0  0  0  0  0  0  0  0
  146.0287  133.6489  162.0598 H   0  0  0  0  0  0  0  0  0  0  0  0
  147.4335  137.1128  163.1301 H   0  0  0  0  0  0  0  0  0  0  0  0
  150.1969  136.7435  159.2162 H   0  0  0  0  0  0  0  0  0  0  0  0
  149.4453  136.1202  156.9676 H   0  0  0  0  0  0  0  0  0  0  0  0
  147.8041  135.8672  157.5447 H   0  0  0  0  0  0  0  0  0  0  0  0
  149.1094  134.8363  158.1220 H   0  0  0  0  0  0  0  0  0  0  0  0
  149.1056  138.9193  159.5066 H   0  0  0  0  0  0  0  0  0  0  0  0
  146.7394  138.3143  158.9920 H   0  0  0  0  0  0  0  0  0  0  0  0
  147.1567  138.0800  157.2970 H   0  0  0  0  0  0  0  0  0  0  0  0
  147.2837  139.6750  158.0239 H   0  0  0  0  0  0  0  0  0  0  0  0
  149.4049  138.3457  156.6413 H   0  0  0  0  0  0  0  0  0  0  0  0
  149.1750  140.6789  157.8113 H   0  0  0  0  0  0  0  0  0  0  0  0
  150.6050  141.6436  155.9415 H   0  0  0  0  0  0  0  0  0  0  0  0
  149.4602  140.4547  155.3542 H   0  0  0  0  0  0  0  0  0  0  0  0
  151.1532  140.0163  155.5535 H   0  0  0  0  0  0  0  0  0  0  0  0
  152.6999  141.8146  160.2895 H   0  0  0  0  0  0  0  0  0  0  0  0
  153.7110  141.8404  158.8407 H   0  0  0  0  0  0  0  0  0  0  0  0
  152.1515  144.0951  160.1059 H   0  0  0  0  0  0  0  0  0  0  0  0
  153.7459  144.1774  159.3580 H   0  0  0  0  0  0  0  0  0  0  0  0
  151.5649  145.0588  157.9902 H   0  0  0  0  0  0  0  0  0  0  0  0
  152.8009  144.1177  157.1560 H   0  0  0  0  0  0  0  0  0  0  0  0
  150.9677  142.7396  156.6578 H   0  0  0  0  0  0  0  0  0  0  0  0
  150.1164  143.1636  158.1494 H   0  0  0  0  0  0  0  0  0  0  0  0
  148.0036  134.3594  159.8771 H   0  0  0  0  0  0  0  0  0  0  0  0
  1  2  1  0  0  0  0
  1 21  1  0  0  0  0
  1 22  1  0  0  0  0
  1 23  1  0  0  0  0
  2 20  2  0  0  0  0
  2  3  1  0  0  0  0
  3  4  2  0  0  0  0
  3 24  1  0  0  0  0
  4  5  1  0  0  0  0
  5  6  1  0  0  0  0
  5 20  1  0  0  0  0
  6  7  1  0  0  0  0
  6  8  1  0  0  0  0
  6 25  1  0  0  0  0
  7 26  1  0  0  0  0
  7 27  1  0  0  0  0
  7 28  1  0  0  0  0
  8  9  1  0  0  0  0
  8 10  1  0  0  0  0
  8 29  1  0  0  0  0
  9 30  1  0  0  0  0
  9 31  1  0  0  0  0
  9 32  1  0  0  0  0
 10 11  1  0  0  0  0
 10 33  1  0  0  0  0
 11 12  1  0  0  0  0
 11 13  1  0  0  0  0
 11 34  1  0  0  0  0
 12 35  1  0  0  0  0
 12 36  1  0  0  0  0
 12 37  1  0  0  0  0
 13 14  2  0  0  0  0
 13 15  1  0  0  0  0
 15 19  1  0  0  0  0
 15 16  1  0  0  0  0
 16 17  1  0  0  0  0
 16 38  1  0  0  0  0
 16 39  1  0  0  0  0
 17 18  1  0  0  0  0
 17 40  1  0  0  0  0
 17 41  1  0  0  0  0
 18 19  1  0  0  0  0
 18 42  1  0  0  0  0
 18 43  1  0  0  0  0
 19 44  1  0  0  0  0
 19 45  1  0  0  0  0
 20 46  1  0  0  0  0
M  END
> <s_m_source_file>
AV-unprocessed.smi

> <i_m_source_file_index>
3335

> <i_lp_mmshare_version>
43012

> <i_f3d_flags>
0

> <s_epik_input>
W0NIM11jMVtjSF1ubihbY0hdMSlbQ0BIXShbQ0gzXSlbQ0BIXShbQ0gzXSlbTkhdW0NASF0oW0NIM10pQyg9TylOMltDSDJdW0NIMl1bQ0gyXVtDSDJdMg==

> <s_epik_cmdline>
J2VwaWtfcHl0aG9uJywgJy1waCcsICc3LjAnLCAnLXRuJywgJzgnLCAnLW1hJywgJzIwMCcsICctbWV0YWxfYmluZGluZycsICctaW1hZScsICc8aW5maWxlLm1hZT4nLCAnLW9tYWUnLCAnPG91dGZpbGUubWFlPic=

> <r_lp_tautomer_probability>
1

> <r_epik_Ionization_Penalty>
0.918803

> <r_epik_Ionization_Penalty_Charging>
0

> <r_epik_Ionization_Penalty_Neutral>
0.918803

> <r_epik_State_Penalty>
0.958258

> <r_epik_Charging_Adjusted_Penalty>
0.958258

> <i_epik_Tot_Q>
0

> <i_epik_Tot_abs_Q>
0

> <r_epik_Metal_State_Penalty>
0.956786

> <b_epik_Metal_Only>
0

> <s_lp_Force_Field>
OPLS_2005

> <r_lp_Energy>
40.4571

> <b_lp_Chiralities_Consistent>
1

> <s_lp_Variant>
AV-unprocessed.smi:3335-10

> <Gold.Version>
5.8.1

> <Gold.Id.Protein>
6NUR|6NUR_protein|mol2

> <Gold.PLP.Fitness>
43.9602

> <Gold.PLP.PLP>
-41.2550

> <Gold.PLP.part.hbond>
-1.9025

> <Gold.PLP.part.metal>
0.0000

> <Gold.PLP.part.buried>
-4.1113

> <Gold.PLP.part.nonpolar>
-36.1173

> <Gold.PLP.part.repulsive>
0.0000

> <Gold.PLP.ligand.clash>
0.0000

> <Gold.PLP.ligand.torsion>
1.2150

> <Gold.PLP.Chemscore.Hbond>
1.6480

> <Gold.PLP.Chemscore.CHOScore>
0.0000

> <Gold.PLP.Chemscore.Metal>
0.0000

> <Gold.Chemscore.Hbonds>
donor molecule, donor type, donor heavy atom, donor atom, acceptor molecule, acceptor atom, score
      P1  H  6931  6943       L1     4  0.59
      P1  H  6934  6947       L1     4  0.50

> <Gold.PLP.Chemscore.Internal.Correction>
0.1911

> <Gold.Rescore>
     Score         DG    S(hbond)    S(metal)    S(lipo)     H(rot)  DE(clash)    DE(int)     intcor
     15.35     -17.00       1.41        0.00      93.77       1.62       0.05       1.60       ----

> <Gold.Chemscore.Fitness>
15.3488

> <Gold.Chemscore.DG>
-16.9958

> <Gold.Chemscore.ZeroCoef>
-5.4800

> <Gold.Chemscore.Hbond>
1.4050

> <Gold.Chemscore.Metal>
0.0000

> <Gold.Chemscore.Lipo>
93.7712

> <Gold.Chemscore.Internal_Hbond>
0.0000

> <Gold.Chemscore.DEClash>
0.0515

> <Gold.Chemscore.DEInternal>
1.5955

> <Gold.Chemscore.Rot>
1.6204

> <Gold.Chemscore.Internal.Correction>
   9.000000E+99

> <Gold.Chemscore.Hbonds>
donor molecule, donor type, donor heavy atom, donor atom, acceptor molecule, acceptor atom, score
      P1  H  6931  6943       L1     4  0.31
      P1  H  6934  6947       L1     4  0.31

> <Gold.Chemscore.Hbond.Weighted>
-4.6928

> <Gold.Chemscore.Metal.Weighted>
-0.0000

> <Gold.Chemscore.Lipo.Weighted>
-10.9712

> <Gold.Chemscore.Internal_Hbond.Weighted>
0.0000

> <Gold.Chemscore.DEClash.Weighted>
0.0515

> <Gold.Chemscore.DEInternal.Weighted>
1.5955

> <Gold.Chemscore.Rot.Weighted>
4.1482

> <Gold.Chemscore.Internal.Correction.Weighted>
   9.000000E+99

> <Gold.Protein.RotatedTorsions>
[ 6907 6896 6895 6894 ] final   -5.15 input  -60.11 | X-H torsion
[ 7974 7965 7964 7962 ] final -131.74 input  175.53 | X-H torsion
[ 8008 7997 7996 7995 ] final  163.68 input   59.86 | X-H torsion
[ 10167 10162 10161 10158 ] final   15.09 input  -65.29 | X-H torsion
[ 10718 10713 10712 10709 ] final    4.82 input   66.30 | X-H torsion
[ 10763 10752 10751 10750 ] final  -66.52 input  -60.55 | X-H torsion
[ 11005 11000 10999 10996 ] final   13.73 input  -57.11 | X-H torsion

> <Gold.Protein.ActiveResidues>
 VAL166  LYS551  ARG553  GLY616  TRP617  ASP618  TYR619  PRO620  LYS621  CYS622 
 ASP623  PHE694  ASN695  SER759  ASP760  ASP761  ALA762  ILE779  LEU786  VAL792 
 PHE793  MET794  SER795  GLU796  ALA797  LYS798  CYS799  TRP800  GLU811  SER814 

> <Gold.Protein.RotatedAtoms>
  151.4861  135.1055  159.9790 H   0  0  0  0  0  0  0  0  0  0  0  0  # atno 6907 bound_to 6896
  152.4759  133.8134  159.7026 H   0  0  0  0  0  0  0  0  0  0  0  0  # atno 6908 bound_to 6896
  150.8798  133.7326  159.2962 H   0  0  0  0  0  0  0  0  0  0  0  0  # atno 6909 bound_to 6896
  144.9351  140.7173  143.4882 H   0  0  0  0  0  0  0  0  0  0  0  0  # atno 7974 bound_to 7965
  156.1938  140.1717  156.8039 H   0  0  0  0  0  0  0  0  0  0  0  0  # atno 8008 bound_to 7997
  154.5504  140.0719  156.8690 H   0  0  0  0  0  0  0  0  0  0  0  0  # atno 8009 bound_to 7997
  155.3039  140.3363  155.4249 H   0  0  0  0  0  0  0  0  0  0  0  0  # atno 8010 bound_to 7997
  140.5891  143.8831  150.6857 H   0  0  0  0  0  0  0  0  0  0  0  0  # atno 10167 bound_to 10162
  156.8982  130.5712  149.5648 H   0  0  0  0  0  0  0  0  0  0  0  0  # atno 10718 bound_to 10713
  154.3610  135.6116  153.5690 H   0  0  0  0  0  0  0  0  0  0  0  0  # atno 10763 bound_to 10752
  152.9793  135.5815  154.4633 H   0  0  0  0  0  0  0  0  0  0  0  0  # atno 10764 bound_to 10752
  154.4371  135.2849  155.1850 H   0  0  0  0  0  0  0  0  0  0  0  0  # atno 10765 bound_to 10752
  140.4775  134.0969  155.7744 H   0  0  0  0  0  0  0  0  0  0  0  0  # atno 11005 bound_to 11000
  145.3080  139.1828  143.4654 LP  0  0  0  0  0  0  0  0  0  0  0  0  # atno 17320 bound_to 7965
  146.3263  140.3081  142.8625 LP  0  0  0  0  0  0  0  0  0  0  0  0  # atno 17321 bound_to 7965
  140.2349  143.3707  152.1535 LP  0  0  0  0  0  0  0  0  0  0  0  0  # atno 17342 bound_to 10162
  139.5216  144.7048  151.5386 LP  0  0  0  0  0  0  0  0  0  0  0  0  # atno 17343 bound_to 10162
  156.0595  130.5650  150.9162 LP  0  0  0  0  0  0  0  0  0  0  0  0  # atno 17370 bound_to 10713
  157.6042  131.0940  150.8908 LP  0  0  0  0  0  0  0  0  0  0  0  0  # atno 17371 bound_to 10713
  141.1547  133.8904  157.2007 LP  0  0  0  0  0  0  0  0  0  0  0  0  # atno 17394 bound_to 11000
  139.9847  135.0086  156.9834 LP  0  0  0  0  0  0  0  0  0  0  0  0  # atno 17395 bound_to 11000

$$$$
