AV-unprocessed.smi:767|AV-procd|sdf|3665|dock2
  -GOLD-   22720 1 73D 1   1.00000     0.00000
 Structure written by MMmdl.
 48 50  0  0  0  0  0  0  0  0  2 V2000
  150.8198  143.1806  159.3026 C   0  0  0  0  0  0  0  0  0  0  0  0
  150.7549  142.0070  158.3479 C   0  0  0  0  0  0  0  0  0  0  0  0
  150.1102  140.7971  158.6832 C   0  0  0  0  0  0  0  0  0  0  0  0
  150.0825  139.7480  157.7412 C   0  0  0  0  0  0  0  0  0  0  0  0
  150.6963  139.9301  156.4822 C   0  0  0  0  0  0  0  0  0  0  0  0
  150.6631  138.8260  155.4391 C   0  0  0  0  0  0  0  0  0  0  0  0
  149.9511  139.2308  154.1314 C   0  0  0  0  0  0  0  0  0  0  0  0
  149.0246  138.2154  153.6372 N   0  0  0  0  0  0  0  0  0  0  0  0
  147.8757  137.8639  154.2308 C   0  0  0  0  0  0  0  0  0  0  0  0
  147.4580  138.3636  155.2751 O   0  0  0  0  0  0  0  0  0  0  0  0
  147.2285  136.9166  153.5401 N   0  0  0  0  0  0  0  0  0  0  0  0
  145.9331  136.3653  153.9186 C   0  0  2  0  0  0  0  0  0  0  0  0
  146.0237  134.9036  154.3585 C   0  0  1  0  0  0  0  0  0  0  0  0
  145.8125  134.1824  155.6417 C   0  0  0  0  0  0  0  0  0  0  0  0
  144.9442  133.0192  155.0911 C   0  0  0  0  0  0  0  0  0  0  0  0
  144.5910  133.3931  153.7365 O   0  0  0  0  0  0  0  0  0  0  0  0
  144.6359  134.8050  153.7552 C   0  0  2  0  0  0  0  0  0  0  0  0
  145.0946  135.8285  152.6975 C   0  0  0  0  0  0  0  0  0  0  0  0
  144.0041  136.7712  152.1877 C   0  0  0  0  0  0  0  0  0  0  0  0
  145.8191  135.2884  151.4478 C   0  0  0  0  0  0  0  0  0  0  0  0
  151.3313  141.1595  156.2050 C   0  0  0  0  0  0  0  0  0  0  0  0
  151.3368  142.1400  157.1346 N   0  3  0  0  0  0  0  0  0  0  0  0
  150.3889  142.9234  160.2709 H   0  0  0  0  0  0  0  0  0  0  0  0
  150.2668  144.0289  158.8983 H   0  0  0  0  0  0  0  0  0  0  0  0
  151.8541  143.4869  159.4616 H   0  0  0  0  0  0  0  0  0  0  0  0
  149.6383  140.6719  159.6471 H   0  0  0  0  0  0  0  0  0  0  0  0
  149.5863  138.8186  157.9814 H   0  0  0  0  0  0  0  0  0  0  0  0
  151.6858  138.5183  155.2189 H   0  0  0  0  0  0  0  0  0  0  0  0
  150.1751  137.9490  155.8661 H   0  0  0  0  0  0  0  0  0  0  0  0
  149.3693  140.1364  154.3040 H   0  0  0  0  0  0  0  0  0  0  0  0
  150.6827  139.4791  153.3608 H   0  0  0  0  0  0  0  0  0  0  0  0
  149.2807  137.7433  152.7823 H   0  0  0  0  0  0  0  0  0  0  0  0
  147.6495  136.5616  152.6940 H   0  0  0  0  0  0  0  0  0  0  0  0
  145.3656  136.9889  154.6160 H   0  0  0  0  0  0  0  0  0  0  0  0
  146.7827  134.3772  153.7747 H   0  0  0  0  0  0  0  0  0  0  0  0
  146.7426  133.8348  156.0920 H   0  0  0  0  0  0  0  0  0  0  0  0
  145.2695  134.7901  156.3671 H   0  0  0  0  0  0  0  0  0  0  0  0
  145.4893  132.0750  155.0771 H   0  0  0  0  0  0  0  0  0  0  0  0
  144.0470  132.8839  155.6962 H   0  0  0  0  0  0  0  0  0  0  0  0
  143.8438  135.2077  154.3973 H   0  0  0  0  0  0  0  0  0  0  0  0
  143.2848  136.2472  151.5576 H   0  0  0  0  0  0  0  0  0  0  0  0
  144.4227  137.5902  151.6022 H   0  0  0  0  0  0  0  0  0  0  0  0
  143.4459  137.2197  153.0101 H   0  0  0  0  0  0  0  0  0  0  0  0
  145.1459  134.6891  150.8340 H   0  0  0  0  0  0  0  0  0  0  0  0
  146.6787  134.6602  151.6739 H   0  0  0  0  0  0  0  0  0  0  0  0
  146.1863  136.1014  150.8225 H   0  0  0  0  0  0  0  0  0  0  0  0
  151.8255  141.3892  155.2721 H   0  0  0  0  0  0  0  0  0  0  0  0
  151.7988  143.0218  156.9101 H   0  0  0  0  0  0  0  0  0  0  0  0
  1  2  1  0  0  0  0
  1 23  1  0  0  0  0
  1 24  1  0  0  0  0
  1 25  1  0  0  0  0
  2 22  1  0  0  0  0
  2  3  2  0  0  0  0
  3  4  1  0  0  0  0
  3 26  1  0  0  0  0
  4  5  2  0  0  0  0
  4 27  1  0  0  0  0
  5  6  1  0  0  0  0
  5 21  1  0  0  0  0
  6  7  1  0  0  0  0
  6 28  1  0  0  0  0
  6 29  1  0  0  0  0
  7  8  1  0  0  0  0
  7 30  1  0  0  0  0
  7 31  1  0  0  0  0
  8  9  1  0  0  0  0
  8 32  1  0  0  0  0
  9 10  2  0  0  0  0
  9 11  1  0  0  0  0
 11 12  1  0  0  0  0
 11 33  1  0  0  0  0
 12 18  1  0  0  0  0
 12 13  1  0  0  0  0
 12 34  1  0  0  0  0
 13 17  1  0  0  0  0
 13 14  1  0  0  0  0
 13 35  1  0  0  0  0
 14 15  1  0  0  0  0
 14 36  1  0  0  0  0
 14 37  1  0  0  0  0
 15 16  1  0  0  0  0
 15 38  1  0  0  0  0
 15 39  1  0  0  0  0
 16 17  1  0  0  0  0
 17 18  1  0  0  0  0
 17 40  1  0  0  0  0
 18 19  1  0  0  0  0
 18 20  1  0  0  0  0
 19 41  1  0  0  0  0
 19 42  1  0  0  0  0
 19 43  1  0  0  0  0
 20 44  1  0  0  0  0
 20 45  1  0  0  0  0
 20 46  1  0  0  0  0
 21 22  2  0  0  0  0
 21 47  1  0  0  0  0
 22 48  1  0  0  0  0
M  CHG  1  22   1
M  END
> <s_m_source_file>
AV-unprocessed.smi

> <i_m_source_file_index>
767

> <i_lp_mmshare_version>
43012

> <i_f3d_flags>
0

> <s_epik_input>
W0NIM11jMVtjSF1bY0hdYyhbY0hdbjEpW0NIMl1bQ0gyXVtOSF1DKD1PKVtOSF1bQ0BIXTJDKFtDSDNdKShbQ0gzXSlbQ0BIXShbQ0BASF0yMylPW0NIMl1bQ0gyXTM=

> <s_epik_cmdline>
J2VwaWtfcHl0aG9uJywgJy1waCcsICc3LjAnLCAnLXRuJywgJzgnLCAnLW1hJywgJzIwMCcsICctbWV0YWxfYmluZGluZycsICctaW1hZScsICc8aW5maWxlLm1hZT4nLCAnLW9tYWUnLCAnPG91dGZpbGUubWFlPic=

> <r_epik_Ionization_Penalty>
1.41853

> <r_epik_Ionization_Penalty_Charging>
1.41848

> <r_epik_Ionization_Penalty_Neutral>
5.17407e-05

> <r_epik_State_Penalty>
1.50205

> <r_epik_Charging_Adjusted_Penalty>
2.92053

> <i_epik_Tot_Q>
1

> <i_epik_Tot_abs_Q>
1

> <r_epik_Metal_State_Penalty>
1.5544

> <b_epik_Metal_Only>
0

> <s_lp_Force_Field>
OPLS_2005

> <r_lp_Energy>
63.3353

> <b_lp_Chiralities_Consistent>
1

> <s_lp_Variant>
AV-unprocessed.smi:767-9

> <Gold.Version>
5.8.1

> <Gold.Id.Protein>
6NUR|6NUR_protein|mol2

> <Gold.PLP.Fitness>
46.7281

> <Gold.PLP.PLP>
-35.7467

> <Gold.PLP.part.hbond>
-3.0000

> <Gold.PLP.part.metal>
0.0000

> <Gold.PLP.part.buried>
-5.0801

> <Gold.PLP.part.nonpolar>
-28.9257

> <Gold.PLP.part.repulsive>
0.0976

> <Gold.PLP.ligand.clash>
0.0000

> <Gold.PLP.ligand.torsion>
0.5725

> <Gold.PLP.Chemscore.Hbond>
3.9440

> <Gold.PLP.Chemscore.CHOScore>
0.0000

> <Gold.PLP.Chemscore.Metal>
0.0000

> <Gold.Chemscore.Hbonds>
donor molecule, donor type, donor heavy atom, donor atom, acceptor molecule, acceptor atom, score
      L1  H     8    32       P1  7948  0.86
      L1  H    11    33       P1  7948  0.99

> <Gold.PLP.Chemscore.Internal.Correction>
0.2943

> <Gold.Rescore>
     Score         DG    S(hbond)    S(metal)    S(lipo)     H(rot)  DE(clash)    DE(int)     intcor
     19.65     -21.31       2.70        0.00      91.40       1.52       1.10       0.56       ----

> <Gold.Chemscore.Fitness>
19.6522

> <Gold.Chemscore.DG>
-21.3061

> <Gold.Chemscore.ZeroCoef>
-5.4800

> <Gold.Chemscore.Hbond>
2.7042

> <Gold.Chemscore.Metal>
0.0000

> <Gold.Chemscore.Lipo>
91.3993

> <Gold.Chemscore.Internal_Hbond>
0.0000

> <Gold.Chemscore.DEClash>
1.0978

> <Gold.Chemscore.DEInternal>
0.5561

> <Gold.Chemscore.Rot>
1.5233

> <Gold.Chemscore.Internal.Correction>
   9.000000E+99

> <Gold.Chemscore.Hbonds>
donor molecule, donor type, donor heavy atom, donor atom, acceptor molecule, acceptor atom, score
      L1  H     8    32       P1  7948  0.80
      L1  H    11    33       P1  7948  0.92

> <Gold.Chemscore.Hbond.Weighted>
-9.0320

> <Gold.Chemscore.Metal.Weighted>
-0.0000

> <Gold.Chemscore.Lipo.Weighted>
-10.6937

> <Gold.Chemscore.Internal_Hbond.Weighted>
0.0000

> <Gold.Chemscore.DEClash.Weighted>
1.0978

> <Gold.Chemscore.DEInternal.Weighted>
0.5561

> <Gold.Chemscore.Rot.Weighted>
3.8995

> <Gold.Chemscore.Internal.Correction.Weighted>
   9.000000E+99

> <Gold.Protein.RotatedTorsions>
[ 6907 6896 6895 6894 ] final -114.84 input  -60.11 | X-H torsion
[ 7974 7965 7964 7962 ] final -127.40 input  175.53 | X-H torsion
[ 8008 7997 7996 7995 ] final  174.39 input   59.86 | X-H torsion
[ 10167 10162 10161 10158 ] final   24.38 input  -65.29 | X-H torsion
[ 10718 10713 10712 10709 ] final -163.38 input   66.30 | X-H torsion
[ 10763 10752 10751 10750 ] final  157.24 input  -60.55 | X-H torsion
[ 11005 11000 10999 10996 ] final   38.91 input  -57.11 | X-H torsion

> <Gold.Protein.ActiveResidues>
 VAL166  LYS551  ARG553  GLY616  TRP617  ASP618  TYR619  PRO620  LYS621  CYS622 
 ASP623  PHE694  ASN695  SER759  ASP760  ASP761  ALA762  ILE779  LEU786  VAL792 
 PHE793  MET794  SER795  GLU796  ALA797  LYS798  CYS799  TRP800  GLU811  SER814 

> <Gold.Protein.RotatedAtoms>
  150.7932  133.8744  159.3267 H   0  0  0  0  0  0  0  0  0  0  0  0  # atno 6907 bound_to 6896
  151.6576  135.0991  160.0182 H   0  0  0  0  0  0  0  0  0  0  0  0  # atno 6908 bound_to 6896
  152.4010  133.6778  159.6351 H   0  0  0  0  0  0  0  0  0  0  0  0  # atno 6909 bound_to 6896
  144.9775  140.7607  143.4633 H   0  0  0  0  0  0  0  0  0  0  0  0  # atno 7974 bound_to 7965
  156.0979  140.1436  156.9506 H   0  0  0  0  0  0  0  0  0  0  0  0  # atno 8008 bound_to 7997
  154.4683  140.0918  156.7125 H   0  0  0  0  0  0  0  0  0  0  0  0  # atno 8009 bound_to 7997
  155.4809  140.3445  155.4342 H   0  0  0  0  0  0  0  0  0  0  0  0  # atno 8010 bound_to 7997
  140.5193  144.0029  150.6409 H   0  0  0  0  0  0  0  0  0  0  0  0  # atno 10167 bound_to 10162
  156.6238  130.8901  151.2963 H   0  0  0  0  0  0  0  0  0  0  0  0  # atno 10718 bound_to 10713
  154.1971  135.2792  155.3003 H   0  0  0  0  0  0  0  0  0  0  0  0  # atno 10763 bound_to 10752
  154.5883  135.5567  153.7257 H   0  0  0  0  0  0  0  0  0  0  0  0  # atno 10764 bound_to 10752
  153.0097  135.6362  154.2109 H   0  0  0  0  0  0  0  0  0  0  0  0  # atno 10765 bound_to 10752
  140.2080  134.3790  155.8063 H   0  0  0  0  0  0  0  0  0  0  0  0  # atno 11005 bound_to 11000
  145.2469  139.2048  143.4963 LP  0  0  0  0  0  0  0  0  0  0  0  0  # atno 17320 bound_to 7965
  146.3399  140.2375  142.8595 LP  0  0  0  0  0  0  0  0  0  0  0  0  # atno 17321 bound_to 7965
  140.3374  143.3040  152.0624 LP  0  0  0  0  0  0  0  0  0  0  0  0  # atno 17342 bound_to 10162
  139.4918  144.6467  151.6764 LP  0  0  0  0  0  0  0  0  0  0  0  0  # atno 17343 bound_to 10162
  157.7220  130.9571  150.1477 LP  0  0  0  0  0  0  0  0  0  0  0  0  # atno 17370 bound_to 10713
  156.2290  130.3680  149.8467 LP  0  0  0  0  0  0  0  0  0  0  0  0  # atno 17371 bound_to 10713
  141.2227  133.7128  156.8370 LP  0  0  0  0  0  0  0  0  0  0  0  0  # atno 17394 bound_to 11000
  140.1982  134.8916  157.3138 LP  0  0  0  0  0  0  0  0  0  0  0  0  # atno 17395 bound_to 11000

$$$$
