#       Name:                AV-unprocessed.smi:1531
#       Creating user name   scv26
#       Creation time:       Fri Mar 27 06:30:31 2020


#       File generated by GOLD software.
#

@<TRIPOS>MOLECULE
AV-unprocessed.smi:1531
    49    50     1
SMALL
NO_CHARGES


@<TRIPOS>ATOM
      1 ****        -3.0073  -1.6470  -3.2088 C.3            1 S1                 0.0000
      2 ****        -2.5439  -0.7906  -2.0217 C.3            1 S1                 0.0000
      3 ****        -2.7947  -1.4342  -0.6358 C.3            1 S1                 0.0000
      4 ****        -4.3066  -1.5859  -0.3468 C.3            1 S1                 0.0000
      5 ****        -4.5781  -2.2093   1.0302 C.3            1 S1                 0.0000
      6 ****        -3.9092  -1.3968   2.1448 C.3            1 S1                 0.0000
      7 ****        -2.4028  -1.2632   1.8895 C.3            1 S1                 0.0000
      8 ****        -2.1104  -0.6390   0.5088 C.3            1 S1                 0.0000
      9 ****        -0.6634  -0.5808   0.3054 N.am           1 S1                 0.0000
     10 ****         0.1342   0.4278   0.6851 C.2            1 S1                 0.0000
     11 ****        -0.2705   1.4368   1.2625 O.2            1 S1                 0.0000
     12 ****         1.4140   0.1875   0.3571 N.am           1 S1                 0.0000
     13 ****         2.5332   1.0196   0.6092 C.2            1 S1                 0.0000
     14 ****         2.5807   2.3087   1.2113 C.2            1 S1                 0.0000
     15 ****         3.8245   2.7605   1.2696 N.2            1 S1                 0.0000
     16 ****         4.5825   1.7826   0.7131 N.pl3          1 S1                 0.0000
     17 ****         6.0209   1.9551   0.6164 C.3            1 S1                 0.0000
     18 ****         6.4316   2.4209  -0.7815 C.2            1 S1                 0.0000
     19 ****         6.2400   3.7097  -1.0751 N.am           1 S1                 0.0000
     20 ****         6.9182   1.6278  -1.5845 O.2            1 S1                 0.0000
     21 ****         3.8220   0.7069   0.2974 C.2            1 S1                 0.0000
     22 ****        -2.7165  -1.1842  -4.1520 H              1 S1                 0.0000
     23 ****        -4.0902  -1.7643  -3.2281 H              1 S1                 0.0000
     24 ****        -2.5593  -2.6404  -3.1767 H              1 S1                 0.0000
     25 ****        -1.4789  -0.6039  -2.1580 H              1 S1                 0.0000
     26 ****        -3.0255   0.1869  -2.0675 H              1 S1                 0.0000
     27 ****        -2.3577  -2.4341  -0.6496 H              1 S1                 0.0000
     28 ****        -4.7907  -0.6101  -0.4031 H              1 S1                 0.0000
     29 ****        -4.7802  -2.2078  -1.1058 H              1 S1                 0.0000
     30 ****        -5.6527  -2.2667   1.2065 H              1 S1                 0.0000
     31 ****        -4.2062  -3.2346   1.0487 H              1 S1                 0.0000
     32 ****        -4.3618  -0.4060   2.2020 H              1 S1                 0.0000
     33 ****        -4.0827  -1.8737   3.1098 H              1 S1                 0.0000
     34 ****        -1.9548  -0.6576   2.6783 H              1 S1                 0.0000
     35 ****        -1.9376  -2.2478   1.9556 H              1 S1                 0.0000
     36 ****        -2.5143   0.3755   0.4970 H              1 S1                 0.0000
     37 ****        -0.2408  -1.3690  -0.1624 H              1 S1                 0.0000
     38 ****         1.6093  -0.6854  -0.1108 H              1 S1                 0.0000
     39 ****         1.7833   2.9238   1.6005 H              1 S1                 0.0000
     40 ****         6.3561   2.6743   1.3655 H              1 S1                 0.0000
     41 ****         6.5027   1.0042   0.8480 H              1 S1                 0.0000
     42 ****         6.5048   4.0634  -1.9833 H              1 S1                 0.0000
     43 ****         5.8393   4.3278  -0.3847 H              1 S1                 0.0000
     44 ****         4.2565  -0.1642  -0.1708 H              1 S1                 0.0000
     45 ****        -1.2431   1.5364   1.4727 LP             1 S1                 0.0000
     46 ****         0.3733   2.1569   1.5214 LP             1 S1                 0.0000
     47 ****         4.1372   3.6338   1.6432 LP             1 S1                 0.0000
     48 ****         7.0480   0.6706  -1.3257 LP             1 S1                 0.0000
     49 ****         7.1843   1.9397  -2.4966 LP             1 S1                 0.0000
@<TRIPOS>BOND
    1    1    2 1     
    2    1   22 1     
    3    1   23 1     
    4    1   24 1     
    5    2    3 1     
    6    2   25 1     
    7    2   26 1     
    8    3    8 1     
    9    3    4 1     
   10    3   27 1     
   11    4    5 1     
   12    4   28 1     
   13    4   29 1     
   14    5    6 1     
   15    5   30 1     
   16    5   31 1     
   17    6    7 1     
   18    6   32 1     
   19    6   33 1     
   20    7    8 1     
   21    7   34 1     
   22    7   35 1     
   23    8    9 1     
   24    8   36 1     
   25    9   10 am    
   26    9   37 1     
   27   10   11 2     
   28   10   12 am    
   29   12   13 1     
   30   12   38 1     
   31   13   21 2     
   32   13   14 1     
   33   14   15 2     
   34   14   39 1     
   35   15   16 1     
   36   16   17 1     
   37   16   21 1     
   38   17   18 1     
   39   17   40 1     
   40   17   41 1     
   41   18   19 am    
   42   18   20 2     
   43   19   42 1     
   44   19   43 1     
   45   21   44 1     
   46   11   45 1     
   47   11   46 1     
   48   15   47 1     
   49   20   48 1     
   50   20   49 1     
@<TRIPOS>SUBSTRUCTURE
      1 S1             1
@<TRIPOS>SET
LONE_PAIRS      STATIC     ATOMS    <user>   **** ""
5 45 46 47 48 49
DONOR_HYDROGENS      STATIC     ATOMS    <user>   **** ""
4 37 38 42 43
ATOM$BLUE        STATIC     ATOMS    COLORGROUP SYSTEM
5 45 46 47 48 49
ATOM$RED        STATIC     ATOMS    COLORGROUP SYSTEM
4 37 38 42 43
