AV-unprocessed.smi:259|AV-procd|sdf|1973|dock10
  -GOLD-   2262021143D 1   1.00000     0.00000
 Structure written by MMmdl.
 54 57  0  0  0  0  0  0  0  0  1 V2000
  148.3568  145.2505  160.9014 C   0  0  0  0  0  0  0  0  0  0  0  0
  149.6211  144.5820  161.1675 N   0  0  0  0  0  0  0  0  0  0  0  0
  150.6640  144.5777  160.3246 C   0  0  0  0  0  0  0  0  0  0  0  0
  150.6434  145.1460  159.2329 O   0  0  0  0  0  0  0  0  0  0  0  0
  151.9087  143.8005  160.7833 C   0  0  0  0  0  0  0  0  0  0  0  0
  152.4728  142.7565  159.7802 C   0  0  1  0  0  0  0  0  0  0  0  0
  152.8857  143.4467  158.6133 O   0  0  0  0  0  0  0  0  0  0  0  0
  153.6600  141.9492  160.3687 C   0  0  0  0  0  0  0  0  0  0  0  0
  154.0735  140.7734  159.4682 C   0  0  0  0  0  0  0  0  0  0  0  0
  152.8670  139.8867  159.1363 C   0  0  0  0  0  0  0  0  0  0  0  0
  151.8077  140.6900  158.5414 N   0  0  0  0  0  0  0  0  0  0  0  0
  150.8377  139.9523  157.9632 C   0  0  0  0  0  0  0  0  0  0  0  0
  150.0557  139.2093  158.7838 N   0  0  0  0  0  0  0  0  0  0  0  0
  149.0785  138.4551  158.2716 C   0  0  0  0  0  0  0  0  0  0  0  0
  148.7195  138.3077  156.9944 N   0  0  0  0  0  0  0  0  0  0  0  0
  149.4989  139.0641  156.1688 C   0  0  0  0  0  0  0  0  0  0  0  0
  150.5714  139.9110  156.5656 C   0  0  0  0  0  0  0  0  0  0  0  0
  151.1254  140.5271  155.4501 N   0  0  0  0  0  0  0  0  0  0  0  0
  150.4251  140.0654  154.4502 C   0  0  0  0  0  0  0  0  0  0  0  0
  149.4216  139.1870  154.7921 N   0  0  0  0  0  0  0  0  0  0  0  0
  148.4937  138.5257  153.8873 C   0  0  0  0  0  0  0  0  0  0  0  0
  147.1724  139.2896  153.6819 C   0  0  0  0  0  0  0  0  0  0  0  0
  146.4547  138.7131  152.4440 C   0  0  0  0  0  0  0  0  0  0  0  0
  147.2861  138.6831  151.3010 O   0  0  0  0  0  0  0  0  0  0  0  0
  146.3050  139.4882  154.9334 C   0  0  0  0  0  0  0  0  0  0  0  0
  146.2722  140.9218  154.7575 O   0  0  0  0  0  0  0  0  0  0  0  0
  147.2968  140.8187  153.7439 C   0  0  0  0  0  0  0  0  0  0  0  0
  151.3276  141.8083  159.3510 C   0  0  0  0  0  0  0  0  0  0  0  0
  147.6895  145.1366  161.7555 H   0  0  0  0  0  0  0  0  0  0  0  0
  147.8676  144.8206  160.0263 H   0  0  0  0  0  0  0  0  0  0  0  0
  148.5090  146.3165  160.7273 H   0  0  0  0  0  0  0  0  0  0  0  0
  149.7079  144.0888  162.0443 H   0  0  0  0  0  0  0  0  0  0  0  0
  152.6936  144.5222  161.0160 H   0  0  0  0  0  0  0  0  0  0  0  0
  151.6684  143.3130  161.7292 H   0  0  0  0  0  0  0  0  0  0  0  0
  153.8295  143.4976  158.6146 H   0  0  0  0  0  0  0  0  0  0  0  0
  154.5238  142.5928  160.5388 H   0  0  0  0  0  0  0  0  0  0  0  0
  153.3756  141.5558  161.3456 H   0  0  0  0  0  0  0  0  0  0  0  0
  154.5126  141.1531  158.5448 H   0  0  0  0  0  0  0  0  0  0  0  0
  154.8477  140.1820  159.9576 H   0  0  0  0  0  0  0  0  0  0  0  0
  153.1676  139.0935  158.4499 H   0  0  0  0  0  0  0  0  0  0  0  0
  152.4933  139.4048  160.0408 H   0  0  0  0  0  0  0  0  0  0  0  0
  148.5018  137.8885  158.9877 H   0  0  0  0  0  0  0  0  0  0  0  0
  150.6236  140.3575  153.4293 H   0  0  0  0  0  0  0  0  0  0  0  0
  149.0069  138.3873  152.9348 H   0  0  0  0  0  0  0  0  0  0  0  0
  148.2994  137.5208  154.2639 H   0  0  0  0  0  0  0  0  0  0  0  0
  146.1067  137.6975  152.6354 H   0  0  0  0  0  0  0  0  0  0  0  0
  145.5773  139.3055  152.1849 H   0  0  0  0  0  0  0  0  0  0  0  0
  147.9060  139.3939  151.3612 H   0  0  0  0  0  0  0  0  0  0  0  0
  145.3154  139.0343  154.8695 H   0  0  0  0  0  0  0  0  0  0  0  0
  146.7977  139.2125  155.8663 H   0  0  0  0  0  0  0  0  0  0  0  0
  148.2627  141.1699  154.1104 H   0  0  0  0  0  0  0  0  0  0  0  0
  147.0279  141.3319  152.8201 H   0  0  0  0  0  0  0  0  0  0  0  0
  150.8482  141.4079  160.2446 H   0  0  0  0  0  0  0  0  0  0  0  0
  150.5603  142.3598  158.8045 H   0  0  0  0  0  0  0  0  0  0  0  0
  1  2  1  0  0  0  0
  1 29  1  0  0  0  0
  1 30  1  0  0  0  0
  1 31  1  0  0  0  0
  2  3  1  0  0  0  0
  2 32  1  0  0  0  0
  3  4  2  0  0  0  0
  3  5  1  0  0  0  0
  5  6  1  0  0  0  0
  5 33  1  0  0  0  0
  5 34  1  0  0  0  0
  6 28  1  0  0  0  0
  6  7  1  0  0  0  0
  6  8  1  0  0  0  0
  7 35  1  0  0  0  0
  8  9  1  0  0  0  0
  8 36  1  0  0  0  0
  8 37  1  0  0  0  0
  9 10  1  0  0  0  0
  9 38  1  0  0  0  0
  9 39  1  0  0  0  0
 10 11  1  0  0  0  0
 10 40  1  0  0  0  0
 10 41  1  0  0  0  0
 11 12  1  0  0  0  0
 11 28  1  0  0  0  0
 12 17  1  0  0  0  0
 12 13  2  0  0  0  0
 13 14  1  0  0  0  0
 14 15  2  0  0  0  0
 14 42  1  0  0  0  0
 15 16  1  0  0  0  0
 16 20  1  0  0  0  0
 16 17  2  0  0  0  0
 17 18  1  0  0  0  0
 18 19  2  0  0  0  0
 19 20  1  0  0  0  0
 19 43  1  0  0  0  0
 20 21  1  0  0  0  0
 21 22  1  0  0  0  0
 21 44  1  0  0  0  0
 21 45  1  0  0  0  0
 22 27  1  0  0  0  0
 22 23  1  0  0  0  0
 22 25  1  0  0  0  0
 23 24  1  0  0  0  0
 23 46  1  0  0  0  0
 23 47  1  0  0  0  0
 24 48  1  0  0  0  0
 25 26  1  0  0  0  0
 25 49  1  0  0  0  0
 25 50  1  0  0  0  0
 26 27  1  0  0  0  0
 27 51  1  0  0  0  0
 27 52  1  0  0  0  0
 28 53  1  0  0  0  0
 28 54  1  0  0  0  0
M  END
> <s_m_source_file>
AV-unprocessed.smi

> <i_m_source_file_index>
259

> <i_lp_mmshare_version>
43012

> <i_f3d_flags>
0

> <s_epik_input>
W0NIM11bTkhdQyg9TylbQ0gyXVtDQEBdMShbT0hdKVtDSDJdW0NIMl1bQ0gyXU4oW0NIMl0xKWMobltjSF1uMiljKGMyMyluW2NIXW4zW0NIMl1DNChbQ0gyXVtPSF0pW0NIMl1PW0NIMl00

> <s_epik_cmdline>
J2VwaWtfcHl0aG9uJywgJy1waCcsICc3LjAnLCAnLXRuJywgJzgnLCAnLW1hJywgJzIwMCcsICctbWV0YWxfYmluZGluZycsICctaW1hZScsICc8aW5maWxlLm1hZT4nLCAnLW9tYWUnLCAnPG91dGZpbGUubWFlPic=

> <r_lp_tautomer_probability>
1

> <r_epik_Ionization_Penalty>
0.00366363

> <r_epik_Ionization_Penalty_Charging>
0

> <r_epik_Ionization_Penalty_Neutral>
0.00366363

> <r_epik_State_Penalty>
0.00243014

> <r_epik_Charging_Adjusted_Penalty>
0.00243014

> <i_epik_Tot_Q>
0

> <i_epik_Tot_abs_Q>
0

> <r_epik_Metal_State_Penalty>
-0

> <b_epik_Metal_Only>
0

> <s_lp_Force_Field>
OPLS_2005

> <r_lp_Energy>
40.2539

> <b_lp_Chiralities_Consistent>
1

> <s_lp_Variant>
AV-unprocessed.smi:259-1

> <Gold.Version>
5.8.1

> <Gold.Id.Protein>
6NUR|6NUR_protein|mol2

> <Gold.PLP.Fitness>
49.5178

> <Gold.PLP.PLP>
-42.6756

> <Gold.PLP.part.hbond>
-5.4091

> <Gold.PLP.part.metal>
0.0000

> <Gold.PLP.part.buried>
-1.2879

> <Gold.PLP.part.nonpolar>
-35.7732

> <Gold.PLP.part.repulsive>
0.4680

> <Gold.PLP.ligand.clash>
0.0000

> <Gold.PLP.ligand.torsion>
0.9071

> <Gold.PLP.Chemscore.Hbond>
1.7320

> <Gold.PLP.Chemscore.CHOScore>
0.9588

> <Gold.PLP.Chemscore.Metal>
0.0000

> <Gold.Chemscore.Hbonds>
donor molecule, donor type, donor heavy atom, donor atom, acceptor molecule, acceptor atom, score
      L1  H    24    48       P1  7957  0.99
      P1  H  7954  7966       L1    24  0.64
      L1  C    19    43       P1  7957  1.00

> <Gold.PLP.Chemscore.Internal.Correction>
0.5840

> <Gold.Rescore>
     Score         DG    S(hbond)    S(metal)    S(lipo)     H(rot)  DE(clash)    DE(int)     intcor
      7.46     -10.22       1.27        0.00      93.79       4.09       1.88       0.88       ----

> <Gold.Chemscore.Fitness>
7.4610

> <Gold.Chemscore.DG>
-10.2218

> <Gold.Chemscore.ZeroCoef>
-5.4800

> <Gold.Chemscore.Hbond>
1.2697

> <Gold.Chemscore.Metal>
0.0000

> <Gold.Chemscore.Lipo>
93.7869

> <Gold.Chemscore.Internal_Hbond>
0.0000

> <Gold.Chemscore.DEClash>
1.8839

> <Gold.Chemscore.DEInternal>
0.8769

> <Gold.Chemscore.Rot>
4.0906

> <Gold.Chemscore.Internal.Correction>
   9.000000E+99

> <Gold.Chemscore.Hbonds>
donor molecule, donor type, donor heavy atom, donor atom, acceptor molecule, acceptor atom, score
      L1  H    24    48       P1  7957  0.87
      P1  H  7954  7966       L1    24  0.05

> <Gold.Chemscore.Hbond.Weighted>
-4.2407

> <Gold.Chemscore.Metal.Weighted>
-0.0000

> <Gold.Chemscore.Lipo.Weighted>
-10.9731

> <Gold.Chemscore.Internal_Hbond.Weighted>
0.0000

> <Gold.Chemscore.DEClash.Weighted>
1.8839

> <Gold.Chemscore.DEInternal.Weighted>
0.8769

> <Gold.Chemscore.Rot.Weighted>
10.4719

> <Gold.Chemscore.Internal.Correction.Weighted>
   9.000000E+99

> <Gold.Protein.RotatedTorsions>
[ 6907 6896 6895 6894 ] final  -57.51 input  -60.11 | X-H torsion
[ 7974 7965 7964 7962 ] final   83.09 input  175.53 | X-H torsion
[ 8008 7997 7996 7995 ] final  179.16 input   59.86 | X-H torsion
[ 10167 10162 10161 10158 ] final  120.97 input  -65.29 | X-H torsion
[ 10718 10713 10712 10709 ] final  -66.06 input   66.30 | X-H torsion
[ 10763 10752 10751 10750 ] final  -99.45 input  -60.55 | X-H torsion
[ 11005 11000 10999 10996 ] final  143.71 input  -57.11 | X-H torsion

> <Gold.Protein.ActiveResidues>
 VAL166  LYS551  ARG553  GLY616  TRP617  ASP618  TYR619  PRO620  LYS621  CYS622 
 ASP623  PHE694  ASN695  SER759  ASP760  ASP761  ALA762  ILE779  LEU786  VAL792 
 PHE793  MET794  SER795  GLU796  ALA797  LYS798  CYS799  TRP800  GLU811  SER814 

> <Gold.Protein.RotatedAtoms>
  150.8080  134.7217  159.6661 H   0  0  0  0  0  0  0  0  0  0  0  0  # atno 6907 bound_to 6896
  152.4200  134.5969  159.9999 H   0  0  0  0  0  0  0  0  0  0  0  0  # atno 6908 bound_to 6896
  151.6188  133.3304  159.3119 H   0  0  0  0  0  0  0  0  0  0  0  0  # atno 6909 bound_to 6896
  145.6165  139.2378  143.2162 H   0  0  0  0  0  0  0  0  0  0  0  0  # atno 7974 bound_to 7965
  156.0465  140.1315  157.0098 H   0  0  0  0  0  0  0  0  0  0  0  0  # atno 8008 bound_to 7997
  154.4415  140.1019  156.6384 H   0  0  0  0  0  0  0  0  0  0  0  0  # atno 8009 bound_to 7997
  155.5588  140.3464  155.4488 H   0  0  0  0  0  0  0  0  0  0  0  0  # atno 8010 bound_to 7997
  139.5948  144.7038  151.3201 H   0  0  0  0  0  0  0  0  0  0  0  0  # atno 10167 bound_to 10162
  156.0633  130.4256  150.1655 H   0  0  0  0  0  0  0  0  0  0  0  0  # atno 10718 bound_to 10713
  154.7498  135.4972  153.9269 H   0  0  0  0  0  0  0  0  0  0  0  0  # atno 10763 bound_to 10752
  153.1131  135.6714  153.9472 H   0  0  0  0  0  0  0  0  0  0  0  0  # atno 10764 bound_to 10752
  153.9226  135.3086  155.3426 H   0  0  0  0  0  0  0  0  0  0  0  0  # atno 10765 bound_to 10752
  140.0575  134.9222  157.1126 H   0  0  0  0  0  0  0  0  0  0  0  0  # atno 11005 bound_to 11000
  146.1464  140.6987  142.9343 LP  0  0  0  0  0  0  0  0  0  0  0  0  # atno 17320 bound_to 7965
  144.7248  140.4490  143.6981 LP  0  0  0  0  0  0  0  0  0  0  0  0  # atno 17321 bound_to 7965
  140.7203  143.7153  150.7737 LP  0  0  0  0  0  0  0  0  0  0  0  0  # atno 17342 bound_to 10162
  140.0717  143.5054  152.2576 LP  0  0  0  0  0  0  0  0  0  0  0  0  # atno 17343 bound_to 10162
  156.9719  130.9837  151.3457 LP  0  0  0  0  0  0  0  0  0  0  0  0  # atno 17370 bound_to 10713
  157.5658  130.8277  149.8325 LP  0  0  0  0  0  0  0  0  0  0  0  0  # atno 17371 bound_to 10713
  140.3821  134.2275  155.7170 LP  0  0  0  0  0  0  0  0  0  0  0  0  # atno 17394 bound_to 11000
  141.1958  133.8096  157.0697 LP  0  0  0  0  0  0  0  0  0  0  0  0  # atno 17395 bound_to 11000

$$$$
