AV-unprocessed.smi:916|AV-procd|sdf|4160|dock6
  -GOLD-   22720 2 63D 1   1.00000     0.00000
 Structure written by MMmdl.
 43 44  0  0  0  0  0  0  0  0  1 V2000
  138.8632  138.0718  153.7748 C   0  0  0  0  0  0  0  0  0  0  0  0
  139.2057  136.5777  153.7816 C   0  0  0  0  0  0  0  0  0  0  0  0
  140.6745  136.3298  153.6171 C   0  0  0  0  0  0  0  0  0  0  0  0
  141.2947  135.1126  153.4718 C   0  0  0  0  0  0  0  0  0  0  0  0
  143.0223  135.2750  153.3036 S   0  0  0  0  0  0  0  0  0  0  0  0
  142.8324  137.0163  153.4350 C   0  0  0  0  0  0  0  0  0  0  0  0
  143.9398  137.9011  153.3612 N   0  0  0  0  0  0  0  0  0  0  0  0
  145.2489  137.5957  153.3891 C   0  0  0  0  0  0  0  0  0  0  0  0
  145.7145  136.4563  153.4309 O   0  0  0  0  0  0  0  0  0  0  0  0
  146.0060  138.7020  153.3687 N   0  0  0  0  0  0  0  0  0  0  0  0
  147.4646  138.7186  153.4182 C   0  0  0  0  0  0  0  0  0  0  0  0
  148.0033  139.2344  154.7770 C   0  0  2  0  0  0  0  0  0  0  0  0
  147.6243  140.6849  155.0429 C   0  0  0  0  0  0  0  0  0  0  0  0
  148.7616  141.4786  154.3946 C   0  0  0  0  0  0  0  0  0  0  0  0
  149.8063  140.5418  154.1468 O   0  0  0  0  0  0  0  0  0  0  0  0
  149.5355  139.3417  154.8583 C   0  0  2  0  0  0  0  0  0  0  0  0
  150.3630  138.1553  154.3137 C   0  0  0  0  0  0  0  0  0  0  0  0
  150.0368  136.8468  155.0542 C   0  0  0  0  0  0  0  0  0  0  0  0
  151.8697  138.4468  154.4032 C   0  0  0  0  0  0  0  0  0  0  0  0
  141.5638  137.4084  153.5971 N   0  0  0  0  0  0  0  0  0  0  0  0
  137.7908  138.2251  153.8965 H   0  0  0  0  0  0  0  0  0  0  0  0
  139.1630  138.5394  152.8366 H   0  0  0  0  0  0  0  0  0  0  0  0
  139.3681  138.5958  154.5871 H   0  0  0  0  0  0  0  0  0  0  0  0
  138.8545  136.1320  154.7128 H   0  0  0  0  0  0  0  0  0  0  0  0
  138.6515  136.0804  152.9849 H   0  0  0  0  0  0  0  0  0  0  0  0
  140.8402  134.1332  153.4517 H   0  0  0  0  0  0  0  0  0  0  0  0
  143.7080  138.8820  153.3095 H   0  0  0  0  0  0  0  0  0  0  0  0
  145.5424  139.5978  153.3298 H   0  0  0  0  0  0  0  0  0  0  0  0
  147.8285  137.7126  153.2087 H   0  0  0  0  0  0  0  0  0  0  0  0
  147.8235  139.3482  152.6036 H   0  0  0  0  0  0  0  0  0  0  0  0
  147.6313  138.5927  155.5764 H   0  0  0  0  0  0  0  0  0  0  0  0
  146.6422  140.9677  154.6634 H   0  0  0  0  0  0  0  0  0  0  0  0
  147.6212  140.8671  156.1184 H   0  0  0  0  0  0  0  0  0  0  0  0
  148.4504  141.9227  153.4489 H   0  0  0  0  0  0  0  0  0  0  0  0
  149.1082  142.2795  155.0482 H   0  0  0  0  0  0  0  0  0  0  0  0
  149.8153  139.5125  155.9003 H   0  0  0  0  0  0  0  0  0  0  0  0
  150.1284  138.0163  153.2582 H   0  0  0  0  0  0  0  0  0  0  0  0
  150.2567  136.9308  156.1190 H   0  0  0  0  0  0  0  0  0  0  0  0
  150.6223  136.0161  154.6593 H   0  0  0  0  0  0  0  0  0  0  0  0
  148.9857  136.5766  154.9546 H   0  0  0  0  0  0  0  0  0  0  0  0
  152.1826  138.6075  155.4354 H   0  0  0  0  0  0  0  0  0  0  0  0
  152.1364  139.3369  153.8327 H   0  0  0  0  0  0  0  0  0  0  0  0
  152.4550  137.6180  154.0037 H   0  0  0  0  0  0  0  0  0  0  0  0
  1  2  1  0  0  0  0
  1 21  1  0  0  0  0
  1 22  1  0  0  0  0
  1 23  1  0  0  0  0
  2  3  1  0  0  0  0
  2 24  1  0  0  0  0
  2 25  1  0  0  0  0
  3 20  1  0  0  0  0
  3  4  2  0  0  0  0
  4  5  1  0  0  0  0
  4 26  1  0  0  0  0
  5  6  1  0  0  0  0
  6  7  1  0  0  0  0
  6 20  2  0  0  0  0
  7  8  1  0  0  0  0
  7 27  1  0  0  0  0
  8  9  2  0  0  0  0
  8 10  1  0  0  0  0
 10 11  1  0  0  0  0
 10 28  1  0  0  0  0
 11 12  1  0  0  0  0
 11 29  1  0  0  0  0
 11 30  1  0  0  0  0
 12 16  1  0  0  0  0
 12 13  1  0  0  0  0
 12 31  1  0  0  0  0
 13 14  1  0  0  0  0
 13 32  1  0  0  0  0
 13 33  1  0  0  0  0
 14 15  1  0  0  0  0
 14 34  1  0  0  0  0
 14 35  1  0  0  0  0
 15 16  1  0  0  0  0
 16 17  1  0  0  0  0
 16 36  1  0  0  0  0
 17 18  1  0  0  0  0
 17 19  1  0  0  0  0
 17 37  1  0  0  0  0
 18 38  1  0  0  0  0
 18 39  1  0  0  0  0
 18 40  1  0  0  0  0
 19 41  1  0  0  0  0
 19 42  1  0  0  0  0
 19 43  1  0  0  0  0
M  END
> <s_m_source_file>
AV-unprocessed.smi

> <i_m_source_file_index>
916

> <i_lp_mmshare_version>
43012

> <i_f3d_flags>
0

> <s_epik_input>
W0NIM11bQ0gyXWMxW2NIXXNjKG4xKVtOSF1DKD1PKVtOSF1bQ0gyXVtDQEBIXTJbQ0gyXVtDSDJdT1tDQEhdMltDSF0oW0NIM10pW0NIM10=

> <s_epik_cmdline>
J2VwaWtfcHl0aG9uJywgJy1waCcsICc3LjAnLCAnLXRuJywgJzgnLCAnLW1hJywgJzIwMCcsICctbWV0YWxfYmluZGluZycsICctaW1hZScsICc8aW5maWxlLm1hZT4nLCAnLW9tYWUnLCAnPG91dGZpbGUubWFlPic=

> <r_lp_tautomer_probability>
0.999

> <r_epik_Ionization_Penalty>
0.000518907

> <r_epik_Ionization_Penalty_Charging>
0

> <r_epik_Ionization_Penalty_Neutral>
0.000518907

> <r_epik_State_Penalty>
0.000177984

> <r_epik_Charging_Adjusted_Penalty>
0.000177984

> <i_epik_Tot_Q>
0

> <i_epik_Tot_abs_Q>
0

> <r_epik_Metal_State_Penalty>
-0

> <b_epik_Metal_Only>
0

> <s_lp_Force_Field>
OPLS_2005

> <r_lp_Energy>
18.5448

> <b_lp_Chiralities_Consistent>
1

> <s_lp_Variant>
AV-unprocessed.smi:916-3

> <Gold.Version>
5.8.1

> <Gold.Id.Protein>
6NUR|6NUR_protein|mol2

> <Gold.PLP.Fitness>
40.7572

> <Gold.PLP.PLP>
-34.6236

> <Gold.PLP.part.hbond>
-2.9102

> <Gold.PLP.part.metal>
0.0000

> <Gold.PLP.part.buried>
-7.1577

> <Gold.PLP.part.nonpolar>
-26.8777

> <Gold.PLP.part.repulsive>
1.0118

> <Gold.PLP.ligand.clash>
0.0000

> <Gold.PLP.ligand.torsion>
0.1270

> <Gold.PLP.Chemscore.Hbond>
2.1069

> <Gold.PLP.Chemscore.CHOScore>
0.0000

> <Gold.PLP.Chemscore.Metal>
0.0000

> <Gold.Chemscore.Hbonds>
donor molecule, donor type, donor heavy atom, donor atom, acceptor molecule, acceptor atom, score
      L1  H     7    27       P1 10175  1.00
      L1  H    10    28       P1 10175  0.39
      P1  H  7989  7998       L1    15  0.70

> <Gold.PLP.Chemscore.Internal.Correction>
0.0670

> <Gold.Rescore>
     Score         DG    S(hbond)    S(metal)    S(lipo)     H(rot)  DE(clash)    DE(int)     intcor
     16.41     -18.08       2.06        0.00      82.12       1.52       0.35       1.33       ----

> <Gold.Chemscore.Fitness>
16.4057

> <Gold.Chemscore.DG>
-18.0816

> <Gold.Chemscore.ZeroCoef>
-5.4800

> <Gold.Chemscore.Hbond>
2.0642

> <Gold.Chemscore.Metal>
0.0000

> <Gold.Chemscore.Lipo>
82.1194

> <Gold.Chemscore.Internal_Hbond>
0.0000

> <Gold.Chemscore.DEClash>
0.3488

> <Gold.Chemscore.DEInternal>
1.3272

> <Gold.Chemscore.Rot>
1.5238

> <Gold.Chemscore.Internal.Correction>
   9.000000E+99

> <Gold.Chemscore.Hbonds>
donor molecule, donor type, donor heavy atom, donor atom, acceptor molecule, acceptor atom, score
      L1  H     7    27       P1 10175  0.97
      L1  H    10    28       P1 10175  0.38
      P1  H  7989  7998       L1    15  0.68

> <Gold.Chemscore.Hbond.Weighted>
-6.8945

> <Gold.Chemscore.Metal.Weighted>
-0.0000

> <Gold.Chemscore.Lipo.Weighted>
-9.6080

> <Gold.Chemscore.Internal_Hbond.Weighted>
0.0000

> <Gold.Chemscore.DEClash.Weighted>
0.3488

> <Gold.Chemscore.DEInternal.Weighted>
1.3272

> <Gold.Chemscore.Rot.Weighted>
3.9008

> <Gold.Chemscore.Internal.Correction.Weighted>
   9.000000E+99

> <Gold.Protein.RotatedTorsions>
[ 6907 6896 6895 6894 ] final -130.96 input  -60.11 | X-H torsion
[ 7974 7965 7964 7962 ] final  150.83 input  175.53 | X-H torsion
[ 8008 7997 7996 7995 ] final -166.75 input   59.86 | X-H torsion
[ 10167 10162 10161 10158 ] final  -83.83 input  -65.29 | X-H torsion
[ 10718 10713 10712 10709 ] final  -35.41 input   66.30 | X-H torsion
[ 10763 10752 10751 10750 ] final   48.85 input  -60.55 | X-H torsion
[ 11005 11000 10999 10996 ] final  110.46 input  -57.11 | X-H torsion

> <Gold.Protein.ActiveResidues>
 VAL166  LYS551  ARG553  GLY616  TRP617  ASP618  TYR619  PRO620  LYS621  CYS622 
 ASP623  PHE694  ASN695  SER759  ASP760  ASP761  ALA762  ILE779  LEU786  VAL792 
 PHE793  MET794  SER795  GLU796  ALA797  LYS798  CYS799  TRP800  GLU811  SER814 

> <Gold.Protein.RotatedAtoms>
  150.9455  133.6608  159.2781 H   0  0  0  0  0  0  0  0  0  0  0  0  # atno 6907 bound_to 6896
  151.3982  135.0965  159.9557 H   0  0  0  0  0  0  0  0  0  0  0  0  # atno 6908 bound_to 6896
  152.5088  133.8955  159.7470 H   0  0  0  0  0  0  0  0  0  0  0  0  # atno 6909 bound_to 6896
  144.8336  139.6459  143.6048 H   0  0  0  0  0  0  0  0  0  0  0  0  # atno 7974 bound_to 7965
  155.8682  140.0989  157.1568 H   0  0  0  0  0  0  0  0  0  0  0  0  # atno 8008 bound_to 7997
  154.3995  140.1352  156.4108 H   0  0  0  0  0  0  0  0  0  0  0  0  # atno 8009 bound_to 7997
  155.7780  140.3459  155.5284 H   0  0  0  0  0  0  0  0  0  0  0  0  # atno 8010 bound_to 7997
  140.4190  143.2592  151.8916 H   0  0  0  0  0  0  0  0  0  0  0  0  # atno 10167 bound_to 10162
  156.3390  130.4290  149.7804 H   0  0  0  0  0  0  0  0  0  0  0  0  # atno 10718 bound_to 10713
  152.9789  135.5931  154.3993 H   0  0  0  0  0  0  0  0  0  0  0  0  # atno 10763 bound_to 10752
  154.3640  135.2767  155.2306 H   0  0  0  0  0  0  0  0  0  0  0  0  # atno 10764 bound_to 10752
  154.4290  135.6041  153.6112 H   0  0  0  0  0  0  0  0  0  0  0  0  # atno 10765 bound_to 10752
  139.8882  134.9484  156.6282 H   0  0  0  0  0  0  0  0  0  0  0  0  # atno 11005 bound_to 11000
  146.2637  139.6469  142.9344 LP  0  0  0  0  0  0  0  0  0  0  0  0  # atno 17320 bound_to 7965
  145.4843  141.0438  143.2628 LP  0  0  0  0  0  0  0  0  0  0  0  0  # atno 17321 bound_to 7965
  139.4782  144.5458  151.8460 LP  0  0  0  0  0  0  0  0  0  0  0  0  # atno 17342 bound_to 10162
  140.4555  144.1795  150.5901 LP  0  0  0  0  0  0  0  0  0  0  0  0  # atno 17343 bound_to 10162
  156.5048  130.8145  151.3146 LP  0  0  0  0  0  0  0  0  0  0  0  0  # atno 17370 bound_to 10713
  157.7443  130.9933  150.2667 LP  0  0  0  0  0  0  0  0  0  0  0  0  # atno 17371 bound_to 10713
  140.7686  133.8757  155.8474 LP  0  0  0  0  0  0  0  0  0  0  0  0  # atno 17394 bound_to 11000
  140.9861  134.1341  157.4451 LP  0  0  0  0  0  0  0  0  0  0  0  0  # atno 17395 bound_to 11000

$$$$
