AV-unprocessed.smi:1831|AV-procd|sdf|7462|dock1
  -GOLD-   22720 9153D 1   1.00000     0.00000
 Structure written by MMmdl.
 40 41  0  0  0  0  0  0  0  0  3 V2000
  153.0623  142.7275  160.4661 C   0  0  0  0  0  0  0  0  0  0  0  0
  152.7835  141.6396  159.4865 C   0  0  0  0  0  0  0  0  0  0  0  0
  153.6587  140.6670  159.2212 N   0  0  0  0  0  0  0  0  0  0  0  0
  153.1740  139.7701  158.2804 N   0  0  0  0  0  0  0  0  0  0  0  0
  151.9461  140.0804  157.8416 C   0  0  0  0  0  0  0  0  0  0  0  0
  151.2981  139.3375  156.9290 N   0  5  0  0  0  0  0  0  0  0  0  0
  150.6782  139.9366  155.8881 C   0  0  0  0  0  0  0  0  0  0  0  0
  151.2231  140.5641  154.9770 O   0  0  0  0  0  0  0  0  0  0  0  0
  149.3432  139.8126  155.9120 N   0  0  0  0  0  0  0  0  0  0  0  0
  148.4064  140.3731  154.9424 C   0  0  0  0  0  0  0  0  0  0  0  0
  148.1542  139.4091  153.7676 C   0  0  2  0  0  0  0  0  0  0  0  0
  147.2092  139.9629  152.7037 C   0  0  0  0  0  0  0  0  0  0  0  0
  146.6106  138.7231  152.0253 C   0  0  0  0  0  0  0  0  0  0  0  0
  146.9509  137.5521  152.8723 N   0  3  2  0  0  0  0  0  0  0  0  0
  145.8763  136.5283  153.0047 C   0  0  0  0  0  0  0  0  0  0  0  0
  146.3419  135.3166  153.8352 C   0  0  0  0  0  0  0  0  0  0  0  0
  145.3932  136.0505  151.6224 C   0  0  0  0  0  0  0  0  0  0  0  0
  147.4781  138.0906  154.1434 C   0  0  0  0  0  0  0  0  0  0  0  0
  151.2765  141.5287  158.5923 S   0  0  0  0  0  0  0  0  0  0  0  0
  153.0207  142.3341  161.4818 H   0  0  0  0  0  0  0  0  0  0  0  0
  152.3250  143.5244  160.3682 H   0  0  0  0  0  0  0  0  0  0  0  0
  154.0534  143.1466  160.2912 H   0  0  0  0  0  0  0  0  0  0  0  0
  148.9454  139.2838  156.6746 H   0  0  0  0  0  0  0  0  0  0  0  0
  147.4679  140.6505  155.4253 H   0  0  0  0  0  0  0  0  0  0  0  0
  148.8384  141.3002  154.5653 H   0  0  0  0  0  0  0  0  0  0  0  0
  149.1073  139.1790  153.2879 H   0  0  0  0  0  0  0  0  0  0  0  0
  146.4109  140.5384  153.1747 H   0  0  0  0  0  0  0  0  0  0  0  0
  147.7175  140.6210  151.9984 H   0  0  0  0  0  0  0  0  0  0  0  0
  145.5319  138.8485  151.9186 H   0  0  0  0  0  0  0  0  0  0  0  0
  147.0283  138.5753  151.0289 H   0  0  0  0  0  0  0  0  0  0  0  0
  145.0328  136.9876  153.5230 H   0  0  0  0  0  0  0  0  0  0  0  0
  145.5652  134.5525  153.8806 H   0  0  0  0  0  0  0  0  0  0  0  0
  146.5724  135.5902  154.8650 H   0  0  0  0  0  0  0  0  0  0  0  0
  147.2314  134.8570  153.4029 H   0  0  0  0  0  0  0  0  0  0  0  0
  144.6195  135.2886  151.7216 H   0  0  0  0  0  0  0  0  0  0  0  0
  146.2113  135.6164  151.0465 H   0  0  0  0  0  0  0  0  0  0  0  0
  144.9648  136.8612  151.0332 H   0  0  0  0  0  0  0  0  0  0  0  0
  148.1712  137.3952  154.6178 H   0  0  0  0  0  0  0  0  0  0  0  0
  146.6520  138.2757  154.8324 H   0  0  0  0  0  0  0  0  0  0  0  0
  147.7357  137.1021  152.4231 H   0  0  0  0  0  0  0  0  0  0  0  0
  1  2  1  0  0  0  0
  1 20  1  0  0  0  0
  1 21  1  0  0  0  0
  1 22  1  0  0  0  0
  2 19  1  0  0  0  0
  2  3  2  0  0  0  0
  3  4  1  0  0  0  0
  4  5  2  0  0  0  0
  5  6  1  0  0  0  0
  5 19  1  0  0  0  0
  6  7  1  0  0  0  0
  7  8  2  0  0  0  0
  7  9  1  0  0  0  0
  9 10  1  0  0  0  0
  9 23  1  0  0  0  0
 10 11  1  0  0  0  0
 10 24  1  0  0  0  0
 10 25  1  0  0  0  0
 11 18  1  0  0  0  0
 11 12  1  0  0  0  0
 11 26  1  0  0  0  0
 12 13  1  0  0  0  0
 12 27  1  0  0  0  0
 12 28  1  0  0  0  0
 13 14  1  0  0  0  0
 13 29  1  0  0  0  0
 13 30  1  0  0  0  0
 14 15  1  0  0  0  0
 14 18  1  0  0  0  0
 14 40  1  0  0  0  0
 15 16  1  0  0  0  0
 15 17  1  0  0  0  0
 15 31  1  0  0  0  0
 16 32  1  0  0  0  0
 16 33  1  0  0  0  0
 16 34  1  0  0  0  0
 17 35  1  0  0  0  0
 17 36  1  0  0  0  0
 17 37  1  0  0  0  0
 18 38  1  0  0  0  0
 18 39  1  0  0  0  0
M  CHG  1   6  -1
M  CHG  1  14   1
M  END
> <s_m_source_file>
AV-unprocessed.smi

> <i_m_source_file_index>
1831

> <i_lp_mmshare_version>
43012

> <i_f3d_flags>
0

> <s_epik_input>
W0NIM11jMW5uYyhzMSlbTkhdQyg9TylbTkhdW0NIMl1bQ0BASF0yW0NIMl1bQ0gyXU4oW0NIMl0yKVtDSF0oW0NIM10pW0NIM10=

> <s_epik_cmdline>
J2VwaWtfcHl0aG9uJywgJy1waCcsICc3LjAnLCAnLXRuJywgJzgnLCAnLW1hJywgJzIwMCcsICctbWV0YWxfYmluZGluZycsICctaW1hZScsICc8aW5maWxlLm1hZT4nLCAnLW9tYWUnLCAnPG91dGZpbGUubWFlPic=

> <r_lp_tautomer_probability>
1

> <r_epik_Ionization_Penalty>
4.24531

> <r_epik_Ionization_Penalty_Charging>
4.11954

> <r_epik_Ionization_Penalty_Neutral>
0.125766

> <r_epik_State_Penalty>
4.11879

> <r_epik_Charging_Adjusted_Penalty>
8.23833

> <i_epik_Tot_Q>
0

> <i_epik_Tot_abs_Q>
2

> <r_epik_Metal_State_Penalty>
0.659341

> <b_epik_Metal_Only>
1

> <s_lp_Force_Field>
OPLS_2005

> <r_lp_Energy>
22.0207

> <b_lp_Chiralities_Consistent>
1

> <s_lp_Variant>
AV-unprocessed.smi:1831-7

> <Gold.Version>
5.8.1

> <Gold.Id.Protein>
6NUR|6NUR_protein|mol2

> <Gold.PLP.Fitness>
37.9124

> <Gold.PLP.PLP>
-28.4283

> <Gold.PLP.part.hbond>
-3.2837

> <Gold.PLP.part.metal>
0.0000

> <Gold.PLP.part.buried>
0.6151

> <Gold.PLP.part.nonpolar>
-25.7081

> <Gold.PLP.part.repulsive>
0.1257

> <Gold.PLP.ligand.clash>
0.0000

> <Gold.PLP.ligand.torsion>
1.2265

> <Gold.PLP.Chemscore.Hbond>
3.9600

> <Gold.PLP.Chemscore.CHOScore>
0.0000

> <Gold.PLP.Chemscore.Metal>
0.0000

> <Gold.Chemscore.Hbonds>
donor molecule, donor type, donor heavy atom, donor atom, acceptor molecule, acceptor atom, score
      L1  H    14    40       P1  7948  2.00
      P1  H  7989  7998       L1     8  0.94
      P1  H  7997  8009       L1     4  1.00

> <Gold.PLP.Chemscore.Internal.Correction>
0.0571

> <Gold.Rescore>
     Score         DG    S(hbond)    S(metal)    S(lipo)     H(rot)  DE(clash)    DE(int)     intcor
     15.04     -16.09       1.98        0.00      67.44       1.51       0.06       0.98       ----

> <Gold.Chemscore.Fitness>
15.0443

> <Gold.Chemscore.DG>
-16.0940

> <Gold.Chemscore.ZeroCoef>
-5.4800

> <Gold.Chemscore.Hbond>
1.9752

> <Gold.Chemscore.Metal>
0.0000

> <Gold.Chemscore.Lipo>
67.4383

> <Gold.Chemscore.Internal_Hbond>
0.0000

> <Gold.Chemscore.DEClash>
0.0650

> <Gold.Chemscore.DEInternal>
0.9847

> <Gold.Chemscore.Rot>
1.5131

> <Gold.Chemscore.Internal.Correction>
   9.000000E+99

> <Gold.Chemscore.Hbonds>
donor molecule, donor type, donor heavy atom, donor atom, acceptor molecule, acceptor atom, score
      L1  H    14    40       P1  7948  0.98
      P1  H  7989  7998       L1     8  0.87
      P1  H  7997  8009       L1     4  0.17

> <Gold.Chemscore.Hbond.Weighted>
-6.5972

> <Gold.Chemscore.Metal.Weighted>
-0.0000

> <Gold.Chemscore.Lipo.Weighted>
-7.8903

> <Gold.Chemscore.Internal_Hbond.Weighted>
0.0000

> <Gold.Chemscore.DEClash.Weighted>
0.0650

> <Gold.Chemscore.DEInternal.Weighted>
0.9847

> <Gold.Chemscore.Rot.Weighted>
3.8735

> <Gold.Chemscore.Internal.Correction.Weighted>
   9.000000E+99

> <Gold.Protein.RotatedTorsions>
[ 6907 6896 6895 6894 ] final  -88.26 input  -60.11 | X-H torsion
[ 7974 7965 7964 7962 ] final   76.20 input  175.53 | X-H torsion
[ 8008 7997 7996 7995 ] final  169.56 input   59.86 | X-H torsion
[ 10167 10162 10161 10158 ] final   42.72 input  -65.29 | X-H torsion
[ 10718 10713 10712 10709 ] final  -22.66 input   66.30 | X-H torsion
[ 10763 10752 10751 10750 ] final -145.67 input  -60.55 | X-H torsion
[ 11005 11000 10999 10996 ] final  -10.11 input  -57.11 | X-H torsion

> <Gold.Protein.ActiveResidues>
 VAL166  LYS551  ARG553  GLY616  TRP617  ASP618  TYR619  PRO620  LYS621  CYS622 
 ASP623  PHE694  ASN695  SER759  ASP760  ASP761  ALA762  ILE779  LEU786  VAL792 
 PHE793  MET794  SER795  GLU796  ALA797  LYS798  CYS799  TRP800  GLU811  SER814 

> <Gold.Protein.RotatedAtoms>
  150.6868  134.2769  159.4610 H   0  0  0  0  0  0  0  0  0  0  0  0  # atno 6907 bound_to 6896
  152.0686  134.9545  160.0584 H   0  0  0  0  0  0  0  0  0  0  0  0  # atno 6908 bound_to 6896
  152.0944  133.4182  159.4595 H   0  0  0  0  0  0  0  0  0  0  0  0  # atno 6909 bound_to 6896
  145.7059  139.2598  143.1678 H   0  0  0  0  0  0  0  0  0  0  0  0  # atno 7974 bound_to 7965
  156.1446  140.1561  156.8867 H   0  0  0  0  0  0  0  0  0  0  0  0  # atno 8008 bound_to 7997
  154.5017  140.0823  156.7849 H   0  0  0  0  0  0  0  0  0  0  0  0  # atno 8009 bound_to 7997
  155.4013  140.3414  155.4259 H   0  0  0  0  0  0  0  0  0  0  0  0  # atno 8010 bound_to 7997
  140.3515  144.2344  150.6145 H   0  0  0  0  0  0  0  0  0  0  0  0  # atno 10167 bound_to 10162
  156.5015  130.4589  149.6698 H   0  0  0  0  0  0  0  0  0  0  0  0  # atno 10718 bound_to 10713
  154.8372  135.3407  154.6541 H   0  0  0  0  0  0  0  0  0  0  0  0  # atno 10763 bound_to 10752
  153.7155  135.6961  153.5031 H   0  0  0  0  0  0  0  0  0  0  0  0  # atno 10764 bound_to 10752
  153.2420  135.4381  155.0661 H   0  0  0  0  0  0  0  0  0  0  0  0  # atno 10765 bound_to 10752
  140.7413  133.8668  155.8970 H   0  0  0  0  0  0  0  0  0  0  0  0  # atno 11005 bound_to 11000
  146.0756  140.7821  142.9667 LP  0  0  0  0  0  0  0  0  0  0  0  0  # atno 17320 bound_to 7965
  144.6955  140.3409  143.7199 LP  0  0  0  0  0  0  0  0  0  0  0  0  # atno 17321 bound_to 7965
  140.5214  143.2265  151.8383 LP  0  0  0  0  0  0  0  0  0  0  0  0  # atno 17342 bound_to 10162
  139.4826  144.4832  151.9280 LP  0  0  0  0  0  0  0  0  0  0  0  0  # atno 17343 bound_to 10162
  156.3328  130.7340  151.2273 LP  0  0  0  0  0  0  0  0  0  0  0  0  # atno 17370 bound_to 10713
  157.7462  131.0425  150.4698 LP  0  0  0  0  0  0  0  0  0  0  0  0  # atno 17371 bound_to 10713
  140.9834  134.1375  157.4474 LP  0  0  0  0  0  0  0  0  0  0  0  0  # atno 17394 bound_to 11000
  139.8805  135.0018  156.6088 LP  0  0  0  0  0  0  0  0  0  0  0  0  # atno 17395 bound_to 11000

$$$$
