AV-unprocessed.smi:109|AV-procd|sdf|1049|dock6
  -GOLD-   2262018 93D 1   1.00000     0.00000
 Structure written by MMmdl.
 58 61  0  0  0  0  0  0  0  0  1 V2000
  151.8071  137.0881  159.1499 O   0  0  0  0  0  0  0  0  0  0  0  0
  151.1340  138.1669  158.5379 C   0  0  0  0  0  0  0  0  0  0  0  0
  152.0264  139.4197  158.5611 C   0  0  0  0  0  0  0  0  0  0  0  0
  151.3308  140.6891  158.0153 C   0  0  2  0  0  0  0  0  0  0  0  0
  151.1861  140.5667  156.5628 N   0  0  0  0  0  0  0  0  0  0  0  0
  149.9936  140.6904  155.9379 C   0  0  0  0  0  0  0  0  0  0  0  0
  149.8321  140.3407  154.6363 N   0  0  0  0  0  0  0  0  0  0  0  0
  148.6378  140.4703  154.0541 C   0  0  0  0  0  0  0  0  0  0  0  0
  147.4978  140.9162  154.5838 N   0  0  0  0  0  0  0  0  0  0  0  0
  147.6471  141.2758  155.8926 C   0  0  0  0  0  0  0  0  0  0  0  0
  148.8624  141.1940  156.6310 C   0  0  0  0  0  0  0  0  0  0  0  0
  148.6607  141.6477  157.9257 N   0  0  0  0  0  0  0  0  0  0  0  0
  147.3987  141.9780  157.9482 C   0  0  0  0  0  0  0  0  0  0  0  0
  146.7012  141.7701  156.7776 N   0  0  0  0  0  0  0  0  0  0  0  0
  145.2440  142.0798  156.5579 C   0  0  1  0  0  0  0  0  0  0  0  0
  144.9967  143.3841  156.9749 O   0  0  0  0  0  0  0  0  0  0  0  0
  145.0749  144.2705  155.8677 C   0  0  2  0  0  0  0  0  0  0  0  0
  144.2420  145.5303  156.1526 C   0  0  0  0  0  0  0  0  0  0  0  0
  144.8235  146.2735  157.2022 O   0  0  0  0  0  0  0  0  0  0  0  0
  144.5223  143.4333  154.7018 C   0  0  1  0  0  0  0  0  0  0  0  0
  145.1892  143.7723  153.5025 O   0  0  0  0  0  0  0  0  0  0  0  0
  144.8069  141.9776  155.0871 C   0  0  2  0  0  0  0  0  0  0  0  0
  143.6335  141.2000  154.9595 O   0  0  0  0  0  0  0  0  0  0  0  0
  152.0766  142.0121  158.3520 C   0  0  0  0  0  0  0  0  0  0  0  0
  152.1515  142.3009  159.8724 C   0  0  0  0  0  0  0  0  0  0  0  0
  152.8490  143.6350  160.1847 C   0  0  0  0  0  0  0  0  0  0  0  0
  152.1698  144.8051  159.4635 C   0  0  0  0  0  0  0  0  0  0  0  0
  152.1177  144.5492  157.9528 C   0  0  0  0  0  0  0  0  0  0  0  0
  151.4140  143.2197  157.6397 C   0  0  0  0  0  0  0  0  0  0  0  0
  144.7292  141.3728  157.2101 H   0  0  0  0  0  0  0  0  0  0  0  0
  146.1177  144.5357  155.6927 H   0  0  0  0  0  0  0  0  0  0  0  0
  143.4502  143.6030  154.5870 H   0  0  0  0  0  0  0  0  0  0  0  0
  145.5861  141.5110  154.4843 H   0  0  0  0  0  0  0  0  0  0  0  0
  152.6420  136.9733  158.7218 H   0  0  0  0  0  0  0  0  0  0  0  0
  150.8776  137.8812  157.5175 H   0  0  0  0  0  0  0  0  0  0  0  0
  150.2003  138.3509  159.0702 H   0  0  0  0  0  0  0  0  0  0  0  0
  152.3247  139.5747  159.5966 H   0  0  0  0  0  0  0  0  0  0  0  0
  152.9432  139.2318  158.0003 H   0  0  0  0  0  0  0  0  0  0  0  0
  150.3580  140.7524  158.5018 H   0  0  0  0  0  0  0  0  0  0  0  0
  152.0406  140.3765  156.0595 H   0  0  0  0  0  0  0  0  0  0  0  0
  148.5876  140.1718  153.0175 H   0  0  0  0  0  0  0  0  0  0  0  0
  146.9341  142.3822  158.8359 H   0  0  0  0  0  0  0  0  0  0  0  0
  144.2238  146.1724  155.2714 H   0  0  0  0  0  0  0  0  0  0  0  0
  143.2083  145.2786  156.3916 H   0  0  0  0  0  0  0  0  0  0  0  0
  145.7632  146.1900  157.1451 H   0  0  0  0  0  0  0  0  0  0  0  0
  144.6341  143.5323  152.7752 H   0  0  0  0  0  0  0  0  0  0  0  0
  143.4964  141.0122  154.0435 H   0  0  0  0  0  0  0  0  0  0  0  0
  153.1000  141.9254  157.9833 H   0  0  0  0  0  0  0  0  0  0  0  0
  151.1464  142.3068  160.2960 H   0  0  0  0  0  0  0  0  0  0  0  0
  152.7036  141.5174  160.3891 H   0  0  0  0  0  0  0  0  0  0  0  0
  152.8465  143.8115  161.2607 H   0  0  0  0  0  0  0  0  0  0  0  0
  153.8960  143.5788  159.8841 H   0  0  0  0  0  0  0  0  0  0  0  0
  151.1583  144.9379  159.8497 H   0  0  0  0  0  0  0  0  0  0  0  0
  152.7054  145.7325  159.6678 H   0  0  0  0  0  0  0  0  0  0  0  0
  151.5991  145.3695  157.4558 H   0  0  0  0  0  0  0  0  0  0  0  0
  153.1302  144.5321  157.5476 H   0  0  0  0  0  0  0  0  0  0  0  0
  151.4156  143.0795  156.5585 H   0  0  0  0  0  0  0  0  0  0  0  0
  150.3661  143.2879  157.9351 H   0  0  0  0  0  0  0  0  0  0  0  0
  1  2  1  0  0  0  0
  1 34  1  0  0  0  0
  2  3  1  0  0  0  0
  2 35  1  0  0  0  0
  2 36  1  0  0  0  0
  3  4  1  0  0  0  0
  3 37  1  0  0  0  0
  3 38  1  0  0  0  0
  4  5  1  0  0  0  0
  4 24  1  0  0  0  0
  4 39  1  0  0  0  0
  5  6  1  0  0  0  0
  5 40  1  0  0  0  0
  6 11  1  0  0  0  0
  6  7  2  0  0  0  0
  7  8  1  0  0  0  0
  8  9  2  0  0  0  0
  8 41  1  0  0  0  0
  9 10  1  0  0  0  0
 10 14  1  0  0  0  0
 10 11  2  0  0  0  0
 11 12  1  0  0  0  0
 12 13  2  0  0  0  0
 13 14  1  0  0  0  0
 13 42  1  0  0  0  0
 14 15  1  0  0  0  0
 15 30  1  0  0  0  0
 15 22  1  0  0  0  0
 15 16  1  0  0  0  0
 16 17  1  0  0  0  0
 17 31  1  0  0  0  0
 17 18  1  0  0  0  0
 17 20  1  0  0  0  0
 18 19  1  0  0  0  0
 18 43  1  0  0  0  0
 18 44  1  0  0  0  0
 19 45  1  0  0  0  0
 20 32  1  0  0  0  0
 20 21  1  0  0  0  0
 20 22  1  0  0  0  0
 21 46  1  0  0  0  0
 22 33  1  0  0  0  0
 22 23  1  0  0  0  0
 23 47  1  0  0  0  0
 24 29  1  0  0  0  0
 24 25  1  0  0  0  0
 24 48  1  0  0  0  0
 25 26  1  0  0  0  0
 25 49  1  0  0  0  0
 25 50  1  0  0  0  0
 26 27  1  0  0  0  0
 26 51  1  0  0  0  0
 26 52  1  0  0  0  0
 27 28  1  0  0  0  0
 27 53  1  0  0  0  0
 27 54  1  0  0  0  0
 28 29  1  0  0  0  0
 28 55  1  0  0  0  0
 28 56  1  0  0  0  0
 29 57  1  0  0  0  0
 29 58  1  0  0  0  0
M  END
> <s_m_source_file>
AV-unprocessed.smi

> <i_m_source_file_index>
109

> <i_lp_mmshare_version>
43012

> <i_f3d_flags>
0

> <s_epik_input>
W0NIMl0xW0NIMl1bQ0gyXVtDSDJdW0NIMl1bQ0hdMVtDQEhdKFtDSDJdW0NIMl1bT0hdKVtOSF1jKG5bY0hdbjIpYyhjMjMpbltjSF1uM1tDQEBIXTRPW0NASF0oW0NIMl1bT0hdKVtDQEBIXShbT0hdKVtDQEhdNFtPSF0=

> <s_epik_cmdline>
J2VwaWtfcHl0aG9uJywgJy1waCcsICc3LjAnLCAnLXRuJywgJzgnLCAnLW1hJywgJzIwMCcsICctbWV0YWxfYmluZGluZycsICctaW1hZScsICc8aW5maWxlLm1hZT4nLCAnLW9tYWUnLCAnPG91dGZpbGUubWFlPic=

> <r_lp_tautomer_probability>
1

> <r_epik_Ionization_Penalty>
0.000793976

> <r_epik_Ionization_Penalty_Charging>
0

> <r_epik_Ionization_Penalty_Neutral>
0.000793976

> <r_epik_State_Penalty>
-0

> <r_epik_Charging_Adjusted_Penalty>
0

> <i_epik_Tot_Q>
0

> <i_epik_Tot_abs_Q>
0

> <r_epik_Metal_State_Penalty>
-0

> <b_epik_Metal_Only>
0

> <s_epik_Chemistry_Notes>
This compound contains an acetal/aminal-like group ( X-CH(R)-Y where X, Y are N, S, or O) that may be acid/base labile, releasing an aldehyde.

> <s_lp_Force_Field>
OPLS_2005

> <r_lp_Energy>
48.8451

> <b_lp_Chiralities_Consistent>
1

> <s_lp_Variant>
AV-unprocessed.smi:109-19

> <Gold.Version>
5.8.1

> <Gold.Id.Protein>
6NUR|6NUR_protein|mol2

> <Gold.PLP.Fitness>
56.8106

> <Gold.PLP.PLP>
-43.4600

> <Gold.PLP.part.hbond>
-4.3980

> <Gold.PLP.part.metal>
0.0000

> <Gold.PLP.part.buried>
-7.6641

> <Gold.PLP.part.nonpolar>
-32.3278

> <Gold.PLP.part.repulsive>
0.4979

> <Gold.PLP.ligand.clash>
0.0000

> <Gold.PLP.ligand.torsion>
0.3964

> <Gold.PLP.Chemscore.Hbond>
3.6603

> <Gold.PLP.Chemscore.CHOScore>
1.0000

> <Gold.PLP.Chemscore.Metal>
0.0000

> <Gold.Chemscore.Hbonds>
donor molecule, donor type, donor heavy atom, donor atom, acceptor molecule, acceptor atom, score
      L1  H    19    45       P1  8029  0.85
      L1  H    21    46       P1 10174  0.14
      L1  H    23    47       P1 10175  1.00
      P1  H  6896  6909       L1     1  0.81
      P1  H  7989  7998       L1     7  0.57
      L1  C     8    41       P1  7957  1.00

> <Gold.PLP.Chemscore.Internal.Correction>
0.1625

> <Gold.Rescore>
     Score         DG    S(hbond)    S(metal)    S(lipo)     H(rot)  DE(clash)    DE(int)     intcor
      9.95     -12.90       2.79        0.00     103.51       5.47       0.07       2.88       ----

> <Gold.Chemscore.Fitness>
9.9503

> <Gold.Chemscore.DG>
-12.9000

> <Gold.Chemscore.ZeroCoef>
-5.4800

> <Gold.Chemscore.Hbond>
2.7854

> <Gold.Chemscore.Metal>
0.0000

> <Gold.Chemscore.Lipo>
103.5074

> <Gold.Chemscore.Internal_Hbond>
0.0000

> <Gold.Chemscore.DEClash>
0.0657

> <Gold.Chemscore.DEInternal>
2.8840

> <Gold.Chemscore.Rot>
5.4662

> <Gold.Chemscore.Internal.Correction>
   9.000000E+99

> <Gold.Chemscore.Hbonds>
donor molecule, donor type, donor heavy atom, donor atom, acceptor molecule, acceptor atom, score
      L1  H    19    45       P1  8029  0.16
      L1  H    21    46       P1 10174  0.01
      L1  H    23    47       P1 10175  0.60
      P1  H  6896  6909       L1     1  0.24
      P1  H  7989  7998       L1     7  0.39

> <Gold.Chemscore.Hbond.Weighted>
-9.3032

> <Gold.Chemscore.Metal.Weighted>
-0.0000

> <Gold.Chemscore.Lipo.Weighted>
-12.1104

> <Gold.Chemscore.Internal_Hbond.Weighted>
0.0000

> <Gold.Chemscore.DEClash.Weighted>
0.0657

> <Gold.Chemscore.DEInternal.Weighted>
2.8840

> <Gold.Chemscore.Rot.Weighted>
13.9935

> <Gold.Chemscore.Internal.Correction.Weighted>
   9.000000E+99

> <Gold.Protein.RotatedTorsions>
[ 6907 6896 6895 6894 ] final  116.18 input  -60.11 | X-H torsion
[ 7974 7965 7964 7962 ] final -175.39 input  175.53 | X-H torsion
[ 8008 7997 7996 7995 ] final   58.18 input   59.86 | X-H torsion
[ 10167 10162 10161 10158 ] final  118.64 input  -65.29 | X-H torsion
[ 10718 10713 10712 10709 ] final -108.34 input   66.30 | X-H torsion
[ 10763 10752 10751 10750 ] final   77.91 input  -60.55 | X-H torsion
[ 11005 11000 10999 10996 ] final -122.50 input  -57.11 | X-H torsion

> <Gold.Protein.ActiveResidues>
 VAL166  LYS551  ARG553  GLY616  TRP617  ASP618  TYR619  PRO620  LYS621  CYS622 
 ASP623  PHE694  ASN695  SER759  ASP760  ASP761  ALA762  ILE779  LEU786  VAL792 
 PHE793  MET794  SER795  GLU796  ALA797  LYS798  CYS799  TRP800  GLU811  SER814 

> <Gold.Protein.RotatedAtoms>
  152.4694  133.7996  159.6945 H   0  0  0  0  0  0  0  0  0  0  0  0  # atno 6907 bound_to 6896
  150.8675  133.7543  159.2978 H   0  0  0  0  0  0  0  0  0  0  0  0  # atno 6908 bound_to 6896
  151.5088  135.1067  159.9900 H   0  0  0  0  0  0  0  0  0  0  0  0  # atno 6909 bound_to 6896
  144.7128  140.1329  143.6397 H   0  0  0  0  0  0  0  0  0  0  0  0  # atno 7974 bound_to 7965
  155.5458  140.3485  155.4457 H   0  0  0  0  0  0  0  0  0  0  0  0  # atno 8008 bound_to 7997
  156.0619  140.1342  156.9957 H   0  0  0  0  0  0  0  0  0  0  0  0  # atno 8009 bound_to 7997
  154.4484  140.0983  156.6514 H   0  0  0  0  0  0  0  0  0  0  0  0  # atno 8010 bound_to 7997
  139.6098  144.7079  151.2869 H   0  0  0  0  0  0  0  0  0  0  0  0  # atno 10167 bound_to 10162
  156.0481  130.5708  150.7948 H   0  0  0  0  0  0  0  0  0  0  0  0  # atno 10718 bound_to 10713
  153.0834  135.4896  154.8549 H   0  0  0  0  0  0  0  0  0  0  0  0  # atno 10763 bound_to 10752
  154.7180  135.3033  154.9095 H   0  0  0  0  0  0  0  0  0  0  0  0  # atno 10764 bound_to 10752
  153.9768  135.6794  153.4802 H   0  0  0  0  0  0  0  0  0  0  0  0  # atno 10765 bound_to 10752
  140.9990  134.0429  157.3561 H   0  0  0  0  0  0  0  0  0  0  0  0  # atno 11005 bound_to 11000
  145.9271  139.2582  143.1347 LP  0  0  0  0  0  0  0  0  0  0  0  0  # atno 17320 bound_to 7965
  145.9561  140.8871  143.0234 LP  0  0  0  0  0  0  0  0  0  0  0  0  # atno 17321 bound_to 7965
  140.7311  143.6861  150.7961 LP  0  0  0  0  0  0  0  0  0  0  0  0  # atno 17342 bound_to 10162
  140.0453  143.5304  152.2699 LP  0  0  0  0  0  0  0  0  0  0  0  0  # atno 17343 bound_to 10162
  157.5378  131.0939  150.9869 LP  0  0  0  0  0  0  0  0  0  0  0  0  # atno 17370 bound_to 10713
  157.0159  130.5655  149.5326 LP  0  0  0  0  0  0  0  0  0  0  0  0  # atno 17371 bound_to 10713
  139.9029  135.0171  156.7354 LP  0  0  0  0  0  0  0  0  0  0  0  0  # atno 17394 bound_to 11000
  140.6919  133.9383  155.7971 LP  0  0  0  0  0  0  0  0  0  0  0  0  # atno 17395 bound_to 11000

$$$$
