AV-unprocessed.smi:3036|AV-procd|sdf|11584|dock6
  -GOLD-   2272016553D 1   1.00000     0.00000
 Structure written by MMmdl.
 41 42  0  0  0  0  0  0  0  0  1 V2000
  146.4514  132.9121  154.3658 C   0  0  0  0  0  0  0  0  0  0  0  0
  146.8529  134.0827  153.4511 C   0  0  2  0  0  0  0  0  0  0  0  0
  147.1782  133.5832  152.0287 C   0  0  0  0  0  0  0  0  0  0  0  0
  146.0165  133.0473  151.3399 N   0  0  0  0  0  0  0  0  0  0  0  0
  145.8773  131.8228  150.7207 C   0  0  0  0  0  0  0  0  0  0  0  0
  144.6077  131.7615  150.2218 C   0  0  0  0  0  0  0  0  0  0  0  0
  144.0370  133.0101  150.5963 C   0  0  0  0  0  0  0  0  0  0  0  0
  144.8811  133.7758  151.2687 N   0  0  0  0  0  0  0  0  0  0  0  0
  148.0273  134.7569  153.9948 N   0  0  0  0  0  0  0  0  0  0  0  0
  147.6809  135.6503  155.0944 C   0  0  0  0  0  0  0  0  0  0  0  0
  148.8965  135.9160  156.0067 C   0  0  0  0  0  0  0  0  0  0  0  0
  150.2152  136.2267  155.2697 C   0  0  0  0  0  0  0  0  0  0  0  0
  151.0901  135.3606  155.2156 O   0  0  0  0  0  0  0  0  0  0  0  0
  150.3802  137.4479  154.7056 N   0  0  0  0  0  0  0  0  0  0  0  0
  151.5981  137.8412  153.9902 C   0  0  0  0  0  0  0  0  0  0  0  0
  152.2839  138.9717  154.7777 C   0  0  0  0  0  0  0  0  0  0  0  0
  151.3831  140.0666  154.9227 O   0  0  0  0  0  0  0  0  0  0  0  0
  150.1772  139.7112  155.5942 C   0  0  0  0  0  0  0  0  0  0  0  0
  149.4624  138.5864  154.8231 C   0  0  0  0  0  0  0  0  0  0  0  0
  145.6077  132.3644  153.9453 H   0  0  0  0  0  0  0  0  0  0  0  0
  146.1496  133.2499  155.3568 H   0  0  0  0  0  0  0  0  0  0  0  0
  147.2734  132.2060  154.4911 H   0  0  0  0  0  0  0  0  0  0  0  0
  146.0237  134.7889  153.3869 H   0  0  0  0  0  0  0  0  0  0  0  0
  147.6049  134.3868  151.4265 H   0  0  0  0  0  0  0  0  0  0  0  0
  147.9319  132.7955  152.0716 H   0  0  0  0  0  0  0  0  0  0  0  0
  146.6845  131.1059  150.6859 H   0  0  0  0  0  0  0  0  0  0  0  0
  144.1547  130.9482  149.6749 H   0  0  0  0  0  0  0  0  0  0  0  0
  143.0407  133.3796  150.4027 H   0  0  0  0  0  0  0  0  0  0  0  0
  148.4623  135.3015  153.2638 H   0  0  0  0  0  0  0  0  0  0  0  0
  147.3220  136.5946  154.6831 H   0  0  0  0  0  0  0  0  0  0  0  0
  146.8660  135.2342  155.6862 H   0  0  0  0  0  0  0  0  0  0  0  0
  148.6529  136.7462  156.6708 H   0  0  0  0  0  0  0  0  0  0  0  0
  149.0593  135.0412  156.6370 H   0  0  0  0  0  0  0  0  0  0  0  0
  152.2959  137.0150  153.8485 H   0  0  0  0  0  0  0  0  0  0  0  0
  151.3336  138.1860  152.9895 H   0  0  0  0  0  0  0  0  0  0  0  0
  152.6078  138.6214  155.7591 H   0  0  0  0  0  0  0  0  0  0  0  0
  153.1743  139.3142  154.2503 H   0  0  0  0  0  0  0  0  0  0  0  0
  150.3974  139.4018  156.6173 H   0  0  0  0  0  0  0  0  0  0  0  0
  149.5373  140.5915  155.6576 H   0  0  0  0  0  0  0  0  0  0  0  0
  149.1899  138.9312  153.8245 H   0  0  0  0  0  0  0  0  0  0  0  0
  148.5251  138.3503  155.3230 H   0  0  0  0  0  0  0  0  0  0  0  0
  1  2  1  0  0  0  0
  1 20  1  0  0  0  0
  1 21  1  0  0  0  0
  1 22  1  0  0  0  0
  2  3  1  0  0  0  0
  2  9  1  0  0  0  0
  2 23  1  0  0  0  0
  3  4  1  0  0  0  0
  3 24  1  0  0  0  0
  3 25  1  0  0  0  0
  4  8  1  0  0  0  0
  4  5  1  0  0  0  0
  5  6  2  0  0  0  0
  5 26  1  0  0  0  0
  6  7  1  0  0  0  0
  6 27  1  0  0  0  0
  7  8  2  0  0  0  0
  7 28  1  0  0  0  0
  9 10  1  0  0  0  0
  9 29  1  0  0  0  0
 10 11  1  0  0  0  0
 10 30  1  0  0  0  0
 10 31  1  0  0  0  0
 11 12  1  0  0  0  0
 11 32  1  0  0  0  0
 11 33  1  0  0  0  0
 12 13  2  0  0  0  0
 12 14  1  0  0  0  0
 14 19  1  0  0  0  0
 14 15  1  0  0  0  0
 15 16  1  0  0  0  0
 15 34  1  0  0  0  0
 15 35  1  0  0  0  0
 16 17  1  0  0  0  0
 16 36  1  0  0  0  0
 16 37  1  0  0  0  0
 17 18  1  0  0  0  0
 18 19  1  0  0  0  0
 18 38  1  0  0  0  0
 18 39  1  0  0  0  0
 19 40  1  0  0  0  0
 19 41  1  0  0  0  0
M  END
> <s_m_source_file>
AV-unprocessed.smi

> <i_m_source_file_index>
3036

> <i_lp_mmshare_version>
43012

> <i_f3d_flags>
0

> <s_epik_input>
bjFbY0hdW2NIXVtjSF1uMVtDSDJdW0NAQEhdKFtDSDNdKVtOSF1bQ0gyXVtDSDJdQyg9TylOMltDSDJdW0NIMl1PW0NIMl1bQ0gyXTI=

> <s_epik_cmdline>
J2VwaWtfcHl0aG9uJywgJy1waCcsICc3LjAnLCAnLXRuJywgJzgnLCAnLW1hJywgJzIwMCcsICctbWV0YWxfYmluZGluZycsICctaW1hZScsICc8aW5maWxlLm1hZT4nLCAnLW9tYWUnLCAnPG91dGZpbGUubWFlPic=

> <r_lp_tautomer_probability>
1

> <r_epik_Ionization_Penalty>
2.55703

> <r_epik_Ionization_Penalty_Charging>
0

> <r_epik_Ionization_Penalty_Neutral>
2.55703

> <r_epik_State_Penalty>
2.726

> <r_epik_Charging_Adjusted_Penalty>
2.726

> <i_epik_Tot_Q>
0

> <i_epik_Tot_abs_Q>
0

> <r_epik_Metal_State_Penalty>
2.72597

> <b_epik_Metal_Only>
0

> <s_lp_Force_Field>
OPLS_2005

> <r_lp_Energy>
22.7119

> <b_lp_Chiralities_Consistent>
1

> <s_lp_Variant>
AV-unprocessed.smi:3036-3

> <Gold.Version>
5.8.1

> <Gold.Id.Protein>
6NUR|6NUR_protein|mol2

> <Gold.PLP.Fitness>
45.6944

> <Gold.PLP.PLP>
-31.8533

> <Gold.PLP.part.hbond>
-3.0000

> <Gold.PLP.part.metal>
0.0000

> <Gold.PLP.part.buried>
-4.1801

> <Gold.PLP.part.nonpolar>
-25.1123

> <Gold.PLP.part.repulsive>
0.2791

> <Gold.PLP.ligand.clash>
0.0000

> <Gold.PLP.ligand.torsion>
0.6304

> <Gold.PLP.Chemscore.Hbond>
3.0000

> <Gold.PLP.Chemscore.CHOScore>
2.0000

> <Gold.PLP.Chemscore.Metal>
0.0000

> <Gold.Chemscore.Hbonds>
donor molecule, donor type, donor heavy atom, donor atom, acceptor molecule, acceptor atom, score
      L1  H     9    29       P1  7948  1.00
      P1  H  7989  7998       L1    17  1.00
      P1  H 10752 10764       L1    13  1.00
      L1  C     5    26       P1 10747  1.00
      L1  C     7    28       P1 10186  1.00

> <Gold.PLP.Chemscore.Internal.Correction>
0.1019

> <Gold.Rescore>
     Score         DG    S(hbond)    S(metal)    S(lipo)     H(rot)  DE(clash)    DE(int)     intcor
     16.70     -17.83       2.72        0.00      71.56       1.99       0.63       0.50       ----

> <Gold.Chemscore.Fitness>
16.7048

> <Gold.Chemscore.DG>
-17.8305

> <Gold.Chemscore.ZeroCoef>
-5.4800

> <Gold.Chemscore.Hbond>
2.7163

> <Gold.Chemscore.Metal>
0.0000

> <Gold.Chemscore.Lipo>
71.5606

> <Gold.Chemscore.Internal_Hbond>
0.0000

> <Gold.Chemscore.DEClash>
0.6284

> <Gold.Chemscore.DEInternal>
0.4974

> <Gold.Chemscore.Rot>
1.9900

> <Gold.Chemscore.Internal.Correction>
   9.000000E+99

> <Gold.Chemscore.Hbonds>
donor molecule, donor type, donor heavy atom, donor atom, acceptor molecule, acceptor atom, score
      L1  H     9    29       P1  7948  0.96
      P1  H  7989  7998       L1    17  0.30
      P1  H 10752 10764       L1    13  0.96

> <Gold.Chemscore.Hbond.Weighted>
-9.0723

> <Gold.Chemscore.Metal.Weighted>
-0.0000

> <Gold.Chemscore.Lipo.Weighted>
-8.3726

> <Gold.Chemscore.Internal_Hbond.Weighted>
0.0000

> <Gold.Chemscore.DEClash.Weighted>
0.6284

> <Gold.Chemscore.DEInternal.Weighted>
0.4974

> <Gold.Chemscore.Rot.Weighted>
5.0944

> <Gold.Chemscore.Internal.Correction.Weighted>
   9.000000E+99

> <Gold.Protein.RotatedTorsions>
[ 6907 6896 6895 6894 ] final  120.04 input  -60.11 | X-H torsion
[ 7974 7965 7964 7962 ] final    9.40 input  175.53 | X-H torsion
[ 8008 7997 7996 7995 ] final  -98.24 input   59.86 | X-H torsion
[ 10167 10162 10161 10158 ] final -171.80 input  -65.29 | X-H torsion
[ 10718 10713 10712 10709 ] final -142.63 input   66.30 | X-H torsion
[ 10763 10752 10751 10750 ] final  -52.23 input  -60.55 | X-H torsion
[ 11005 11000 10999 10996 ] final   -3.54 input  -57.11 | X-H torsion

> <Gold.Protein.ActiveResidues>
 VAL166  LYS551  ARG553  GLY616  TRP617  ASP618  TYR619  PRO620  LYS621  CYS622 
 ASP623  PHE694  ASN695  SER759  ASP760  ASP761  ALA762  ILE779  LEU786  VAL792 
 PHE793  MET794  SER795  GLU796  ALA797  LYS798  CYS799  TRP800  GLU811  SER814 

> <Gold.Protein.RotatedAtoms>
  152.4428  133.7480  159.6677 H   0  0  0  0  0  0  0  0  0  0  0  0  # atno 6907 bound_to 6896
  150.8322  133.8062  159.3100 H   0  0  0  0  0  0  0  0  0  0  0  0  # atno 6908 bound_to 6896
  151.5713  135.1065  160.0047 H   0  0  0  0  0  0  0  0  0  0  0  0  # atno 6909 bound_to 6896
  146.2404  139.9789  142.8438 H   0  0  0  0  0  0  0  0  0  0  0  0  # atno 7974 bound_to 7965
  154.7985  140.0457  157.1255 H   0  0  0  0  0  0  0  0  0  0  0  0  # atno 8008 bound_to 7997
  154.9507  140.3064  155.5057 H   0  0  0  0  0  0  0  0  0  0  0  0  # atno 8009 bound_to 7997
  156.2959  140.2288  156.4584 H   0  0  0  0  0  0  0  0  0  0  0  0  # atno 8010 bound_to 7997
  139.5781  144.1485  152.1478 H   0  0  0  0  0  0  0  0  0  0  0  0  # atno 10167 bound_to 10162
  156.3482  130.7674  151.1822 H   0  0  0  0  0  0  0  0  0  0  0  0  # atno 10718 bound_to 10713
  154.1394  135.6507  153.4939 H   0  0  0  0  0  0  0  0  0  0  0  0  # atno 10763 bound_to 10752
  153.0170  135.5312  154.6920 H   0  0  0  0  0  0  0  0  0  0  0  0  # atno 10764 bound_to 10752
  154.6178  135.2961  155.0331 H   0  0  0  0  0  0  0  0  0  0  0  0  # atno 10765 bound_to 10752
  140.6704  133.9241  155.8491 H   0  0  0  0  0  0  0  0  0  0  0  0  # atno 11005 bound_to 11000
  145.1610  140.9673  143.4377 LP  0  0  0  0  0  0  0  0  0  0  0  0  # atno 17320 bound_to 7965
  145.0116  139.3505  143.6117 LP  0  0  0  0  0  0  0  0  0  0  0  0  # atno 17321 bound_to 7965
  140.1033  144.5521  150.6974 LP  0  0  0  0  0  0  0  0  0  0  0  0  # atno 17342 bound_to 10162
  140.7062  143.2470  151.4719 LP  0  0  0  0  0  0  0  0  0  0  0  0  # atno 17343 bound_to 10162
  157.7457  131.0435  150.4746 LP  0  0  0  0  0  0  0  0  0  0  0  0  # atno 17370 bound_to 10713
  156.4937  130.4101  149.6392 LP  0  0  0  0  0  0  0  0  0  0  0  0  # atno 17371 bound_to 10713
  141.0396  134.0640  157.3918 LP  0  0  0  0  0  0  0  0  0  0  0  0  # atno 17394 bound_to 11000
  139.8983  135.0154  156.7143 LP  0  0  0  0  0  0  0  0  0  0  0  0  # atno 17395 bound_to 11000

$$$$
