#       Name:                AV-unprocessed.smi:1827
#       Creating user name   scv26
#       Creation time:       Fri Mar 27 09:10:24 2020


#       File generated by GOLD software.
#

@<TRIPOS>MOLECULE
AV-unprocessed.smi:1827
    49    50     1
SMALL
NO_CHARGES


@<TRIPOS>ATOM
      1 ****        -3.8815  -2.3686   0.7785 C.3            1 S1                 0.0000
      2 ****        -4.4359  -1.0225   1.1546 C.2            1 S1                 0.0000
      3 ****        -5.7220  -0.9272   1.4668 N.2            1 S1                 0.0000
      4 ****        -5.8956   0.3656   1.8156 N.pl3          1 S1                 0.0000
      5 ****        -4.7438   1.1156   1.7363 C.2            1 S1                 0.0000
      6 ****        -4.7040   2.5646   2.0911 C.3            1 S1                 0.0000
      7 ****        -3.7927   0.2482   1.2830 C.2            1 S1                 0.0000
      8 ****        -2.4320   0.5875   1.0773 N.am           1 S1                 0.0000
      9 ****        -1.6320   0.1416   0.0969 C.2            1 S1                 0.0000
     10 ****        -1.9785  -0.6246  -0.8016 O.2            1 S1                 0.0000
     11 ****        -0.3975   0.6543   0.2001 N.am           1 S1                 0.0000
     12 ****         0.7045   0.3794  -0.7173 C.3            1 S1                 0.0000
     13 ****         1.3643  -0.9745  -0.3959 C.3            1 S1                 0.0000
     14 ****         2.5880  -1.2219  -1.2928 C.3            1 S1                 0.0000
     15 ****         3.5752  -0.1163  -1.1691 N.4            1 S1                 1.0000
     16 ****         4.8388  -0.3707  -1.9073 C.3            1 S1                 0.0000
     17 ****         5.7261  -1.3618  -1.1461 C.2            1 S1                 0.0000
     18 ****         6.1004  -0.8939   0.0619 N.pl3          1 S1                -1.0000
     19 ****         6.0123  -2.4407  -1.6599 O.2            1 S1                 0.0000
     20 ****         2.9731   1.1971  -1.5107 C.3            1 S1                 0.0000
     21 ****         1.7547   1.4976  -0.6212 C.3            1 S1                 0.0000
     22 ****        -6.7960   0.7156   2.1104 H              1 S1                 0.0000
     23 ****        -2.8498  -2.4781   1.1126 H              1 S1                 0.0000
     24 ****        -3.9038  -2.5130  -0.3015 H              1 S1                 0.0000
     25 ****        -4.4561  -3.1773   1.2314 H              1 S1                 0.0000
     26 ****        -3.6780   2.9110   2.2161 H              1 S1                 0.0000
     27 ****        -5.2365   2.7513   3.0239 H              1 S1                 0.0000
     28 ****        -5.1694   3.1653   1.3097 H              1 S1                 0.0000
     29 ****        -2.0603   1.3095   1.6767 H              1 S1                 0.0000
     30 ****        -0.2055   1.2798   0.9691 H              1 S1                 0.0000
     31 ****         0.3203   0.3562  -1.7392 H              1 S1                 0.0000
     32 ****         1.6722  -0.9992   0.6506 H              1 S1                 0.0000
     33 ****         0.6474  -1.7862  -0.5257 H              1 S1                 0.0000
     34 ****         3.0468  -2.1709  -1.0139 H              1 S1                 0.0000
     35 ****         2.2758  -1.3173  -2.3340 H              1 S1                 0.0000
     36 ****         4.6252  -0.7373  -2.9127 H              1 S1                 0.0000
     37 ****         5.4027   0.5561  -2.0275 H              1 S1                 0.0000
     38 ****         6.7034  -1.4808   0.6512 H              1 S1                 0.0000
     39 ****         3.7139   1.9866  -1.3787 H              1 S1                 0.0000
     40 ****         2.6846   1.2039  -2.5630 H              1 S1                 0.0000
     41 ****         1.3135   2.4518  -0.9118 H              1 S1                 0.0000
     42 ****         2.0835   1.6107   0.4131 H              1 S1                 0.0000
     43 ****         3.8430  -0.0651  -0.1957 H              1 S1                 0.0000
     44 ****        -6.4103  -1.6524   1.4479 LP             1 S1                 0.0000
     45 ****        -2.9194  -0.9614  -0.8364 LP             1 S1                 0.0000
     46 ****        -1.3191  -0.9104  -1.4970 LP             1 S1                 0.0000
     47 ****         5.7974   0.0053   0.3774 LP             1 S1                 0.0000
     48 ****         5.6667  -2.6684  -2.5703 LP             1 S1                 0.0000
     49 ****         6.5909  -3.0911  -1.1677 LP             1 S1                 0.0000
@<TRIPOS>BOND
    1    1    2 1     
    2    1   23 1     
    3    1   24 1     
    4    1   25 1     
    5    2    7 1     
    6    2    3 2     
    7    3    4 1     
    8    4   22 1     
    9    4    5 1     
   10    5    6 1     
   11    5    7 2     
   12    6   26 1     
   13    6   27 1     
   14    6   28 1     
   15    7    8 1     
   16    8    9 am    
   17    8   29 1     
   18    9   10 2     
   19    9   11 am    
   20   11   12 1     
   21   11   30 1     
   22   12   21 1     
   23   12   13 1     
   24   12   31 1     
   25   13   14 1     
   26   13   32 1     
   27   13   33 1     
   28   14   15 1     
   29   14   34 1     
   30   14   35 1     
   31   15   16 1     
   32   15   20 1     
   33   15   43 1     
   34   16   17 1     
   35   16   36 1     
   36   16   37 1     
   37   17   18 1     
   38   17   19 2     
   39   18   38 1     
   40   20   21 1     
   41   20   39 1     
   42   20   40 1     
   43   21   41 1     
   44   21   42 1     
   45    3   44 1     
   46   10   45 1     
   47   10   46 1     
   48   18   47 1     
   49   19   48 1     
   50   19   49 1     
@<TRIPOS>SUBSTRUCTURE
      1 S1             1
@<TRIPOS>SET
LONE_PAIRS      STATIC     ATOMS    <user>   **** ""
6 44 45 46 47 48 49
DONOR_HYDROGENS      STATIC     ATOMS    <user>   **** ""
5 22 29 30 43 38
ATOM$BLUE        STATIC     ATOMS    COLORGROUP SYSTEM
6 44 45 46 47 48 49
ATOM$RED        STATIC     ATOMS    COLORGROUP SYSTEM
5 22 29 30 43 38
