#       Name:                AV-unprocessed.smi:308
#       Creating user name   scv26
#       Creation time:       Thu Mar 26 22:18:39 2020


#       File generated by GOLD software.
#

@<TRIPOS>MOLECULE
AV-unprocessed.smi:308
    53    54     1
SMALL
NO_CHARGES


@<TRIPOS>ATOM
      1 ****        -3.8883   3.0277   4.2191 C.3            1 S1                 0.0000
      2 ****        -2.5011   2.5431   3.7614 C.3            1 S1                 0.0000
      3 ****        -2.1982   2.8994   2.2949 C.3            1 S1                 0.0000
      4 ****        -2.9873   2.0210   1.3074 C.3            1 S1                 0.0000
      5 ****        -2.7436   0.5764   1.5535 N.4            1 S1                 1.0000
      6 ****        -3.4002  -0.2814   0.5333 C.3            1 S1                 0.0000
      7 ****        -2.8310  -1.7155   0.4735 C.3            1 S1                 0.0000
      8 ****        -1.3713  -1.7566   0.4174 N.am           1 S1                 0.0000
      9 ****        -0.6354  -1.4302  -0.6550 C.2            1 S1                 0.0000
     10 ****        -1.1219  -1.0045  -1.7016 O.2            1 S1                 0.0000
     11 ****         0.6737  -1.6416  -0.4325 N.am           1 S1                 0.0000
     12 ****         1.7683  -1.4577  -1.3221 C.ar           1 S1                 0.0000
     13 ****         2.9965  -2.0641  -0.9845 C.ar           1 S1                 0.0000
     14 ****         4.1145  -1.9065  -1.8288 C.ar           1 S1                 0.0000
     15 ****         4.0025  -1.1332  -3.0101 C.ar           1 S1                 0.0000
     16 ****         5.0743  -0.9308  -3.9066 N.pl3          1 S1                 0.0000
     17 ****         6.3533  -1.5856  -3.6647 C.3            1 S1                 0.0000
     18 ****         4.8605  -0.1639  -5.1289 C.3            1 S1                 0.0000
     19 ****         2.8058  -0.5594  -3.2856 N.pl3          1 S1                 1.0000
     20 ****         1.7097  -0.6852  -2.5067 C.ar           1 S1                 0.0000
     21 ****        -3.0852   0.1905   2.9482 C.3            1 S1                 0.0000
     22 ****        -2.2993   1.0316   3.9703 C.3            1 S1                 0.0000
     23 ****        -4.6956   2.5622   3.6542 H              1 S1                 0.0000
     24 ****        -3.9832   4.1072   4.0993 H              1 S1                 0.0000
     25 ****        -4.0517   2.8020   5.2733 H              1 S1                 0.0000
     26 ****        -1.7723   3.0632   4.3847 H              1 S1                 0.0000
     27 ****        -2.4093   3.9533   2.1103 H              1 S1                 0.0000
     28 ****        -1.1311   2.7688   2.1090 H              1 S1                 0.0000
     29 ****        -4.0555   2.2298   1.3776 H              1 S1                 0.0000
     30 ****        -2.6855   2.2745   0.2902 H              1 S1                 0.0000
     31 ****        -4.4770  -0.3072   0.7069 H              1 S1                 0.0000
     32 ****        -3.2661   0.1755  -0.4483 H              1 S1                 0.0000
     33 ****        -3.1469  -2.2825   1.3487 H              1 S1                 0.0000
     34 ****        -3.2464  -2.2439  -0.3862 H              1 S1                 0.0000
     35 ****        -0.8935  -2.1054   1.2358 H              1 S1                 0.0000
     36 ****         0.9093  -2.0461   0.4620 H              1 S1                 0.0000
     37 ****         3.0859  -2.6546  -0.0843 H              1 S1                 0.0000
     38 ****         5.0429  -2.3841  -1.5535 H              1 S1                 0.0000
     39 ****         6.7864  -1.2451  -2.7237 H              1 S1                 0.0000
     40 ****         7.0678  -1.3655  -4.4581 H              1 S1                 0.0000
     41 ****         6.2282  -2.6679  -3.6203 H              1 S1                 0.0000
     42 ****         4.5244   0.8468  -4.8946 H              1 S1                 0.0000
     43 ****         4.1078  -0.6441  -5.7553 H              1 S1                 0.0000
     44 ****         5.7782  -0.0817  -5.7117 H              1 S1                 0.0000
     45 ****         0.8413  -0.1545  -2.8656 H              1 S1                 0.0000
     46 ****        -4.1587   0.3009   3.1071 H              1 S1                 0.0000
     47 ****        -2.8527  -0.8611   3.1133 H              1 S1                 0.0000
     48 ****        -1.2378   0.7968   3.8789 H              1 S1                 0.0000
     49 ****        -2.5840   0.7493   4.9845 H              1 S1                 0.0000
     50 ****        -1.7493   0.4370   1.4448 H              1 S1                 0.0000
     51 ****         2.7269   0.0030  -4.1332 H              1 S1                 0.0000
     52 ****        -2.1118  -0.8873  -1.7814 LP             1 S1                 0.0000
     53 ****        -0.5275  -0.7757  -2.4725 LP             1 S1                 0.0000
@<TRIPOS>BOND
    1    1    2 1     
    2    1   23 1     
    3    1   24 1     
    4    1   25 1     
    5    2   22 1     
    6    2    3 1     
    7    2   26 1     
    8    3    4 1     
    9    3   27 1     
   10    3   28 1     
   11    4    5 1     
   12    4   29 1     
   13    4   30 1     
   14    5    6 1     
   15    5   21 1     
   16    5   50 1     
   17    6    7 1     
   18    6   31 1     
   19    6   32 1     
   20    7    8 1     
   21    7   33 1     
   22    7   34 1     
   23    8    9 am    
   24    8   35 1     
   25    9   10 2     
   26    9   11 am    
   27   11   12 1     
   28   11   36 1     
   29   12   20 ar    
   30   12   13 ar    
   31   13   14 ar    
   32   13   37 1     
   33   14   15 ar    
   34   14   38 1     
   35   15   16 1     
   36   15   19 ar    
   37   16   17 1     
   38   16   18 1     
   39   17   39 1     
   40   17   40 1     
   41   17   41 1     
   42   18   42 1     
   43   18   43 1     
   44   18   44 1     
   45   19   20 ar    
   46   19   51 1     
   47   20   45 1     
   48   21   22 1     
   49   21   46 1     
   50   21   47 1     
   51   22   48 1     
   52   22   49 1     
   53   10   52 1     
   54   10   53 1     
@<TRIPOS>SUBSTRUCTURE
      1 S1             1
@<TRIPOS>SET
LONE_PAIRS      STATIC     ATOMS    <user>   **** ""
2 52 53
DONOR_HYDROGENS      STATIC     ATOMS    <user>   **** ""
4 50 35 36 51
ATOM$BLUE        STATIC     ATOMS    COLORGROUP SYSTEM
2 52 53
ATOM$RED        STATIC     ATOMS    COLORGROUP SYSTEM
4 50 35 36 51
