AV-unprocessed.smi:48|AV-procd|sdf|461|dock5
  -GOLD-   2262016333D 1   1.00000     0.00000
 Structure written by MMmdl.
 30 32  0  0  0  0  0  0  0  0  1 V2000
  151.3954  136.9797  154.6075 O   0  0  0  0  0  0  0  0  0  0  0  0
  151.5416  138.3235  154.2001 C   0  0  0  0  0  0  0  0  0  0  0  0
  150.8848  139.2593  155.2299 C   0  0  1  0  0  0  0  0  0  0  0  0
  151.5747  140.5020  155.3175 O   0  0  0  0  0  0  0  0  0  0  0  0
  150.7582  141.4450  155.9459 C   0  0  2  0  0  0  0  0  0  0  0  0
  151.1184  141.4871  157.3991 N   0  0  0  0  0  0  0  0  0  0  0  0
  151.2249  140.4760  158.2887 C   0  0  0  0  0  0  0  0  0  0  0  0
  151.5800  140.7905  159.5345 N   0  0  0  0  0  0  0  0  0  0  0  0
  151.7350  142.1637  159.4399 C   0  0  0  0  0  0  0  0  0  0  0  0
  152.1052  143.1579  160.3781 C   0  0  0  0  0  0  0  0  0  0  0  0
  152.4661  142.7463  162.0146 Cl  0  0  0  0  0  0  0  0  0  0  0  0
  152.1707  144.4451  159.9609 N   0  0  0  0  0  0  0  0  0  0  0  0
  151.8874  144.7372  158.6852 C   0  0  0  0  0  0  0  0  0  0  0  0
  151.5251  143.9138  157.6942 N   0  0  0  0  0  0  0  0  0  0  0  0
  151.4591  142.6175  158.1197 C   0  0  0  0  0  0  0  0  0  0  0  0
  149.3059  140.9586  155.7791 C   0  0  1  0  0  0  0  0  0  0  0  0
  148.4511  141.9320  155.2100 O   0  0  0  0  0  0  0  0  0  0  0  0
  149.4596  139.7176  154.8997 C   0  0  1  0  0  0  0  0  0  0  0  0
  149.3394  140.0097  153.5168 O   0  0  0  0  0  0  0  0  0  0  0  0
  150.8720  138.7833  156.2123 H   0  0  0  0  0  0  0  0  0  0  0  0
  150.9547  142.4530  155.5783 H   0  0  0  0  0  0  0  0  0  0  0  0
  148.9060  140.6627  156.7505 H   0  0  0  0  0  0  0  0  0  0  0  0
  148.7214  138.9551  155.1507 H   0  0  0  0  0  0  0  0  0  0  0  0
  152.1409  136.4895  154.2961 H   0  0  0  0  0  0  0  0  0  0  0  0
  152.5961  138.5626  154.0583 H   0  0  0  0  0  0  0  0  0  0  0  0
  151.0505  138.4264  153.2321 H   0  0  0  0  0  0  0  0  0  0  0  0
  151.0304  139.4498  158.0125 H   0  0  0  0  0  0  0  0  0  0  0  0
  151.9619  145.7814  158.4190 H   0  0  0  0  0  0  0  0  0  0  0  0
  148.8708  142.7761  155.2818 H   0  0  0  0  0  0  0  0  0  0  0  0
  149.7173  139.2932  153.0291 H   0  0  0  0  0  0  0  0  0  0  0  0
  1  2  1  0  0  0  0
  1 24  1  0  0  0  0
  2  3  1  0  0  0  0
  2 25  1  0  0  0  0
  2 26  1  0  0  0  0
  3 20  1  0  0  0  0
  3 18  1  0  0  0  0
  3  4  1  0  0  0  0
  4  5  1  0  0  0  0
  5 21  1  0  0  0  0
  5  6  1  0  0  0  0
  5 16  1  0  0  0  0
  6 15  1  0  0  0  0
  6  7  1  0  0  0  0
  7  8  2  0  0  0  0
  7 27  1  0  0  0  0
  8  9  1  0  0  0  0
  9 15  2  0  0  0  0
  9 10  1  0  0  0  0
 10 11  1  0  0  0  0
 10 12  2  0  0  0  0
 12 13  1  0  0  0  0
 13 14  2  0  0  0  0
 13 28  1  0  0  0  0
 14 15  1  0  0  0  0
 16 22  1  0  0  0  0
 16 17  1  0  0  0  0
 16 18  1  0  0  0  0
 17 29  1  0  0  0  0
 18 23  1  0  0  0  0
 18 19  1  0  0  0  0
 19 30  1  0  0  0  0
M  END
> <s_m_source_file>
AV-unprocessed.smi

> <i_m_source_file_index>
48

> <i_lp_mmshare_version>
43012

> <i_f3d_flags>
0

> <s_epik_input>
W09IXVtDSDJdW0NASF0xT1tDQEhdKFtDQEhdKFtPSF0pW0NAQEhdMVtPSF0pbihbY0hdbjIpYyhjMjMpbltjSF1uYzNDbA==

> <s_epik_cmdline>
J2VwaWtfcHl0aG9uJywgJy1waCcsICc3LjAnLCAnLXRuJywgJzgnLCAnLW1hJywgJzIwMCcsICctbWV0YWxfYmluZGluZycsICctaW1hZScsICc8aW5maWxlLm1hZT4nLCAnLW9tYWUnLCAnPG91dGZpbGUubWFlPic=

> <r_lp_tautomer_probability>
1

> <r_epik_Ionization_Penalty>
3.45505e-06

> <r_epik_Ionization_Penalty_Charging>
0

> <r_epik_Ionization_Penalty_Neutral>
3.45505e-06

> <r_epik_State_Penalty>
-0

> <r_epik_Charging_Adjusted_Penalty>
0

> <i_epik_Tot_Q>
0

> <i_epik_Tot_abs_Q>
0

> <r_epik_Metal_State_Penalty>
-0

> <b_epik_Metal_Only>
0

> <s_epik_Chemistry_Notes>
This compound contains an acetal/aminal-like group ( X-CH(R)-Y where X, Y are N, S, or O) that may be acid/base labile, releasing an aldehyde.

> <s_lp_Force_Field>
OPLS_2005

> <r_lp_Energy>
38.2719

> <b_lp_Chiralities_Consistent>
1

> <s_lp_Variant>
AV-unprocessed.smi:48-15

> <Gold.Version>
5.8.1

> <Gold.Id.Protein>
6NUR|6NUR_protein|mol2

> <Gold.PLP.Fitness>
45.6604

> <Gold.PLP.PLP>
-41.2392

> <Gold.PLP.part.hbond>
-4.2231

> <Gold.PLP.part.metal>
0.0000

> <Gold.PLP.part.buried>
-7.8828

> <Gold.PLP.part.nonpolar>
-28.7701

> <Gold.PLP.part.repulsive>
0.1787

> <Gold.PLP.ligand.clash>
0.0000

> <Gold.PLP.ligand.torsion>
0.5367

> <Gold.PLP.Chemscore.Hbond>
1.8240

> <Gold.PLP.Chemscore.CHOScore>
0.0000

> <Gold.PLP.Chemscore.Metal>
0.0000

> <Gold.Chemscore.Hbonds>
donor molecule, donor type, donor heavy atom, donor atom, acceptor molecule, acceptor atom, score
      L1  H    17    29       P1  8028  1.00
      L1  H    19    30       P1  7957  0.02
      P1  H  7989  7998       L1     4  0.73

> <Gold.PLP.Chemscore.Internal.Correction>
0.0225

> <Gold.Rescore>
     Score         DG    S(hbond)    S(metal)    S(lipo)     H(rot)  DE(clash)    DE(int)     intcor
      6.85      -7.43       1.48        0.00      57.51       3.80       0.00       0.58       ----

> <Gold.Chemscore.Fitness>
6.8477

> <Gold.Chemscore.DG>
-7.4329

> <Gold.Chemscore.ZeroCoef>
-5.4800

> <Gold.Chemscore.Hbond>
1.4841

> <Gold.Chemscore.Metal>
0.0000

> <Gold.Chemscore.Lipo>
57.5072

> <Gold.Chemscore.Internal_Hbond>
0.0000

> <Gold.Chemscore.DEClash>
0.0009

> <Gold.Chemscore.DEInternal>
0.5842

> <Gold.Chemscore.Rot>
3.8017

> <Gold.Chemscore.Internal.Correction>
   9.000000E+99

> <Gold.Chemscore.Hbonds>
donor molecule, donor type, donor heavy atom, donor atom, acceptor molecule, acceptor atom, score
      L1  H    17    29       P1  8028  0.95
      L1  H    19    30       P1  7957  0.06
      P1  H  7989  7998       L1     4  0.10

> <Gold.Chemscore.Hbond.Weighted>
-4.9569

> <Gold.Chemscore.Metal.Weighted>
-0.0000

> <Gold.Chemscore.Lipo.Weighted>
-6.7283

> <Gold.Chemscore.Internal_Hbond.Weighted>
0.0000

> <Gold.Chemscore.DEClash.Weighted>
0.0009

> <Gold.Chemscore.DEInternal.Weighted>
0.5842

> <Gold.Chemscore.Rot.Weighted>
9.7324

> <Gold.Chemscore.Internal.Correction.Weighted>
   9.000000E+99

> <Gold.Protein.RotatedTorsions>
[ 6907 6896 6895 6894 ] final   91.82 input  -60.11 | X-H torsion
[ 7974 7965 7964 7962 ] final   12.70 input  175.53 | X-H torsion
[ 8008 7997 7996 7995 ] final  -32.12 input   59.86 | X-H torsion
[ 10167 10162 10161 10158 ] final   37.67 input  -65.29 | X-H torsion
[ 10718 10713 10712 10709 ] final  102.89 input   66.30 | X-H torsion
[ 10763 10752 10751 10750 ] final -156.68 input  -60.55 | X-H torsion
[ 11005 11000 10999 10996 ] final   37.76 input  -57.11 | X-H torsion

> <Gold.Protein.ActiveResidues>
 VAL166  LYS551  ARG553  GLY616  TRP617  ASP618  TYR619  PRO620  LYS621  CYS622 
 ASP623  PHE694  ASN695  SER759  ASP760  ASP761  ALA762  ILE779  LEU786  VAL792 
 PHE793  MET794  SER795  GLU796  ALA797  LYS798  CYS799  TRP800  GLU811  SER814 

> <Gold.Protein.RotatedAtoms>
  152.5451  134.1598  159.8552 H   0  0  0  0  0  0  0  0  0  0  0  0  # atno 6907 bound_to 6896
  151.1618  133.4833  159.2601 H   0  0  0  0  0  0  0  0  0  0  0  0  # atno 6908 bound_to 6896
  151.1365  135.0168  159.8661 H   0  0  0  0  0  0  0  0  0  0  0  0  # atno 6909 bound_to 6896
  146.2345  139.9298  142.8498 H   0  0  0  0  0  0  0  0  0  0  0  0  # atno 7974 bound_to 7965
  154.4190  140.1746  156.1676 H   0  0  0  0  0  0  0  0  0  0  0  0  # atno 8008 bound_to 7997
  155.9787  140.3379  155.6618 H   0  0  0  0  0  0  0  0  0  0  0  0  # atno 8009 bound_to 7997
  155.6529  140.0692  157.2571 H   0  0  0  0  0  0  0  0  0  0  0  0  # atno 8010 bound_to 7997
  140.4010  144.1723  150.6134 H   0  0  0  0  0  0  0  0  0  0  0  0  # atno 10167 bound_to 10162
  157.6789  131.0765  150.5472 H   0  0  0  0  0  0  0  0  0  0  0  0  # atno 10718 bound_to 10713
  154.7694  135.3140  154.8220 H   0  0  0  0  0  0  0  0  0  0  0  0  # atno 10763 bound_to 10752
  153.8959  135.6820  153.4762 H   0  0  0  0  0  0  0  0  0  0  0  0  # atno 10764 bound_to 10752
  153.1305  135.4782  154.9276 H   0  0  0  0  0  0  0  0  0  0  0  0  # atno 10765 bound_to 10752
  140.2193  134.3660  155.8012 H   0  0  0  0  0  0  0  0  0  0  0  0  # atno 11005 bound_to 11000
  145.2056  140.9873  143.4130 LP  0  0  0  0  0  0  0  0  0  0  0  0  # atno 17320 bound_to 7965
  144.9736  139.3855  143.6297 LP  0  0  0  0  0  0  0  0  0  0  0  0  # atno 17321 bound_to 7965
  140.4740  143.2403  151.9050 LP  0  0  0  0  0  0  0  0  0  0  0  0  # atno 17342 bound_to 10162
  139.4785  144.5340  151.8625 LP  0  0  0  0  0  0  0  0  0  0  0  0  # atno 17343 bound_to 10162
  156.5778  130.4296  149.5991 LP  0  0  0  0  0  0  0  0  0  0  0  0  # atno 17370 bound_to 10713
  156.2687  130.7004  151.1795 LP  0  0  0  0  0  0  0  0  0  0  0  0  # atno 17371 bound_to 10713
  141.2223  133.7185  156.8549 LP  0  0  0  0  0  0  0  0  0  0  0  0  # atno 17394 bound_to 11000
  140.1866  134.8995  157.3012 LP  0  0  0  0  0  0  0  0  0  0  0  0  # atno 17395 bound_to 11000

$$$$
