AV-unprocessed.smi:1965|AV-procd|sdf|7943|dock10
  -GOLD-   2272010113D 1   1.00000     0.00000
 Structure written by MMmdl.
 36 38  0  0  0  0  0  0  0  0  3 V2000
  152.7549  140.6692  157.7480 O   0  0  0  0  0  0  0  0  0  0  0  0
  151.5650  140.9744  157.6811 C   0  0  0  0  0  0  0  0  0  0  0  0
  150.5860  140.1079  157.3121 N   0  5  0  0  0  0  0  0  0  0  0  0
  150.6824  139.3337  156.2150 C   0  0  0  0  0  0  0  0  0  0  0  0
  149.6700  138.5913  155.7523 N   0  0  0  0  0  0  0  0  0  0  0  0
  149.9949  137.8603  154.6082 C   0  0  0  0  0  0  0  0  0  0  0  0
  151.2850  138.0507  154.1899 C   0  0  0  0  0  0  0  0  0  0  0  0
  152.1334  139.1658  155.2224 S   0  0  0  0  0  0  0  0  0  0  0  0
  151.1982  142.2326  157.9853 N   0  0  0  0  0  0  0  0  0  0  0  0
  152.0763  143.3154  158.4145 C   0  0  1  0  0  0  0  0  0  0  0  0
  151.3534  144.6703  158.5763 C   0  0  0  0  0  0  0  0  0  0  0  0
  151.8295  145.2159  159.9264 C   0  0  0  0  0  0  0  0  0  0  0  0
  152.0831  143.9994  160.7080 N   0  3  2  0  0  0  0  0  0  0  0  0
  152.8096  144.1291  161.9880 C   0  0  0  0  0  0  0  0  0  0  0  0
  152.8207  142.7548  162.6915 C   0  0  0  0  0  0  0  0  0  0  0  0
  153.3531  141.6321  161.7728 C   0  0  0  0  0  0  0  0  0  0  0  0
  152.6307  141.6246  160.4094 C   0  0  0  0  0  0  0  0  0  0  0  0
  152.7119  143.0333  159.7919 C   0  0  1  0  0  0  0  0  0  0  0  0
  149.2444  137.2287  154.1567 H   0  0  0  0  0  0  0  0  0  0  0  0
  151.7840  137.6106  153.3397 H   0  0  0  0  0  0  0  0  0  0  0  0
  150.2144  142.4487  157.9171 H   0  0  0  0  0  0  0  0  0  0  0  0
  152.8792  143.4132  157.6814 H   0  0  0  0  0  0  0  0  0  0  0  0
  151.5632  145.3560  157.7550 H   0  0  0  0  0  0  0  0  0  0  0  0
  150.2727  144.5219  158.6095 H   0  0  0  0  0  0  0  0  0  0  0  0
  152.7575  145.7775  159.8070 H   0  0  0  0  0  0  0  0  0  0  0  0
  151.0916  145.8619  160.4031 H   0  0  0  0  0  0  0  0  0  0  0  0
  153.8263  144.4817  161.8081 H   0  0  0  0  0  0  0  0  0  0  0  0
  152.3156  144.8700  162.6174 H   0  0  0  0  0  0  0  0  0  0  0  0
  153.4170  142.8060  163.6029 H   0  0  0  0  0  0  0  0  0  0  0  0
  151.8055  142.5057  163.0035 H   0  0  0  0  0  0  0  0  0  0  0  0
  154.4227  141.7749  161.6134 H   0  0  0  0  0  0  0  0  0  0  0  0
  153.2419  140.6635  162.2608 H   0  0  0  0  0  0  0  0  0  0  0  0
  153.0885  140.8897  159.7461 H   0  0  0  0  0  0  0  0  0  0  0  0
  151.5904  141.3246  160.5448 H   0  0  0  0  0  0  0  0  0  0  0  0
  153.7668  143.3036  159.7061 H   0  0  0  0  0  0  0  0  0  0  0  0
  151.1715  143.6231  160.9265 H   0  0  0  0  0  0  0  0  0  0  0  0
  1  2  2  0  0  0  0
  2  3  1  0  0  0  0
  2  9  1  0  0  0  0
  3  4  1  0  0  0  0
  4  8  1  0  0  0  0
  4  5  2  0  0  0  0
  5  6  1  0  0  0  0
  6  7  2  0  0  0  0
  6 19  1  0  0  0  0
  7  8  1  0  0  0  0
  7 20  1  0  0  0  0
  9 10  1  0  0  0  0
  9 21  1  0  0  0  0
 10 18  1  0  0  0  0
 10 11  1  0  0  0  0
 10 22  1  0  0  0  0
 11 12  1  0  0  0  0
 11 23  1  0  0  0  0
 11 24  1  0  0  0  0
 12 13  1  0  0  0  0
 12 25  1  0  0  0  0
 12 26  1  0  0  0  0
 13 18  1  0  0  0  0
 13 14  1  0  0  0  0
 13 36  1  0  0  0  0
 14 15  1  0  0  0  0
 14 27  1  0  0  0  0
 14 28  1  0  0  0  0
 15 16  1  0  0  0  0
 15 29  1  0  0  0  0
 15 30  1  0  0  0  0
 16 17  1  0  0  0  0
 16 31  1  0  0  0  0
 16 32  1  0  0  0  0
 17 18  1  0  0  0  0
 17 33  1  0  0  0  0
 17 34  1  0  0  0  0
 18 35  1  0  0  0  0
M  CHG  1   3  -1
M  CHG  1  13   1
M  END
> <s_m_source_file>
AV-unprocessed.smi

> <i_m_source_file_index>
1965

> <i_lp_mmshare_version>
43012

> <i_f3d_flags>
0

> <s_epik_input>
czFbY0hdW2NIXW5jMVtOSF1DKD1PKVtOSF1bQ0BIXShbQ0gyXVtDSDJdMilbQ0BASF0oTjIzKVtDSDJdW0NIMl1bQ0gyXVtDSDJdMw==

> <s_epik_cmdline>
J2VwaWtfcHl0aG9uJywgJy1waCcsICc3LjAnLCAnLXRuJywgJzgnLCAnLW1hJywgJzIwMCcsICctbWV0YWxfYmluZGluZycsICctaW1hZScsICc8aW5maWxlLm1hZT4nLCAnLW9tYWUnLCAnPG91dGZpbGUubWFlPic=

> <r_lp_tautomer_probability>
1

> <r_epik_Ionization_Penalty>
7.4116

> <r_epik_Ionization_Penalty_Charging>
6.13869

> <r_epik_Ionization_Penalty_Neutral>
1.27291

> <r_epik_State_Penalty>
6.13761

> <r_epik_Charging_Adjusted_Penalty>
12.2763

> <i_epik_Tot_Q>
0

> <i_epik_Tot_abs_Q>
2

> <r_epik_Metal_State_Penalty>
2.08142

> <b_epik_Metal_Only>
1

> <s_lp_Force_Field>
OPLS_2005

> <r_lp_Energy>
32.5812

> <b_lp_Chiralities_Consistent>
1

> <s_lp_Variant>
AV-unprocessed.smi:1965-12

> <Gold.Version>
5.8.1

> <Gold.Id.Protein>
6NUR|6NUR_protein|mol2

> <Gold.PLP.Fitness>
45.5950

> <Gold.PLP.PLP>
-38.2746

> <Gold.PLP.part.hbond>
-1.0000

> <Gold.PLP.part.metal>
0.0000

> <Gold.PLP.part.buried>
-2.9312

> <Gold.PLP.part.nonpolar>
-34.9354

> <Gold.PLP.part.repulsive>
0.1288

> <Gold.PLP.ligand.clash>
0.0000

> <Gold.PLP.ligand.torsion>
0.4648

> <Gold.PLP.Chemscore.Hbond>
0.7520

> <Gold.PLP.Chemscore.CHOScore>
1.9971

> <Gold.PLP.Chemscore.Metal>
0.0000

> <Gold.Chemscore.Hbonds>
donor molecule, donor type, donor heavy atom, donor atom, acceptor molecule, acceptor atom, score
      P1  H  7997  8009       L1     1  0.75
      L1  C     6    19       P1  7948  1.00
      L1  C     7    20       P1  7949  1.00

> <Gold.PLP.Chemscore.Internal.Correction>
0.0025

> <Gold.Rescore>
     Score         DG    S(hbond)    S(metal)    S(lipo)     H(rot)  DE(clash)    DE(int)     intcor
     16.70     -18.61       0.87        0.00     109.18       1.00       0.18       1.74       ----

> <Gold.Chemscore.Fitness>
16.6966

> <Gold.Chemscore.DG>
-18.6115

> <Gold.Chemscore.ZeroCoef>
-5.4800

> <Gold.Chemscore.Hbond>
0.8734

> <Gold.Chemscore.Metal>
0.0000

> <Gold.Chemscore.Lipo>
109.1813

> <Gold.Chemscore.Internal_Hbond>
0.0000

> <Gold.Chemscore.DEClash>
0.1793

> <Gold.Chemscore.DEInternal>
1.7356

> <Gold.Chemscore.Rot>
1.0000

> <Gold.Chemscore.Internal.Correction>
   9.000000E+99

> <Gold.Chemscore.Hbonds>
donor molecule, donor type, donor heavy atom, donor atom, acceptor molecule, acceptor atom, score
      P1  H  7997  8009       L1     1  0.70

> <Gold.Chemscore.Hbond.Weighted>
-2.9173

> <Gold.Chemscore.Metal.Weighted>
-0.0000

> <Gold.Chemscore.Lipo.Weighted>
-12.7742

> <Gold.Chemscore.Internal_Hbond.Weighted>
0.0000

> <Gold.Chemscore.DEClash.Weighted>
0.1793

> <Gold.Chemscore.DEInternal.Weighted>
1.7356

> <Gold.Chemscore.Rot.Weighted>
2.5600

> <Gold.Chemscore.Internal.Correction.Weighted>
   9.000000E+99

> <Gold.Protein.RotatedTorsions>
[ 6907 6896 6895 6894 ] final   43.66 input  -60.11 | X-H torsion
[ 7974 7965 7964 7962 ] final   14.02 input  175.53 | X-H torsion
[ 8008 7997 7996 7995 ] final  171.49 input   59.86 | X-H torsion
[ 10167 10162 10161 10158 ] final  -59.58 input  -65.29 | X-H torsion
[ 10718 10713 10712 10709 ] final  155.69 input   66.30 | X-H torsion
[ 10763 10752 10751 10750 ] final  139.15 input  -60.55 | X-H torsion
[ 11005 11000 10999 10996 ] final  104.16 input  -57.11 | X-H torsion

> <Gold.Protein.ActiveResidues>
 VAL166  LYS551  ARG553  GLY616  TRP617  ASP618  TYR619  PRO620  LYS621  CYS622 
 ASP623  PHE694  ASN695  SER759  ASP760  ASP761  ALA762  ILE779  LEU786  VAL792 
 PHE793  MET794  SER795  GLU796  ALA797  LYS798  CYS799  TRP800  GLU811  SER814 

> <Gold.Protein.RotatedAtoms>
  152.2230  134.8394  160.0483 H   0  0  0  0  0  0  0  0  0  0  0  0  # atno 6907 bound_to 6896
  151.9171  133.3571  159.3892 H   0  0  0  0  0  0  0  0  0  0  0  0  # atno 6908 bound_to 6896
  150.7005  134.4598  159.5419 H   0  0  0  0  0  0  0  0  0  0  0  0  # atno 6909 bound_to 6896
  146.2315  139.9102  142.8525 H   0  0  0  0  0  0  0  0  0  0  0  0  # atno 7974 bound_to 7965
  156.1266  140.1510  156.9127 H   0  0  0  0  0  0  0  0  0  0  0  0  # atno 8008 bound_to 7997
  154.4876  140.0860  156.7563 H   0  0  0  0  0  0  0  0  0  0  0  0  # atno 8009 bound_to 7997
  155.4332  140.3428  155.4284 H   0  0  0  0  0  0  0  0  0  0  0  0  # atno 8010 bound_to 7997
  140.6126  143.2392  151.5674 H   0  0  0  0  0  0  0  0  0  0  0  0  # atno 10167 bound_to 10162
  157.2150  131.0706  151.1946 H   0  0  0  0  0  0  0  0  0  0  0  0  # atno 10718 bound_to 10713
  153.9014  135.3021  155.3448 H   0  0  0  0  0  0  0  0  0  0  0  0  # atno 10763 bound_to 10752
  154.7668  135.4906  153.9574 H   0  0  0  0  0  0  0  0  0  0  0  0  # atno 10764 bound_to 10752
  153.1243  135.6789  153.9384 H   0  0  0  0  0  0  0  0  0  0  0  0  # atno 10765 bound_to 10752
  139.8789  134.9290  156.5319 H   0  0  0  0  0  0  0  0  0  0  0  0  # atno 11005 bound_to 11000
  145.2237  140.9945  143.4031 LP  0  0  0  0  0  0  0  0  0  0  0  0  # atno 17320 bound_to 7965
  144.9589  139.4001  143.6366 LP  0  0  0  0  0  0  0  0  0  0  0  0  # atno 17321 bound_to 7965
  139.5373  144.2745  152.1278 LP  0  0  0  0  0  0  0  0  0  0  0  0  # atno 17342 bound_to 10162
  140.1948  144.4716  150.6461 LP  0  0  0  0  0  0  0  0  0  0  0  0  # atno 17343 bound_to 10162
  157.3634  130.7143  149.6516 LP  0  0  0  0  0  0  0  0  0  0  0  0  # atno 17370 bound_to 10713
  155.9687  130.4219  150.4492 LP  0  0  0  0  0  0  0  0  0  0  0  0  # atno 17371 bound_to 10713
  140.8374  133.8231  155.9042 LP  0  0  0  0  0  0  0  0  0  0  0  0  # atno 17394 bound_to 11000
  140.9270  134.2069  157.4889 LP  0  0  0  0  0  0  0  0  0  0  0  0  # atno 17395 bound_to 11000

$$$$
