AV-unprocessed.smi:844|AV-procd|sdf|3925|dock1
  -GOLD-   22720 1383D 1   1.00000     0.00000
 Structure written by MMmdl.
 33 35  0  0  0  0  0  0  0  0  2 V2000
  151.1504  143.6956  156.9983 O   0  0  0  0  0  0  0  0  0  0  0  0
  151.4126  142.4550  157.6212 C   0  0  2  0  0  0  0  0  0  0  0  0
  150.1228  141.6113  157.5660 C   0  0  0  0  0  0  0  0  0  0  0  0
  149.6889  141.3336  156.1911 N   0  0  0  0  0  0  0  0  0  0  0  0
  150.3680  140.7681  155.1563 C   0  0  0  0  0  0  0  0  0  0  0  0
  149.5343  140.7489  154.0796 N   0  3  0  0  0  0  0  0  0  0  0  0
  148.3033  141.3059  154.4330 C   0  0  0  0  0  0  0  0  0  0  0  0
  147.1454  141.5072  153.6881 C   0  0  0  0  0  0  0  0  0  0  0  0
  146.0583  142.1068  154.3578 C   0  0  0  0  0  0  0  0  0  0  0  0
  146.1468  142.4815  155.7145 C   0  0  0  0  0  0  0  0  0  0  0  0
  147.3260  142.2735  156.4599 C   0  0  0  0  0  0  0  0  0  0  0  0
  148.3952  141.6807  155.7898 C   0  0  0  0  0  0  0  0  0  0  0  0
  151.9326  142.6180  159.0452 C   0  0  0  0  0  0  0  0  0  0  0  0
  151.7385  143.8329  159.7399 C   0  0  0  0  0  0  0  0  0  0  0  0
  152.2008  143.9794  161.0619 C   0  0  0  0  0  0  0  0  0  0  0  0
  152.8580  142.9109  161.7006 C   0  0  0  0  0  0  0  0  0  0  0  0
  153.2993  143.0501  162.9730 F   0  0  0  0  0  0  0  0  0  0  0  0
  153.0515  141.6960  161.0165 C   0  0  0  0  0  0  0  0  0  0  0  0
  152.5899  141.5472  159.6942 C   0  0  0  0  0  0  0  0  0  0  0  0
  152.7725  140.3655  159.0567 F   0  0  0  0  0  0  0  0  0  0  0  0
  150.2720  143.6771  156.6500 H   0  0  0  0  0  0  0  0  0  0  0  0
  152.1817  141.9749  157.0163 H   0  0  0  0  0  0  0  0  0  0  0  0
  150.2680  140.6534  158.0677 H   0  0  0  0  0  0  0  0  0  0  0  0
  149.3040  142.1122  158.0846 H   0  0  0  0  0  0  0  0  0  0  0  0
  151.3872  140.4099  155.1821 H   0  0  0  0  0  0  0  0  0  0  0  0
  147.0747  141.2219  152.6487 H   0  0  0  0  0  0  0  0  0  0  0  0
  145.1378  142.2830  153.8202 H   0  0  0  0  0  0  0  0  0  0  0  0
  145.2930  142.9381  156.1938 H   0  0  0  0  0  0  0  0  0  0  0  0
  147.3857  142.5649  157.4983 H   0  0  0  0  0  0  0  0  0  0  0  0
  151.2293  144.6574  159.2624 H   0  0  0  0  0  0  0  0  0  0  0  0
  152.0491  144.9112  161.5866 H   0  0  0  0  0  0  0  0  0  0  0  0
  153.5527  140.8751  161.5081 H   0  0  0  0  0  0  0  0  0  0  0  0
  149.7896  140.3824  153.1715 H   0  0  0  0  0  0  0  0  0  0  0  0
  1  2  1  0  0  0  0
  1 21  1  0  0  0  0
  2  3  1  0  0  0  0
  2 13  1  0  0  0  0
  2 22  1  0  0  0  0
  3  4  1  0  0  0  0
  3 23  1  0  0  0  0
  3 24  1  0  0  0  0
  4 12  1  0  0  0  0
  4  5  1  0  0  0  0
  5  6  2  0  0  0  0
  5 25  1  0  0  0  0
  6  7  1  0  0  0  0
  6 33  1  0  0  0  0
  7 12  2  0  0  0  0
  7  8  1  0  0  0  0
  8  9  2  0  0  0  0
  8 26  1  0  0  0  0
  9 10  1  0  0  0  0
  9 27  1  0  0  0  0
 10 11  2  0  0  0  0
 10 28  1  0  0  0  0
 11 12  1  0  0  0  0
 11 29  1  0  0  0  0
 13 19  1  0  0  0  0
 13 14  2  0  0  0  0
 14 15  1  0  0  0  0
 14 30  1  0  0  0  0
 15 16  2  0  0  0  0
 15 31  1  0  0  0  0
 16 17  1  0  0  0  0
 16 18  1  0  0  0  0
 18 19  2  0  0  0  0
 18 32  1  0  0  0  0
 19 20  1  0  0  0  0
M  CHG  1   6   1
M  END
> <s_m_source_file>
AV-unprocessed.smi

> <i_m_source_file_index>
844

> <i_lp_mmshare_version>
43012

> <i_f3d_flags>
0

> <s_epik_input>
RmMxW2NIXWMoRilbY0hdW2NIXWMxW0NASF0oW09IXSlbQ0gyXW4oW2NIXW4yKWMoYzIzKVtjSF1bY0hdW2NIXVtjSF0z

> <s_epik_cmdline>
J2VwaWtfcHl0aG9uJywgJy1waCcsICc3LjAnLCAnLXRuJywgJzgnLCAnLW1hJywgJzIwMCcsICctbWV0YWxfYmluZGluZycsICctaW1hZScsICc8aW5maWxlLm1hZT4nLCAnLW9tYWUnLCAnPG91dGZpbGUubWFlPic=

> <r_epik_Ionization_Penalty>
1.3029

> <r_epik_Ionization_Penalty_Charging>
1.3029

> <r_epik_Ionization_Penalty_Neutral>
1.79538e-06

> <r_epik_State_Penalty>
1.377

> <r_epik_Charging_Adjusted_Penalty>
2.6799

> <i_epik_Tot_Q>
1

> <i_epik_Tot_abs_Q>
1

> <r_epik_Metal_State_Penalty>
5.40879

> <b_epik_Metal_Only>
0

> <s_lp_Force_Field>
OPLS_2005

> <r_lp_Energy>
17.7817

> <b_lp_Chiralities_Consistent>
1

> <s_lp_Variant>
AV-unprocessed.smi:844-3

> <Gold.Version>
5.8.1

> <Gold.Id.Protein>
6NUR|6NUR_protein|mol2

> <Gold.PLP.Fitness>
50.8546

> <Gold.PLP.PLP>
-46.2466

> <Gold.PLP.part.hbond>
-2.0000

> <Gold.PLP.part.metal>
0.0000

> <Gold.PLP.part.buried>
-2.9948

> <Gold.PLP.part.nonpolar>
-41.1441

> <Gold.PLP.part.repulsive>
1.6086

> <Gold.PLP.ligand.clash>
0.0000

> <Gold.PLP.ligand.torsion>
0.4930

> <Gold.PLP.Chemscore.Hbond>
1.8548

> <Gold.PLP.Chemscore.CHOScore>
0.0000

> <Gold.PLP.Chemscore.Metal>
0.0000

> <Gold.Chemscore.Hbonds>
donor molecule, donor type, donor heavy atom, donor atom, acceptor molecule, acceptor atom, score
      L1  H     1    21       P1  8028  0.88
      L1  H     6    33       P1  7957  0.96

> <Gold.PLP.Chemscore.Internal.Correction>
0.0298

> <Gold.Rescore>
     Score         DG    S(hbond)    S(metal)    S(lipo)     H(rot)  DE(clash)    DE(int)     intcor
     17.54     -18.40       1.71        0.00     106.52       2.06       0.32       0.53       ----

> <Gold.Chemscore.Fitness>
17.5403

> <Gold.Chemscore.DG>
-18.3954

> <Gold.Chemscore.ZeroCoef>
-5.4800

> <Gold.Chemscore.Hbond>
1.7143

> <Gold.Chemscore.Metal>
0.0000

> <Gold.Chemscore.Lipo>
106.5156

> <Gold.Chemscore.Internal_Hbond>
0.0000

> <Gold.Chemscore.DEClash>
0.3222

> <Gold.Chemscore.DEInternal>
0.5330

> <Gold.Chemscore.Rot>
2.0597

> <Gold.Chemscore.Internal.Correction>
   9.000000E+99

> <Gold.Chemscore.Hbonds>
donor molecule, donor type, donor heavy atom, donor atom, acceptor molecule, acceptor atom, score
      L1  H     1    21       P1  8028  0.84
      L1  H     6    33       P1  7957  0.90

> <Gold.Chemscore.Hbond.Weighted>
-5.7259

> <Gold.Chemscore.Metal.Weighted>
-0.0000

> <Gold.Chemscore.Lipo.Weighted>
-12.4623

> <Gold.Chemscore.Internal_Hbond.Weighted>
0.0000

> <Gold.Chemscore.DEClash.Weighted>
0.3222

> <Gold.Chemscore.DEInternal.Weighted>
0.5330

> <Gold.Chemscore.Rot.Weighted>
5.2728

> <Gold.Chemscore.Internal.Correction.Weighted>
   9.000000E+99

> <Gold.Protein.RotatedTorsions>
[ 6907 6896 6895 6894 ] final  -56.22 input  -60.11 | X-H torsion
[ 7974 7965 7964 7962 ] final -147.97 input  175.53 | X-H torsion
[ 8008 7997 7996 7995 ] final -160.67 input   59.86 | X-H torsion
[ 10167 10162 10161 10158 ] final -102.83 input  -65.29 | X-H torsion
[ 10718 10713 10712 10709 ] final  116.17 input   66.30 | X-H torsion
[ 10763 10752 10751 10750 ] final  -40.61 input  -60.55 | X-H torsion
[ 11005 11000 10999 10996 ] final  -80.48 input  -57.11 | X-H torsion

> <Gold.Protein.ActiveResidues>
 VAL166  LYS551  ARG553  GLY616  TRP617  ASP618  TYR619  PRO620  LYS621  CYS622 
 ASP623  PHE694  ASN695  SER759  ASP760  ASP761  ALA762  ILE779  LEU786  VAL792 
 PHE793  MET794  SER795  GLU796  ALA797  LYS798  CYS799  TRP800  GLU811  SER814 

> <Gold.Protein.RotatedAtoms>
  150.8185  134.7381  159.6751 H   0  0  0  0  0  0  0  0  0  0  0  0  # atno 6907 bound_to 6896
  152.4303  134.5788  159.9952 H   0  0  0  0  0  0  0  0  0  0  0  0  # atno 6908 bound_to 6896
  151.5978  133.3322  159.3077 H   0  0  0  0  0  0  0  0  0  0  0  0  # atno 6909 bound_to 6896
  144.8059  140.5257  143.5675 H   0  0  0  0  0  0  0  0  0  0  0  0  # atno 7974 bound_to 7965
  155.7809  140.0865  157.2059 H   0  0  0  0  0  0  0  0  0  0  0  0  # atno 8008 bound_to 7997
  154.3990  140.1508  156.3108 H   0  0  0  0  0  0  0  0  0  0  0  0  # atno 8009 bound_to 7997
  155.8654  140.3428  155.5787 H   0  0  0  0  0  0  0  0  0  0  0  0  # atno 8010 bound_to 7997
  140.2265  143.3638  152.0924 H   0  0  0  0  0  0  0  0  0  0  0  0  # atno 10167 bound_to 10162
  157.6177  131.1022  150.7435 H   0  0  0  0  0  0  0  0  0  0  0  0  # atno 10718 bound_to 10713
  153.9488  135.6753  153.4744 H   0  0  0  0  0  0  0  0  0  0  0  0  # atno 10763 bound_to 10752
  153.0895  135.4882  154.8659 H   0  0  0  0  0  0  0  0  0  0  0  0  # atno 10764 bound_to 10752
  154.7337  135.3144  154.8807 H   0  0  0  0  0  0  0  0  0  0  0  0  # atno 10765 bound_to 10752
  141.1668  133.7152  156.8279 H   0  0  0  0  0  0  0  0  0  0  0  0  # atno 11005 bound_to 11000
  145.5440  139.1475  143.3431 LP  0  0  0  0  0  0  0  0  0  0  0  0  # atno 17320 bound_to 7965
  146.2350  140.5579  142.8959 LP  0  0  0  0  0  0  0  0  0  0  0  0  # atno 17321 bound_to 7965
  139.5125  144.6918  151.5738 LP  0  0  0  0  0  0  0  0  0  0  0  0  # atno 17342 bound_to 10162
  140.6217  143.9246  150.6531 LP  0  0  0  0  0  0  0  0  0  0  0  0  # atno 17343 bound_to 10162
  156.7799  130.4856  149.5403 LP  0  0  0  0  0  0  0  0  0  0  0  0  # atno 17370 bound_to 10713
  156.1307  130.6175  151.0328 LP  0  0  0  0  0  0  0  0  0  0  0  0  # atno 17371 bound_to 10713
  140.2072  134.8854  157.3234 LP  0  0  0  0  0  0  0  0  0  0  0  0  # atno 17394 bound_to 11000
  140.2125  134.4121  155.7606 LP  0  0  0  0  0  0  0  0  0  0  0  0  # atno 17395 bound_to 11000

$$$$
