AV-unprocessed.smi:2648|AV-procd|sdf|10285|dock3
  -GOLD-   2272014293D 1   1.00000     0.00000
 Structure written by MMmdl.
 32 33  0  0  0  0  0  0  0  0  1 V2000
  144.7056  136.8105  151.6394 O   0  0  0  0  0  0  0  0  0  0  0  0
  145.9147  136.5849  151.6879 C   0  0  0  0  0  0  0  0  0  0  0  0
  146.8169  137.4900  152.0933 N   0  0  0  0  0  0  0  0  0  0  0  0
  146.5001  138.8454  152.5255 C   0  0  0  0  0  0  0  0  0  0  0  0
  147.1002  139.1488  153.9104 C   0  0  0  0  0  0  0  0  0  0  0  0
  146.9471  140.5636  154.2568 N   0  0  0  0  0  0  0  0  0  0  0  0
  145.8031  141.1156  154.6818 C   0  0  0  0  0  0  0  0  0  0  0  0
  144.7158  140.5613  154.8386 O   0  0  0  0  0  0  0  0  0  0  0  0
  146.0537  142.5812  154.9620 C   0  0  0  0  0  0  0  0  0  0  0  0
  147.4596  142.6474  154.6252 N   0  0  0  0  0  0  0  0  0  0  0  0
  147.9450  141.4653  154.2240 C   0  0  0  0  0  0  0  0  0  0  0  0
  149.1103  141.2543  153.8911 O   0  0  0  0  0  0  0  0  0  0  0  0
  146.5088  135.4326  151.3317 N   0  0  0  0  0  0  0  0  0  0  0  0
  145.9134  134.2369  150.8446 C   0  0  0  0  0  0  0  0  0  0  0  0
  144.5370  134.2684  150.5392 C   0  0  0  0  0  0  0  0  0  0  0  0
  143.9241  133.1010  150.0422 C   0  0  0  0  0  0  0  0  0  0  0  0
  144.5894  131.9461  149.8319 N   0  0  0  0  0  0  0  0  0  0  0  0
  145.9098  131.9214  150.1110 C   0  0  0  0  0  0  0  0  0  0  0  0
  146.6189  133.0315  150.6116 C   0  0  0  0  0  0  0  0  0  0  0  0
  147.7915  137.2264  152.0974 H   0  0  0  0  0  0  0  0  0  0  0  0
  146.8551  139.5648  151.7852 H   0  0  0  0  0  0  0  0  0  0  0  0
  145.4146  138.9448  152.5585 H   0  0  0  0  0  0  0  0  0  0  0  0
  146.6222  138.5260  154.6682 H   0  0  0  0  0  0  0  0  0  0  0  0
  148.1573  138.8778  153.9310 H   0  0  0  0  0  0  0  0  0  0  0  0
  145.4540  143.2242  154.3169 H   0  0  0  0  0  0  0  0  0  0  0  0
  145.8779  142.8267  156.0097 H   0  0  0  0  0  0  0  0  0  0  0  0
  148.0033  143.4950  154.6967 H   0  0  0  0  0  0  0  0  0  0  0  0
  147.5179  135.4298  151.3591 H   0  0  0  0  0  0  0  0  0  0  0  0
  143.9550  135.1663  150.6869 H   0  0  0  0  0  0  0  0  0  0  0  0
  142.8703  133.0965  149.8064 H   0  0  0  0  0  0  0  0  0  0  0  0
  146.4196  130.9878  149.9244 H   0  0  0  0  0  0  0  0  0  0  0  0
  147.6782  132.9367  150.7928 H   0  0  0  0  0  0  0  0  0  0  0  0
  1  2  2  0  0  0  0
  2  3  1  0  0  0  0
  2 13  1  0  0  0  0
  3  4  1  0  0  0  0
  3 20  1  0  0  0  0
  4  5  1  0  0  0  0
  4 21  1  0  0  0  0
  4 22  1  0  0  0  0
  5  6  1  0  0  0  0
  5 23  1  0  0  0  0
  5 24  1  0  0  0  0
  6 11  1  0  0  0  0
  6  7  1  0  0  0  0
  7  8  2  0  0  0  0
  7  9  1  0  0  0  0
  9 10  1  0  0  0  0
  9 25  1  0  0  0  0
  9 26  1  0  0  0  0
 10 11  1  0  0  0  0
 10 27  1  0  0  0  0
 11 12  2  0  0  0  0
 13 14  1  0  0  0  0
 13 28  1  0  0  0  0
 14 19  1  0  0  0  0
 14 15  2  0  0  0  0
 15 16  1  0  0  0  0
 15 29  1  0  0  0  0
 16 17  2  0  0  0  0
 16 30  1  0  0  0  0
 17 18  1  0  0  0  0
 18 19  2  0  0  0  0
 18 31  1  0  0  0  0
 19 32  1  0  0  0  0
M  END
> <s_m_source_file>
AV-unprocessed.smi

> <i_m_source_file_index>
2648

> <i_lp_mmshare_version>
43012

> <i_f3d_flags>
0

> <s_epik_input>
W2NIXTFbY0hdbltjSF1bY0hdYzFbTkhdQyg9TylbTkhdW0NIMl1bQ0gyXU4yQyg9TylbQ0gyXVtOSF1DMj1P

> <s_epik_cmdline>
J2VwaWtfcHl0aG9uJywgJy1waCcsICc3LjAnLCAnLXRuJywgJzgnLCAnLW1hJywgJzIwMCcsICctbWV0YWxfYmluZGluZycsICctaW1hZScsICc8aW5maWxlLm1hZT4nLCAnLW9tYWUnLCAnPG91dGZpbGUubWFlPic=

> <r_lp_tautomer_probability>
1

> <r_epik_Ionization_Penalty>
0.109042

> <r_epik_Ionization_Penalty_Charging>
0

> <r_epik_Ionization_Penalty_Neutral>
0.109042

> <r_epik_State_Penalty>
0.0987421

> <r_epik_Charging_Adjusted_Penalty>
0.0987421

> <i_epik_Tot_Q>
0

> <i_epik_Tot_abs_Q>
0

> <r_epik_Metal_State_Penalty>
0.108818

> <b_epik_Metal_Only>
0

> <s_lp_Force_Field>
OPLS_2005

> <r_lp_Energy>
20.6194

> <b_lp_Chiralities_Consistent>
1

> <s_lp_Variant>
AV-unprocessed.smi:2648-1

> <Gold.Version>
5.8.1

> <Gold.Id.Protein>
6NUR|6NUR_protein|mol2

> <Gold.PLP.Fitness>
46.8073

> <Gold.PLP.PLP>
-30.6309

> <Gold.PLP.part.hbond>
-4.9739

> <Gold.PLP.part.metal>
0.0000

> <Gold.PLP.part.buried>
-4.8652

> <Gold.PLP.part.nonpolar>
-23.7353

> <Gold.PLP.part.repulsive>
3.0831

> <Gold.PLP.ligand.clash>
0.0000

> <Gold.PLP.ligand.torsion>
0.2631

> <Gold.PLP.Chemscore.Hbond>
3.8080

> <Gold.PLP.Chemscore.CHOScore>
1.7542

> <Gold.PLP.Chemscore.Metal>
0.0000

> <Gold.Chemscore.Hbonds>
donor molecule, donor type, donor heavy atom, donor atom, acceptor molecule, acceptor atom, score
      L1  H     3    20       P1  7948  0.99
      L1  H    10    27       P1  8028  1.00
      L1  H    13    28       P1  7948  0.98
      P1  H  8011  8017       L1    12  0.77
      L1  C    16    30       P1 10186  1.00
      L1  C    18    31       P1 10747  0.73

> <Gold.PLP.Chemscore.Internal.Correction>
0.0158

> <Gold.Rescore>
     Score         DG    S(hbond)    S(metal)    S(lipo)     H(rot)  DE(clash)    DE(int)     intcor
     15.79     -18.66       3.53        0.00      54.10       1.93       1.17       1.70       ----

> <Gold.Chemscore.Fitness>
15.7894

> <Gold.Chemscore.DG>
-18.6610

> <Gold.Chemscore.ZeroCoef>
-5.4800

> <Gold.Chemscore.Hbond>
3.5332

> <Gold.Chemscore.Metal>
0.0000

> <Gold.Chemscore.Lipo>
54.0970

> <Gold.Chemscore.Internal_Hbond>
0.0000

> <Gold.Chemscore.DEClash>
1.1699

> <Gold.Chemscore.DEInternal>
1.7017

> <Gold.Chemscore.Rot>
1.9334

> <Gold.Chemscore.Internal.Correction>
   9.000000E+99

> <Gold.Chemscore.Hbonds>
donor molecule, donor type, donor heavy atom, donor atom, acceptor molecule, acceptor atom, score
      L1  H     3    20       P1  7948  0.90
      L1  H    10    27       P1  8028  0.76
      L1  H    13    28       P1  7948  0.73
      P1  H  8011  8017       L1    12  0.67
      P1  H 10785 10796       L1    17  0.01

> <Gold.Chemscore.Hbond.Weighted>
-11.8010

> <Gold.Chemscore.Metal.Weighted>
-0.0000

> <Gold.Chemscore.Lipo.Weighted>
-6.3293

> <Gold.Chemscore.Internal_Hbond.Weighted>
0.0000

> <Gold.Chemscore.DEClash.Weighted>
1.1699

> <Gold.Chemscore.DEInternal.Weighted>
1.7017

> <Gold.Chemscore.Rot.Weighted>
4.9494

> <Gold.Chemscore.Internal.Correction.Weighted>
   9.000000E+99

> <Gold.Protein.RotatedTorsions>
[ 6907 6896 6895 6894 ] final -109.31 input  -60.11 | X-H torsion
[ 7974 7965 7964 7962 ] final  -64.62 input  175.53 | X-H torsion
[ 8008 7997 7996 7995 ] final  -74.57 input   59.86 | X-H torsion
[ 10167 10162 10161 10158 ] final  -56.24 input  -65.29 | X-H torsion
[ 10718 10713 10712 10709 ] final   16.35 input   66.30 | X-H torsion
[ 10763 10752 10751 10750 ] final   44.84 input  -60.55 | X-H torsion
[ 11005 11000 10999 10996 ] final   97.43 input  -57.11 | X-H torsion

> <Gold.Protein.ActiveResidues>
 VAL166  LYS551  ARG553  GLY616  TRP617  ASP618  TYR619  PRO620  LYS621  CYS622 
 ASP623  PHE694  ASN695  SER759  ASP760  ASP761  ALA762  ILE779  LEU786  VAL792 
 PHE793  MET794  SER795  GLU796  ALA797  LYS798  CYS799  TRP800  GLU811  SER814 

> <Gold.Protein.RotatedAtoms>
  150.7554  133.9548  159.3496 H   0  0  0  0  0  0  0  0  0  0  0  0  # atno 6907 bound_to 6896
  151.7468  135.0840  160.0334 H   0  0  0  0  0  0  0  0  0  0  0  0  # atno 6908 bound_to 6896
  152.3492  133.6122  159.5968 H   0  0  0  0  0  0  0  0  0  0  0  0  # atno 6909 bound_to 6896
  145.7645  140.8844  143.0412 H   0  0  0  0  0  0  0  0  0  0  0  0  # atno 7974 bound_to 7965
  154.5342  140.0759  156.8398 H   0  0  0  0  0  0  0  0  0  0  0  0  # atno 8008 bound_to 7997
  155.3312  140.3402  155.4221 H   0  0  0  0  0  0  0  0  0  0  0  0  # atno 8009 bound_to 7997
  156.1812  140.1653  156.8258 H   0  0  0  0  0  0  0  0  0  0  0  0  # atno 8010 bound_to 7997
  140.6328  143.2468  151.5196 H   0  0  0  0  0  0  0  0  0  0  0  0  # atno 10167 bound_to 10162
  157.0666  130.6331  149.5797 H   0  0  0  0  0  0  0  0  0  0  0  0  # atno 10718 bound_to 10713
  152.9834  135.6058  154.3339 H   0  0  0  0  0  0  0  0  0  0  0  0  # atno 10763 bound_to 10752
  154.3041  135.2772  155.2599 H   0  0  0  0  0  0  0  0  0  0  0  0  # atno 10764 bound_to 10752
  154.4838  135.5910  153.6465 H   0  0  0  0  0  0  0  0  0  0  0  0  # atno 10765 bound_to 10752
  139.8776  134.9000  156.4305 H   0  0  0  0  0  0  0  0  0  0  0  0  # atno 11005 bound_to 11000
  144.6824  139.9769  143.7483 LP  0  0  0  0  0  0  0  0  0  0  0  0  # atno 17320 bound_to 7965
  146.0231  139.3269  143.0800 LP  0  0  0  0  0  0  0  0  0  0  0  0  # atno 17321 bound_to 7965
  139.5541  144.2320  152.1582 LP  0  0  0  0  0  0  0  0  0  0  0  0  # atno 17342 bound_to 10162
  140.1569  144.5062  150.6655 LP  0  0  0  0  0  0  0  0  0  0  0  0  # atno 17343 bound_to 10162
  155.9963  130.5031  150.7490 LP  0  0  0  0  0  0  0  0  0  0  0  0  # atno 17370 bound_to 10713
  157.4912  131.0911  151.0425 LP  0  0  0  0  0  0  0  0  0  0  0  0  # atno 17371 bound_to 10713
  140.9070  133.7739  155.9746 LP  0  0  0  0  0  0  0  0  0  0  0  0  # atno 17394 bound_to 11000
  140.8589  134.2865  157.5243 LP  0  0  0  0  0  0  0  0  0  0  0  0  # atno 17395 bound_to 11000

$$$$
