AV-unprocessed.smi:1033|AV-procd|sdf|4502|dock2
  -GOLD-   22720 2503D 1   1.00000     0.00000
 Structure written by MMmdl.
 57 59  0  0  0  0  0  0  0  0  3 V2000
  152.4205  144.7970  160.8324 C   0  0  0  0  0  0  0  0  0  0  0  0
  152.2341  143.6119  159.9002 C   0  0  0  0  0  0  0  0  0  0  0  0
  151.5985  143.8259  158.6559 C   0  0  0  0  0  0  0  0  0  0  0  0
  151.4407  142.7220  157.8262 C   0  0  0  0  0  0  0  0  0  0  0  0
  150.8639  142.6019  156.5596 N   0  3  0  0  0  0  0  0  0  0  0  0
  150.9434  141.3069  156.1447 C   0  0  0  0  0  0  0  0  0  0  0  0
  151.5672  140.6005  157.1265 N   0  0  0  0  0  0  0  0  0  0  0  0
  151.9074  139.1741  157.1977 C   0  0  0  0  0  0  0  0  0  0  0  0
  150.8680  138.3507  157.9855 C   0  0  2  0  0  0  0  0  0  0  0  0
  151.4693  137.1508  158.4266 O   0  0  0  0  0  0  0  0  0  0  0  0
  149.6380  137.9808  157.1346 C   0  0  0  0  0  0  0  0  0  0  0  0
  149.9330  137.3189  155.8580 N   0  0  0  0  0  0  0  0  0  0  0  0
  148.8019  136.5442  155.3487 C   0  0  0  0  0  0  0  0  0  0  0  0
  147.6495  137.4230  154.8202 C   0  0  0  0  0  0  0  0  0  0  0  0
  148.1401  138.3390  153.7583 N   0  3  0  0  0  0  0  0  0  0  0  0
  147.0494  139.1558  153.1667 C   0  0  0  0  0  0  0  0  0  0  0  0
  146.3059  138.4240  152.0318 C   0  0  2  0  0  0  0  0  0  0  0  0
  145.8450  137.0230  152.4543 C   0  0  0  0  0  0  0  0  0  0  0  0
  147.1697  138.2864  150.9213 O   0  0  0  0  0  0  0  0  0  0  0  0
  149.2911  139.1428  154.2505 C   0  0  0  0  0  0  0  0  0  0  0  0
  150.3964  138.2152  154.7952 C   0  0  0  0  0  0  0  0  0  0  0  0
  151.8910  141.4403  158.1964 C   0  0  0  0  0  0  0  0  0  0  0  0
  152.5182  141.2110  159.4183 C   0  0  0  0  0  0  0  0  0  0  0  0
  152.6881  142.3209  160.2764 C   0  0  0  0  0  0  0  0  0  0  0  0
  153.3692  142.1022  161.6165 C   0  0  0  0  0  0  0  0  0  0  0  0
  152.0335  145.7164  160.3917 H   0  0  0  0  0  0  0  0  0  0  0  0
  153.4775  144.9524  161.0492 H   0  0  0  0  0  0  0  0  0  0  0  0
  151.8939  144.6310  161.7725 H   0  0  0  0  0  0  0  0  0  0  0  0
  151.2499  144.8057  158.3634 H   0  0  0  0  0  0  0  0  0  0  0  0
  150.5801  140.9125  155.2064 H   0  0  0  0  0  0  0  0  0  0  0  0
  152.0171  138.7999  156.1790 H   0  0  0  0  0  0  0  0  0  0  0  0
  152.8905  139.0926  157.6637 H   0  0  0  0  0  0  0  0  0  0  0  0
  150.5602  138.8916  158.8794 H   0  0  0  0  0  0  0  0  0  0  0  0
  151.5528  136.5680  157.6873 H   0  0  0  0  0  0  0  0  0  0  0  0
  149.0057  137.3240  157.7338 H   0  0  0  0  0  0  0  0  0  0  0  0
  149.0434  138.8776  156.9616 H   0  0  0  0  0  0  0  0  0  0  0  0
  149.1493  135.8963  154.5428 H   0  0  0  0  0  0  0  0  0  0  0  0
  148.4307  135.8751  156.1257 H   0  0  0  0  0  0  0  0  0  0  0  0
  146.8679  136.7800  154.4138 H   0  0  0  0  0  0  0  0  0  0  0  0
  147.1942  137.9979  155.6278 H   0  0  0  0  0  0  0  0  0  0  0  0
  146.3265  139.4183  153.9413 H   0  0  0  0  0  0  0  0  0  0  0  0
  147.4637  140.0991  152.8073 H   0  0  0  0  0  0  0  0  0  0  0  0
  145.4306  138.9904  151.7163 H   0  0  0  0  0  0  0  0  0  0  0  0
  145.1566  137.0763  153.2985 H   0  0  0  0  0  0  0  0  0  0  0  0
  146.6873  136.3976  152.7525 H   0  0  0  0  0  0  0  0  0  0  0  0
  145.3261  136.5165  151.6396 H   0  0  0  0  0  0  0  0  0  0  0  0
  147.9626  137.8558  151.2039 H   0  0  0  0  0  0  0  0  0  0  0  0
  149.7064  139.7414  153.4409 H   0  0  0  0  0  0  0  0  0  0  0  0
  148.9590  139.8443  155.0167 H   0  0  0  0  0  0  0  0  0  0  0  0
  151.2456  138.8069  155.1332 H   0  0  0  0  0  0  0  0  0  0  0  0
  150.7793  137.6119  153.9708 H   0  0  0  0  0  0  0  0  0  0  0  0
  152.8620  140.2279  159.7036 H   0  0  0  0  0  0  0  0  0  0  0  0
  153.6682  141.0617  161.7472 H   0  0  0  0  0  0  0  0  0  0  0  0
  152.6959  142.3611  162.4340 H   0  0  0  0  0  0  0  0  0  0  0  0
  154.2651  142.7182  161.6964 H   0  0  0  0  0  0  0  0  0  0  0  0
  148.4884  137.7476  153.0169 H   0  0  0  0  0  0  0  0  0  0  0  0
  150.4447  143.3464  156.0171 H   0  0  0  0  0  0  0  0  0  0  0  0
  1  2  1  0  0  0  0
  1 26  1  0  0  0  0
  1 27  1  0  0  0  0
  1 28  1  0  0  0  0
  2 24  1  0  0  0  0
  2  3  2  0  0  0  0
  3  4  1  0  0  0  0
  3 29  1  0  0  0  0
  4 22  2  0  0  0  0
  4  5  1  0  0  0  0
  5  6  2  0  0  0  0
  5 57  1  0  0  0  0
  6  7  1  0  0  0  0
  6 30  1  0  0  0  0
  7  8  1  0  0  0  0
  7 22  1  0  0  0  0
  8  9  1  0  0  0  0
  8 31  1  0  0  0  0
  8 32  1  0  0  0  0
  9 10  1  0  0  0  0
  9 11  1  0  0  0  0
  9 33  1  0  0  0  0
 10 34  1  0  0  0  0
 11 12  1  0  0  0  0
 11 35  1  0  0  0  0
 11 36  1  0  0  0  0
 12 21  1  0  0  0  0
 12 13  1  0  0  0  0
 13 14  1  0  0  0  0
 13 37  1  0  0  0  0
 13 38  1  0  0  0  0
 14 15  1  0  0  0  0
 14 39  1  0  0  0  0
 14 40  1  0  0  0  0
 15 16  1  0  0  0  0
 15 20  1  0  0  0  0
 15 56  1  0  0  0  0
 16 17  1  0  0  0  0
 16 41  1  0  0  0  0
 16 42  1  0  0  0  0
 17 18  1  0  0  0  0
 17 19  1  0  0  0  0
 17 43  1  0  0  0  0
 18 44  1  0  0  0  0
 18 45  1  0  0  0  0
 18 46  1  0  0  0  0
 19 47  1  0  0  0  0
 20 21  1  0  0  0  0
 20 48  1  0  0  0  0
 20 49  1  0  0  0  0
 21 50  1  0  0  0  0
 21 51  1  0  0  0  0
 22 23  1  0  0  0  0
 23 24  2  0  0  0  0
 23 52  1  0  0  0  0
 24 25  1  0  0  0  0
 25 53  1  0  0  0  0
 25 54  1  0  0  0  0
 25 55  1  0  0  0  0
M  CHG  1   5   1
M  CHG  1  15   1
M  END
> <s_m_source_file>
AV-unprocessed.smi

> <i_m_source_file_index>
1033

> <i_lp_mmshare_version>
43012

> <i_f3d_flags>
0

> <s_epik_input>
W0NIM11jKFtjSF0xKWMoW0NIM10pW2NIXWMoYzEyKW4oW2NIXW4yKVtDSDJdW0NASF0oW09IXSlbQ0gyXU4zW0NIMl1bQ0gyXU4oW0NIMl1bQ0gyXTMpW0NIMl1bQ0BIXShbQ0gzXSlbT0hd

> <s_epik_cmdline>
J2VwaWtfcHl0aG9uJywgJy1waCcsICc3LjAnLCAnLXRuJywgJzgnLCAnLW1hJywgJzIwMCcsICctbWV0YWxfYmluZGluZycsICctaW1hZScsICc8aW5maWxlLm1hZT4nLCAnLW9tYWUnLCAnPG91dGZpbGUubWFlPic=

> <r_epik_Ionization_Penalty>
1.28617

> <r_epik_Ionization_Penalty_Charging>
1.23646

> <r_epik_Ionization_Penalty_Neutral>
0.0497112

> <r_epik_State_Penalty>
1.79157

> <r_epik_Charging_Adjusted_Penalty>
3.02803

> <i_epik_Tot_Q>
2

> <i_epik_Tot_abs_Q>
2

> <r_epik_Metal_State_Penalty>
5.81739

> <b_epik_Metal_Only>
0

> <s_lp_Force_Field>
OPLS_2005

> <r_lp_Energy>
39.1755

> <b_lp_Chiralities_Consistent>
1

> <s_lp_Variant>
AV-unprocessed.smi:1033-13

> <Gold.Version>
5.8.1

> <Gold.Id.Protein>
6NUR|6NUR_protein|mol2

> <Gold.PLP.Fitness>
63.3602

> <Gold.PLP.PLP>
-50.5001

> <Gold.PLP.part.hbond>
-4.2097

> <Gold.PLP.part.metal>
0.0000

> <Gold.PLP.part.buried>
-5.2750

> <Gold.PLP.part.nonpolar>
-41.2985

> <Gold.PLP.part.repulsive>
0.1767

> <Gold.PLP.ligand.clash>
0.1428

> <Gold.PLP.ligand.torsion>
1.1320

> <Gold.PLP.Chemscore.Hbond>
4.9840

> <Gold.PLP.Chemscore.CHOScore>
0.0000

> <Gold.PLP.Chemscore.Metal>
0.0000

> <Gold.Chemscore.Hbonds>
donor molecule, donor type, donor heavy atom, donor atom, acceptor molecule, acceptor atom, score
      L1  H     5    57       P1  8028  1.66
      L1  H    15    56       P1  7948  2.00
      L1  H    19    47       P1  7948  1.00

> <Gold.PLP.Chemscore.Internal.Correction>
0.3149

> <Gold.Rescore>
     Score         DG    S(hbond)    S(metal)    S(lipo)     H(rot)  DE(clash)    DE(int)     intcor
     20.79     -22.22       2.99        0.00     126.58       3.15       0.07       1.35       ----

> <Gold.Chemscore.Fitness>
20.7878

> <Gold.Chemscore.DG>
-22.2157

> <Gold.Chemscore.ZeroCoef>
-5.4800

> <Gold.Chemscore.Hbond>
2.9898

> <Gold.Chemscore.Metal>
0.0000

> <Gold.Chemscore.Lipo>
126.5775

> <Gold.Chemscore.Internal_Hbond>
0.0000

> <Gold.Chemscore.DEClash>
0.0736

> <Gold.Chemscore.DEInternal>
1.3543

> <Gold.Chemscore.Rot>
3.1483

> <Gold.Chemscore.Internal.Correction>
   9.000000E+99

> <Gold.Chemscore.Hbonds>
donor molecule, donor type, donor heavy atom, donor atom, acceptor molecule, acceptor atom, score
      L1  H     5    57       P1  8028  0.77
      L1  H    15    56       P1  7948  0.99
      L1  H    19    47       P1  7948  0.94

> <Gold.Chemscore.Hbond.Weighted>
-9.9858

> <Gold.Chemscore.Metal.Weighted>
-0.0000

> <Gold.Chemscore.Lipo.Weighted>
-14.8096

> <Gold.Chemscore.Internal_Hbond.Weighted>
0.0000

> <Gold.Chemscore.DEClash.Weighted>
0.0736

> <Gold.Chemscore.DEInternal.Weighted>
1.3543

> <Gold.Chemscore.Rot.Weighted>
8.0597

> <Gold.Chemscore.Internal.Correction.Weighted>
   9.000000E+99

> <Gold.Protein.RotatedTorsions>
[ 6907 6896 6895 6894 ] final   80.66 input  -60.11 | X-H torsion
[ 7974 7965 7964 7962 ] final  154.02 input  175.53 | X-H torsion
[ 8008 7997 7996 7995 ] final  -81.94 input   59.86 | X-H torsion
[ 10167 10162 10161 10158 ] final  -58.77 input  -65.29 | X-H torsion
[ 10718 10713 10712 10709 ] final -177.95 input   66.30 | X-H torsion
[ 10763 10752 10751 10750 ] final  177.23 input  -60.55 | X-H torsion
[ 11005 11000 10999 10996 ] final   87.10 input  -57.11 | X-H torsion

> <Gold.Protein.ActiveResidues>
 VAL166  LYS551  ARG553  GLY616  TRP617  ASP618  TYR619  PRO620  LYS621  CYS622 
 ASP623  PHE694  ASN695  SER759  ASP760  ASP761  ALA762  ILE779  LEU786  VAL792 
 PHE793  MET794  SER795  GLU796  ALA797  LYS798  CYS799  TRP800  GLU811  SER814 

> <Gold.Protein.RotatedAtoms>
  152.5242  134.3323  159.9187 H   0  0  0  0  0  0  0  0  0  0  0  0  # atno 6907 bound_to 6896
  151.3272  133.4009  159.2667 H   0  0  0  0  0  0  0  0  0  0  0  0  # atno 6908 bound_to 6896
  150.9910  134.9262  159.7957 H   0  0  0  0  0  0  0  0  0  0  0  0  # atno 6909 bound_to 6896
  144.8116  139.6878  143.6139 H   0  0  0  0  0  0  0  0  0  0  0  0  # atno 7974 bound_to 7965
  154.6035  140.0640  156.9400 H   0  0  0  0  0  0  0  0  0  0  0  0  # atno 8008 bound_to 7997
  155.2092  140.3321  155.4313 H   0  0  0  0  0  0  0  0  0  0  0  0  # atno 8009 bound_to 7997
  156.2333  140.1851  156.7169 H   0  0  0  0  0  0  0  0  0  0  0  0  # atno 8010 bound_to 7997
  140.6176  143.2408  151.5558 H   0  0  0  0  0  0  0  0  0  0  0  0  # atno 10167 bound_to 10162
  156.8371  130.9673  151.3102 H   0  0  0  0  0  0  0  0  0  0  0  0  # atno 10718 bound_to 10713
  154.4917  135.2779  155.1492 H   0  0  0  0  0  0  0  0  0  0  0  0  # atno 10763 bound_to 10752
  154.3161  135.6219  153.5490 H   0  0  0  0  0  0  0  0  0  0  0  0  # atno 10764 bound_to 10752
  152.9889  135.5731  154.5339 H   0  0  0  0  0  0  0  0  0  0  0  0  # atno 10765 bound_to 10752
  139.8928  134.8399  156.2812 H   0  0  0  0  0  0  0  0  0  0  0  0  # atno 11005 bound_to 11000
  146.2415  139.6011  142.9488 LP  0  0  0  0  0  0  0  0  0  0  0  0  # atno 17320 bound_to 7965
  145.5310  141.0427  143.2383 LP  0  0  0  0  0  0  0  0  0  0  0  0  # atno 17321 bound_to 7965
  139.5412  144.2643  152.1353 LP  0  0  0  0  0  0  0  0  0  0  0  0  # atno 17342 bound_to 10162
  140.1856  144.4802  150.6505 LP  0  0  0  0  0  0  0  0  0  0  0  0  # atno 17343 bound_to 10162
  157.6375  130.8779  149.9387 LP  0  0  0  0  0  0  0  0  0  0  0  0  # atno 17370 bound_to 10713
  156.0901  130.3664  150.0411 LP  0  0  0  0  0  0  0  0  0  0  0  0  # atno 17371 bound_to 10713
  141.0037  133.7136  156.1001 LP  0  0  0  0  0  0  0  0  0  0  0  0  # atno 17394 bound_to 11000
  140.7463  134.4095  157.5548 LP  0  0  0  0  0  0  0  0  0  0  0  0  # atno 17395 bound_to 11000

$$$$
