#       Name:                AV-unprocessed.smi:3330
#       Creating user name   scv26
#       Creation time:       Fri Mar 27 19:16:48 2020


#       File generated by GOLD software.
#

@<TRIPOS>MOLECULE
AV-unprocessed.smi:3330
    44    45     1
SMALL
NO_CHARGES


@<TRIPOS>ATOM
      1 ****        -1.9974  -1.1734   2.8314 C.3            1 S1                 0.0000
      2 ****        -1.5507  -0.7604   1.4190 C.3            1 S1                 0.0000
      3 ****        -0.0714  -0.8319   1.3585 N.4            1 S1                 1.0000
      4 ****         0.5890   0.3499   0.7678 C.3            1 S1                 0.0000
      5 ****         2.0808   0.0810   0.5248 C.3            1 S1                 0.0000
      6 ****         2.7285   1.2330  -0.1068 N.am           1 S1                 0.0000
      7 ****         3.3277   2.2251   0.5638 C.2            1 S1                 0.0000
      8 ****         3.4434   2.3403   1.7833 O.2            1 S1                 0.0000
      9 ****         3.8491   3.2331  -0.4371 C.3            1 S1                 0.0000
     10 ****         3.4063   2.5990  -1.6607 N.am           1 S1                 0.0000
     11 ****         2.7589   1.4488  -1.4347 C.2            1 S1                 0.0000
     12 ****         2.2697   0.7266  -2.3020 O.2            1 S1                 0.0000
     13 ****        -2.1919  -1.6406   0.3097 C.3            1 S1                 0.0000
     14 ****        -3.7323  -1.6180   0.3267 C.3            1 S1                 0.0000
     15 ****        -1.7047  -1.2688  -1.0148 N.pl3          1 S1                 0.0000
     16 ****        -2.0730  -0.1997  -1.8088 C.2            1 S1                 0.0000
     17 ****        -1.3017  -0.2415  -2.9346 C.2            1 S1                 0.0000
     18 ****        -0.4731  -1.3802  -2.7351 C.2            1 S1                 0.0000
     19 ****        -0.7103  -1.9866  -1.5835 N.2            1 S1                 0.0000
     20 ****        -3.0680  -1.0293   2.9758 H              1 S1                 0.0000
     21 ****        -1.4938  -0.5738   3.5906 H              1 S1                 0.0000
     22 ****        -1.7696  -2.2210   3.0310 H              1 S1                 0.0000
     23 ****        -1.8604   0.2760   1.2724 H              1 S1                 0.0000
     24 ****         0.2833  -0.9479   2.2969 H              1 S1                 0.0000
     25 ****         0.1090   0.6094  -0.1752 H              1 S1                 0.0000
     26 ****         0.4581   1.2017   1.4362 H              1 S1                 0.0000
     27 ****         2.5765  -0.1602   1.4668 H              1 S1                 0.0000
     28 ****         2.2013  -0.8000  -0.1085 H              1 S1                 0.0000
     29 ****         3.3890   4.2122  -0.3015 H              1 S1                 0.0000
     30 ****         4.9355   3.3169  -0.3970 H              1 S1                 0.0000
     31 ****         3.5667   2.9964  -2.5752 H              1 S1                 0.0000
     32 ****        -1.8907  -2.6755   0.4847 H              1 S1                 0.0000
     33 ****        -4.1313  -2.0823   1.2280 H              1 S1                 0.0000
     34 ****        -4.1413  -2.1707  -0.5199 H              1 S1                 0.0000
     35 ****        -4.1201  -0.6001   0.2770 H              1 S1                 0.0000
     36 ****        -2.8405   0.4987  -1.5095 H              1 S1                 0.0000
     37 ****        -1.3220   0.4404  -3.7717 H              1 S1                 0.0000
     38 ****         0.2931  -1.7771  -3.3846 H              1 S1                 0.0000
     39 ****         0.1794  -1.6480   0.8180 H              1 S1                 0.0000
     40 ****         3.0647   1.6411   2.3897 LP             1 S1                 0.0000
     41 ****         3.9161   3.1331   2.1680 LP             1 S1                 0.0000
     42 ****         1.7931  -0.1135  -2.0428 LP             1 S1                 0.0000
     43 ****         2.3485   0.9795  -3.2663 LP             1 S1                 0.0000
     44 ****        -0.2547  -2.7970  -1.2151 LP             1 S1                 0.0000
@<TRIPOS>BOND
    1    1    2 1     
    2    1   20 1     
    3    1   21 1     
    4    1   22 1     
    5    2    3 1     
    6    2   13 1     
    7    2   23 1     
    8    3    4 1     
    9    3   24 1     
   10    3   39 1     
   11    4    5 1     
   12    4   25 1     
   13    4   26 1     
   14    5    6 1     
   15    5   27 1     
   16    5   28 1     
   17    6   11 am    
   18    6    7 am    
   19    7    8 2     
   20    7    9 1     
   21    9   10 1     
   22    9   29 1     
   23    9   30 1     
   24   10   11 am    
   25   10   31 1     
   26   11   12 2     
   27   13   14 1     
   28   13   15 1     
   29   13   32 1     
   30   14   33 1     
   31   14   34 1     
   32   14   35 1     
   33   15   19 1     
   34   15   16 1     
   35   16   17 2     
   36   16   36 1     
   37   17   18 1     
   38   17   37 1     
   39   18   19 2     
   40   18   38 1     
   41    8   40 1     
   42    8   41 1     
   43   12   42 1     
   44   12   43 1     
   45   19   44 1     
@<TRIPOS>SUBSTRUCTURE
      1 S1             1
@<TRIPOS>SET
LONE_PAIRS      STATIC     ATOMS    <user>   **** ""
5 40 41 42 43 44
DONOR_HYDROGENS      STATIC     ATOMS    <user>   **** ""
3 24 39 31
ATOM$BLUE        STATIC     ATOMS    COLORGROUP SYSTEM
5 40 41 42 43 44
ATOM$RED        STATIC     ATOMS    COLORGROUP SYSTEM
3 24 39 31
