AV-unprocessed.smi:3131|AV-procd|sdf|11927|dock3
  -GOLD-   2272017313D 1   1.00000     0.00000
 Structure written by MMmdl.
 43 43  0  0  0  0  0  0  0  0  2 V2000
  153.0551  141.4716  159.8603 C   0  0  0  0  0  0  0  0  0  0  0  0
  152.9132  143.0007  159.8241 C   0  0  0  0  0  0  0  0  0  0  0  0
  152.1470  143.5426  158.5937 C   0  0  0  0  0  0  0  0  0  0  0  0
  152.0530  145.0876  158.6293 C   0  0  0  0  0  0  0  0  0  0  0  0
  151.4610  145.6566  159.9275 C   0  0  0  0  0  0  0  0  0  0  0  0
  150.7395  142.9130  158.4921 C   0  0  0  0  0  0  0  0  0  0  0  0
  150.3533  142.6583  157.0898 N   0  3  0  0  0  0  0  0  0  0  0  0
  149.2247  141.7166  156.9311 C   0  0  0  0  0  0  0  0  0  0  0  0
  149.1606  141.1302  155.5042 C   0  0  1  0  0  0  0  0  0  0  0  0
  147.7870  140.4858  155.2479 C   0  0  0  0  0  0  0  0  0  0  0  0
  149.2551  142.2141  154.5987 O   0  0  0  0  0  0  0  0  0  0  0  0
  150.2615  140.1138  155.2852 C   0  0  0  0  0  0  0  0  0  0  0  0
  150.4206  139.1996  154.2019 C   0  0  0  0  0  0  0  0  0  0  0  0
  151.5084  138.4548  154.3078 N   0  0  0  0  0  0  0  0  0  0  0  0
  152.0793  138.8566  155.4605 N   0  0  0  0  0  0  0  0  0  0  0  0
  153.3115  138.2381  155.9002 C   0  0  0  0  0  0  0  0  0  0  0  0
  151.3508  139.8538  156.0712 C   0  0  0  0  0  0  0  0  0  0  0  0
  153.6854  141.1665  160.6961 H   0  0  0  0  0  0  0  0  0  0  0  0
  153.5172  141.0966  158.9469 H   0  0  0  0  0  0  0  0  0  0  0  0
  152.0952  140.9715  159.9840 H   0  0  0  0  0  0  0  0  0  0  0  0
  152.4353  143.3466  160.7415 H   0  0  0  0  0  0  0  0  0  0  0  0
  153.9212  143.4123  159.8425 H   0  0  0  0  0  0  0  0  0  0  0  0
  152.7064  143.2604  157.7001 H   0  0  0  0  0  0  0  0  0  0  0  0
  153.0471  145.5206  158.5166 H   0  0  0  0  0  0  0  0  0  0  0  0
  151.4760  145.4449  157.7755 H   0  0  0  0  0  0  0  0  0  0  0  0
  151.5113  146.7458  159.9256 H   0  0  0  0  0  0  0  0  0  0  0  0
  152.0112  145.3038  160.8002 H   0  0  0  0  0  0  0  0  0  0  0  0
  150.4142  145.3841  160.0564 H   0  0  0  0  0  0  0  0  0  0  0  0
  150.7051  141.9586  159.0155 H   0  0  0  0  0  0  0  0  0  0  0  0
  150.0004  143.5605  158.9657 H   0  0  0  0  0  0  0  0  0  0  0  0
  150.0961  143.5360  156.6610 H   0  0  0  0  0  0  0  0  0  0  0  0
  149.3432  140.9105  157.6568 H   0  0  0  0  0  0  0  0  0  0  0  0
  148.2915  142.2261  157.1769 H   0  0  0  0  0  0  0  0  0  0  0  0
  147.6042  139.6535  155.9285 H   0  0  0  0  0  0  0  0  0  0  0  0
  147.7141  140.0988  154.2305 H   0  0  0  0  0  0  0  0  0  0  0  0
  146.9765  141.2025  155.3862 H   0  0  0  0  0  0  0  0  0  0  0  0
  149.0945  143.0181  155.0692 H   0  0  0  0  0  0  0  0  0  0  0  0
  149.7833  139.0602  153.3410 H   0  0  0  0  0  0  0  0  0  0  0  0
  153.6841  138.7398  156.7940 H   0  0  0  0  0  0  0  0  0  0  0  0
  154.0639  138.3109  155.1140 H   0  0  0  0  0  0  0  0  0  0  0  0
  153.1343  137.1873  156.1312 H   0  0  0  0  0  0  0  0  0  0  0  0
  151.6653  140.2947  157.0056 H   0  0  0  0  0  0  0  0  0  0  0  0
  151.1518  142.2837  156.5973 H   0  0  0  0  0  0  0  0  0  0  0  0
  1  2  1  0  0  0  0
  1 18  1  0  0  0  0
  1 19  1  0  0  0  0
  1 20  1  0  0  0  0
  2  3  1  0  0  0  0
  2 21  1  0  0  0  0
  2 22  1  0  0  0  0
  3  4  1  0  0  0  0
  3  6  1  0  0  0  0
  3 23  1  0  0  0  0
  4  5  1  0  0  0  0
  4 24  1  0  0  0  0
  4 25  1  0  0  0  0
  5 26  1  0  0  0  0
  5 27  1  0  0  0  0
  5 28  1  0  0  0  0
  6  7  1  0  0  0  0
  6 29  1  0  0  0  0
  6 30  1  0  0  0  0
  7  8  1  0  0  0  0
  7 31  1  0  0  0  0
  7 43  1  0  0  0  0
  8  9  1  0  0  0  0
  8 32  1  0  0  0  0
  8 33  1  0  0  0  0
  9 10  1  0  0  0  0
  9 11  1  0  0  0  0
  9 12  1  0  0  0  0
 10 34  1  0  0  0  0
 10 35  1  0  0  0  0
 10 36  1  0  0  0  0
 11 37  1  0  0  0  0
 12 17  2  0  0  0  0
 12 13  1  0  0  0  0
 13 14  2  0  0  0  0
 13 38  1  0  0  0  0
 14 15  1  0  0  0  0
 15 16  1  0  0  0  0
 15 17  1  0  0  0  0
 16 39  1  0  0  0  0
 16 40  1  0  0  0  0
 16 41  1  0  0  0  0
 17 42  1  0  0  0  0
M  CHG  1   7   1
M  END
> <s_m_source_file>
AV-unprocessed.smi

> <i_m_source_file_index>
3131

> <i_lp_mmshare_version>
43012

> <i_f3d_flags>
0

> <s_epik_input>
W0NIM11bQ0gyXVtDSF0oW0NIMl1bQ0gzXSlbQ0gyXVtOSF1bQ0gyXVtDQEBdKFtDSDNdKShbT0hdKWMxW2NIXW5uKFtDSDNdKVtjSF0x

> <s_epik_cmdline>
J2VwaWtfcHl0aG9uJywgJy1waCcsICc3LjAnLCAnLXRuJywgJzgnLCAnLW1hJywgJzIwMCcsICctbWV0YWxfYmluZGluZycsICctaW1hZScsICc8aW5maWxlLm1hZT4nLCAnLW9tYWUnLCAnPG91dGZpbGUubWFlPic=

> <r_lp_tautomer_probability>
1

> <r_epik_Ionization_Penalty>
0.00304809

> <r_epik_Ionization_Penalty_Charging>
0.00302982

> <r_epik_Ionization_Penalty_Neutral>
1.82731e-05

> <r_epik_State_Penalty>
0.00212874

> <r_epik_Charging_Adjusted_Penalty>
0.00515857

> <i_epik_Tot_Q>
1

> <i_epik_Tot_abs_Q>
1

> <r_epik_Metal_State_Penalty>
-0

> <b_epik_Metal_Only>
0

> <s_lp_Force_Field>
OPLS_2005

> <r_lp_Energy>
10.206

> <b_lp_Chiralities_Consistent>
1

> <s_lp_Variant>
AV-unprocessed.smi:3131-1

> <Gold.Version>
5.8.1

> <Gold.Id.Protein>
6NUR|6NUR_protein|mol2

> <Gold.PLP.Fitness>
51.0763

> <Gold.PLP.PLP>
-41.0347

> <Gold.PLP.part.hbond>
-3.0000

> <Gold.PLP.part.metal>
0.0000

> <Gold.PLP.part.buried>
-3.2707

> <Gold.PLP.part.nonpolar>
-35.2139

> <Gold.PLP.part.repulsive>
0.1895

> <Gold.PLP.ligand.clash>
0.0000

> <Gold.PLP.ligand.torsion>
1.2096

> <Gold.PLP.Chemscore.Hbond>
3.0507

> <Gold.PLP.Chemscore.CHOScore>
1.0000

> <Gold.PLP.Chemscore.Metal>
0.0000

> <Gold.Chemscore.Hbonds>
donor molecule, donor type, donor heavy atom, donor atom, acceptor molecule, acceptor atom, score
      L1  H     7    31       P1  8028  2.00
      L1  H    11    37       P1  8028  1.00
      P1  H  8011  8017       L1    11  0.06
      L1  C    13    38       P1  7957  1.00

> <Gold.PLP.Chemscore.Internal.Correction>
0.3087

> <Gold.Rescore>
     Score         DG    S(hbond)    S(metal)    S(lipo)     H(rot)  DE(clash)    DE(int)     intcor
     18.12     -19.39       2.06        0.00     111.30       2.34       0.26       1.01       ----

> <Gold.Chemscore.Fitness>
18.1208

> <Gold.Chemscore.DG>
-19.3925

> <Gold.Chemscore.ZeroCoef>
-5.4800

> <Gold.Chemscore.Hbond>
2.0623

> <Gold.Chemscore.Metal>
0.0000

> <Gold.Chemscore.Lipo>
111.2951

> <Gold.Chemscore.Internal_Hbond>
0.0000

> <Gold.Chemscore.DEClash>
0.2618

> <Gold.Chemscore.DEInternal>
1.0098

> <Gold.Chemscore.Rot>
2.3426

> <Gold.Chemscore.Internal.Correction>
   9.000000E+99

> <Gold.Chemscore.Hbonds>
donor molecule, donor type, donor heavy atom, donor atom, acceptor molecule, acceptor atom, score
      L1  H     7    31       P1  8028  0.96
      L1  H    11    37       P1  8028  1.00
      P1  H  8011  8017       L1    11  0.06

> <Gold.Chemscore.Hbond.Weighted>
-6.8881

> <Gold.Chemscore.Metal.Weighted>
-0.0000

> <Gold.Chemscore.Lipo.Weighted>
-13.0215

> <Gold.Chemscore.Internal_Hbond.Weighted>
0.0000

> <Gold.Chemscore.DEClash.Weighted>
0.2618

> <Gold.Chemscore.DEInternal.Weighted>
1.0098

> <Gold.Chemscore.Rot.Weighted>
5.9972

> <Gold.Chemscore.Internal.Correction.Weighted>
   9.000000E+99

> <Gold.Protein.RotatedTorsions>
[ 6907 6896 6895 6894 ] final  -30.25 input  -60.11 | X-H torsion
[ 7974 7965 7964 7962 ] final   60.31 input  175.53 | X-H torsion
[ 8008 7997 7996 7995 ] final  157.60 input   59.86 | X-H torsion
[ 10167 10162 10161 10158 ] final   76.59 input  -65.29 | X-H torsion
[ 10718 10713 10712 10709 ] final   41.24 input   66.30 | X-H torsion
[ 10763 10752 10751 10750 ] final  -65.77 input  -60.55 | X-H torsion
[ 11005 11000 10999 10996 ] final  160.96 input  -57.11 | X-H torsion

> <Gold.Protein.ActiveResidues>
 VAL166  LYS551  ARG553  GLY616  TRP617  ASP618  TYR619  PRO620  LYS621  CYS622 
 ASP623  PHE694  ASN695  SER759  ASP760  ASP761  ALA762  ILE779  LEU786  VAL792 
 PHE793  MET794  SER795  GLU796  ALA797  LYS798  CYS799  TRP800  GLU811  SER814 

> <Gold.Protein.RotatedAtoms>
  151.1081  135.0011  159.8480 H   0  0  0  0  0  0  0  0  0  0  0  0  # atno 6907 bound_to 6896
  152.5441  134.1868  159.8668 H   0  0  0  0  0  0  0  0  0  0  0  0  # atno 6908 bound_to 6896
  151.1917  133.4619  159.2628 H   0  0  0  0  0  0  0  0  0  0  0  0  # atno 6909 bound_to 6896
  145.8974  139.3556  143.0613 H   0  0  0  0  0  0  0  0  0  0  0  0  # atno 7974 bound_to 7965
  156.2354  140.1881  156.7133 H   0  0  0  0  0  0  0  0  0  0  0  0  # atno 8008 bound_to 7997
  154.6097  140.0624  156.9505 H   0  0  0  0  0  0  0  0  0  0  0  0  # atno 8009 bound_to 7997
  155.2036  140.3294  155.4342 H   0  0  0  0  0  0  0  0  0  0  0  0  # atno 8010 bound_to 7997
  139.9906  144.5760  150.7821 H   0  0  0  0  0  0  0  0  0  0  0  0  # atno 10167 bound_to 10162
  157.3914  130.7808  149.7272 H   0  0  0  0  0  0  0  0  0  0  0  0  # atno 10718 bound_to 10713
  154.3500  135.6138  153.5638 H   0  0  0  0  0  0  0  0  0  0  0  0  # atno 10763 bound_to 10752
  152.9799  135.5790  154.4754 H   0  0  0  0  0  0  0  0  0  0  0  0  # atno 10764 bound_to 10752
  154.4473  135.2852  155.1783 H   0  0  0  0  0  0  0  0  0  0  0  0  # atno 10765 bound_to 10752
  140.2110  134.8267  157.3121 H   0  0  0  0  0  0  0  0  0  0  0  0  # atno 11005 bound_to 11000
  145.8833  140.9349  143.0590 LP  0  0  0  0  0  0  0  0  0  0  0  0  # atno 17320 bound_to 7965
  144.6734  140.0808  143.7469 LP  0  0  0  0  0  0  0  0  0  0  0  0  # atno 17321 bound_to 7965
  140.7456  143.2878  151.3415 LP  0  0  0  0  0  0  0  0  0  0  0  0  # atno 17342 bound_to 10162
  139.6343  144.0661  152.2502 LP  0  0  0  0  0  0  0  0  0  0  0  0  # atno 17343 bound_to 10162
  155.9799  130.4035  150.3559 LP  0  0  0  0  0  0  0  0  0  0  0  0  # atno 17370 bound_to 10713
  157.1675  131.0360  151.2811 LP  0  0  0  0  0  0  0  0  0  0  0  0  # atno 17371 bound_to 10713
  140.1950  134.4324  155.7694 LP  0  0  0  0  0  0  0  0  0  0  0  0  # atno 17394 bound_to 11000
  141.2226  133.7045  156.8091 LP  0  0  0  0  0  0  0  0  0  0  0  0  # atno 17395 bound_to 11000

$$$$
