AV-unprocessed.smi:2122|AV-procd|sdf|8646|dock7
  -GOLD-   2272011393D 1   1.00000     0.00000
 Structure written by MMmdl.
 41 41  0  0  0  0  0  0  0  0  1 V2000
  151.8946  145.1196  159.4985 C   0  0  0  0  0  0  0  0  0  0  0  0
  152.5303  143.9013  160.1769 C   0  0  0  0  0  0  0  0  0  0  0  0
  152.6681  142.7039  159.2274 C   0  0  0  0  0  0  0  0  0  0  0  0
  151.3854  141.8574  159.1636 C   0  0  0  0  0  0  0  0  0  0  0  0
  151.2063  141.2124  157.8783 N   0  0  0  0  0  0  0  0  0  0  0  0
  150.1768  141.5286  156.9872 C   0  0  0  0  0  0  0  0  0  0  0  0
  149.2788  142.5229  157.3438 N   0  0  0  0  0  0  0  0  0  0  0  0
  150.0510  140.9074  155.7790 C   0  0  0  0  0  0  0  0  0  0  0  0
  149.0278  141.2057  154.8807 N   0  0  0  0  0  0  0  0  0  0  0  0
  148.0354  142.2174  155.2149 C   0  0  0  0  0  0  0  0  0  0  0  0
  148.6884  140.3720  153.7274 C   0  0  0  0  0  0  0  0  0  0  0  0
  147.2578  139.8091  153.7699 C   0  0  0  0  0  0  0  0  0  0  0  0
  146.6993  139.8819  152.4693 O   0  0  0  0  0  0  0  0  0  0  0  0
  146.4304  138.6026  151.9229 C   0  0  0  0  0  0  0  0  0  0  0  0
  151.0042  139.8648  155.3773 C   0  0  0  0  0  0  0  0  0  0  0  0
  150.9701  139.2257  154.3262 O   0  0  0  0  0  0  0  0  0  0  0  0
  152.0201  139.6122  156.2958 N   0  0  0  0  0  0  0  0  0  0  0  0
  152.1763  140.2446  157.5241 C   0  0  0  0  0  0  0  0  0  0  0  0
  153.1324  139.9459  158.2407 O   0  0  0  0  0  0  0  0  0  0  0  0
  152.7038  138.9124  156.0463 H   0  0  0  0  0  0  0  0  0  0  0  0
  151.8068  145.9520  160.1969 H   0  0  0  0  0  0  0  0  0  0  0  0
  150.8954  144.8876  159.1295 H   0  0  0  0  0  0  0  0  0  0  0  0
  152.4945  145.4567  158.6526 H   0  0  0  0  0  0  0  0  0  0  0  0
  153.5124  144.1770  160.5630 H   0  0  0  0  0  0  0  0  0  0  0  0
  151.9283  143.6155  161.0400 H   0  0  0  0  0  0  0  0  0  0  0  0
  152.9182  143.0609  158.2274 H   0  0  0  0  0  0  0  0  0  0  0  0
  153.5041  142.0823  159.5505 H   0  0  0  0  0  0  0  0  0  0  0  0
  151.3628  141.0853  159.9347 H   0  0  0  0  0  0  0  0  0  0  0  0
  150.4979  142.4629  159.3446 H   0  0  0  0  0  0  0  0  0  0  0  0
  149.3569  143.0134  158.2232 H   0  0  0  0  0  0  0  0  0  0  0  0
  148.5154  142.7960  156.7421 H   0  0  0  0  0  0  0  0  0  0  0  0
  148.3008  142.7478  156.1304 H   0  0  0  0  0  0  0  0  0  0  0  0
  147.0573  141.7586  155.3636 H   0  0  0  0  0  0  0  0  0  0  0  0
  147.9543  142.9521  154.4134 H   0  0  0  0  0  0  0  0  0  0  0  0
  148.8285  140.9560  152.8170 H   0  0  0  0  0  0  0  0  0  0  0  0
  149.3921  139.5400  153.6726 H   0  0  0  0  0  0  0  0  0  0  0  0
  147.2745  138.7718  154.1090 H   0  0  0  0  0  0  0  0  0  0  0  0
  146.6379  140.3765  154.4656 H   0  0  0  0  0  0  0  0  0  0  0  0
  146.0020  138.7120  150.9267 H   0  0  0  0  0  0  0  0  0  0  0  0
  145.7163  138.0527  152.5374 H   0  0  0  0  0  0  0  0  0  0  0  0
  147.3435  138.0125  151.8335 H   0  0  0  0  0  0  0  0  0  0  0  0
  1  2  1  0  0  0  0
  1 21  1  0  0  0  0
  1 22  1  0  0  0  0
  1 23  1  0  0  0  0
  2  3  1  0  0  0  0
  2 24  1  0  0  0  0
  2 25  1  0  0  0  0
  3  4  1  0  0  0  0
  3 26  1  0  0  0  0
  3 27  1  0  0  0  0
  4  5  1  0  0  0  0
  4 28  1  0  0  0  0
  4 29  1  0  0  0  0
  5 18  1  0  0  0  0
  5  6  1  0  0  0  0
  6  7  1  0  0  0  0
  6  8  2  0  0  0  0
  7 30  1  0  0  0  0
  7 31  1  0  0  0  0
  8  9  1  0  0  0  0
  8 15  1  0  0  0  0
  9 10  1  0  0  0  0
  9 11  1  0  0  0  0
 10 32  1  0  0  0  0
 10 33  1  0  0  0  0
 10 34  1  0  0  0  0
 11 12  1  0  0  0  0
 11 35  1  0  0  0  0
 11 36  1  0  0  0  0
 12 13  1  0  0  0  0
 12 37  1  0  0  0  0
 12 38  1  0  0  0  0
 13 14  1  0  0  0  0
 14 39  1  0  0  0  0
 14 40  1  0  0  0  0
 14 41  1  0  0  0  0
 15 16  2  0  0  0  0
 15 17  1  0  0  0  0
 17 20  1  0  0  0  0
 17 18  1  0  0  0  0
 18 19  2  0  0  0  0
M  END
> <s_m_source_file>
AV-unprocessed.smi

> <i_m_source_file_index>
2122

> <i_lp_mmshare_version>
43012

> <i_f3d_flags>
0

> <s_epik_input>
W0NIM11bQ0gyXVtDSDJdW0NIMl1uMWMoW05IMl0pYyhjKD1PKVtuSF1jMT1PKU4oW0NIM10pW0NIMl1bQ0gyXU9bQ0gzXQ==

> <s_epik_cmdline>
J2VwaWtfcHl0aG9uJywgJy1waCcsICc3LjAnLCAnLXRuJywgJzgnLCAnLW1hJywgJzIwMCcsICctbWV0YWxfYmluZGluZycsICctaW1hZScsICc8aW5maWxlLm1hZT4nLCAnLW9tYWUnLCAnPG91dGZpbGUubWFlPic=

> <r_lp_tautomer_probability>
1

> <r_epik_Ionization_Penalty>
2.26322e-05

> <r_epik_Ionization_Penalty_Charging>
2.75876e-06

> <r_epik_Ionization_Penalty_Neutral>
1.98734e-05

> <r_epik_State_Penalty>
-0

> <r_epik_Charging_Adjusted_Penalty>
2.75876e-06

> <i_epik_Tot_Q>
0

> <i_epik_Tot_abs_Q>
0

> <r_epik_Metal_State_Penalty>
-0

> <b_epik_Metal_Only>
0

> <s_epik_Chemistry_Notes>
This compound has an imine and may undergo hydrolysis.

> <s_lp_Force_Field>
OPLS_2005

> <r_lp_Energy>
20.5532

> <b_lp_Chiralities_Consistent>
1

> <s_lp_Variant>
AV-unprocessed.smi:2122-1

> <Gold.Version>
5.8.1

> <Gold.Id.Protein>
6NUR|6NUR_protein|mol2

> <Gold.PLP.Fitness>
38.9500

> <Gold.PLP.PLP>
-36.7669

> <Gold.PLP.part.hbond>
-3.0000

> <Gold.PLP.part.metal>
0.0000

> <Gold.PLP.part.buried>
3.3892

> <Gold.PLP.part.nonpolar>
-39.2525

> <Gold.PLP.part.repulsive>
1.4803

> <Gold.PLP.ligand.clash>
20.2349

> <Gold.PLP.ligand.torsion>
1.1248

> <Gold.PLP.Chemscore.Hbond>
1.4108

> <Gold.PLP.Chemscore.CHOScore>
0.0000

> <Gold.PLP.Chemscore.Metal>
0.0000

> <Gold.Chemscore.Hbonds>
donor molecule, donor type, donor heavy atom, donor atom, acceptor molecule, acceptor atom, score
      L1  H     7    31       P1  8028  0.14
      P1  H  7989  7998       L1    16  0.30
      P1  H  7997  8009       L1    19  1.00

> <Gold.PLP.Chemscore.Internal.Correction>
20.4353

> <Gold.Rescore>
     Score         DG    S(hbond)    S(metal)    S(lipo)     H(rot)  DE(clash)    DE(int)     intcor
      4.26     -13.10       0.93        0.00      85.70       2.16       3.31       5.54       ----

> <Gold.Chemscore.Fitness>
4.2599

> <Gold.Chemscore.DG>
-13.1045

> <Gold.Chemscore.ZeroCoef>
-5.4800

> <Gold.Chemscore.Hbond>
0.9348

> <Gold.Chemscore.Metal>
0.0000

> <Gold.Chemscore.Lipo>
85.6951

> <Gold.Chemscore.Internal_Hbond>
0.0000

> <Gold.Chemscore.DEClash>
3.3075

> <Gold.Chemscore.DEInternal>
5.5371

> <Gold.Chemscore.Rot>
2.1579

> <Gold.Chemscore.Internal.Correction>
   9.000000E+99

> <Gold.Chemscore.Hbonds>
donor molecule, donor type, donor heavy atom, donor atom, acceptor molecule, acceptor atom, score
      L1  H     7    31       P1  8028  0.11
      P1  H  7997  8009       L1    19  0.25

> <Gold.Chemscore.Hbond.Weighted>
-3.1223

> <Gold.Chemscore.Metal.Weighted>
-0.0000

> <Gold.Chemscore.Lipo.Weighted>
-10.0263

> <Gold.Chemscore.Internal_Hbond.Weighted>
0.0000

> <Gold.Chemscore.DEClash.Weighted>
3.3075

> <Gold.Chemscore.DEInternal.Weighted>
5.5371

> <Gold.Chemscore.Rot.Weighted>
5.5241

> <Gold.Chemscore.Internal.Correction.Weighted>
   9.000000E+99

> <Gold.Protein.RotatedTorsions>
[ 6907 6896 6895 6894 ] final  177.69 input  -60.11 | X-H torsion
[ 7974 7965 7964 7962 ] final  107.59 input  175.53 | X-H torsion
[ 8008 7997 7996 7995 ] final  158.22 input   59.86 | X-H torsion
[ 10167 10162 10161 10158 ] final  102.90 input  -65.29 | X-H torsion
[ 10718 10713 10712 10709 ] final  135.15 input   66.30 | X-H torsion
[ 10763 10752 10751 10750 ] final -178.90 input  -60.55 | X-H torsion
[ 11005 11000 10999 10996 ] final  154.66 input  -57.11 | X-H torsion

> <Gold.Protein.ActiveResidues>
 VAL166  LYS551  ARG553  GLY616  TRP617  ASP618  TYR619  PRO620  LYS621  CYS622 
 ASP623  PHE694  ASN695  SER759  ASP760  ASP761  ALA762  ILE779  LEU786  VAL792 
 PHE793  MET794  SER795  GLU796  ALA797  LYS798  CYS799  TRP800  GLU811  SER814 

> <Gold.Protein.RotatedAtoms>
  151.6999  133.3311  159.3263 H   0  0  0  0  0  0  0  0  0  0  0  0  # atno 6907 bound_to 6896
  150.7741  134.6625  159.6357 H   0  0  0  0  0  0  0  0  0  0  0  0  # atno 6908 bound_to 6896
  152.3776  134.6642  160.0206 H   0  0  0  0  0  0  0  0  0  0  0  0  # atno 6909 bound_to 6896
  145.2916  139.2598  143.3862 H   0  0  0  0  0  0  0  0  0  0  0  0  # atno 7974 bound_to 7965
  156.2316  140.1864  156.7228 H   0  0  0  0  0  0  0  0  0  0  0  0  # atno 8008 bound_to 7997
  154.6032  140.0633  156.9424 H   0  0  0  0  0  0  0  0  0  0  0  0  # atno 8009 bound_to 7997
  155.2139  140.3302  155.4327 H   0  0  0  0  0  0  0  0  0  0  0  0  # atno 8010 bound_to 7997
  139.7309  144.7036  151.0723 H   0  0  0  0  0  0  0  0  0  0  0  0  # atno 10167 bound_to 10162
  157.4600  131.1072  150.9932 H   0  0  0  0  0  0  0  0  0  0  0  0  # atno 10718 bound_to 10713
  154.5419  135.2806  155.1087 H   0  0  0  0  0  0  0  0  0  0  0  0  # atno 10763 bound_to 10752
  154.2567  135.6329  153.5263 H   0  0  0  0  0  0  0  0  0  0  0  0  # atno 10764 bound_to 10752
  152.9981  135.5595  154.5961 H   0  0  0  0  0  0  0  0  0  0  0  0  # atno 10765 bound_to 10752
  140.1510  134.8675  157.2454 H   0  0  0  0  0  0  0  0  0  0  0  0  # atno 11005 bound_to 11000
  146.3183  140.3409  142.8648 LP  0  0  0  0  0  0  0  0  0  0  0  0  # atno 17320 bound_to 7965
  144.9168  140.7821  143.5773 LP  0  0  0  0  0  0  0  0  0  0  0  0  # atno 17321 bound_to 7965
  140.7771  143.5044  150.9731 LP  0  0  0  0  0  0  0  0  0  0  0  0  # atno 17342 bound_to 10162
  139.8732  143.7166  152.3164 LP  0  0  0  0  0  0  0  0  0  0  0  0  # atno 17343 bound_to 10162
  157.0732  130.5873  149.5406 LP  0  0  0  0  0  0  0  0  0  0  0  0  # atno 17370 bound_to 10713
  156.0024  130.5105  150.7711 LP  0  0  0  0  0  0  0  0  0  0  0  0  # atno 17371 bound_to 10713
  140.2605  134.3577  155.7408 LP  0  0  0  0  0  0  0  0  0  0  0  0  # atno 17394 bound_to 11000
  141.2199  133.7367  156.9073 LP  0  0  0  0  0  0  0  0  0  0  0  0  # atno 17395 bound_to 11000

$$$$
