AV-unprocessed.smi:3252|AV-procd|sdf|12442|dock1
  -GOLD-   2272018333D 1   1.00000     0.00000
 Structure written by MMmdl.
 37 38  0  0  0  0  0  0  0  0  2 V2000
  143.1890  137.4559  154.9593 C   0  0  0  0  0  0  0  0  0  0  0  0
  144.3435  138.3490  155.4353 C   0  0  0  0  0  0  0  0  0  0  0  0
  145.0924  138.9625  154.3103 N   0  3  2  0  0  0  0  0  0  0  0  0
  145.7693  137.9485  153.4677 C   0  0  0  0  0  0  0  0  0  0  0  0
  146.4962  138.6215  152.2925 C   0  0  0  0  0  0  0  0  0  0  0  0
  147.4152  139.5832  152.7932 O   0  0  0  0  0  0  0  0  0  0  0  0
  146.7667  140.6246  153.5166 C   0  0  2  0  0  0  0  0  0  0  0  0
  147.8299  141.6492  153.9359 C   0  0  0  0  0  0  0  0  0  0  0  0
  149.1741  141.0958  153.8469 N   0  0  0  0  0  0  0  0  0  0  0  0
  149.9398  140.8879  155.0019 C   0  0  0  0  0  0  0  0  0  0  0  0
  149.4303  141.3337  156.2398 C   0  0  0  0  0  0  0  0  0  0  0  0
  150.1938  141.1230  157.4049 C   0  0  0  0  0  0  0  0  0  0  0  0
  151.4390  140.4737  157.2910 C   0  0  0  0  0  0  0  0  0  0  0  0
  152.2622  140.2301  158.4631 C   0  0  0  0  0  0  0  0  0  0  0  0
  152.9177  140.0365  159.3966 N   0  0  0  0  0  0  0  0  0  0  0  0
  151.8650  140.0651  156.0108 C   0  0  0  0  0  0  0  0  0  0  0  0
  151.1369  140.2640  154.8905 N   0  0  0  0  0  0  0  0  0  0  0  0
  146.0571  140.0063  154.7376 C   0  0  0  0  0  0  0  0  0  0  0  0
  142.7241  136.9496  155.8054 H   0  0  0  0  0  0  0  0  0  0  0  0
  143.5422  136.6879  154.2705 H   0  0  0  0  0  0  0  0  0  0  0  0
  142.4083  138.0272  154.4577 H   0  0  0  0  0  0  0  0  0  0  0  0
  143.9776  139.1249  156.1093 H   0  0  0  0  0  0  0  0  0  0  0  0
  145.0259  137.7291  156.0186 H   0  0  0  0  0  0  0  0  0  0  0  0
  146.4812  137.3857  154.0737 H   0  0  0  0  0  0  0  0  0  0  0  0
  145.0388  137.2349  153.0846 H   0  0  0  0  0  0  0  0  0  0  0  0
  147.0442  137.8778  151.7138 H   0  0  0  0  0  0  0  0  0  0  0  0
  145.7868  139.0950  151.6123 H   0  0  0  0  0  0  0  0  0  0  0  0
  146.0286  141.1145  152.8782 H   0  0  0  0  0  0  0  0  0  0  0  0
  147.7729  142.5213  153.2831 H   0  0  0  0  0  0  0  0  0  0  0  0
  147.6398  141.9948  154.9530 H   0  0  0  0  0  0  0  0  0  0  0  0
  149.5025  140.7454  152.9586 H   0  0  0  0  0  0  0  0  0  0  0  0
  148.4716  141.8284  156.3007 H   0  0  0  0  0  0  0  0  0  0  0  0
  149.8251  141.4551  158.3648 H   0  0  0  0  0  0  0  0  0  0  0  0
  152.8129  139.5644  155.8759 H   0  0  0  0  0  0  0  0  0  0  0  0
  145.5405  140.7927  155.2870 H   0  0  0  0  0  0  0  0  0  0  0  0
  146.7899  139.5693  155.4183 H   0  0  0  0  0  0  0  0  0  0  0  0
  144.4092  139.4140  153.7189 H   0  0  0  0  0  0  0  0  0  0  0  0
  1  2  1  0  0  0  0
  1 19  1  0  0  0  0
  1 20  1  0  0  0  0
  1 21  1  0  0  0  0
  2  3  1  0  0  0  0
  2 22  1  0  0  0  0
  2 23  1  0  0  0  0
  3 18  1  0  0  0  0
  3  4  1  0  0  0  0
  3 37  1  0  0  0  0
  4  5  1  0  0  0  0
  4 24  1  0  0  0  0
  4 25  1  0  0  0  0
  5  6  1  0  0  0  0
  5 26  1  0  0  0  0
  5 27  1  0  0  0  0
  6  7  1  0  0  0  0
  7  8  1  0  0  0  0
  7 18  1  0  0  0  0
  7 28  1  0  0  0  0
  8  9  1  0  0  0  0
  8 29  1  0  0  0  0
  8 30  1  0  0  0  0
  9 10  1  0  0  0  0
  9 31  1  0  0  0  0
 10 17  1  0  0  0  0
 10 11  2  0  0  0  0
 11 12  1  0  0  0  0
 11 32  1  0  0  0  0
 12 13  2  0  0  0  0
 12 33  1  0  0  0  0
 13 14  1  0  0  0  0
 13 16  1  0  0  0  0
 14 15  3  0  0  0  0
 16 17  2  0  0  0  0
 16 34  1  0  0  0  0
 18 35  1  0  0  0  0
 18 36  1  0  0  0  0
M  CHG  1   3   1
M  END
> <s_m_source_file>
AV-unprocessed.smi

> <i_m_source_file_index>
3252

> <i_lp_mmshare_version>
43012

> <i_f3d_flags>
0

> <s_epik_input>
W0NIM11bQ0gyXU4xW0NIMl1bQ0gyXU9bQ0BIXShbQ0gyXTEpW0NIMl1bTkhdYzJbY0hdW2NIXWMoQyNOKVtjSF1uMg==

> <s_epik_cmdline>
J2VwaWtfcHl0aG9uJywgJy1waCcsICc3LjAnLCAnLXRuJywgJzgnLCAnLW1hJywgJzIwMCcsICctbWV0YWxfYmluZGluZycsICctaW1hZScsICc8aW5maWxlLm1hZT4nLCAnLW9tYWUnLCAnPG91dGZpbGUubWFlPic=

> <r_epik_Ionization_Penalty>
0.178512

> <r_epik_Ionization_Penalty_Charging>
0.178504

> <r_epik_Ionization_Penalty_Neutral>
8.15545e-06

> <r_epik_State_Penalty>
0.167974

> <r_epik_Charging_Adjusted_Penalty>
0.346478

> <i_epik_Tot_Q>
1

> <i_epik_Tot_abs_Q>
1

> <r_epik_Metal_State_Penalty>
0.167974

> <b_epik_Metal_Only>
0

> <s_lp_Force_Field>
OPLS_2005

> <r_lp_Energy>
17.709

> <b_lp_Chiralities_Consistent>
1

> <s_lp_Variant>
AV-unprocessed.smi:3252-4

> <Gold.Version>
5.8.1

> <Gold.Id.Protein>
6NUR|6NUR_protein|mol2

> <Gold.PLP.Fitness>
35.7170

> <Gold.PLP.PLP>
-25.0003

> <Gold.PLP.part.hbond>
-3.0000

> <Gold.PLP.part.metal>
0.0000

> <Gold.PLP.part.buried>
-4.1349

> <Gold.PLP.part.nonpolar>
-20.8439

> <Gold.PLP.part.repulsive>
4.1374

> <Gold.PLP.ligand.clash>
0.0000

> <Gold.PLP.ligand.torsion>
0.6620

> <Gold.PLP.Chemscore.Hbond>
4.0000

> <Gold.PLP.Chemscore.CHOScore>
0.0000

> <Gold.PLP.Chemscore.Metal>
0.0000

> <Gold.Chemscore.Hbonds>
donor molecule, donor type, donor heavy atom, donor atom, acceptor molecule, acceptor atom, score
      L1  H     3    37       P1 10175  2.00
      L1  H     9    31       P1  7957  1.00
      P1  H  7989  7998       L1    17  1.00

> <Gold.PLP.Chemscore.Internal.Correction>
0.0406

> <Gold.Rescore>
     Score         DG    S(hbond)    S(metal)    S(lipo)     H(rot)  DE(clash)    DE(int)     intcor
     15.48     -16.56       2.75        0.00      48.36       1.47       0.36       0.71       ----

> <Gold.Chemscore.Fitness>
15.4809

> <Gold.Chemscore.DG>
-16.5561

> <Gold.Chemscore.ZeroCoef>
-5.4800

> <Gold.Chemscore.Hbond>
2.7476

> <Gold.Chemscore.Metal>
0.0000

> <Gold.Chemscore.Lipo>
48.3561

> <Gold.Chemscore.Internal_Hbond>
0.0000

> <Gold.Chemscore.DEClash>
0.3614

> <Gold.Chemscore.DEInternal>
0.7138

> <Gold.Chemscore.Rot>
1.4681

> <Gold.Chemscore.Internal.Correction>
   9.000000E+99

> <Gold.Chemscore.Hbonds>
donor molecule, donor type, donor heavy atom, donor atom, acceptor molecule, acceptor atom, score
      L1  H     3    37       P1 10175  1.00
      L1  H     9    31       P1  7957  0.99
      P1  H  7989  7998       L1    17  0.25

> <Gold.Chemscore.Hbond.Weighted>
-9.1768

> <Gold.Chemscore.Metal.Weighted>
-0.0000

> <Gold.Chemscore.Lipo.Weighted>
-5.6577

> <Gold.Chemscore.Internal_Hbond.Weighted>
0.0000

> <Gold.Chemscore.DEClash.Weighted>
0.3614

> <Gold.Chemscore.DEInternal.Weighted>
0.7138

> <Gold.Chemscore.Rot.Weighted>
3.7584

> <Gold.Chemscore.Internal.Correction.Weighted>
   9.000000E+99

> <Gold.Protein.RotatedTorsions>
[ 6907 6896 6895 6894 ] final  -17.65 input  -60.11 | X-H torsion
[ 7974 7965 7964 7962 ] final -154.63 input  175.53 | X-H torsion
[ 8008 7997 7996 7995 ] final  -88.54 input   59.86 | X-H torsion
[ 10167 10162 10161 10158 ] final  110.77 input  -65.29 | X-H torsion
[ 10718 10713 10712 10709 ] final -123.44 input   66.30 | X-H torsion
[ 10763 10752 10751 10750 ] final  164.20 input  -60.55 | X-H torsion
[ 11005 11000 10999 10996 ] final   12.30 input  -57.11 | X-H torsion

> <Gold.Protein.ActiveResidues>
 VAL166  LYS551  ARG553  GLY616  TRP617  ASP618  TYR619  PRO620  LYS621  CYS622 
 ASP623  PHE694  ASN695  SER759  ASP760  ASP761  ALA762  ILE779  LEU786  VAL792 
 PHE793  MET794  SER795  GLU796  ALA797  LYS798  CYS799  TRP800  GLU811  SER814 

> <Gold.Protein.RotatedAtoms>
  151.2900  135.0739  159.9200 H   0  0  0  0  0  0  0  0  0  0  0  0  # atno 6907 bound_to 6896
  152.5318  133.9941  159.7875 H   0  0  0  0  0  0  0  0  0  0  0  0  # atno 6908 bound_to 6896
  151.0210  133.5826  159.2702 H   0  0  0  0  0  0  0  0  0  0  0  0  # atno 6909 bound_to 6896
  144.7680  140.4361  143.5928 H   0  0  0  0  0  0  0  0  0  0  0  0  # atno 7974 bound_to 7965
  154.6761  140.0552  157.0216 H   0  0  0  0  0  0  0  0  0  0  0  0  # atno 8008 bound_to 7997
  155.1019  140.3229  155.4526 H   0  0  0  0  0  0  0  0  0  0  0  0  # atno 8009 bound_to 7997
  156.2676  140.2029  156.6145 H   0  0  0  0  0  0  0  0  0  0  0  0  # atno 8010 bound_to 7997
  139.6662  144.7127  151.1772 H   0  0  0  0  0  0  0  0  0  0  0  0  # atno 10167 bound_to 10162
  156.1502  130.6529  150.9903 H   0  0  0  0  0  0  0  0  0  0  0  0  # atno 10718 bound_to 10713
  154.3054  135.2758  155.2591 H   0  0  0  0  0  0  0  0  0  0  0  0  # atno 10763 bound_to 10752
  154.5010  135.5808  153.6534 H   0  0  0  0  0  0  0  0  0  0  0  0  # atno 10764 bound_to 10752
  152.9895  135.6158  154.3227 H   0  0  0  0  0  0  0  0  0  0  0  0  # atno 10765 bound_to 10752
  140.4936  134.0816  155.7777 H   0  0  0  0  0  0  0  0  0  0  0  0  # atno 11005 bound_to 11000
  145.6411  139.1550  143.2915 LP  0  0  0  0  0  0  0  0  0  0  0  0  # atno 17320 bound_to 7965
  146.1803  140.6508  142.9192 LP  0  0  0  0  0  0  0  0  0  0  0  0  # atno 17321 bound_to 7965
  140.7600  143.5915  150.8791 LP  0  0  0  0  0  0  0  0  0  0  0  0  # atno 17342 bound_to 10162
  139.9577  143.6199  152.3011 LP  0  0  0  0  0  0  0  0  0  0  0  0  # atno 17343 bound_to 10162
  157.6651  131.0873  150.7748 LP  0  0  0  0  0  0  0  0  0  0  0  0  # atno 17370 bound_to 10713
  156.7816  130.4861  149.5400 LP  0  0  0  0  0  0  0  0  0  0  0  0  # atno 17371 bound_to 10713
  141.1472  133.9034  157.2187 LP  0  0  0  0  0  0  0  0  0  0  0  0  # atno 17394 bound_to 11000
  139.9755  135.0115  156.9619 LP  0  0  0  0  0  0  0  0  0  0  0  0  # atno 17395 bound_to 11000

$$$$
