AV-unprocessed.smi:10|AV-procd|sdf|53|dock4
  -GOLD-   2262015173D 1   1.00000     0.00000
 Structure written by MMmdl.
 34 36  0  0  0  0  0  0  0  0  1 V2000
  147.3535  142.0386  154.8114 C   0  0  0  0  0  0  0  0  0  0  0  0
  148.6232  141.3883  155.0622 N   0  0  0  0  0  0  0  0  0  0  0  0
  149.3300  140.6197  154.2122 C   0  0  0  0  0  0  0  0  0  0  0  0
  150.4746  140.1437  154.6989 N   0  0  0  0  0  0  0  0  0  0  0  0
  150.4893  140.6658  155.9873 C   0  0  0  0  0  0  0  0  0  0  0  0
  151.4879  140.5271  157.0720 C   0  0  0  0  0  0  0  0  0  0  0  0
  152.5241  139.8764  156.9348 O   0  0  0  0  0  0  0  0  0  0  0  0
  151.1358  141.1928  158.2117 N   0  0  0  0  0  0  0  0  0  0  0  0
  152.0114  141.1747  159.3931 C   0  0  0  0  0  0  0  0  0  0  0  0
  153.3281  141.9453  159.1434 C   0  0  2  0  0  0  0  0  0  0  0  0
  154.3515  141.3614  159.9236 O   0  0  0  0  0  0  0  0  0  0  0  0
  153.2375  143.4119  159.5628 C   0  0  0  0  0  0  0  0  0  0  0  0
  152.6503  143.7768  160.9359 C   0  0  0  0  0  0  0  0  0  0  0  0
  152.0529  145.0337  160.2988 C   0  0  0  0  0  0  0  0  0  0  0  0
  152.1544  144.3155  158.9512 C   0  0  0  0  0  0  0  0  0  0  0  0
  149.9346  141.9579  158.3181 C   0  0  0  0  0  0  0  0  0  0  0  0
  149.0375  142.1015  157.3776 N   0  0  0  0  0  0  0  0  0  0  0  0
  149.3773  141.4234  156.2287 C   0  0  0  0  0  0  0  0  0  0  0  0
  146.9562  141.7314  153.8433 H   0  0  0  0  0  0  0  0  0  0  0  0
  147.4895  143.1202  154.8131 H   0  0  0  0  0  0  0  0  0  0  0  0
  146.6403  141.7662  155.5898 H   0  0  0  0  0  0  0  0  0  0  0  0
  148.9967  140.4034  153.2077 H   0  0  0  0  0  0  0  0  0  0  0  0
  151.4770  141.6195  160.2344 H   0  0  0  0  0  0  0  0  0  0  0  0
  152.2131  140.1539  159.7251 H   0  0  0  0  0  0  0  0  0  0  0  0
  153.6134  141.8839  158.0919 H   0  0  0  0  0  0  0  0  0  0  0  0
  155.1730  141.4585  159.4658 H   0  0  0  0  0  0  0  0  0  0  0  0
  154.2065  143.9068  159.4635 H   0  0  0  0  0  0  0  0  0  0  0  0
  151.8881  143.0713  161.2710 H   0  0  0  0  0  0  0  0  0  0  0  0
  153.3909  143.9669  161.7132 H   0  0  0  0  0  0  0  0  0  0  0  0
  151.0370  145.2694  160.6169 H   0  0  0  0  0  0  0  0  0  0  0  0
  152.7133  145.8995  160.3680 H   0  0  0  0  0  0  0  0  0  0  0  0
  152.4962  144.9390  158.1246 H   0  0  0  0  0  0  0  0  0  0  0  0
  151.2432  143.7728  158.6944 H   0  0  0  0  0  0  0  0  0  0  0  0
  149.8109  142.4453  159.2868 H   0  0  0  0  0  0  0  0  0  0  0  0
  1  2  1  0  0  0  0
  1 19  1  0  0  0  0
  1 20  1  0  0  0  0
  1 21  1  0  0  0  0
  2 18  1  0  0  0  0
  2  3  1  0  0  0  0
  3  4  2  0  0  0  0
  3 22  1  0  0  0  0
  4  5  1  0  0  0  0
  5 18  2  0  0  0  0
  5  6  1  0  0  0  0
  6  7  2  0  0  0  0
  6  8  1  0  0  0  0
  8  9  1  0  0  0  0
  8 16  1  0  0  0  0
  9 10  1  0  0  0  0
  9 23  1  0  0  0  0
  9 24  1  0  0  0  0
 10 11  1  0  0  0  0
 10 12  1  0  0  0  0
 10 25  1  0  0  0  0
 11 26  1  0  0  0  0
 12 15  1  0  0  0  0
 12 13  1  0  0  0  0
 12 27  1  0  0  0  0
 13 14  1  0  0  0  0
 13 28  1  0  0  0  0
 13 29  1  0  0  0  0
 14 15  1  0  0  0  0
 14 30  1  0  0  0  0
 14 31  1  0  0  0  0
 15 32  1  0  0  0  0
 15 33  1  0  0  0  0
 16 17  2  0  0  0  0
 16 34  1  0  0  0  0
 17 18  1  0  0  0  0
M  END
> <s_m_source_file>
AV-unprocessed.smi

> <i_m_source_file_index>
10

> <i_lp_mmshare_version>
43012

> <i_f3d_flags>
0

> <s_epik_input>
bjFbY0hdbihbQ0gzXSljKGMxMiluW2NIXW4oYzI9TylbQ0gyXVtDQEhdKFtPSF0pW0NIXTNbQ0gyXVtDSDJdW0NIMl0z

> <s_epik_cmdline>
J2VwaWtfcHl0aG9uJywgJy1waCcsICc3LjAnLCAnLXRuJywgJzgnLCAnLW1hJywgJzIwMCcsICctbWV0YWxfYmluZGluZycsICctaW1hZScsICc8aW5maWxlLm1hZT4nLCAnLW9tYWUnLCAnPG91dGZpbGUubWFlPic=

> <r_lp_tautomer_probability>
1

> <r_epik_Ionization_Penalty>
0.0003743

> <r_epik_Ionization_Penalty_Charging>
2.98177e-12

> <r_epik_Ionization_Penalty_Neutral>
0.000374299

> <r_epik_State_Penalty>
0.000224514

> <r_epik_Charging_Adjusted_Penalty>
0.000224514

> <i_epik_Tot_Q>
0

> <i_epik_Tot_abs_Q>
0

> <r_epik_Metal_State_Penalty>
-0

> <b_epik_Metal_Only>
0

> <s_lp_Force_Field>
OPLS_2005

> <r_lp_Energy>
32.1402

> <b_lp_Chiralities_Consistent>
1

> <s_lp_Variant>
AV-unprocessed.smi:10-1

> <Gold.Version>
5.8.1

> <Gold.Id.Protein>
6NUR|6NUR_protein|mol2

> <Gold.PLP.Fitness>
48.7233

> <Gold.PLP.PLP>
-40.6877

> <Gold.PLP.part.hbond>
-2.0000

> <Gold.PLP.part.metal>
0.0000

> <Gold.PLP.part.buried>
-4.1465

> <Gold.PLP.part.nonpolar>
-34.1260

> <Gold.PLP.part.repulsive>
0.2306

> <Gold.PLP.ligand.clash>
0.0000

> <Gold.PLP.ligand.torsion>
0.5431

> <Gold.PLP.Chemscore.Hbond>
2.0000

> <Gold.PLP.Chemscore.CHOScore>
1.0000

> <Gold.PLP.Chemscore.Metal>
0.0000

> <Gold.Chemscore.Hbonds>
donor molecule, donor type, donor heavy atom, donor atom, acceptor molecule, acceptor atom, score
      P1  H  7989  7998       L1     4  0.95
      P1  H  7997  8008       L1     7  1.00
      L1  C     3    22       P1  7957  1.00

> <Gold.PLP.Chemscore.Internal.Correction>
0.1218

> <Gold.Rescore>
     Score         DG    S(hbond)    S(metal)    S(lipo)     H(rot)  DE(clash)    DE(int)     intcor
     14.29     -14.75       1.84        0.00      76.55       2.28       0.00       0.46       ----

> <Gold.Chemscore.Fitness>
14.2940

> <Gold.Chemscore.DG>
-14.7490

> <Gold.Chemscore.ZeroCoef>
-5.4800

> <Gold.Chemscore.Hbond>
1.8429

> <Gold.Chemscore.Metal>
0.0000

> <Gold.Chemscore.Lipo>
76.5544

> <Gold.Chemscore.Internal_Hbond>
0.0000

> <Gold.Chemscore.DEClash>
0.0000

> <Gold.Chemscore.DEInternal>
0.4550

> <Gold.Chemscore.Rot>
2.2824

> <Gold.Chemscore.Internal.Correction>
   9.000000E+99

> <Gold.Chemscore.Hbonds>
donor molecule, donor type, donor heavy atom, donor atom, acceptor molecule, acceptor atom, score
      P1  H  7989  7998       L1     4  0.20
      P1  H  7997  8008       L1     7  1.00

> <Gold.Chemscore.Hbond.Weighted>
-6.1552

> <Gold.Chemscore.Metal.Weighted>
-0.0000

> <Gold.Chemscore.Lipo.Weighted>
-8.9569

> <Gold.Chemscore.Internal_Hbond.Weighted>
0.0000

> <Gold.Chemscore.DEClash.Weighted>
0.0000

> <Gold.Chemscore.DEInternal.Weighted>
0.4550

> <Gold.Chemscore.Rot.Weighted>
5.8431

> <Gold.Chemscore.Internal.Correction.Weighted>
   9.000000E+99

> <Gold.Protein.RotatedTorsions>
[ 6907 6896 6895 6894 ] final   25.16 input  -60.11 | X-H torsion
[ 7974 7965 7964 7962 ] final   85.02 input  175.53 | X-H torsion
[ 8008 7997 7996 7995 ] final  -54.83 input   59.86 | X-H torsion
[ 10167 10162 10161 10158 ] final  -32.88 input  -65.29 | X-H torsion
[ 10718 10713 10712 10709 ] final   91.23 input   66.30 | X-H torsion
[ 10763 10752 10751 10750 ] final  -88.72 input  -60.55 | X-H torsion
[ 11005 11000 10999 10996 ] final -102.62 input  -57.11 | X-H torsion

> <Gold.Protein.ActiveResidues>
 VAL166  LYS551  ARG553  GLY616  TRP617  ASP618  TYR619  PRO620  LYS621  CYS622 
 ASP623  PHE694  ASN695  SER759  ASP760  ASP761  ALA762  ILE779  LEU786  VAL792 
 PHE793  MET794  SER795  GLU796  ALA797  LYS798  CYS799  TRP800  GLU811  SER814 

> <Gold.Protein.RotatedAtoms>
  151.9683  135.0089  160.0551 H   0  0  0  0  0  0  0  0  0  0  0  0  # atno 6907 bound_to 6896
  152.1806  133.4700  159.4964 H   0  0  0  0  0  0  0  0  0  0  0  0  # atno 6908 bound_to 6896
  150.6917  134.1755  159.4271 H   0  0  0  0  0  0  0  0  0  0  0  0  # atno 6909 bound_to 6896
  145.5911  139.2338  143.2299 H   0  0  0  0  0  0  0  0  0  0  0  0  # atno 7974 bound_to 7965
  154.4175  140.1167  156.5379 H   0  0  0  0  0  0  0  0  0  0  0  0  # atno 8008 bound_to 7997
  155.6539  140.3496  155.4739 H   0  0  0  0  0  0  0  0  0  0  0  0  # atno 8009 bound_to 7997
  155.9770  140.1152  157.0751 H   0  0  0  0  0  0  0  0  0  0  0  0  # atno 8010 bound_to 7997
  140.7214  143.3662  151.1867 H   0  0  0  0  0  0  0  0  0  0  0  0  # atno 10167 bound_to 10162
  157.6960  131.0400  150.3698 H   0  0  0  0  0  0  0  0  0  0  0  0  # atno 10718 bound_to 10713
  154.6476  135.5367  153.7863 H   0  0  0  0  0  0  0  0  0  0  0  0  # atno 10763 bound_to 10752
  153.0368  135.6474  154.1065 H   0  0  0  0  0  0  0  0  0  0  0  0  # atno 10764 bound_to 10752
  154.0985  135.2935  155.3236 H   0  0  0  0  0  0  0  0  0  0  0  0  # atno 10765 bound_to 10752
  141.1181  133.8573  157.1382 H   0  0  0  0  0  0  0  0  0  0  0  0  # atno 11005 bound_to 11000
  146.1646  140.6737  142.9261 LP  0  0  0  0  0  0  0  0  0  0  0  0  # atno 17320 bound_to 7965
  144.7351  140.4785  143.6909 LP  0  0  0  0  0  0  0  0  0  0  0  0  # atno 17321 bound_to 7965
  139.7224  143.9203  152.2990 LP  0  0  0  0  0  0  0  0  0  0  0  0  # atno 17342 bound_to 10162
  139.8964  144.6937  150.8713 LP  0  0  0  0  0  0  0  0  0  0  0  0  # atno 17343 bound_to 10162
  156.4124  130.3937  149.6882 LP  0  0  0  0  0  0  0  0  0  0  0  0  # atno 17370 bound_to 10713
  156.4161  130.7746  151.2761 LP  0  0  0  0  0  0  0  0  0  0  0  0  # atno 17371 bound_to 10713
  140.0118  134.9984  157.0411 LP  0  0  0  0  0  0  0  0  0  0  0  0  # atno 17394 bound_to 11000
  140.4586  134.1507  155.7189 LP  0  0  0  0  0  0  0  0  0  0  0  0  # atno 17395 bound_to 11000

$$$$
