AV-unprocessed.smi:2858|AV-procd|sdf|11003|dock8
  -GOLD-   2272015463D 1   1.00000     0.00000
 Structure written by MMmdl.
 39 40  0  0  0  0  0  0  0  0  3 V2000
  143.2820  137.5544  155.8504 O   0  0  0  0  0  0  0  0  0  0  0  0
  143.8771  137.5467  154.7750 C   0  0  0  0  0  0  0  0  0  0  0  0
  145.2630  138.2465  154.7355 C   0  0  0  0  0  0  0  0  0  0  0  0
  145.6829  138.5942  153.3468 N   0  3  1  0  0  0  0  0  0  0  0  0
  147.0373  139.1990  153.2743 C   0  0  0  0  0  0  0  0  0  0  0  0
  147.1188  140.5650  153.9768 C   0  0  0  0  0  0  0  0  0  0  0  0
  148.4698  141.2614  153.7425 C   0  0  0  0  0  0  0  0  0  0  0  0
  148.8874  142.0373  154.9049 N   0  0  0  0  0  0  0  0  0  0  0  0
  149.9825  141.7926  155.6391 C   0  0  0  0  0  0  0  0  0  0  0  0
  150.7662  140.8733  155.3993 O   0  0  0  0  0  0  0  0  0  0  0  0
  150.0978  142.6709  156.6511 N   0  0  0  0  0  0  0  0  0  0  0  0
  151.1286  142.7580  157.6248 C   0  0  0  0  0  0  0  0  0  0  0  0
  151.4604  144.0708  158.0294 C   0  0  0  0  0  0  0  0  0  0  0  0
  152.4733  144.2649  158.9888 C   0  0  0  0  0  0  0  0  0  0  0  0
  153.1289  143.1398  159.5195 C   0  0  0  0  0  0  0  0  0  0  0  0
  152.7386  141.8678  159.0618 C   0  0  0  0  0  0  0  0  0  0  0  0
  151.7688  141.6795  158.1418 N   0  0  0  0  0  0  0  0  0  0  0  0
  145.5284  137.4436  152.4192 C   0  0  0  0  0  0  0  0  0  0  0  0
  144.0456  137.0436  152.2993 C   0  0  0  0  0  0  0  0  0  0  0  0
  143.4391  136.9357  153.6305 N   0  5  0  0  0  0  0  0  0  0  0  0
  145.2088  139.1450  155.3493 H   0  0  0  0  0  0  0  0  0  0  0  0
  145.9995  137.5835  155.1917 H   0  0  0  0  0  0  0  0  0  0  0  0
  147.7739  138.5085  153.6872 H   0  0  0  0  0  0  0  0  0  0  0  0
  147.3011  139.3432  152.2256 H   0  0  0  0  0  0  0  0  0  0  0  0
  146.3102  141.2012  153.6144 H   0  0  0  0  0  0  0  0  0  0  0  0
  146.9670  140.4488  155.0498 H   0  0  0  0  0  0  0  0  0  0  0  0
  149.2409  140.5178  153.5394 H   0  0  0  0  0  0  0  0  0  0  0  0
  148.4218  141.9069  152.8638 H   0  0  0  0  0  0  0  0  0  0  0  0
  148.2972  142.8117  155.1723 H   0  0  0  0  0  0  0  0  0  0  0  0
  149.3650  143.3598  156.7339 H   0  0  0  0  0  0  0  0  0  0  0  0
  150.9455  144.9245  157.6126 H   0  0  0  0  0  0  0  0  0  0  0  0
  152.7412  145.2599  159.3118 H   0  0  0  0  0  0  0  0  0  0  0  0
  153.9098  143.2480  160.2576 H   0  0  0  0  0  0  0  0  0  0  0  0
  153.2174  140.9782  159.4432 H   0  0  0  0  0  0  0  0  0  0  0  0
  145.9071  137.6972  151.4284 H   0  0  0  0  0  0  0  0  0  0  0  0
  146.1240  136.6033  152.7803 H   0  0  0  0  0  0  0  0  0  0  0  0
  143.5304  137.7949  151.7003 H   0  0  0  0  0  0  0  0  0  0  0  0
  143.9675  136.1121  151.7391 H   0  0  0  0  0  0  0  0  0  0  0  0
  145.0313  139.2919  153.0171 H   0  0  0  0  0  0  0  0  0  0  0  0
  1  2  2  0  0  0  0
  2 20  1  0  0  0  0
  2  3  1  0  0  0  0
  3  4  1  0  0  0  0
  3 21  1  0  0  0  0
  3 22  1  0  0  0  0
  4  5  1  0  0  0  0
  4 18  1  0  0  0  0
  4 39  1  0  0  0  0
  5  6  1  0  0  0  0
  5 23  1  0  0  0  0
  5 24  1  0  0  0  0
  6  7  1  0  0  0  0
  6 25  1  0  0  0  0
  6 26  1  0  0  0  0
  7  8  1  0  0  0  0
  7 27  1  0  0  0  0
  7 28  1  0  0  0  0
  8  9  1  0  0  0  0
  8 29  1  0  0  0  0
  9 10  2  0  0  0  0
  9 11  1  0  0  0  0
 11 12  1  0  0  0  0
 11 30  1  0  0  0  0
 12 17  1  0  0  0  0
 12 13  2  0  0  0  0
 13 14  1  0  0  0  0
 13 31  1  0  0  0  0
 14 15  2  0  0  0  0
 14 32  1  0  0  0  0
 15 16  1  0  0  0  0
 15 33  1  0  0  0  0
 16 17  2  0  0  0  0
 16 34  1  0  0  0  0
 18 19  1  0  0  0  0
 18 35  1  0  0  0  0
 18 36  1  0  0  0  0
 19 20  1  0  0  0  0
 19 37  1  0  0  0  0
 19 38  1  0  0  0  0
M  CHG  1   4   1
M  CHG  1  20  -1
M  END
> <s_m_source_file>
AV-unprocessed.smi

> <i_m_source_file_index>
2858

> <i_lp_mmshare_version>
43012

> <i_f3d_flags>
0

> <s_epik_input>
Tz1DMVtDSDJdTihbQ0gyXVtDSDJdW05IXTEpW0NIMl1bQ0gyXVtDSDJdW05IXUMoPU8pW05IXWMyW2NIXVtjSF1bY0hdW2NIXW4y

> <s_epik_cmdline>
J2VwaWtfcHl0aG9uJywgJy1waCcsICc3LjAnLCAnLXRuJywgJzgnLCAnLW1hJywgJzIwMCcsICctbWV0YWxfYmluZGluZycsICctaW1hZScsICc8aW5maWxlLm1hZT4nLCAnLW9tYWUnLCAnPG91dGZpbGUubWFlPic=

> <r_epik_Ionization_Penalty>
5.09835

> <r_epik_Ionization_Penalty_Charging>
5.09831

> <r_epik_Ionization_Penalty_Neutral>
4.20822e-05

> <r_epik_State_Penalty>
5.19693

> <r_epik_Charging_Adjusted_Penalty>
10.2952

> <i_epik_Tot_Q>
0

> <i_epik_Tot_abs_Q>
2

> <r_epik_Metal_State_Penalty>
1.27693

> <b_epik_Metal_Only>
1

> <s_lp_Force_Field>
OPLS_2005

> <r_lp_Energy>
14.6847

> <b_lp_Chiralities_Consistent>
1

> <s_lp_Variant>
AV-unprocessed.smi:2858-5

> <Gold.Version>
5.8.1

> <Gold.Id.Protein>
6NUR|6NUR_protein|mol2

> <Gold.PLP.Fitness>
47.9518

> <Gold.PLP.PLP>
-35.5431

> <Gold.PLP.part.hbond>
-4.0000

> <Gold.PLP.part.metal>
0.0000

> <Gold.PLP.part.buried>
-1.2224

> <Gold.PLP.part.nonpolar>
-29.2385

> <Gold.PLP.part.repulsive>
0.4950

> <Gold.PLP.ligand.clash>
0.0000

> <Gold.PLP.ligand.torsion>
0.5471

> <Gold.PLP.Chemscore.Hbond>
4.4834

> <Gold.PLP.Chemscore.CHOScore>
0.0000

> <Gold.PLP.Chemscore.Metal>
0.0000

> <Gold.Chemscore.Hbonds>
donor molecule, donor type, donor heavy atom, donor atom, acceptor molecule, acceptor atom, score
      L1  H     4    39       P1 10175  2.00
      L1  H     8    29       P1  8028  0.56
      L1  H    11    30       P1  8028  0.64
      P1  H  7989  7998       L1    10  0.69

> <Gold.PLP.Chemscore.Internal.Correction>
0.0529

> <Gold.Rescore>
     Score         DG    S(hbond)    S(metal)    S(lipo)     H(rot)  DE(clash)    DE(int)     intcor
     17.35     -19.61       2.98        0.00      80.08       2.02       0.59       1.67       ----

> <Gold.Chemscore.Fitness>
17.3519

> <Gold.Chemscore.DG>
-19.6128

> <Gold.Chemscore.ZeroCoef>
-5.4800

> <Gold.Chemscore.Hbond>
2.9753

> <Gold.Chemscore.Metal>
0.0000

> <Gold.Chemscore.Lipo>
80.0843

> <Gold.Chemscore.Internal_Hbond>
0.0000

> <Gold.Chemscore.DEClash>
0.5895

> <Gold.Chemscore.DEInternal>
1.6714

> <Gold.Chemscore.Rot>
2.0213

> <Gold.Chemscore.Internal.Correction>
   9.000000E+99

> <Gold.Chemscore.Hbonds>
donor molecule, donor type, donor heavy atom, donor atom, acceptor molecule, acceptor atom, score
      L1  H     4    39       P1 10175  1.00
      L1  H     8    29       P1  8028  0.52
      L1  H    11    30       P1  8028  0.63
      P1  H  7989  7998       L1    10  0.62

> <Gold.Chemscore.Hbond.Weighted>
-9.9373

> <Gold.Chemscore.Metal.Weighted>
-0.0000

> <Gold.Chemscore.Lipo.Weighted>
-9.3699

> <Gold.Chemscore.Internal_Hbond.Weighted>
0.0000

> <Gold.Chemscore.DEClash.Weighted>
0.5895

> <Gold.Chemscore.DEInternal.Weighted>
1.6714

> <Gold.Chemscore.Rot.Weighted>
5.1744

> <Gold.Chemscore.Internal.Correction.Weighted>
   9.000000E+99

> <Gold.Protein.RotatedTorsions>
[ 6907 6896 6895 6894 ] final -115.51 input  -60.11 | X-H torsion
[ 7974 7965 7964 7962 ] final -114.09 input  175.53 | X-H torsion
[ 8008 7997 7996 7995 ] final  -26.15 input   59.86 | X-H torsion
[ 10167 10162 10161 10158 ] final -137.65 input  -65.29 | X-H torsion
[ 10718 10713 10712 10709 ] final -123.20 input   66.30 | X-H torsion
[ 10763 10752 10751 10750 ] final   96.89 input  -60.55 | X-H torsion
[ 11005 11000 10999 10996 ] final -164.99 input  -57.11 | X-H torsion

> <Gold.Protein.ActiveResidues>
 VAL166  LYS551  ARG553  GLY616  TRP617  ASP618  TYR619  PRO620  LYS621  CYS622 
 ASP623  PHE694  ASN695  SER759  ASP760  ASP761  ALA762  ILE779  LEU786  VAL792 
 PHE793  MET794  SER795  GLU796  ALA797  LYS798  CYS799  TRP800  GLU811  SER814 

> <Gold.Protein.RotatedAtoms>
  150.7983  133.8648  159.3241 H   0  0  0  0  0  0  0  0  0  0  0  0  # atno 6907 bound_to 6896
  151.6467  135.1004  160.0162 H   0  0  0  0  0  0  0  0  0  0  0  0  # atno 6908 bound_to 6896
  152.4068  133.6861  159.6398 H   0  0  0  0  0  0  0  0  0  0  0  0  # atno 6909 bound_to 6896
  145.1242  140.8687  143.3796 H   0  0  0  0  0  0  0  0  0  0  0  0  # atno 7974 bound_to 7965
  154.4439  140.1907  156.0731 H   0  0  0  0  0  0  0  0  0  0  0  0  # atno 8008 bound_to 7997
  156.0496  140.3310  155.7309 H   0  0  0  0  0  0  0  0  0  0  0  0  # atno 8009 bound_to 7997
  155.5577  140.0601  157.2826 H   0  0  0  0  0  0  0  0  0  0  0  0  # atno 8010 bound_to 7997
  139.8557  143.7142  152.2654 H   0  0  0  0  0  0  0  0  0  0  0  0  # atno 10167 bound_to 10162
  156.1482  130.6515  150.9873 H   0  0  0  0  0  0  0  0  0  0  0  0  # atno 10718 bound_to 10713
  153.2703  135.4203  155.0981 H   0  0  0  0  0  0  0  0  0  0  0  0  # atno 10763 bound_to 10752
  154.8453  135.3470  154.6254 H   0  0  0  0  0  0  0  0  0  0  0  0  # atno 10764 bound_to 10752
  153.6674  135.7045  153.5215 H   0  0  0  0  0  0  0  0  0  0  0  0  # atno 10765 bound_to 10752
  140.5807  134.5144  157.5178 H   0  0  0  0  0  0  0  0  0  0  0  0  # atno 11005 bound_to 11000
  145.0706  139.3034  143.5834 LP  0  0  0  0  0  0  0  0  0  0  0  0  # atno 17320 bound_to 7965
  146.3519  140.0180  142.8661 LP  0  0  0  0  0  0  0  0  0  0  0  0  # atno 17321 bound_to 7965
  139.7422  144.7556  151.0634 LP  0  0  0  0  0  0  0  0  0  0  0  0  # atno 17342 bound_to 10162
  140.7782  143.4958  150.9834 LP  0  0  0  0  0  0  0  0  0  0  0  0  # atno 17343 bound_to 10162
  157.6634  131.0876  150.7785 LP  0  0  0  0  0  0  0  0  0  0  0  0  # atno 17370 bound_to 10713
  156.7855  130.4873  149.5393 LP  0  0  0  0  0  0  0  0  0  0  0  0  # atno 17371 bound_to 10713
  139.9318  134.7948  156.0909 LP  0  0  0  0  0  0  0  0  0  0  0  0  # atno 17394 bound_to 11000
  141.0998  133.6681  156.2728 LP  0  0  0  0  0  0  0  0  0  0  0  0  # atno 17395 bound_to 11000

$$$$
