AV-unprocessed.smi:76|AV-procd|sdf|768|dock8
  -GOLD-   2262017113D 1   1.00000     0.00000
 Structure written by MMmdl.
 55 58  0  0  0  0  0  0  0  0  1 V2000
  153.0642  139.2960  158.2773 C   0  0  0  0  0  0  0  0  0  0  0  0
  151.9525  140.3651  158.2372 C   0  0  1  0  0  0  0  0  0  0  0  0
  152.4635  141.6753  158.8728 C   0  0  0  0  0  0  0  0  0  0  0  0
  151.3989  142.7894  158.8351 C   0  0  1  0  0  0  0  0  0  0  0  0
  151.9012  144.1007  159.4718 C   0  0  0  0  0  0  0  0  0  0  0  0
  150.8950  144.9560  159.6564 F   0  0  0  0  0  0  0  0  0  0  0  0
  152.4713  143.8450  160.6492 F   0  0  0  0  0  0  0  0  0  0  0  0
  152.8125  144.6706  158.6834 F   0  0  0  0  0  0  0  0  0  0  0  0
  150.9361  142.9878  157.3799 C   0  0  0  0  0  0  0  0  0  0  0  0
  150.4392  141.6661  156.7776 C   0  0  0  0  0  0  0  0  0  0  0  0
  151.4593  140.6244  156.8770 N   0  0  0  0  0  0  0  0  0  0  0  0
  151.1057  139.5328  156.1626 C   0  0  0  0  0  0  0  0  0  0  0  0
  151.1400  139.6402  154.8120 N   0  0  0  0  0  0  0  0  0  0  0  0
  150.8147  138.5907  154.0514 C   0  0  0  0  0  0  0  0  0  0  0  0
  150.4296  137.3708  154.4330 N   0  0  0  0  0  0  0  0  0  0  0  0
  150.3799  137.2654  155.7922 C   0  0  0  0  0  0  0  0  0  0  0  0
  150.7034  138.2890  156.7261 C   0  0  0  0  0  0  0  0  0  0  0  0
  150.5479  137.8153  158.0226 N   0  0  0  0  0  0  0  0  0  0  0  0
  150.1588  136.5800  157.8638 C   0  0  0  0  0  0  0  0  0  0  0  0
  150.0131  136.1705  156.5567 N   0  0  0  0  0  0  0  0  0  0  0  0
  149.5999  134.8513  156.0973 C   0  0  0  0  0  0  0  0  0  0  0  0
  148.0743  134.5467  156.2408 C   0  0  0  0  0  0  0  0  0  0  0  0
  147.2841  135.0893  155.0204 C   0  0  0  0  0  0  0  0  0  0  0  0
  147.7688  134.5769  153.7954 O   0  0  0  0  0  0  0  0  0  0  0  0
  147.8443  133.0194  156.3635 C   0  0  0  0  0  0  0  0  0  0  0  0
  148.3090  132.4497  157.7173 C   0  0  0  0  0  0  0  0  0  0  0  0
  147.6708  133.1384  158.7852 O   0  0  0  0  0  0  0  0  0  0  0  0
  147.9738  134.5275  158.8086 C   0  0  0  0  0  0  0  0  0  0  0  0
  147.4692  135.1894  157.5145 C   0  0  0  0  0  0  0  0  0  0  0  0
  153.4422  139.1650  159.2915 H   0  0  0  0  0  0  0  0  0  0  0  0
  153.9061  139.5769  157.6435 H   0  0  0  0  0  0  0  0  0  0  0  0
  152.7066  138.3211  157.9453 H   0  0  0  0  0  0  0  0  0  0  0  0
  151.1160  140.0090  158.8393 H   0  0  0  0  0  0  0  0  0  0  0  0
  152.7642  141.4873  159.9040 H   0  0  0  0  0  0  0  0  0  0  0  0
  153.3596  142.0103  158.3482 H   0  0  0  0  0  0  0  0  0  0  0  0
  150.5398  142.4495  159.4157 H   0  0  0  0  0  0  0  0  0  0  0  0
  150.1398  143.7309  157.3333 H   0  0  0  0  0  0  0  0  0  0  0  0
  151.7586  143.3757  156.7774 H   0  0  0  0  0  0  0  0  0  0  0  0
  149.5357  141.3435  157.2971 H   0  0  0  0  0  0  0  0  0  0  0  0
  150.1666  141.8213  155.7324 H   0  0  0  0  0  0  0  0  0  0  0  0
  150.8714  138.7512  152.9847 H   0  0  0  0  0  0  0  0  0  0  0  0
  149.9596  135.9308  158.7040 H   0  0  0  0  0  0  0  0  0  0  0  0
  149.9056  134.7473  155.0557 H   0  0  0  0  0  0  0  0  0  0  0  0
  150.1978  134.1211  156.6406 H   0  0  0  0  0  0  0  0  0  0  0  0
  146.2303  134.8188  155.0966 H   0  0  0  0  0  0  0  0  0  0  0  0
  147.3166  136.1783  154.9824 H   0  0  0  0  0  0  0  0  0  0  0  0
  148.2428  135.2640  153.3509 H   0  0  0  0  0  0  0  0  0  0  0  0
  146.7809  132.8018  156.2526 H   0  0  0  0  0  0  0  0  0  0  0  0
  148.3450  132.4896  155.5525 H   0  0  0  0  0  0  0  0  0  0  0  0
  148.0463  131.3936  157.7818 H   0  0  0  0  0  0  0  0  0  0  0  0
  149.3922  132.5058  157.8273 H   0  0  0  0  0  0  0  0  0  0  0  0
  147.4790  134.9761  159.6700 H   0  0  0  0  0  0  0  0  0  0  0  0
  149.0440  134.6796  158.9498 H   0  0  0  0  0  0  0  0  0  0  0  0
  147.6523  136.2629  157.5421 H   0  0  0  0  0  0  0  0  0  0  0  0
  146.3835  135.0834  157.4916 H   0  0  0  0  0  0  0  0  0  0  0  0
  1  2  1  0  0  0  0
  1 30  1  0  0  0  0
  1 31  1  0  0  0  0
  1 32  1  0  0  0  0
  2 11  1  0  0  0  0
  2  3  1  0  0  0  0
  2 33  1  0  0  0  0
  3  4  1  0  0  0  0
  3 34  1  0  0  0  0
  3 35  1  0  0  0  0
  4  5  1  0  0  0  0
  4  9  1  0  0  0  0
  4 36  1  0  0  0  0
  5  6  1  0  0  0  0
  5  7  1  0  0  0  0
  5  8  1  0  0  0  0
  9 10  1  0  0  0  0
  9 37  1  0  0  0  0
  9 38  1  0  0  0  0
 10 11  1  0  0  0  0
 10 39  1  0  0  0  0
 10 40  1  0  0  0  0
 11 12  1  0  0  0  0
 12 17  1  0  0  0  0
 12 13  2  0  0  0  0
 13 14  1  0  0  0  0
 14 15  2  0  0  0  0
 14 41  1  0  0  0  0
 15 16  1  0  0  0  0
 16 20  1  0  0  0  0
 16 17  2  0  0  0  0
 17 18  1  0  0  0  0
 18 19  2  0  0  0  0
 19 20  1  0  0  0  0
 19 42  1  0  0  0  0
 20 21  1  0  0  0  0
 21 22  1  0  0  0  0
 21 43  1  0  0  0  0
 21 44  1  0  0  0  0
 22 29  1  0  0  0  0
 22 23  1  0  0  0  0
 22 25  1  0  0  0  0
 23 24  1  0  0  0  0
 23 45  1  0  0  0  0
 23 46  1  0  0  0  0
 24 47  1  0  0  0  0
 25 26  1  0  0  0  0
 25 48  1  0  0  0  0
 25 49  1  0  0  0  0
 26 27  1  0  0  0  0
 26 50  1  0  0  0  0
 26 51  1  0  0  0  0
 27 28  1  0  0  0  0
 28 29  1  0  0  0  0
 28 52  1  0  0  0  0
 28 53  1  0  0  0  0
 29 54  1  0  0  0  0
 29 55  1  0  0  0  0
M  END
> <s_m_source_file>
AV-unprocessed.smi

> <i_m_source_file_index>
76

> <i_lp_mmshare_version>
43012

> <i_f3d_flags>
0

> <s_epik_input>
W0NIM11bQ0BASF0xW0NIMl1bQ0BASF0oQyhGKShGKUYpW0NIMl1bQ0gyXU4xYyhuW2NIXW4yKWMoYzIzKW5bY0hdbjNbQ0gyXUM0KFtDSDJdW09IXSlbQ0gyXVtDSDJdT1tDSDJdW0NIMl00

> <s_epik_cmdline>
J2VwaWtfcHl0aG9uJywgJy1waCcsICc3LjAnLCAnLXRuJywgJzgnLCAnLW1hJywgJzIwMCcsICctbWV0YWxfYmluZGluZycsICctaW1hZScsICc8aW5maWxlLm1hZT4nLCAnLW9tYWUnLCAnPG91dGZpbGUubWFlPic=

> <r_lp_tautomer_probability>
1

> <r_epik_Ionization_Penalty>
0.00244097

> <r_epik_Ionization_Penalty_Charging>
0

> <r_epik_Ionization_Penalty_Neutral>
0.00244097

> <r_epik_State_Penalty>
0.00151846

> <r_epik_Charging_Adjusted_Penalty>
0.00151846

> <i_epik_Tot_Q>
0

> <i_epik_Tot_abs_Q>
0

> <r_epik_Metal_State_Penalty>
-0

> <b_epik_Metal_Only>
0

> <s_lp_Force_Field>
OPLS_2005

> <r_lp_Energy>
36.6064

> <b_lp_Chiralities_Consistent>
1

> <s_lp_Variant>
AV-unprocessed.smi:76-2

> <Gold.Version>
5.8.1

> <Gold.Id.Protein>
6NUR|6NUR_protein|mol2

> <Gold.PLP.Fitness>
44.8775

> <Gold.PLP.PLP>
-38.4944

> <Gold.PLP.part.hbond>
-2.0000

> <Gold.PLP.part.metal>
0.0000

> <Gold.PLP.part.buried>
-6.0465

> <Gold.PLP.part.nonpolar>
-30.1463

> <Gold.PLP.part.repulsive>
0.2809

> <Gold.PLP.ligand.clash>
0.0330

> <Gold.PLP.ligand.torsion>
1.2265

> <Gold.PLP.Chemscore.Hbond>
2.0000

> <Gold.PLP.Chemscore.CHOScore>
0.8848

> <Gold.PLP.Chemscore.Metal>
0.0000

> <Gold.Chemscore.Hbonds>
donor molecule, donor type, donor heavy atom, donor atom, acceptor molecule, acceptor atom, score
      L1  H    24    47       P1  7948  1.00
      P1  H  7989  7998       L1    13  1.00
      L1  C    14    41       P1  7957  0.86

> <Gold.PLP.Chemscore.Internal.Correction>
0.2146

> <Gold.Rescore>
     Score         DG    S(hbond)    S(metal)    S(lipo)     H(rot)  DE(clash)    DE(int)     intcor
      7.87     -14.12       1.73        0.00      78.47       2.47       0.76       5.49       ----

> <Gold.Chemscore.Fitness>
7.8716

> <Gold.Chemscore.DG>
-14.1172

> <Gold.Chemscore.ZeroCoef>
-5.4800

> <Gold.Chemscore.Hbond>
1.7277

> <Gold.Chemscore.Metal>
0.0000

> <Gold.Chemscore.Lipo>
78.4695

> <Gold.Chemscore.Internal_Hbond>
0.0000

> <Gold.Chemscore.DEClash>
0.7556

> <Gold.Chemscore.DEInternal>
5.4900

> <Gold.Chemscore.Rot>
2.4665

> <Gold.Chemscore.Internal.Correction>
   9.000000E+99

> <Gold.Chemscore.Hbonds>
donor molecule, donor type, donor heavy atom, donor atom, acceptor molecule, acceptor atom, score
      L1  H    24    47       P1  7948  0.97
      P1  H  7989  7998       L1    13  0.26

> <Gold.Chemscore.Hbond.Weighted>
-5.7705

> <Gold.Chemscore.Metal.Weighted>
-0.0000

> <Gold.Chemscore.Lipo.Weighted>
-9.1809

> <Gold.Chemscore.Internal_Hbond.Weighted>
0.0000

> <Gold.Chemscore.DEClash.Weighted>
0.7556

> <Gold.Chemscore.DEInternal.Weighted>
5.4900

> <Gold.Chemscore.Rot.Weighted>
6.3142

> <Gold.Chemscore.Internal.Correction.Weighted>
   9.000000E+99

> <Gold.Protein.RotatedTorsions>
[ 6907 6896 6895 6894 ] final  -96.62 input  -60.11 | X-H torsion
[ 7974 7965 7964 7962 ] final   -8.09 input  175.53 | X-H torsion
[ 8008 7997 7996 7995 ] final   68.06 input   59.86 | X-H torsion
[ 10167 10162 10161 10158 ] final   61.20 input  -65.29 | X-H torsion
[ 10718 10713 10712 10709 ] final   97.91 input   66.30 | X-H torsion
[ 10763 10752 10751 10750 ] final  173.45 input  -60.55 | X-H torsion
[ 11005 11000 10999 10996 ] final  -87.08 input  -57.11 | X-H torsion

> <Gold.Protein.ActiveResidues>
 VAL166  LYS551  ARG553  GLY616  TRP617  ASP618  TYR619  PRO620  LYS621  CYS622 
 ASP623  PHE694  ASN695  SER759  ASP760  ASP761  ALA762  ILE779  LEU786  VAL792 
 PHE793  MET794  SER795  GLU796  ALA797  LYS798  CYS799  TRP800  GLU811  SER814 

> <Gold.Protein.RotatedAtoms>
  150.6994  134.1474  159.4127 H   0  0  0  0  0  0  0  0  0  0  0  0  # atno 6907 bound_to 6896
  151.9458  135.0190  160.0548 H   0  0  0  0  0  0  0  0  0  0  0  0  # atno 6908 bound_to 6896
  152.2054  133.4836  159.5118 H   0  0  0  0  0  0  0  0  0  0  0  0  # atno 6909 bound_to 6896
  146.2290  140.2416  142.8343 H   0  0  0  0  0  0  0  0  0  0  0  0  # atno 7974 bound_to 7965
  155.7025  140.3495  155.4939 H   0  0  0  0  0  0  0  0  0  0  0  0  # atno 8008 bound_to 7997
  155.9428  140.1104  157.1064 H   0  0  0  0  0  0  0  0  0  0  0  0  # atno 8009 bound_to 7997
  154.4106  140.1209  156.4936 H   0  0  0  0  0  0  0  0  0  0  0  0  # atno 8010 bound_to 7997
  140.1574  144.4404  150.6727 H   0  0  0  0  0  0  0  0  0  0  0  0  # atno 10167 bound_to 10162
  157.6904  131.0624  150.4716 H   0  0  0  0  0  0  0  0  0  0  0  0  # atno 10718 bound_to 10713
  154.4402  135.2762  155.1852 H   0  0  0  0  0  0  0  0  0  0  0  0  # atno 10763 bound_to 10752
  154.3722  135.6106  153.5749 H   0  0  0  0  0  0  0  0  0  0  0  0  # atno 10764 bound_to 10752
  152.9840  135.5860  154.4729 H   0  0  0  0  0  0  0  0  0  0  0  0  # atno 10765 bound_to 10752
  141.1621  133.7491  156.9255 H   0  0  0  0  0  0  0  0  0  0  0  0  # atno 11005 bound_to 11000
  144.9480  140.8148  143.5589 LP  0  0  0  0  0  0  0  0  0  0  0  0  # atno 17320 bound_to 7965
  145.2374  139.2087  143.5011 LP  0  0  0  0  0  0  0  0  0  0  0  0  # atno 17321 bound_to 7965
  140.6665  143.2270  151.5731 LP  0  0  0  0  0  0  0  0  0  0  0  0  # atno 17342 bound_to 10162
  139.5397  144.2681  152.1326 LP  0  0  0  0  0  0  0  0  0  0  0  0  # atno 17343 bound_to 10162
  156.5054  130.4127  149.6330 LP  0  0  0  0  0  0  0  0  0  0  0  0  # atno 17370 bound_to 10713
  156.3290  130.7321  151.2247 LP  0  0  0  0  0  0  0  0  0  0  0  0  # atno 17371 bound_to 10713
  140.1422  134.9286  157.2482 LP  0  0  0  0  0  0  0  0  0  0  0  0  # atno 17394 bound_to 11000
  140.2823  134.3335  155.7339 LP  0  0  0  0  0  0  0  0  0  0  0  0  # atno 17395 bound_to 11000

$$$$
