#       Name:                AV-unprocessed.smi:1868
#       Creating user name   scv26
#       Creation time:       Fri Mar 27 09:30:04 2020


#       File generated by GOLD software.
#

@<TRIPOS>MOLECULE
AV-unprocessed.smi:1868
    50    52     1
SMALL
NO_CHARGES


@<TRIPOS>ATOM
      1 ****        -3.3799  -0.0818  -3.3558 C.3            1 S1                 0.0000
      2 ****        -3.4101   0.8503  -2.1913 C.2            1 S1                 0.0000
      3 ****        -3.9892   2.0838  -2.1685 N.pl3          1 S1                 1.0000
      4 ****        -3.8208   2.6619  -0.9096 C.ar           1 S1                 0.0000
      5 ****        -4.2327   3.8931  -0.4093 C.ar           1 S1                 0.0000
      6 ****        -3.8969   4.1758   0.9310 C.ar           1 S1                 0.0000
      7 ****        -3.1791   3.2522   1.7188 C.ar           1 S1                 0.0000
      8 ****        -2.7662   2.0068   1.2004 C.ar           1 S1                 0.0000
      9 ****        -3.1025   1.7357  -0.1256 C.ar           1 S1                 0.0000
     10 ****        -2.8688   0.6350  -0.9574 N.pl3          1 S1                 0.0000
     11 ****        -2.1321  -0.5234  -0.4277 C.3            1 S1                 0.0000
     12 ****        -0.6029  -0.3228  -0.4305 C.3            1 S1                 0.0000
     13 ****        -0.1747  -0.0692  -1.7554 O.3            1 S1                 0.0000
     14 ****         0.1261  -1.5713   0.1089 C.3            1 S1                 0.0000
     15 ****         1.5938  -1.3815   0.2480 N.4            1 S1                 1.0000
     16 ****         2.3269  -2.6740   0.2329 C.3            1 S1                 0.0000
     17 ****         3.8488  -2.4528   0.2373 C.3            1 S1                 0.0000
     18 ****         4.2867  -1.6064   1.4439 C.3            1 S1                 0.0000
     19 ****         5.8008  -1.3534   1.4426 C.3            1 S1                 0.0000
     20 ****         3.4888  -0.2920   1.4544 C.3            1 S1                 0.0000
     21 ****         1.9740  -0.5567   1.4262 C.3            1 S1                 0.0000
     22 ****        -3.9343   0.3366  -4.1963 H              1 S1                 0.0000
     23 ****        -3.8301  -1.0372  -3.0861 H              1 S1                 0.0000
     24 ****        -2.3515  -0.2572  -3.6718 H              1 S1                 0.0000
     25 ****        -4.7838   4.6018  -1.0101 H              1 S1                 0.0000
     26 ****        -4.1967   5.1194   1.3637 H              1 S1                 0.0000
     27 ****        -2.9422   3.5042   2.7424 H              1 S1                 0.0000
     28 ****        -2.2182   1.3063   1.8125 H              1 S1                 0.0000
     29 ****        -2.4964  -0.7289   0.5796 H              1 S1                 0.0000
     30 ****        -2.4011  -1.3910  -1.0313 H              1 S1                 0.0000
     31 ****        -0.3679   0.5518   0.1744 H              1 S1                 0.0000
     32 ****         0.7284   0.2083  -1.7398 H              1 S1                 0.0000
     33 ****        -0.2855  -1.8645   1.0761 H              1 S1                 0.0000
     34 ****        -0.0745  -2.4036  -0.5683 H              1 S1                 0.0000
     35 ****         2.0301  -3.2727   1.0955 H              1 S1                 0.0000
     36 ****         2.0542  -3.2431  -0.6566 H              1 S1                 0.0000
     37 ****         4.3591  -3.4167   0.2518 H              1 S1                 0.0000
     38 ****         4.1475  -1.9602  -0.6893 H              1 S1                 0.0000
     39 ****         4.0445  -2.1585   2.3533 H              1 S1                 0.0000
     40 ****         6.1110  -0.8022   0.5543 H              1 S1                 0.0000
     41 ****         6.3560  -2.2917   1.4628 H              1 S1                 0.0000
     42 ****         6.1027  -0.7746   2.3159 H              1 S1                 0.0000
     43 ****         3.7415   0.2904   2.3412 H              1 S1                 0.0000
     44 ****         3.7677   0.3196   0.5949 H              1 S1                 0.0000
     45 ****         1.4534   0.3996   1.4087 H              1 S1                 0.0000
     46 ****         1.6671  -1.0645   2.3420 H              1 S1                 0.0000
     47 ****         1.8970  -0.8812  -0.5751 H              1 S1                 0.0000
     48 ****        -4.4661   2.4983  -2.9589 H              1 S1                 0.0000
     49 ****        -0.7397   0.6511  -2.1580 LP             1 S1                 0.0000
     50 ****        -0.2596  -0.9033  -2.3004 LP             1 S1                 0.0000
@<TRIPOS>BOND
    1    1    2 1     
    2    1   22 1     
    3    1   23 1     
    4    1   24 1     
    5    2   10 1     
    6    2    3 2     
    7    3    4 1     
    8    3   48 1     
    9    4    9 ar    
   10    4    5 ar    
   11    5    6 ar    
   12    5   25 1     
   13    6    7 ar    
   14    6   26 1     
   15    7    8 ar    
   16    7   27 1     
   17    8    9 ar    
   18    8   28 1     
   19    9   10 1     
   20   10   11 1     
   21   11   12 1     
   22   11   29 1     
   23   11   30 1     
   24   12   13 1     
   25   12   14 1     
   26   12   31 1     
   27   13   32 1     
   28   14   15 1     
   29   14   33 1     
   30   14   34 1     
   31   15   21 1     
   32   15   16 1     
   33   15   47 1     
   34   16   17 1     
   35   16   35 1     
   36   16   36 1     
   37   17   18 1     
   38   17   37 1     
   39   17   38 1     
   40   18   19 1     
   41   18   20 1     
   42   18   39 1     
   43   19   40 1     
   44   19   41 1     
   45   19   42 1     
   46   20   21 1     
   47   20   43 1     
   48   20   44 1     
   49   21   45 1     
   50   21   46 1     
   51   13   49 1     
   52   13   50 1     
@<TRIPOS>SUBSTRUCTURE
      1 S1             1
@<TRIPOS>SET
LONE_PAIRS      STATIC     ATOMS    <user>   **** ""
2 49 50
DONOR_HYDROGENS      STATIC     ATOMS    <user>   **** ""
3 48 32 47
ATOM$BLUE        STATIC     ATOMS    COLORGROUP SYSTEM
2 49 50
ATOM$RED        STATIC     ATOMS    COLORGROUP SYSTEM
3 48 32 47
