AV-unprocessed.smi:249|AV-procd|sdf|1918|dock1
  -GOLD-   2262021 13D 1   1.00000     0.00000
 Structure written by MMmdl.
 64 67  0  0  0  0  0  0  0  0  2 V2000
  143.8362  132.3884  151.3995 C   0  0  0  0  0  0  0  0  0  0  0  0
  145.1339  132.1617  150.6114 C   0  0  0  0  0  0  0  0  0  0  0  0
  146.3119  131.9937  151.5012 N   0  3  2  0  0  0  0  0  0  0  0  0
  146.0703  131.0714  152.6436 C   0  0  0  0  0  0  0  0  0  0  0  0
  147.3769  130.7743  153.3953 C   0  0  0  0  0  0  0  0  0  0  0  0
  148.0450  132.0743  153.8873 C   0  0  1  0  0  0  0  0  0  0  0  0
  149.2672  131.8537  154.6718 N   0  0  0  0  0  0  0  0  0  0  0  0
  149.3849  130.5935  155.3955 C   0  0  0  0  0  0  0  0  0  0  0  0
  149.8018  132.9159  155.3201 C   0  0  0  0  0  0  0  0  0  0  0  0
  150.9503  132.7111  156.0127 N   0  0  0  0  0  0  0  0  0  0  0  0
  151.5229  133.7201  156.6760 C   0  0  0  0  0  0  0  0  0  0  0  0
  151.1196  134.9883  156.7761 N   0  0  0  0  0  0  0  0  0  0  0  0
  149.9619  135.1956  156.0860 C   0  0  0  0  0  0  0  0  0  0  0  0
  149.2387  134.2241  155.3388 C   0  0  0  0  0  0  0  0  0  0  0  0
  148.1116  134.8081  154.7712 N   0  0  0  0  0  0  0  0  0  0  0  0
  148.1636  136.0518  155.1644 C   0  0  0  0  0  0  0  0  0  0  0  0
  149.2473  136.3715  155.9503 N   0  0  0  0  0  0  0  0  0  0  0  0
  149.5625  137.6703  156.5173 C   0  0  0  0  0  0  0  0  0  0  0  0
  150.8523  138.2927  155.9272 C   0  0  1  0  0  0  0  0  0  0  0  0
  150.8867  138.2374  154.3806 C   0  0  0  0  0  0  0  0  0  0  0  0
  151.1993  136.9396  153.9169 O   0  0  0  0  0  0  0  0  0  0  0  0
  151.0979  139.7218  156.4733 C   0  0  2  0  0  0  0  0  0  0  0  0
  150.9271  139.8705  157.9751 C   0  0  0  0  0  0  0  0  0  0  0  0
  150.7533  141.3769  158.1340 C   0  0  0  0  0  0  0  0  0  0  0  0
  150.1036  141.8173  156.9470 O   0  0  0  0  0  0  0  0  0  0  0  0
  150.1002  140.7739  155.9779 C   0  0  0  0  0  0  0  0  0  0  0  0
  148.2538  133.0188  152.6835 C   0  0  0  0  0  0  0  0  0  0  0  0
  146.9407  133.2827  151.9172 C   0  0  2  0  0  0  0  0  0  0  0  0
  145.9824  134.2121  152.6939 C   0  0  0  0  0  0  0  0  0  0  0  0
  142.9806  132.4253  150.7249 H   0  0  0  0  0  0  0  0  0  0  0  0
  143.8508  133.3264  151.9535 H   0  0  0  0  0  0  0  0  0  0  0  0
  143.6604  131.5800  152.1099 H   0  0  0  0  0  0  0  0  0  0  0  0
  145.0032  131.2605  150.0110 H   0  0  0  0  0  0  0  0  0  0  0  0
  145.3039  132.9803  149.9106 H   0  0  0  0  0  0  0  0  0  0  0  0
  145.3276  131.4937  153.3209 H   0  0  0  0  0  0  0  0  0  0  0  0
  145.6570  130.1298  152.2839 H   0  0  0  0  0  0  0  0  0  0  0  0
  147.1731  130.1150  154.2398 H   0  0  0  0  0  0  0  0  0  0  0  0
  148.0441  130.2297  152.7260 H   0  0  0  0  0  0  0  0  0  0  0  0
  147.3458  132.5541  154.5728 H   0  0  0  0  0  0  0  0  0  0  0  0
  150.3597  130.5089  155.8780 H   0  0  0  0  0  0  0  0  0  0  0  0
  149.2833  129.7553  154.7059 H   0  0  0  0  0  0  0  0  0  0  0  0
  148.6151  130.4961  156.1604 H   0  0  0  0  0  0  0  0  0  0  0  0
  152.4344  133.4769  157.2021 H   0  0  0  0  0  0  0  0  0  0  0  0
  147.4142  136.7776  154.8826 H   0  0  0  0  0  0  0  0  0  0  0  0
  148.7128  138.3349  156.3568 H   0  0  0  0  0  0  0  0  0  0  0  0
  149.6540  137.5433  157.5961 H   0  0  0  0  0  0  0  0  0  0  0  0
  151.6845  137.6763  156.2708 H   0  0  0  0  0  0  0  0  0  0  0  0
  149.9275  138.5377  153.9595 H   0  0  0  0  0  0  0  0  0  0  0  0
  151.6195  138.9376  153.9794 H   0  0  0  0  0  0  0  0  0  0  0  0
  150.8700  136.8466  153.0360 H   0  0  0  0  0  0  0  0  0  0  0  0
  152.1040  140.0488  156.2055 H   0  0  0  0  0  0  0  0  0  0  0  0
  150.0267  139.3535  158.3101 H   0  0  0  0  0  0  0  0  0  0  0  0
  151.7736  139.4881  158.5463 H   0  0  0  0  0  0  0  0  0  0  0  0
  150.1797  141.6388  159.0235 H   0  0  0  0  0  0  0  0  0  0  0  0
  151.7252  141.8676  158.1999 H   0  0  0  0  0  0  0  0  0  0  0  0
  150.3556  141.1591  154.9904 H   0  0  0  0  0  0  0  0  0  0  0  0
  149.0924  140.3593  155.9271 H   0  0  0  0  0  0  0  0  0  0  0  0
  148.6846  133.9670  153.0059 H   0  0  0  0  0  0  0  0  0  0  0  0
  148.9744  132.5774  151.9943 H   0  0  0  0  0  0  0  0  0  0  0  0
  147.2174  133.8097  151.0029 H   0  0  0  0  0  0  0  0  0  0  0  0
  146.4836  135.1424  152.9621 H   0  0  0  0  0  0  0  0  0  0  0  0
  145.6225  133.7624  153.6186 H   0  0  0  0  0  0  0  0  0  0  0  0
  145.1114  134.4835  152.0977 H   0  0  0  0  0  0  0  0  0  0  0  0
  147.0109  131.5409  150.9297 H   0  0  0  0  0  0  0  0  0  0  0  0
  1  2  1  0  0  0  0
  1 30  1  0  0  0  0
  1 31  1  0  0  0  0
  1 32  1  0  0  0  0
  2  3  1  0  0  0  0
  2 33  1  0  0  0  0
  2 34  1  0  0  0  0
  3 28  1  0  0  0  0
  3  4  1  0  0  0  0
  3 64  1  0  0  0  0
  4  5  1  0  0  0  0
  4 35  1  0  0  0  0
  4 36  1  0  0  0  0
  5  6  1  0  0  0  0
  5 37  1  0  0  0  0
  5 38  1  0  0  0  0
  6  7  1  0  0  0  0
  6 27  1  0  0  0  0
  6 39  1  0  0  0  0
  7  8  1  0  0  0  0
  7  9  1  0  0  0  0
  8 40  1  0  0  0  0
  8 41  1  0  0  0  0
  8 42  1  0  0  0  0
  9 14  1  0  0  0  0
  9 10  2  0  0  0  0
 10 11  1  0  0  0  0
 11 12  2  0  0  0  0
 11 43  1  0  0  0  0
 12 13  1  0  0  0  0
 13 17  1  0  0  0  0
 13 14  2  0  0  0  0
 14 15  1  0  0  0  0
 15 16  2  0  0  0  0
 16 17  1  0  0  0  0
 16 44  1  0  0  0  0
 17 18  1  0  0  0  0
 18 19  1  0  0  0  0
 18 45  1  0  0  0  0
 18 46  1  0  0  0  0
 19 20  1  0  0  0  0
 19 22  1  0  0  0  0
 19 47  1  0  0  0  0
 20 21  1  0  0  0  0
 20 48  1  0  0  0  0
 20 49  1  0  0  0  0
 21 50  1  0  0  0  0
 22 26  1  0  0  0  0
 22 23  1  0  0  0  0
 22 51  1  0  0  0  0
 23 24  1  0  0  0  0
 23 52  1  0  0  0  0
 23 53  1  0  0  0  0
 24 25  1  0  0  0  0
 24 54  1  0  0  0  0
 24 55  1  0  0  0  0
 25 26  1  0  0  0  0
 26 56  1  0  0  0  0
 26 57  1  0  0  0  0
 27 28  1  0  0  0  0
 27 58  1  0  0  0  0
 27 59  1  0  0  0  0
 28 29  1  0  0  0  0
 28 60  1  0  0  0  0
 29 61  1  0  0  0  0
 29 62  1  0  0  0  0
 29 63  1  0  0  0  0
M  CHG  1   3   1
M  END
> <s_m_source_file>
AV-unprocessed.smi

> <i_m_source_file_index>
249

> <i_lp_mmshare_version>
43012

> <i_f3d_flags>
0

> <s_epik_input>
W0NIM11bQ0gyXU4xW0NIMl1bQ0gyXVtDQEhdKFtDSDJdW0NASF0xW0NIM10pTihbQ0gzXSljKG5bY0hdbjIpYyhjMjMpbltjSF1uM1tDSDJdW0NASF0oW0NIMl1bT0hdKVtDQEBIXTRbQ0gyXVtDSDJdT1tDSDJdNA==

> <s_epik_cmdline>
J2VwaWtfcHl0aG9uJywgJy1waCcsICc3LjAnLCAnLXRuJywgJzgnLCAnLW1hJywgJzIwMCcsICctbWV0YWxfYmluZGluZycsICctaW1hZScsICc8aW5maWxlLm1hZT4nLCAnLW9tYWUnLCAnPG91dGZpbGUubWFlPic=

> <r_lp_tautomer_probability>
1

> <r_epik_Ionization_Penalty>
0.00294688

> <r_epik_Ionization_Penalty_Charging>
0.00169971

> <r_epik_Ionization_Penalty_Neutral>
0.00124717

> <r_epik_State_Penalty>
-0

> <r_epik_Charging_Adjusted_Penalty>
0.00169971

> <i_epik_Tot_Q>
1

> <i_epik_Tot_abs_Q>
1

> <r_epik_Metal_State_Penalty>
-0

> <b_epik_Metal_Only>
0

> <s_lp_Force_Field>
OPLS_2005

> <r_lp_Energy>
53.4352

> <b_lp_Chiralities_Consistent>
1

> <s_lp_Variant>
AV-unprocessed.smi:249-21

> <Gold.Version>
5.8.1

> <Gold.Id.Protein>
6NUR|6NUR_protein|mol2

> <Gold.PLP.Fitness>
51.8512

> <Gold.PLP.PLP>
-44.0645

> <Gold.PLP.part.hbond>
-3.1574

> <Gold.PLP.part.metal>
0.0000

> <Gold.PLP.part.buried>
-6.7125

> <Gold.PLP.part.nonpolar>
-34.2088

> <Gold.PLP.part.repulsive>
0.2512

> <Gold.PLP.ligand.clash>
0.0000

> <Gold.PLP.ligand.torsion>
1.2749

> <Gold.PLP.Chemscore.Hbond>
3.0000

> <Gold.PLP.Chemscore.CHOScore>
0.0000

> <Gold.PLP.Chemscore.Metal>
0.0000

> <Gold.Chemscore.Hbonds>
donor molecule, donor type, donor heavy atom, donor atom, acceptor molecule, acceptor atom, score
      L1  H     3    64       P1 10747  0.62
      L1  H    21    50       P1  7949  0.68
      P1  H 10752 10765       L1    21  0.62

> <Gold.PLP.Chemscore.Internal.Correction>
1.3365

> <Gold.Rescore>
     Score         DG    S(hbond)    S(metal)    S(lipo)     H(rot)  DE(clash)    DE(int)     intcor
     12.97     -18.93       2.73        0.00     100.34       2.90       0.59       5.37       ----

> <Gold.Chemscore.Fitness>
12.9676

> <Gold.Chemscore.DG>
-18.9257

> <Gold.Chemscore.ZeroCoef>
-5.4800

> <Gold.Chemscore.Hbond>
2.7339

> <Gold.Chemscore.Metal>
0.0000

> <Gold.Chemscore.Lipo>
100.3433

> <Gold.Chemscore.Internal_Hbond>
0.0000

> <Gold.Chemscore.DEClash>
0.5916

> <Gold.Chemscore.DEInternal>
5.3665

> <Gold.Chemscore.Rot>
2.9006

> <Gold.Chemscore.Internal.Correction>
   9.000000E+99

> <Gold.Chemscore.Hbonds>
donor molecule, donor type, donor heavy atom, donor atom, acceptor molecule, acceptor atom, score
      L1  H     3    64       P1 10747  0.62
      L1  H    21    50       P1  7949  0.10
      P1  H 10752 10765       L1    21  0.49

> <Gold.Chemscore.Hbond.Weighted>
-9.1311

> <Gold.Chemscore.Metal.Weighted>
-0.0000

> <Gold.Chemscore.Lipo.Weighted>
-11.7402

> <Gold.Chemscore.Internal_Hbond.Weighted>
0.0000

> <Gold.Chemscore.DEClash.Weighted>
0.5916

> <Gold.Chemscore.DEInternal.Weighted>
5.3665

> <Gold.Chemscore.Rot.Weighted>
7.4256

> <Gold.Chemscore.Internal.Correction.Weighted>
   9.000000E+99

> <Gold.Protein.RotatedTorsions>
[ 6907 6896 6895 6894 ] final  -74.85 input  -60.11 | X-H torsion
[ 7974 7965 7964 7962 ] final   24.77 input  175.53 | X-H torsion
[ 8008 7997 7996 7995 ] final   54.93 input   59.86 | X-H torsion
[ 10167 10162 10161 10158 ] final   79.46 input  -65.29 | X-H torsion
[ 10718 10713 10712 10709 ] final  -36.98 input   66.30 | X-H torsion
[ 10763 10752 10751 10750 ] final  160.11 input  -60.55 | X-H torsion
[ 11005 11000 10999 10996 ] final  165.84 input  -57.11 | X-H torsion

> <Gold.Protein.ActiveResidues>
 VAL166  LYS551  ARG553  GLY616  TRP617  ASP618  TYR619  PRO620  LYS621  CYS622 
 ASP623  PHE694  ASN695  SER759  ASP760  ASP761  ALA762  ILE779  LEU786  VAL792 
 PHE793  MET794  SER795  GLU796  ALA797  LYS798  CYS799  TRP800  GLU811  SER814 

> <Gold.Protein.RotatedAtoms>
  150.7079  134.4808  159.5469 H   0  0  0  0  0  0  0  0  0  0  0  0  # atno 6907 bound_to 6896
  152.2445  134.8192  160.0464 H   0  0  0  0  0  0  0  0  0  0  0  0  # atno 6908 bound_to 6896
  151.8961  133.3492  159.3852 H   0  0  0  0  0  0  0  0  0  0  0  0  # atno 6909 bound_to 6896
  146.1921  139.7559  142.8824 H   0  0  0  0  0  0  0  0  0  0  0  0  # atno 7974 bound_to 7965
  155.4928  140.3472  155.4358 H   0  0  0  0  0  0  0  0  0  0  0  0  # atno 8008 bound_to 7997
  156.0965  140.1424  156.9552 H   0  0  0  0  0  0  0  0  0  0  0  0  # atno 8009 bound_to 7997
  154.4667  140.0915  156.7016 H   0  0  0  0  0  0  0  0  0  0  0  0  # atno 8010 bound_to 7997
  139.9601  144.5967  150.8080 H   0  0  0  0  0  0  0  0  0  0  0  0  # atno 10167 bound_to 10162
  156.3206  130.4265  149.7964 H   0  0  0  0  0  0  0  0  0  0  0  0  # atno 10718 bound_to 10713
  154.2424  135.2774  155.2849 H   0  0  0  0  0  0  0  0  0  0  0  0  # atno 10763 bound_to 10752
  154.5534  135.5668  153.6946 H   0  0  0  0  0  0  0  0  0  0  0  0  # atno 10764 bound_to 10752
  152.9997  135.6280  154.2568 H   0  0  0  0  0  0  0  0  0  0  0  0  # atno 10765 bound_to 10752
  140.2603  134.7907  157.3584 H   0  0  0  0  0  0  0  0  0  0  0  0  # atno 11005 bound_to 11000
  145.3758  141.0350  143.3205 LP  0  0  0  0  0  0  0  0  0  0  0  0  # atno 17320 bound_to 7965
  144.8508  139.5325  143.6857 LP  0  0  0  0  0  0  0  0  0  0  0  0  # atno 17321 bound_to 7965
  140.7556  143.3049  151.2987 LP  0  0  0  0  0  0  0  0  0  0  0  0  # atno 17342 bound_to 10162
  139.6561  144.0274  152.2660 LP  0  0  0  0  0  0  0  0  0  0  0  0  # atno 17343 bound_to 10162
  156.5273  130.8242  151.3225 LP  0  0  0  0  0  0  0  0  0  0  0  0  # atno 17370 bound_to 10713
  157.7411  130.9863  150.2421 LP  0  0  0  0  0  0  0  0  0  0  0  0  # atno 17371 bound_to 10713
  140.1471  134.4897  155.7988 LP  0  0  0  0  0  0  0  0  0  0  0  0  # atno 17394 bound_to 11000
  141.2191  133.6848  156.7313 LP  0  0  0  0  0  0  0  0  0  0  0  0  # atno 17395 bound_to 11000

$$$$
