AV-unprocessed.smi:1962|AV-procd|sdf|7925|dock1
  -GOLD-   2272010 93D 1   1.00000     0.00000
 Structure written by MMmdl.
 35 36  0  0  0  0  0  0  0  0  2 V2000
  150.4184  141.3841  156.6997 C   0  0  0  0  0  0  0  0  0  0  0  0
  151.8137  141.4290  157.3378 C   0  0  1  0  0  0  0  0  0  0  0  0
  151.7210  141.5947  158.8780 C   0  0  0  0  0  0  0  0  0  0  0  0
  151.7143  142.9812  159.3396 N   0  0  0  0  0  0  0  0  0  0  0  0
  151.8853  144.1408  158.6062 C   0  0  0  0  0  0  0  0  0  0  0  0
  151.7850  145.1926  159.4708 C   0  0  0  0  0  0  0  0  0  0  0  0
  151.5352  144.5738  160.7269 C   0  0  0  0  0  0  0  0  0  0  0  0
  151.4798  143.2552  160.6445 N   0  0  0  0  0  0  0  0  0  0  0  0
  152.5234  140.1891  157.0014 N   0  5  0  0  0  0  0  0  0  0  0  0
  152.0632  139.2162  156.1565 C   0  0  0  0  0  0  0  0  0  0  0  0
  152.1813  139.2052  154.9250 O   0  0  0  0  0  0  0  0  0  0  0  0
  151.3489  138.0404  156.7370 C   0  0  0  0  0  0  0  0  0  0  0  0
  151.0367  137.0392  155.9741 N   0  0  0  0  0  0  0  0  0  0  0  0
  150.3906  135.9190  156.4540 N   0  0  0  0  0  0  0  0  0  0  0  0
  150.3562  134.7896  155.5273 C   0  0  0  0  0  0  0  0  0  0  0  0
  149.7976  135.8326  157.6702 C   0  0  0  0  0  0  0  0  0  0  0  0
  149.2468  134.8159  158.0930 O   0  0  0  0  0  0  0  0  0  0  0  0
  149.8065  137.1027  158.5245 C   0  0  0  0  0  0  0  0  0  0  0  0
  151.0194  138.0033  158.2193 C   0  0  0  0  0  0  0  0  0  0  0  0
  149.8634  142.2983  156.9103 H   0  0  0  0  0  0  0  0  0  0  0  0
  149.8322  140.5459  157.0786 H   0  0  0  0  0  0  0  0  0  0  0  0
  150.4834  141.2836  155.6157 H   0  0  0  0  0  0  0  0  0  0  0  0
  152.3177  142.3089  156.9345 H   0  0  0  0  0  0  0  0  0  0  0  0
  150.8031  141.1294  159.2387 H   0  0  0  0  0  0  0  0  0  0  0  0
  152.5406  141.0629  159.3647 H   0  0  0  0  0  0  0  0  0  0  0  0
  152.0708  144.1180  157.5423 H   0  0  0  0  0  0  0  0  0  0  0  0
  151.8759  146.2435  159.2403 H   0  0  0  0  0  0  0  0  0  0  0  0
  151.3877  145.0405  161.6894 H   0  0  0  0  0  0  0  0  0  0  0  0
  150.8978  133.9386  155.9419 H   0  0  0  0  0  0  0  0  0  0  0  0
  150.8113  135.0355  154.5665 H   0  0  0  0  0  0  0  0  0  0  0  0
  149.3283  134.4801  155.3330 H   0  0  0  0  0  0  0  0  0  0  0  0
  148.8850  137.6461  158.3121 H   0  0  0  0  0  0  0  0  0  0  0  0
  149.7826  136.8446  159.5838 H   0  0  0  0  0  0  0  0  0  0  0  0
  151.8922  137.6539  158.7719 H   0  0  0  0  0  0  0  0  0  0  0  0
  150.7977  139.0032  158.5935 H   0  0  0  0  0  0  0  0  0  0  0  0
  1  2  1  0  0  0  0
  1 20  1  0  0  0  0
  1 21  1  0  0  0  0
  1 22  1  0  0  0  0
  2  3  1  0  0  0  0
  2  9  1  0  0  0  0
  2 23  1  0  0  0  0
  3  4  1  0  0  0  0
  3 24  1  0  0  0  0
  3 25  1  0  0  0  0
  4  8  1  0  0  0  0
  4  5  1  0  0  0  0
  5  6  2  0  0  0  0
  5 26  1  0  0  0  0
  6  7  1  0  0  0  0
  6 27  1  0  0  0  0
  7  8  2  0  0  0  0
  7 28  1  0  0  0  0
  9 10  1  0  0  0  0
 10 11  2  0  0  0  0
 10 12  1  0  0  0  0
 12 19  1  0  0  0  0
 12 13  2  0  0  0  0
 13 14  1  0  0  0  0
 14 15  1  0  0  0  0
 14 16  1  0  0  0  0
 15 29  1  0  0  0  0
 15 30  1  0  0  0  0
 15 31  1  0  0  0  0
 16 17  2  0  0  0  0
 16 18  1  0  0  0  0
 18 19  1  0  0  0  0
 18 32  1  0  0  0  0
 18 33  1  0  0  0  0
 19 34  1  0  0  0  0
 19 35  1  0  0  0  0
M  CHG  1   9  -1
M  END
> <s_m_source_file>
AV-unprocessed.smi

> <i_m_source_file_index>
1962

> <i_lp_mmshare_version>
43012

> <i_f3d_flags>
0

> <s_epik_input>
bjFbY0hdW2NIXVtjSF1uMVtDSDJdW0NAQEhdKFtDSDNdKVtOSF1DKD1PKUMyPU5OKFtDSDNdKUMoPU8pW0NIMl1bQ0gyXTI=

> <s_epik_cmdline>
J2VwaWtfcHl0aG9uJywgJy1waCcsICc3LjAnLCAnLXRuJywgJzgnLCAnLW1hJywgJzIwMCcsICctbWV0YWxfYmluZGluZycsICctaW1hZScsICc8aW5maWxlLm1hZT4nLCAnLW9tYWUnLCAnPG91dGZpbGUubWFlPic=

> <r_lp_tautomer_probability>
1

> <r_epik_Ionization_Penalty>
5.21086

> <r_epik_Ionization_Penalty_Charging>
5.21084

> <r_epik_Ionization_Penalty_Neutral>
2.41961e-05

> <r_epik_State_Penalty>
5.21075

> <r_epik_Charging_Adjusted_Penalty>
10.4216

> <i_epik_Tot_Q>
-1

> <i_epik_Tot_abs_Q>
1

> <r_epik_Metal_State_Penalty>
1.27477

> <b_epik_Metal_Only>
1

> <s_epik_Chemistry_Notes>
This compound has an imine and may undergo hydrolysis.

> <s_lp_Force_Field>
OPLS_2005

> <r_lp_Energy>
25.3594

> <b_lp_Chiralities_Consistent>
1

> <s_lp_Variant>
AV-unprocessed.smi:1962-4

> <Gold.Version>
5.8.1

> <Gold.Id.Protein>
6NUR|6NUR_protein|mol2

> <Gold.PLP.Fitness>
43.0190

> <Gold.PLP.PLP>
-33.4250

> <Gold.PLP.part.hbond>
-3.0000

> <Gold.PLP.part.metal>
0.0000

> <Gold.PLP.part.buried>
-4.3847

> <Gold.PLP.part.nonpolar>
-25.5253

> <Gold.PLP.part.repulsive>
0.1817

> <Gold.PLP.ligand.clash>
0.0000

> <Gold.PLP.ligand.torsion>
1.2449

> <Gold.PLP.Chemscore.Hbond>
4.0000

> <Gold.PLP.Chemscore.CHOScore>
0.0000

> <Gold.PLP.Chemscore.Metal>
0.0000

> <Gold.Chemscore.Hbonds>
donor molecule, donor type, donor heavy atom, donor atom, acceptor molecule, acceptor atom, score
      P1  H  6896  6909       L1    17  0.95
      P1  H  7989  7998       L1    11  0.41
      P1  H  7997  8009       L1     9  1.70

> <Gold.PLP.Chemscore.Internal.Correction>
0.0839

> <Gold.Rescore>
     Score         DG    S(hbond)    S(metal)    S(lipo)     H(rot)  DE(clash)    DE(int)     intcor
     17.25     -18.62       2.47        0.00      74.61       1.50       0.06       1.32       ----

> <Gold.Chemscore.Fitness>
17.2480

> <Gold.Chemscore.DG>
-18.6246

> <Gold.Chemscore.ZeroCoef>
-5.4800

> <Gold.Chemscore.Hbond>
2.4690

> <Gold.Chemscore.Metal>
0.0000

> <Gold.Chemscore.Lipo>
74.6071

> <Gold.Chemscore.Internal_Hbond>
0.0000

> <Gold.Chemscore.DEClash>
0.0565

> <Gold.Chemscore.DEInternal>
1.3202

> <Gold.Chemscore.Rot>
1.4964

> <Gold.Chemscore.Internal.Correction>
   9.000000E+99

> <Gold.Chemscore.Hbonds>
donor molecule, donor type, donor heavy atom, donor atom, acceptor molecule, acceptor atom, score
      P1  H  6896  6909       L1    17  0.21
      P1  H  7989  7998       L1    11  0.41
      P1  H  7997  8009       L1     9  0.14

> <Gold.Chemscore.Hbond.Weighted>
-8.2464

> <Gold.Chemscore.Metal.Weighted>
-0.0000

> <Gold.Chemscore.Lipo.Weighted>
-8.7290

> <Gold.Chemscore.Internal_Hbond.Weighted>
0.0000

> <Gold.Chemscore.DEClash.Weighted>
0.0565

> <Gold.Chemscore.DEInternal.Weighted>
1.3202

> <Gold.Chemscore.Rot.Weighted>
3.8309

> <Gold.Chemscore.Internal.Correction.Weighted>
   9.000000E+99

> <Gold.Protein.RotatedTorsions>
[ 6907 6896 6895 6894 ] final   28.22 input  -60.11 | X-H torsion
[ 7974 7965 7964 7962 ] final  -67.82 input  175.53 | X-H torsion
[ 8008 7997 7996 7995 ] final -168.75 input   59.86 | X-H torsion
[ 10167 10162 10161 10158 ] final -120.96 input  -65.29 | X-H torsion
[ 10718 10713 10712 10709 ] final  -25.50 input   66.30 | X-H torsion
[ 10763 10752 10751 10750 ] final -103.36 input  -60.55 | X-H torsion
[ 11005 11000 10999 10996 ] final   16.80 input  -57.11 | X-H torsion

> <Gold.Protein.ActiveResidues>
 VAL166  LYS551  ARG553  GLY616  TRP617  ASP618  TYR619  PRO620  LYS621  CYS622 
 ASP623  PHE694  ASN695  SER759  ASP760  ASP761  ALA762  ILE779  LEU786  VAL792 
 PHE793  MET794  SER795  GLU796  ALA797  LYS798  CYS799  TRP800  GLU811  SER814 

> <Gold.Protein.RotatedAtoms>
  152.0138  134.9861  160.0568 H   0  0  0  0  0  0  0  0  0  0  0  0  # atno 6907 bound_to 6896
  152.1403  133.4455  159.4772 H   0  0  0  0  0  0  0  0  0  0  0  0  # atno 6908 bound_to 6896
  150.6864  134.2231  159.4448 H   0  0  0  0  0  0  0  0  0  0  0  0  # atno 6909 bound_to 6896
  145.7243  140.9025  143.0613 H   0  0  0  0  0  0  0  0  0  0  0  0  # atno 7974 bound_to 7965
  155.8957  140.1032  157.1386 H   0  0  0  0  0  0  0  0  0  0  0  0  # atno 8008 bound_to 7997
  154.4020  140.1302  156.4436 H   0  0  0  0  0  0  0  0  0  0  0  0  # atno 8009 bound_to 7997
  155.7481  140.3465  155.5139 H   0  0  0  0  0  0  0  0  0  0  0  0  # atno 8010 bound_to 7997
  140.0302  143.5256  152.2180 H   0  0  0  0  0  0  0  0  0  0  0  0  # atno 10167 bound_to 10162
  156.4636  130.4509  149.6913 H   0  0  0  0  0  0  0  0  0  0  0  0  # atno 10718 bound_to 10713
  154.7801  135.4826  153.9827 H   0  0  0  0  0  0  0  0  0  0  0  0  # atno 10763 bound_to 10752
  153.1483  135.6786  153.8929 H   0  0  0  0  0  0  0  0  0  0  0  0  # atno 10764 bound_to 10752
  153.8581  135.3159  155.3414 H   0  0  0  0  0  0  0  0  0  0  0  0  # atno 10765 bound_to 10752
  140.4431  134.1301  155.7693 H   0  0  0  0  0  0  0  0  0  0  0  0  # atno 11005 bound_to 11000
  144.6909  139.9245  143.7469 LP  0  0  0  0  0  0  0  0  0  0  0  0  # atno 17320 bound_to 7965
  146.0596  139.3591  143.0589 LP  0  0  0  0  0  0  0  0  0  0  0  0  # atno 17321 bound_to 7965
  139.6081  144.7601  151.3015 LP  0  0  0  0  0  0  0  0  0  0  0  0  # atno 17342 bound_to 10162
  140.7305  143.6877  150.7948 LP  0  0  0  0  0  0  0  0  0  0  0  0  # atno 17343 bound_to 10162
  156.3691  130.7521  151.2502 LP  0  0  0  0  0  0  0  0  0  0  0  0  # atno 17370 bound_to 10713
  157.7496  131.0328  150.4243 LP  0  0  0  0  0  0  0  0  0  0  0  0  # atno 17371 bound_to 10713
  141.1697  133.8633  157.1608 LP  0  0  0  0  0  0  0  0  0  0  0  0  # atno 17394 bound_to 11000
  140.0056  135.0009  157.0286 LP  0  0  0  0  0  0  0  0  0  0  0  0  # atno 17395 bound_to 11000

$$$$
