AV-unprocessed.smi:217|AV-procd|sdf|1660|dock1
  -GOLD-   2262020 53D 1   1.00000     0.00000
 Structure written by MMmdl.
 57 61  0  0  0  0  0  0  0  0  1 V2000
  147.4893  133.1113  151.4096 O   0  0  0  0  0  0  0  0  0  0  0  0
  146.1669  133.0997  150.9127 C   0  0  0  0  0  0  0  0  0  0  0  0
  145.3039  134.1702  151.6005 C   0  0  0  0  0  0  0  0  0  0  0  0
  143.8135  133.8122  151.4277 C   0  0  0  0  0  0  0  0  0  0  0  0
  143.4741  133.6446  150.0660 O   0  0  0  0  0  0  0  0  0  0  0  0
  145.7288  134.5433  153.0388 C   0  0  0  0  0  0  0  0  0  0  0  0
  145.4733  136.0186  152.7240 C   0  0  0  0  0  0  0  0  0  0  0  0
  146.2557  137.0525  153.3352 N   0  0  0  0  0  0  0  0  0  0  0  0
  146.1579  138.4071  153.1050 C   0  0  0  0  0  0  0  0  0  0  0  0
  146.9500  139.1542  153.8254 N   0  0  0  0  0  0  0  0  0  0  0  0
  147.6160  138.2476  154.6396 C   0  0  0  0  0  0  0  0  0  0  0  0
  148.5916  138.3718  155.6625 C   0  0  0  0  0  0  0  0  0  0  0  0
  149.0859  139.5710  156.0366 N   0  0  0  0  0  0  0  0  0  0  0  0
  150.5244  139.6967  155.8250 C   0  0  0  0  0  0  0  0  0  0  0  0
  150.9811  141.1485  156.0441 C   0  0  0  0  0  0  0  0  0  0  0  0
  150.5585  141.6723  157.4341 C   0  0  0  0  0  0  0  0  0  0  0  0
  150.9557  143.1478  157.6457 C   0  0  2  0  0  0  0  0  0  0  0  0
  152.4325  143.3771  157.9687 C   0  0  0  0  0  0  0  0  0  0  0  0
  152.3896  144.7282  158.6444 C   0  0  0  0  0  0  0  0  0  0  0  0
  151.0946  144.6410  159.4469 C   0  0  0  0  0  0  0  0  0  0  0  0
  150.2698  143.6956  158.7692 O   0  0  0  0  0  0  0  0  0  0  0  0
  149.0379  141.4716  157.6045 C   0  0  0  0  0  0  0  0  0  0  0  0
  148.6302  140.0113  157.3516 C   0  0  0  0  0  0  0  0  0  0  0  0
  149.0250  137.2377  156.2736 N   0  0  0  0  0  0  0  0  0  0  0  0
  148.5270  136.0527  155.9068 C   0  0  0  0  0  0  0  0  0  0  0  0
  147.6123  135.7843  154.9716 N   0  0  0  0  0  0  0  0  0  0  0  0
  147.1833  136.9229  154.3543 C   0  0  0  0  0  0  0  0  0  0  0  0
  145.6729  135.6306  151.2570 C   0  0  0  0  0  0  0  0  0  0  0  0
  147.9347  132.3382  151.0978 H   0  0  0  0  0  0  0  0  0  0  0  0
  146.1924  133.2360  149.8316 H   0  0  0  0  0  0  0  0  0  0  0  0
  145.7566  132.1043  151.0841 H   0  0  0  0  0  0  0  0  0  0  0  0
  143.5689  132.8845  151.9449 H   0  0  0  0  0  0  0  0  0  0  0  0
  143.1658  134.5755  151.8592 H   0  0  0  0  0  0  0  0  0  0  0  0
  142.6593  134.0937  149.9018 H   0  0  0  0  0  0  0  0  0  0  0  0
  145.0967  134.1379  153.8293 H   0  0  0  0  0  0  0  0  0  0  0  0
  146.7818  134.3383  153.2407 H   0  0  0  0  0  0  0  0  0  0  0  0
  144.4310  136.2784  152.9159 H   0  0  0  0  0  0  0  0  0  0  0  0
  145.4795  138.8281  152.3771 H   0  0  0  0  0  0  0  0  0  0  0  0
  151.0532  139.0344  156.5122 H   0  0  0  0  0  0  0  0  0  0  0  0
  150.7794  139.3774  154.8135 H   0  0  0  0  0  0  0  0  0  0  0  0
  152.0635  141.2023  155.9287 H   0  0  0  0  0  0  0  0  0  0  0  0
  150.5545  141.7834  155.2662 H   0  0  0  0  0  0  0  0  0  0  0  0
  151.0655  141.0719  158.1909 H   0  0  0  0  0  0  0  0  0  0  0  0
  150.6863  143.7399  156.7695 H   0  0  0  0  0  0  0  0  0  0  0  0
  152.7976  142.6211  158.6656 H   0  0  0  0  0  0  0  0  0  0  0  0
  153.0699  143.3666  157.0842 H   0  0  0  0  0  0  0  0  0  0  0  0
  153.2642  144.9281  159.2641 H   0  0  0  0  0  0  0  0  0  0  0  0
  152.3136  145.5168  157.8944 H   0  0  0  0  0  0  0  0  0  0  0  0
  151.2906  144.2691  160.4533 H   0  0  0  0  0  0  0  0  0  0  0  0
  150.5995  145.6085  159.5338 H   0  0  0  0  0  0  0  0  0  0  0  0
  148.7267  141.7646  158.6075 H   0  0  0  0  0  0  0  0  0  0  0  0
  148.5005  142.1215  156.9124 H   0  0  0  0  0  0  0  0  0  0  0  0
  147.5458  139.9129  157.4188 H   0  0  0  0  0  0  0  0  0  0  0  0
  149.0586  139.3692  158.1227 H   0  0  0  0  0  0  0  0  0  0  0  0
  148.9173  135.1972  156.4379 H   0  0  0  0  0  0  0  0  0  0  0  0
  146.7093  135.7408  150.9322 H   0  0  0  0  0  0  0  0  0  0  0  0
  144.9922  136.1238  150.5623 H   0  0  0  0  0  0  0  0  0  0  0  0
  1  2  1  0  0  0  0
  1 29  1  0  0  0  0
  2  3  1  0  0  0  0
  2 30  1  0  0  0  0
  2 31  1  0  0  0  0
  3 28  1  0  0  0  0
  3  4  1  0  0  0  0
  3  6  1  0  0  0  0
  4  5  1  0  0  0  0
  4 32  1  0  0  0  0
  4 33  1  0  0  0  0
  5 34  1  0  0  0  0
  6  7  1  0  0  0  0
  6 35  1  0  0  0  0
  6 36  1  0  0  0  0
  7  8  1  0  0  0  0
  7 28  1  0  0  0  0
  7 37  1  0  0  0  0
  8 27  1  0  0  0  0
  8  9  1  0  0  0  0
  9 10  2  0  0  0  0
  9 38  1  0  0  0  0
 10 11  1  0  0  0  0
 11 27  2  0  0  0  0
 11 12  1  0  0  0  0
 12 13  1  0  0  0  0
 12 24  2  0  0  0  0
 13 23  1  0  0  0  0
 13 14  1  0  0  0  0
 14 15  1  0  0  0  0
 14 39  1  0  0  0  0
 14 40  1  0  0  0  0
 15 16  1  0  0  0  0
 15 41  1  0  0  0  0
 15 42  1  0  0  0  0
 16 17  1  0  0  0  0
 16 22  1  0  0  0  0
 16 43  1  0  0  0  0
 17 21  1  0  0  0  0
 17 18  1  0  0  0  0
 17 44  1  0  0  0  0
 18 19  1  0  0  0  0
 18 45  1  0  0  0  0
 18 46  1  0  0  0  0
 19 20  1  0  0  0  0
 19 47  1  0  0  0  0
 19 48  1  0  0  0  0
 20 21  1  0  0  0  0
 20 49  1  0  0  0  0
 20 50  1  0  0  0  0
 22 23  1  0  0  0  0
 22 51  1  0  0  0  0
 22 52  1  0  0  0  0
 23 53  1  0  0  0  0
 23 54  1  0  0  0  0
 24 25  1  0  0  0  0
 25 26  2  0  0  0  0
 25 55  1  0  0  0  0
 26 27  1  0  0  0  0
 28 56  1  0  0  0  0
 28 57  1  0  0  0  0
M  END
> <s_m_source_file>
AV-unprocessed.smi

> <i_m_source_file_index>
217

> <i_lp_mmshare_version>
43012

> <i_f3d_flags>
0

> <s_epik_input>
W09IXVtDSDJdQzEoW0NIMl1bT0hdKVtDSDJdW0NIXShbQ0gyXTEpbihbY0hdbjIpYyhjMjMpbltjSF1uYzNONFtDSDJdW0NIMl1bQ0hdKFtDSDJdW0NIMl00KVtDQEBIXTVbQ0gyXVtDSDJdW0NIMl1PNQ==

> <s_epik_cmdline>
J2VwaWtfcHl0aG9uJywgJy1waCcsICc3LjAnLCAnLXRuJywgJzgnLCAnLW1hJywgJzIwMCcsICctbWV0YWxfYmluZGluZycsICctaW1hZScsICc8aW5maWxlLm1hZT4nLCAnLW9tYWUnLCAnPG91dGZpbGUubWFlPic=

> <r_lp_tautomer_probability>
1

> <r_epik_Ionization_Penalty>
0.0037022

> <r_epik_Ionization_Penalty_Charging>
0

> <r_epik_Ionization_Penalty_Neutral>
0.0037022

> <r_epik_State_Penalty>
0.00257654

> <r_epik_Charging_Adjusted_Penalty>
0.00257654

> <i_epik_Tot_Q>
0

> <i_epik_Tot_abs_Q>
0

> <r_epik_Metal_State_Penalty>
-0

> <b_epik_Metal_Only>
0

> <s_lp_Force_Field>
OPLS_2005

> <r_lp_Energy>
56.6597

> <b_lp_Chiralities_Consistent>
1

> <s_lp_Variant>
AV-unprocessed.smi:217-1

> <Gold.Version>
5.8.1

> <Gold.Id.Protein>
6NUR|6NUR_protein|mol2

> <Gold.PLP.Fitness>
45.1268

> <Gold.PLP.PLP>
-37.2253

> <Gold.PLP.part.hbond>
-2.0000

> <Gold.PLP.part.metal>
0.0000

> <Gold.PLP.part.buried>
-5.9072

> <Gold.PLP.part.nonpolar>
-30.4801

> <Gold.PLP.part.repulsive>
0.4335

> <Gold.PLP.ligand.clash>
0.0000

> <Gold.PLP.ligand.torsion>
0.9300

> <Gold.PLP.Chemscore.Hbond>
2.0000

> <Gold.PLP.Chemscore.CHOScore>
1.0000

> <Gold.PLP.Chemscore.Metal>
0.0000

> <Gold.Chemscore.Hbonds>
donor molecule, donor type, donor heavy atom, donor atom, acceptor molecule, acceptor atom, score
      L1  H     1    29       P1 10747  1.00
      L1  H     5    34       P1 10186  1.00
      L1  C     9    38       P1 10175  1.00

> <Gold.PLP.Chemscore.Internal.Correction>
0.7614

> <Gold.Rescore>
     Score         DG    S(hbond)    S(metal)    S(lipo)     H(rot)  DE(clash)    DE(int)     intcor
     12.71     -15.35       2.00        0.00      99.23       3.28       0.66       1.97       ----

> <Gold.Chemscore.Fitness>
12.7089

> <Gold.Chemscore.DG>
-15.3452

> <Gold.Chemscore.ZeroCoef>
-5.4800

> <Gold.Chemscore.Hbond>
1.9953

> <Gold.Chemscore.Metal>
0.0000

> <Gold.Chemscore.Lipo>
99.2314

> <Gold.Chemscore.Internal_Hbond>
0.0000

> <Gold.Chemscore.DEClash>
0.6644

> <Gold.Chemscore.DEInternal>
1.9719

> <Gold.Chemscore.Rot>
3.2848

> <Gold.Chemscore.Internal.Correction>
   9.000000E+99

> <Gold.Chemscore.Hbonds>
donor molecule, donor type, donor heavy atom, donor atom, acceptor molecule, acceptor atom, score
      L1  H     1    29       P1 10747  0.97
      L1  H     5    34       P1 10186  0.99

> <Gold.Chemscore.Hbond.Weighted>
-6.6643

> <Gold.Chemscore.Metal.Weighted>
-0.0000

> <Gold.Chemscore.Lipo.Weighted>
-11.6101

> <Gold.Chemscore.Internal_Hbond.Weighted>
0.0000

> <Gold.Chemscore.DEClash.Weighted>
0.6644

> <Gold.Chemscore.DEInternal.Weighted>
1.9719

> <Gold.Chemscore.Rot.Weighted>
8.4092

> <Gold.Chemscore.Internal.Correction.Weighted>
   9.000000E+99

> <Gold.Protein.RotatedTorsions>
[ 6907 6896 6895 6894 ] final   35.31 input  -60.11 | X-H torsion
[ 7974 7965 7964 7962 ] final   88.10 input  175.53 | X-H torsion
[ 8008 7997 7996 7995 ] final  -25.44 input   59.86 | X-H torsion
[ 10167 10162 10161 10158 ] final -158.35 input  -65.29 | X-H torsion
[ 10718 10713 10712 10709 ] final  106.38 input   66.30 | X-H torsion
[ 10763 10752 10751 10750 ] final  113.52 input  -60.55 | X-H torsion
[ 11005 11000 10999 10996 ] final   77.25 input  -57.11 | X-H torsion

> <Gold.Protein.ActiveResidues>
 VAL166  LYS551  ARG553  GLY616  TRP617  ASP618  TYR619  PRO620  LYS621  CYS622 
 ASP623  PHE694  ASN695  SER759  ASP760  ASP761  ALA762  ILE779  LEU786  VAL792 
 PHE793  MET794  SER795  GLU796  ALA797  LYS798  CYS799  TRP800  GLU811  SER814 

> <Gold.Protein.RotatedAtoms>
  152.1144  134.9251  160.0565 H   0  0  0  0  0  0  0  0  0  0  0  0  # atno 6907 bound_to 6896
  152.0416  133.3975  159.4347 H   0  0  0  0  0  0  0  0  0  0  0  0  # atno 6908 bound_to 6896
  150.6845  134.3329  159.4878 H   0  0  0  0  0  0  0  0  0  0  0  0  # atno 6909 bound_to 6896
  145.5502  139.2295  143.2517 H   0  0  0  0  0  0  0  0  0  0  0  0  # atno 7974 bound_to 7965
  154.4476  140.1926  156.0619 H   0  0  0  0  0  0  0  0  0  0  0  0  # atno 8008 bound_to 7997
  156.0576  140.3301  155.7397 H   0  0  0  0  0  0  0  0  0  0  0  0  # atno 8009 bound_to 7997
  155.5461  140.0591  157.2850 H   0  0  0  0  0  0  0  0  0  0  0  0  # atno 8010 bound_to 7997
  139.6699  143.9763  152.2277 H   0  0  0  0  0  0  0  0  0  0  0  0  # atno 10167 bound_to 10162
  157.6670  131.0849  150.5998 H   0  0  0  0  0  0  0  0  0  0  0  0  # atno 10718 bound_to 10713
  153.4937  135.3653  155.2504 H   0  0  0  0  0  0  0  0  0  0  0  0  # atno 10763 bound_to 10752
  154.8751  135.3983  154.3559 H   0  0  0  0  0  0  0  0  0  0  0  0  # atno 10764 bound_to 10752
  153.4183  135.7079  153.6377 H   0  0  0  0  0  0  0  0  0  0  0  0  # atno 10765 bound_to 10752
  139.9262  134.7667  156.1498 H   0  0  0  0  0  0  0  0  0  0  0  0  # atno 11005 bound_to 11000
  146.1922  140.6325  142.9140 LP  0  0  0  0  0  0  0  0  0  0  0  0  # atno 17320 bound_to 7965
  144.7533  140.5245  143.6786 LP  0  0  0  0  0  0  0  0  0  0  0  0  # atno 17321 bound_to 7965
  139.9525  144.6611  150.8158 LP  0  0  0  0  0  0  0  0  0  0  0  0  # atno 17342 bound_to 10162
  140.7614  143.3173  151.2702 LP  0  0  0  0  0  0  0  0  0  0  0  0  # atno 17343 bound_to 10162
  156.6299  130.4429  149.5790 LP  0  0  0  0  0  0  0  0  0  0  0  0  # atno 17370 bound_to 10713
  156.2290  130.6783  151.1444 LP  0  0  0  0  0  0  0  0  0  0  0  0  # atno 17371 bound_to 10713
  141.0822  133.6749  156.2360 LP  0  0  0  0  0  0  0  0  0  0  0  0  # atno 17394 bound_to 11000
  140.6328  134.5246  157.5561 LP  0  0  0  0  0  0  0  0  0  0  0  0  # atno 17395 bound_to 11000

$$$$
