#       Name:                AV-unprocessed.smi:1521
#       Creating user name   scv26
#       Creation time:       Fri Mar 27 06:27:37 2020


#       File generated by GOLD software.
#

@<TRIPOS>MOLECULE
AV-unprocessed.smi:1521
    44    45     1
SMALL
NO_CHARGES


@<TRIPOS>ATOM
      1 ****         0.4438   0.8225  -0.8270 O.2            1 S1                 0.0000
      2 ****        -0.1437  -0.2447  -0.9996 C.2            1 S1                 0.0000
      3 ****         0.4892  -1.4228  -1.0930 N.am           1 S1                 0.0000
      4 ****         1.9304  -1.6187  -0.9749 C.3            1 S1                 0.0000
      5 ****         2.3442  -1.9056   0.4789 C.3            1 S1                 0.0000
      6 ****         3.8320  -2.2947   0.5887 C.3            1 S1                 0.0000
      7 ****         4.1610  -2.5130   1.9545 O.3            1 S1                 0.0000
      8 ****         3.9428  -1.3434   2.7315 C.3            1 S1                 0.0000
      9 ****         2.4630  -0.9409   2.6256 C.3            1 S1                 0.0000
     10 ****         2.1404  -0.7313   1.2580 O.3            1 S1                 0.0000
     11 ****        -1.4742  -0.4121  -1.1104 N.am           1 S1                 0.0000
     12 ****        -2.5151   0.5323  -1.0564 C.2            1 S1                 0.0000
     13 ****        -2.3506   1.8809  -0.9546 C.2            1 S1                 0.0000
     14 ****        -3.4781   2.8033  -0.9011 C.2            1 S1                 0.0000
     15 ****        -3.3305   4.3144  -0.8707 C.3            1 S1                 0.0000
     16 ****        -4.3079   4.9058  -1.5581 F              1 S1                 0.0000
     17 ****        -3.3856   4.7503   0.3872 F              1 S1                 0.0000
     18 ****        -2.1626   4.6918  -1.3912 F              1 S1                 0.0000
     19 ****        -4.6931   2.1524  -0.9887 C.2            1 S1                 0.0000
     20 ****        -4.9440   0.8282  -1.0771 N.pl3          1 S1                -1.0000
     21 ****        -3.8825  -0.0256  -1.1208 C.2            1 S1                 0.0000
     22 ****        -4.0412  -1.2437  -1.2116 O.2            1 S1                 0.0000
     23 ****        -0.0713  -2.2502  -1.2345 H              1 S1                 0.0000
     24 ****         2.1948  -2.4683  -1.6050 H              1 S1                 0.0000
     25 ****         2.4771  -0.7613  -1.3709 H              1 S1                 0.0000
     26 ****         1.7286  -2.7168   0.8723 H              1 S1                 0.0000
     27 ****         4.0275  -3.2105   0.0308 H              1 S1                 0.0000
     28 ****         4.4732  -1.5187   0.1673 H              1 S1                 0.0000
     29 ****         4.2079  -1.5482   3.7686 H              1 S1                 0.0000
     30 ****         4.5905  -0.5359   2.3867 H              1 S1                 0.0000
     31 ****         1.8168  -1.7091   3.0533 H              1 S1                 0.0000
     32 ****         2.2790  -0.0203   3.1793 H              1 S1                 0.0000
     33 ****        -1.7920  -1.3621  -1.2350 H              1 S1                 0.0000
     34 ****        -1.3700   2.3227  -0.9099 H              1 S1                 0.0000
     35 ****        -5.6007   2.7931  -0.9924 H              1 S1                 0.0000
     36 ****         1.4407   0.8377  -0.7496 LP             1 S1                 0.0000
     37 ****        -0.0756   1.6747  -0.7641 LP             1 S1                 0.0000
     38 ****         5.1245  -2.7725   2.0200 LP             1 S1                 0.0000
     39 ****         3.5915  -3.2529   2.3125 LP             1 S1                 0.0000
     40 ****         1.1801  -0.4607   1.1901 LP             1 S1                 0.0000
     41 ****         2.7191   0.0003   0.8977 LP             1 S1                 0.0000
     42 ****        -5.8823   0.4839  -1.1096 LP             1 S1                 0.0000
     43 ****        -3.2469  -1.8505  -1.2414 LP             1 S1                 0.0000
     44 ****        -4.9643  -1.6258  -1.2555 LP             1 S1                 0.0000
@<TRIPOS>BOND
    1    1    2 2     
    2    2    3 am    
    3    2   11 am    
    4    3    4 1     
    5    3   23 1     
    6    4    5 1     
    7    4   24 1     
    8    4   25 1     
    9    5   10 1     
   10    5    6 1     
   11    5   26 1     
   12    6    7 1     
   13    6   27 1     
   14    6   28 1     
   15    7    8 1     
   16    8    9 1     
   17    8   29 1     
   18    8   30 1     
   19    9   10 1     
   20    9   31 1     
   21    9   32 1     
   22   11   12 1     
   23   11   33 1     
   24   12   21 1     
   25   12   13 2     
   26   13   14 1     
   27   13   34 1     
   28   14   15 1     
   29   14   19 2     
   30   15   16 1     
   31   15   17 1     
   32   15   18 1     
   33   19   20 1     
   34   19   35 1     
   35   20   21 1     
   36   21   22 2     
   37    1   36 1     
   38    1   37 1     
   39    7   38 1     
   40    7   39 1     
   41   10   40 1     
   42   10   41 1     
   43   20   42 1     
   44   22   43 1     
   45   22   44 1     
@<TRIPOS>SUBSTRUCTURE
      1 S1             1
@<TRIPOS>SET
LONE_PAIRS      STATIC     ATOMS    <user>   **** ""
9 36 37 38 39 40 41 42 43 44
DONOR_HYDROGENS      STATIC     ATOMS    <user>   **** ""
2 23 33
ATOM$BLUE        STATIC     ATOMS    COLORGROUP SYSTEM
9 36 37 38 39 40 41 42 43 44
ATOM$RED        STATIC     ATOMS    COLORGROUP SYSTEM
2 23 33
