AV-unprocessed.smi:2514|AV-procd|sdf|9895|dock5
  -GOLD-   2272013533D 1   1.00000     0.00000
 Structure written by MMmdl.
 24 25  0  0  0  0  0  0  0  0  1 V2000
  152.4531  143.9867  159.2431 C   0  0  0  0  0  0  0  0  0  0  0  0
  151.6068  143.9328  157.9651 C   0  0  2  0  0  0  0  0  0  0  0  0
  150.3291  144.4812  158.2179 O   0  0  0  0  0  0  0  0  0  0  0  0
  151.3963  142.5297  157.4686 C   0  0  0  0  0  0  0  0  0  0  0  0
  150.6199  142.1005  156.4296 C   0  0  0  0  0  0  0  0  0  0  0  0
  150.8233  140.7366  156.4187 N   0  0  0  0  0  0  0  0  0  0  0  0
  150.1948  139.7649  155.5735 C   0  0  0  0  0  0  0  0  0  0  0  0
  150.9957  138.9879  154.5251 C   0  0  0  0  0  0  0  0  0  0  0  0
  149.8112  139.0555  153.6864 N   0  0  0  0  0  0  0  0  0  0  0  0
  149.3074  140.2105  154.4101 C   0  0  0  0  0  0  0  0  0  0  0  0
  151.6405  140.3460  157.4246 N   0  0  0  0  0  0  0  0  0  0  0  0
  152.0115  141.4182  158.0508 N   0  0  0  0  0  0  0  0  0  0  0  0
  153.4457  143.5702  159.0710 H   0  0  0  0  0  0  0  0  0  0  0  0
  151.9902  143.4203  160.0519 H   0  0  0  0  0  0  0  0  0  0  0  0
  152.5804  145.0138  159.5860 H   0  0  0  0  0  0  0  0  0  0  0  0
  152.0847  144.5366  157.1929 H   0  0  0  0  0  0  0  0  0  0  0  0
  149.8388  144.4809  157.4102 H   0  0  0  0  0  0  0  0  0  0  0  0
  149.9770  142.6183  155.7333 H   0  0  0  0  0  0  0  0  0  0  0  0
  149.6575  139.0845  156.2383 H   0  0  0  0  0  0  0  0  0  0  0  0
  151.8340  139.5383  154.0953 H   0  0  0  0  0  0  0  0  0  0  0  0
  151.2683  137.9764  154.8270 H   0  0  0  0  0  0  0  0  0  0  0  0
  150.0325  139.2701  152.7244 H   0  0  0  0  0  0  0  0  0  0  0  0
  148.2385  140.1716  154.6206 H   0  0  0  0  0  0  0  0  0  0  0  0
  149.6099  141.1505  153.9459 H   0  0  0  0  0  0  0  0  0  0  0  0
  1  2  1  0  0  0  0
  1 13  1  0  0  0  0
  1 14  1  0  0  0  0
  1 15  1  0  0  0  0
  2  3  1  0  0  0  0
  2  4  1  0  0  0  0
  2 16  1  0  0  0  0
  3 17  1  0  0  0  0
  4 12  1  0  0  0  0
  4  5  2  0  0  0  0
  5  6  1  0  0  0  0
  5 18  1  0  0  0  0
  6  7  1  0  0  0  0
  6 11  1  0  0  0  0
  7 10  1  0  0  0  0
  7  8  1  0  0  0  0
  7 19  1  0  0  0  0
  8  9  1  0  0  0  0
  8 20  1  0  0  0  0
  8 21  1  0  0  0  0
  9 10  1  0  0  0  0
  9 22  1  0  0  0  0
 10 23  1  0  0  0  0
 10 24  1  0  0  0  0
 11 12  2  0  0  0  0
M  END
> <s_m_source_file>
AV-unprocessed.smi

> <i_m_source_file_index>
2514

> <i_lp_mmshare_version>
43012

> <i_f3d_flags>
0

> <s_epik_input>
W0NIM11bQ0BIXShbT0hdKWMxW2NIXW4obm4xKVtDSF0yW0NIMl1bTkhdW0NIMl0y

> <s_epik_cmdline>
J2VwaWtfcHl0aG9uJywgJy1waCcsICc3LjAnLCAnLXRuJywgJzgnLCAnLW1hJywgJzIwMCcsICctbWV0YWxfYmluZGluZycsICctaW1hZScsICc8aW5maWxlLm1hZT4nLCAnLW9tYWUnLCAnPG91dGZpbGUubWFlPic=

> <r_lp_tautomer_probability>
1

> <r_epik_Ionization_Penalty>
0.704859

> <r_epik_Ionization_Penalty_Charging>
0

> <r_epik_Ionization_Penalty_Neutral>
0.704859

> <r_epik_State_Penalty>
0.727806

> <r_epik_Charging_Adjusted_Penalty>
0.727806

> <i_epik_Tot_Q>
0

> <i_epik_Tot_abs_Q>
0

> <r_epik_Metal_State_Penalty>
0.727738

> <b_epik_Metal_Only>
0

> <s_lp_Force_Field>
OPLS_2005

> <r_lp_Energy>
11.6004

> <b_lp_Chiralities_Consistent>
1

> <s_lp_Variant>
AV-unprocessed.smi:2514-3

> <Gold.Version>
5.8.1

> <Gold.Id.Protein>
6NUR|6NUR_protein|mol2

> <Gold.PLP.Fitness>
35.4815

> <Gold.PLP.PLP>
-26.6249

> <Gold.PLP.part.hbond>
-3.0000

> <Gold.PLP.part.metal>
0.0000

> <Gold.PLP.part.buried>
-2.7702

> <Gold.PLP.part.nonpolar>
-21.1487

> <Gold.PLP.part.repulsive>
0.0000

> <Gold.PLP.ligand.clash>
0.0000

> <Gold.PLP.ligand.torsion>
0.1941

> <Gold.PLP.Chemscore.Hbond>
2.0000

> <Gold.PLP.Chemscore.CHOScore>
1.0000

> <Gold.PLP.Chemscore.Metal>
0.0000

> <Gold.Chemscore.Hbonds>
donor molecule, donor type, donor heavy atom, donor atom, acceptor molecule, acceptor atom, score
      L1  H     3    17       P1  8028  0.90
      L1  H     9    22       P1  7957  1.00
      L1  C     5    18       P1  8028  1.00

> <Gold.PLP.Chemscore.Internal.Correction>
0.2448

> <Gold.Rescore>
     Score         DG    S(hbond)    S(metal)    S(lipo)     H(rot)  DE(clash)    DE(int)     intcor
     13.41     -14.06       1.76        0.00      62.04       1.78       0.22       0.43       ----

> <Gold.Chemscore.Fitness>
13.4109

> <Gold.Chemscore.DG>
-14.0649

> <Gold.Chemscore.ZeroCoef>
-5.4800

> <Gold.Chemscore.Hbond>
1.7631

> <Gold.Chemscore.Metal>
0.0000

> <Gold.Chemscore.Lipo>
62.0414

> <Gold.Chemscore.Internal_Hbond>
0.0000

> <Gold.Chemscore.DEClash>
0.2250

> <Gold.Chemscore.DEInternal>
0.4289

> <Gold.Chemscore.Rot>
1.7823

> <Gold.Chemscore.Internal.Correction>
   9.000000E+99

> <Gold.Chemscore.Hbonds>
donor molecule, donor type, donor heavy atom, donor atom, acceptor molecule, acceptor atom, score
      L1  H     3    17       P1  8028  0.17
      L1  H     9    22       P1  7957  0.85

> <Gold.Chemscore.Hbond.Weighted>
-5.8887

> <Gold.Chemscore.Metal.Weighted>
-0.0000

> <Gold.Chemscore.Lipo.Weighted>
-7.2588

> <Gold.Chemscore.Internal_Hbond.Weighted>
0.0000

> <Gold.Chemscore.DEClash.Weighted>
0.2250

> <Gold.Chemscore.DEInternal.Weighted>
0.4289

> <Gold.Chemscore.Rot.Weighted>
4.5627

> <Gold.Chemscore.Internal.Correction.Weighted>
   9.000000E+99

> <Gold.Protein.RotatedTorsions>
[ 6907 6896 6895 6894 ] final  -37.89 input  -60.11 | X-H torsion
[ 7974 7965 7964 7962 ] final   51.38 input  175.53 | X-H torsion
[ 8008 7997 7996 7995 ] final -104.64 input   59.86 | X-H torsion
[ 10167 10162 10161 10158 ] final  102.89 input  -65.29 | X-H torsion
[ 10718 10713 10712 10709 ] final  165.50 input   66.30 | X-H torsion
[ 10763 10752 10751 10750 ] final   55.43 input  -60.55 | X-H torsion
[ 11005 11000 10999 10996 ] final  -82.18 input  -57.11 | X-H torsion

> <Gold.Protein.ActiveResidues>
 VAL166  LYS551  ARG553  GLY616  TRP617  ASP618  TYR619  PRO620  LYS621  CYS622 
 ASP623  PHE694  ASN695  SER759  ASP760  ASP761  ALA762  ILE779  LEU786  VAL792 
 PHE793  MET794  SER795  GLU796  ALA797  LYS798  CYS799  TRP800  GLU811  SER814 

> <Gold.Protein.RotatedAtoms>
  151.0091  134.9383  159.7996 H   0  0  0  0  0  0  0  0  0  0  0  0  # atno 6907 bound_to 6896
  152.5298  134.3052  159.9103 H   0  0  0  0  0  0  0  0  0  0  0  0  # atno 6908 bound_to 6896
  151.3058  133.4060  159.2677 H   0  0  0  0  0  0  0  0  0  0  0  0  # atno 6909 bound_to 6896
  145.9919  139.4348  143.0068 H   0  0  0  0  0  0  0  0  0  0  0  0  # atno 7974 bound_to 7965
  154.8883  140.0417  157.1823 H   0  0  0  0  0  0  0  0  0  0  0  0  # atno 8008 bound_to 7997
  154.8567  140.2937  155.5543 H   0  0  0  0  0  0  0  0  0  0  0  0  # atno 8009 bound_to 7997
  156.2997  140.2454  156.3535 H   0  0  0  0  0  0  0  0  0  0  0  0  # atno 8010 bound_to 7997
  139.7310  144.7036  151.0722 H   0  0  0  0  0  0  0  0  0  0  0  0  # atno 10167 bound_to 10162
  157.0793  131.0388  151.2581 H   0  0  0  0  0  0  0  0  0  0  0  0  # atno 10718 bound_to 10713
  152.9817  135.5711  154.5066 H   0  0  0  0  0  0  0  0  0  0  0  0  # atno 10763 bound_to 10752
  154.4577  135.2780  155.1738 H   0  0  0  0  0  0  0  0  0  0  0  0  # atno 10764 bound_to 10752
  154.3339  135.6243  153.5617 H   0  0  0  0  0  0  0  0  0  0  0  0  # atno 10765 bound_to 10752
  141.1664  133.7232  156.8533 H   0  0  0  0  0  0  0  0  0  0  0  0  # atno 11005 bound_to 11000
  145.7617  140.9932  143.1196 LP  0  0  0  0  0  0  0  0  0  0  0  0  # atno 17320 bound_to 7965
  144.6891  139.9338  143.7472 LP  0  0  0  0  0  0  0  0  0  0  0  0  # atno 17321 bound_to 7965
  140.7771  143.5043  150.9731 LP  0  0  0  0  0  0  0  0  0  0  0  0  # atno 17342 bound_to 10162
  139.8731  143.7166  152.3164 LP  0  0  0  0  0  0  0  0  0  0  0  0  # atno 17343 bound_to 10162
  157.4813  130.7767  149.7417 LP  0  0  0  0  0  0  0  0  0  0  0  0  # atno 17370 bound_to 10713
  155.9928  130.3928  150.2927 LP  0  0  0  0  0  0  0  0  0  0  0  0  # atno 17371 bound_to 10713
  140.1900  134.8972  157.3050 LP  0  0  0  0  0  0  0  0  0  0  0  0  # atno 17394 bound_to 11000
  140.2300  134.3920  155.7526 LP  0  0  0  0  0  0  0  0  0  0  0  0  # atno 17395 bound_to 11000

$$$$
