AV-unprocessed.smi:250|AV-procd|sdf|1931|dock7
  -GOLD-   2262021 53D 1   1.00000     0.00000
 Structure written by MMmdl.
 56 60  0  0  0  0  0  0  0  0  1 V2000
  152.1961  144.3954  161.1799 C   0  0  0  0  0  0  0  0  0  0  0  0
  151.6048  143.9922  159.9108 N   0  0  0  0  0  0  0  0  0  0  0  0
  150.8104  144.7337  159.1105 C   0  0  0  0  0  0  0  0  0  0  0  0
  150.4221  145.8796  159.3286 O   0  0  0  0  0  0  0  0  0  0  0  0
  150.5096  144.0059  158.0211 N   0  0  0  0  0  0  0  0  0  0  0  0
  150.9111  142.6332  158.2205 C   0  0  1  0  0  0  0  0  0  0  0  0
  151.3815  141.7634  157.0580 C   0  0  0  0  0  0  0  0  0  0  0  0
  151.7886  140.4668  157.6236 N   0  0  0  0  0  0  0  0  0  0  0  0
  151.9039  139.4601  156.7220 C   0  0  0  0  0  0  0  0  0  0  0  0
  152.4949  139.6951  155.5200 N   0  0  0  0  0  0  0  0  0  0  0  0
  152.6028  138.7150  154.6183 C   0  0  0  0  0  0  0  0  0  0  0  0
  152.1956  137.4480  154.7109 N   0  0  0  0  0  0  0  0  0  0  0  0
  151.6080  137.2026  155.9167 C   0  0  0  0  0  0  0  0  0  0  0  0
  151.4303  138.1411  156.9726 C   0  0  0  0  0  0  0  0  0  0  0  0
  150.8244  137.5209  158.0588 N   0  0  0  0  0  0  0  0  0  0  0  0
  150.6447  136.2908  157.6636 C   0  0  0  0  0  0  0  0  0  0  0  0
  151.0645  136.0166  156.3813 N   0  0  0  0  0  0  0  0  0  0  0  0
  150.9845  134.7342  155.6970 C   0  0  0  0  0  0  0  0  0  0  0  0
  149.5500  134.1488  155.5213 C   0  0  0  0  0  0  0  0  0  0  0  0
  148.9919  133.6246  156.8790 C   0  0  0  0  0  0  0  0  0  0  0  0
  149.9089  132.8333  157.6074 O   0  0  0  0  0  0  0  0  0  0  0  0
  148.5999  135.1864  154.8697 C   0  0  0  0  0  0  0  0  0  0  0  0
  147.2811  134.5597  154.3864 C   0  0  0  0  0  0  0  0  0  0  0  0
  147.5563  133.5243  153.4520 O   0  0  0  0  0  0  0  0  0  0  0  0
  148.3025  132.4549  154.0175 C   0  0  0  0  0  0  0  0  0  0  0  0
  149.6653  132.9655  154.5262 C   0  0  0  0  0  0  0  0  0  0  0  0
  152.7240  140.4744  158.7677 C   0  0  0  0  0  0  0  0  0  0  0  0
  152.3155  141.4809  159.8782 C   0  0  0  0  0  0  0  0  0  0  0  0
  152.0571  142.8203  159.1860 C   0  0  2  0  0  0  0  0  0  0  0  0
  150.0686  142.1359  158.7083 H   0  0  0  0  0  0  0  0  0  0  0  0
  152.9644  143.1194  158.6543 H   0  0  0  0  0  0  0  0  0  0  0  0
  151.6685  145.2426  161.6201 H   0  0  0  0  0  0  0  0  0  0  0  0
  153.2389  144.6789  161.0364 H   0  0  0  0  0  0  0  0  0  0  0  0
  152.1591  143.5735  161.8949 H   0  0  0  0  0  0  0  0  0  0  0  0
  149.9097  144.3100  157.2681 H   0  0  0  0  0  0  0  0  0  0  0  0
  150.5794  141.6576  156.3291 H   0  0  0  0  0  0  0  0  0  0  0  0
  152.2275  142.2205  156.5430 H   0  0  0  0  0  0  0  0  0  0  0  0
  153.0821  138.9852  153.6889 H   0  0  0  0  0  0  0  0  0  0  0  0
  150.1851  135.5457  158.2966 H   0  0  0  0  0  0  0  0  0  0  0  0
  151.4604  134.8578  154.7233 H   0  0  0  0  0  0  0  0  0  0  0  0
  151.6103  134.0252  156.2408 H   0  0  0  0  0  0  0  0  0  0  0  0
  148.7086  134.4437  157.5372 H   0  0  0  0  0  0  0  0  0  0  0  0
  148.0844  133.0426  156.7157 H   0  0  0  0  0  0  0  0  0  0  0  0
  150.1065  132.0598  157.1015 H   0  0  0  0  0  0  0  0  0  0  0  0
  148.3866  136.0107  155.5502 H   0  0  0  0  0  0  0  0  0  0  0  0
  149.0942  135.6337  154.0065 H   0  0  0  0  0  0  0  0  0  0  0  0
  146.6924  134.1743  155.2196 H   0  0  0  0  0  0  0  0  0  0  0  0
  146.6702  135.3170  153.8951 H   0  0  0  0  0  0  0  0  0  0  0  0
  147.7275  131.9722  154.8074 H   0  0  0  0  0  0  0  0  0  0  0  0
  148.4579  131.6986  153.2479 H   0  0  0  0  0  0  0  0  0  0  0  0
  150.2441  133.2774  153.6554 H   0  0  0  0  0  0  0  0  0  0  0  0
  150.2229  132.1432  154.9764 H   0  0  0  0  0  0  0  0  0  0  0  0
  152.7906  139.4731  159.1955 H   0  0  0  0  0  0  0  0  0  0  0  0
  153.7195  140.7285  158.4010 H   0  0  0  0  0  0  0  0  0  0  0  0
  151.4229  141.1357  160.4017 H   0  0  0  0  0  0  0  0  0  0  0  0
  153.1099  141.5694  160.6194 H   0  0  0  0  0  0  0  0  0  0  0  0
  1  2  1  0  0  0  0
  1 32  1  0  0  0  0
  1 33  1  0  0  0  0
  1 34  1  0  0  0  0
  2 29  1  0  0  0  0
  2  3  1  0  0  0  0
  3  4  2  0  0  0  0
  3  5  1  0  0  0  0
  5  6  1  0  0  0  0
  5 35  1  0  0  0  0
  6 30  1  0  0  0  0
  6 29  1  0  0  0  0
  6  7  1  0  0  0  0
  7  8  1  0  0  0  0
  7 36  1  0  0  0  0
  7 37  1  0  0  0  0
  8  9  1  0  0  0  0
  8 27  1  0  0  0  0
  9 14  1  0  0  0  0
  9 10  2  0  0  0  0
 10 11  1  0  0  0  0
 11 12  2  0  0  0  0
 11 38  1  0  0  0  0
 12 13  1  0  0  0  0
 13 17  1  0  0  0  0
 13 14  2  0  0  0  0
 14 15  1  0  0  0  0
 15 16  2  0  0  0  0
 16 17  1  0  0  0  0
 16 39  1  0  0  0  0
 17 18  1  0  0  0  0
 18 19  1  0  0  0  0
 18 40  1  0  0  0  0
 18 41  1  0  0  0  0
 19 26  1  0  0  0  0
 19 20  1  0  0  0  0
 19 22  1  0  0  0  0
 20 21  1  0  0  0  0
 20 42  1  0  0  0  0
 20 43  1  0  0  0  0
 21 44  1  0  0  0  0
 22 23  1  0  0  0  0
 22 45  1  0  0  0  0
 22 46  1  0  0  0  0
 23 24  1  0  0  0  0
 23 47  1  0  0  0  0
 23 48  1  0  0  0  0
 24 25  1  0  0  0  0
 25 26  1  0  0  0  0
 25 49  1  0  0  0  0
 25 50  1  0  0  0  0
 26 51  1  0  0  0  0
 26 52  1  0  0  0  0
 27 28  1  0  0  0  0
 27 53  1  0  0  0  0
 27 54  1  0  0  0  0
 28 29  1  0  0  0  0
 28 55  1  0  0  0  0
 28 56  1  0  0  0  0
 29 31  1  0  0  0  0
M  END
> <s_m_source_file>
AV-unprocessed.smi

> <i_m_source_file_index>
250

> <i_lp_mmshare_version>
43012

> <i_f3d_flags>
0

> <s_epik_input>
Tz1DKFtOSF0xKU4oW0NIM10pW0NASF0oW0NASF0xMilbQ0gyXVtDSDJdTihbQ0gyXTIpYyhuW2NIXW4zKWMoYzM0KW5bY0hdbjRbQ0gyXUM1KFtDSDJdW09IXSlbQ0gyXVtDSDJdT1tDSDJdW0NIMl01

> <s_epik_cmdline>
J2VwaWtfcHl0aG9uJywgJy1waCcsICc3LjAnLCAnLXRuJywgJzgnLCAnLW1hJywgJzIwMCcsICctbWV0YWxfYmluZGluZycsICctaW1hZScsICc8aW5maWxlLm1hZT4nLCAnLW9tYWUnLCAnPG91dGZpbGUubWFlPic=

> <r_lp_tautomer_probability>
1

> <r_epik_Ionization_Penalty>
0.00229024

> <r_epik_Ionization_Penalty_Charging>
0

> <r_epik_Ionization_Penalty_Neutral>
0.00229024

> <r_epik_State_Penalty>
0.0013961

> <r_epik_Charging_Adjusted_Penalty>
0.0013961

> <i_epik_Tot_Q>
0

> <i_epik_Tot_abs_Q>
0

> <r_epik_Metal_State_Penalty>
-0

> <b_epik_Metal_Only>
0

> <s_lp_Force_Field>
OPLS_2005

> <r_lp_Energy>
73.7244

> <b_lp_Chiralities_Consistent>
1

> <s_lp_Variant>
AV-unprocessed.smi:250-2

> <Gold.Version>
5.8.1

> <Gold.Id.Protein>
6NUR|6NUR_protein|mol2

> <Gold.PLP.Fitness>
53.0807

> <Gold.PLP.PLP>
-43.9253

> <Gold.PLP.part.hbond>
-6.2273

> <Gold.PLP.part.metal>
0.0000

> <Gold.PLP.part.buried>
-4.2299

> <Gold.PLP.part.nonpolar>
-34.5491

> <Gold.PLP.part.repulsive>
0.4931

> <Gold.PLP.ligand.clash>
0.0000

> <Gold.PLP.ligand.torsion>
1.2428

> <Gold.PLP.Chemscore.Hbond>
3.7840

> <Gold.PLP.Chemscore.CHOScore>
0.0000

> <Gold.PLP.Chemscore.Metal>
0.0000

> <Gold.Chemscore.Hbonds>
donor molecule, donor type, donor heavy atom, donor atom, acceptor molecule, acceptor atom, score
      L1  H     5    35       P1  8028  1.00
      P1  H  6896  6907       L1    21  0.93
      P1  H  7997  8010       L1    10  1.00
      P1  H 10752 10765       L1    12  0.73

> <Gold.PLP.Chemscore.Internal.Correction>
0.2891

> <Gold.Rescore>
     Score         DG    S(hbond)    S(metal)    S(lipo)     H(rot)  DE(clash)    DE(int)     intcor
     15.30     -19.76       2.92        0.00      87.10       2.22       3.21       1.25       ----

> <Gold.Chemscore.Fitness>
15.3045

> <Gold.Chemscore.DG>
-19.7632

> <Gold.Chemscore.ZeroCoef>
-5.4800

> <Gold.Chemscore.Hbond>
2.9247

> <Gold.Chemscore.Metal>
0.0000

> <Gold.Chemscore.Lipo>
87.0964

> <Gold.Chemscore.Internal_Hbond>
0.0000

> <Gold.Chemscore.DEClash>
3.2053

> <Gold.Chemscore.DEInternal>
1.2534

> <Gold.Chemscore.Rot>
2.2170

> <Gold.Chemscore.Internal.Correction>
   9.000000E+99

> <Gold.Chemscore.Hbonds>
donor molecule, donor type, donor heavy atom, donor atom, acceptor molecule, acceptor atom, score
      L1  H     5    35       P1  8028  0.50
      P1  H  6896  6907       L1    21  0.88
      P1  H  7997  8010       L1    10  0.18
      P1  H 10752 10765       L1    12  0.17

> <Gold.Chemscore.Hbond.Weighted>
-9.7685

> <Gold.Chemscore.Metal.Weighted>
-0.0000

> <Gold.Chemscore.Lipo.Weighted>
-10.1903

> <Gold.Chemscore.Internal_Hbond.Weighted>
0.0000

> <Gold.Chemscore.DEClash.Weighted>
3.2053

> <Gold.Chemscore.DEInternal.Weighted>
1.2534

> <Gold.Chemscore.Rot.Weighted>
5.6756

> <Gold.Chemscore.Internal.Correction.Weighted>
   9.000000E+99

> <Gold.Protein.RotatedTorsions>
[ 6907 6896 6895 6894 ] final -134.83 input  -60.11 | X-H torsion
[ 7974 7965 7964 7962 ] final  -89.39 input  175.53 | X-H torsion
[ 8008 7997 7996 7995 ] final   94.23 input   59.86 | X-H torsion
[ 10167 10162 10161 10158 ] final  -70.53 input  -65.29 | X-H torsion
[ 10718 10713 10712 10709 ] final -149.17 input   66.30 | X-H torsion
[ 10763 10752 10751 10750 ] final  166.94 input  -60.55 | X-H torsion
[ 11005 11000 10999 10996 ] final   26.71 input  -57.11 | X-H torsion

> <Gold.Protein.ActiveResidues>
 VAL166  LYS551  ARG553  GLY616  TRP617  ASP618  TYR619  PRO620  LYS621  CYS622 
 ASP623  PHE694  ASN695  SER759  ASP760  ASP761  ALA762  ILE779  LEU786  VAL792 
 PHE793  MET794  SER795  GLU796  ALA797  LYS798  CYS799  TRP800  GLU811  SER814 

> <Gold.Protein.RotatedAtoms>
  150.9906  133.6154  159.2708 H   0  0  0  0  0  0  0  0  0  0  0  0  # atno 6907 bound_to 6896
  151.3376  135.0855  159.9370 H   0  0  0  0  0  0  0  0  0  0  0  0  # atno 6908 bound_to 6896
  152.5244  133.9523  159.7732 H   0  0  0  0  0  0  0  0  0  0  0  0  # atno 6909 bound_to 6896
  145.4405  140.9559  143.2078 H   0  0  0  0  0  0  0  0  0  0  0  0  # atno 7974 bound_to 7965
  156.0556  140.3302  155.7401 H   0  0  0  0  0  0  0  0  0  0  0  0  # atno 8008 bound_to 7997
  155.5534  140.0612  157.2862 H   0  0  0  0  0  0  0  0  0  0  0  0  # atno 8009 bound_to 7997
  154.4456  140.1890  156.0698 H   0  0  0  0  0  0  0  0  0  0  0  0  # atno 8010 bound_to 7997
  140.5345  143.2319  151.7202 H   0  0  0  0  0  0  0  0  0  0  0  0  # atno 10167 bound_to 10162
  156.4297  130.8069  151.2296 H   0  0  0  0  0  0  0  0  0  0  0  0  # atno 10718 bound_to 10713
  154.3464  135.2753  155.2395 H   0  0  0  0  0  0  0  0  0  0  0  0  # atno 10763 bound_to 10752
  154.4643  135.5899  153.6281 H   0  0  0  0  0  0  0  0  0  0  0  0  # atno 10764 bound_to 10752
  152.9853  135.6072  154.3670 H   0  0  0  0  0  0  0  0  0  0  0  0  # atno 10765 bound_to 10752
  140.3341  134.2405  155.7698 H   0  0  0  0  0  0  0  0  0  0  0  0  # atno 11005 bound_to 11000
  144.8125  139.5936  143.7023 LP  0  0  0  0  0  0  0  0  0  0  0  0  # atno 17320 bound_to 7965
  146.2559  139.6301  142.9395 LP  0  0  0  0  0  0  0  0  0  0  0  0  # atno 17321 bound_to 7965
  139.4966  144.4063  152.0128 LP  0  0  0  0  0  0  0  0  0  0  0  0  # atno 17342 bound_to 10162
  140.3168  144.3474  150.6019 LP  0  0  0  0  0  0  0  0  0  0  0  0  # atno 17343 bound_to 10162
  157.7508  131.0202  150.3699 LP  0  0  0  0  0  0  0  0  0  0  0  0  # atno 17370 bound_to 10713
  156.4034  130.3920  149.6943 LP  0  0  0  0  0  0  0  0  0  0  0  0  # atno 17371 bound_to 10713
  141.2056  133.7856  157.0226 LP  0  0  0  0  0  0  0  0  0  0  0  0  # atno 17394 bound_to 11000
  140.0836  134.9634  157.1663 LP  0  0  0  0  0  0  0  0  0  0  0  0  # atno 17395 bound_to 11000

$$$$
