#       Name:                AV-unprocessed.smi:367
#       Creating user name   scv26
#       Creation time:       Thu Mar 26 22:37:20 2020


#       File generated by GOLD software.
#

@<TRIPOS>MOLECULE
AV-unprocessed.smi:367
    29    29     1
SMALL
NO_CHARGES


@<TRIPOS>ATOM
      1 ****        -3.5559  -0.5821  -0.2809 C.3            1 S1                 0.0000
      2 ****        -2.0451  -0.5100  -0.2192 C.2            1 S1                 0.0000
      3 ****        -1.4695   0.6284  -0.3012 N.2            1 S1                 0.0000
      4 ****        -0.0666   0.6990  -0.2505 C.2            1 S1                 0.0000
      5 ****         0.5316   2.0896  -0.3726 C.3            1 S1                 0.0000
      6 ****         0.6932  -0.4249  -0.1083 C.2            1 S1                 0.0000
      7 ****         2.2243  -0.4015  -0.0713 C.3            1 S1                 0.0000
      8 ****         2.8382  -0.0248   1.2826 C.2            1 S1                 0.0000
      9 ****         4.0483   0.2912   1.2755 O.co2          1 S1                 0.0000
     10 ****         2.1095  -0.0564   2.2993 O.co2          1 S1                -1.0000
     11 ****        -0.0108  -1.7167  -0.0080 C.2            1 S1                 0.0000
     12 ****         0.6231  -2.7619   0.1334 O.2            1 S1                 0.0000
     13 ****        -1.3734  -1.7033  -0.0789 N.pl3          1 S1                -1.0000
     14 ****        -3.9964   0.4151  -0.3187 H              1 S1                 0.0000
     15 ****        -3.9475  -1.0951   0.5979 H              1 S1                 0.0000
     16 ****        -3.8705  -1.1291  -1.1701 H              1 S1                 0.0000
     17 ****         1.1277   2.1701  -1.2817 H              1 S1                 0.0000
     18 ****         1.1705   2.3091   0.4828 H              1 S1                 0.0000
     19 ****        -0.2465   2.8526  -0.4117 H              1 S1                 0.0000
     20 ****         2.6372  -1.3609  -0.3838 H              1 S1                 0.0000
     21 ****         2.5789   0.3123  -0.8148 H              1 S1                 0.0000
     22 ****        -2.0129   1.4619  -0.4006 LP             1 S1                 0.0000
     23 ****         4.5040   0.5443   2.1289 LP             1 S1                 0.0000
     24 ****         4.5602   0.2907   0.4164 LP             1 S1                 0.0000
     25 ****         2.4880   0.1829   3.1934 LP             1 S1                 0.0000
     26 ****         1.1486  -0.3210   2.2177 LP             1 S1                 0.0000
     27 ****         1.6217  -2.7385   0.1809 LP             1 S1                 0.0000
     28 ****         0.1396  -3.6347   0.2008 LP             1 S1                 0.0000
     29 ****        -1.8846  -2.5613  -0.0289 LP             1 S1                 0.0000
@<TRIPOS>BOND
    1    1    2 1     
    2    1   14 1     
    3    1   15 1     
    4    1   16 1     
    5    2   13 1     
    6    2    3 2     
    7    3    4 1     
    8    4    5 1     
    9    4    6 2     
   10    5   17 1     
   11    5   18 1     
   12    5   19 1     
   13    6    7 1     
   14    6   11 1     
   15    7    8 1     
   16    7   20 1     
   17    7   21 1     
   18    8    9 ar    
   19    8   10 ar    
   20   11   12 2     
   21   11   13 1     
   22    3   22 1     
   23    9   23 1     
   24    9   24 1     
   25   10   25 1     
   26   10   26 1     
   27   12   27 1     
   28   12   28 1     
   29   13   29 1     
@<TRIPOS>SUBSTRUCTURE
      1 S1             1
@<TRIPOS>SET
LONE_PAIRS      STATIC     ATOMS    <user>   **** ""
8 22 23 24 25 26 27 28 29
ATOM$BLUE        STATIC     ATOMS    COLORGROUP SYSTEM
8 22 23 24 25 26 27 28 29
