AV-unprocessed.smi:1586|AV-procd|sdf|6379|dock6
  -GOLD-   22720 7 13D 1   1.00000     0.00000
 Structure written by MMmdl.
 46 47  0  0  0  0  0  0  0  0  3 V2000
  146.6348  138.6590  151.9923 C   0  0  0  0  0  0  0  0  0  0  0  0
  146.8600  139.9139  152.8475 C   0  0  0  0  0  0  0  0  0  0  0  0
  148.2304  139.9822  153.4129 N   0  3  0  0  0  0  0  0  0  0  0  0
  148.6126  138.7302  154.1110 C   0  0  0  0  0  0  0  0  0  0  0  0
  150.0518  138.8308  154.6594 C   0  0  0  0  0  0  0  0  0  0  0  0
  150.1984  139.9465  155.6054 N   0  0  0  0  0  0  0  0  0  0  0  0
  149.4568  139.8071  156.8806 C   0  0  2  0  0  0  0  0  0  0  0  0
  149.8532  140.9352  157.8637 C   0  0  0  0  0  0  0  0  0  0  0  0
  149.6924  138.4117  157.5203 C   0  0  0  0  0  0  0  0  0  0  0  0
  148.8921  138.2088  158.7256 N   0  0  0  0  0  0  0  0  0  0  0  0
  148.8197  137.0891  159.4598 C   0  0  0  0  0  0  0  0  0  0  0  0
  149.4723  136.0943  159.1366 O   0  0  0  0  0  0  0  0  0  0  0  0
  148.0028  137.2001  160.5322 N   0  5  0  0  0  0  0  0  0  0  0  0
  147.4475  136.1058  161.0754 C   0  0  0  0  0  0  0  0  0  0  0  0
  146.2438  136.0692  161.8311 C   0  0  0  0  0  0  0  0  0  0  0  0
  146.1048  134.7444  162.1331 C   0  0  0  0  0  0  0  0  0  0  0  0
  145.0769  133.9845  162.9001 C   0  0  0  0  0  0  0  0  0  0  0  0
  147.1312  134.0286  161.6001 O   0  0  0  0  0  0  0  0  0  0  0  0
  147.9831  134.9069  160.9194 N   0  0  0  0  0  0  0  0  0  0  0  0
  149.8993  141.1632  154.8358 C   0  0  0  0  0  0  0  0  0  0  0  0
  148.4547  141.1593  154.2907 C   0  0  0  0  0  0  0  0  0  0  0  0
  145.5941  138.5952  151.6739 H   0  0  0  0  0  0  0  0  0  0  0  0
  146.8634  137.7527  152.5537 H   0  0  0  0  0  0  0  0  0  0  0  0
  147.2470  138.6625  151.0910 H   0  0  0  0  0  0  0  0  0  0  0  0
  146.6478  140.8154  152.2707 H   0  0  0  0  0  0  0  0  0  0  0  0
  146.1397  139.8941  153.6663 H   0  0  0  0  0  0  0  0  0  0  0  0
  147.9007  138.5061  154.9064 H   0  0  0  0  0  0  0  0  0  0  0  0
  148.5595  137.8995  153.4066 H   0  0  0  0  0  0  0  0  0  0  0  0
  150.3651  137.8867  155.1003 H   0  0  0  0  0  0  0  0  0  0  0  0
  150.7413  138.9868  153.8283 H   0  0  0  0  0  0  0  0  0  0  0  0
  148.3885  139.9008  156.6914 H   0  0  0  0  0  0  0  0  0  0  0  0
  149.3601  140.8240  158.8283 H   0  0  0  0  0  0  0  0  0  0  0  0
  149.5572  141.9215  157.5102 H   0  0  0  0  0  0  0  0  0  0  0  0
  150.9285  140.9444  158.0458 H   0  0  0  0  0  0  0  0  0  0  0  0
  149.3760  137.6125  156.8534 H   0  0  0  0  0  0  0  0  0  0  0  0
  150.7549  138.2512  157.7110 H   0  0  0  0  0  0  0  0  0  0  0  0
  148.3367  138.9923  159.0360 H   0  0  0  0  0  0  0  0  0  0  0  0
  145.5916  136.8839  162.1078 H   0  0  0  0  0  0  0  0  0  0  0  0
  144.1209  133.9950  162.3766 H   0  0  0  0  0  0  0  0  0  0  0  0
  144.9278  134.4257  163.8855 H   0  0  0  0  0  0  0  0  0  0  0  0
  145.3761  132.9451  163.0373 H   0  0  0  0  0  0  0  0  0  0  0  0
  150.0886  142.0618  155.4197 H   0  0  0  0  0  0  0  0  0  0  0  0
  150.5972  141.2266  153.9997 H   0  0  0  0  0  0  0  0  0  0  0  0
  148.2980  142.0759  153.7231 H   0  0  0  0  0  0  0  0  0  0  0  0
  147.7270  141.1724  155.1028 H   0  0  0  0  0  0  0  0  0  0  0  0
  148.8663  140.0731  152.6336 H   0  0  0  0  0  0  0  0  0  0  0  0
  1  2  1  0  0  0  0
  1 22  1  0  0  0  0
  1 23  1  0  0  0  0
  1 24  1  0  0  0  0
  2  3  1  0  0  0  0
  2 25  1  0  0  0  0
  2 26  1  0  0  0  0
  3 21  1  0  0  0  0
  3  4  1  0  0  0  0
  3 46  1  0  0  0  0
  4  5  1  0  0  0  0
  4 27  1  0  0  0  0
  4 28  1  0  0  0  0
  5  6  1  0  0  0  0
  5 29  1  0  0  0  0
  5 30  1  0  0  0  0
  6  7  1  0  0  0  0
  6 20  1  0  0  0  0
  7  8  1  0  0  0  0
  7  9  1  0  0  0  0
  7 31  1  0  0  0  0
  8 32  1  0  0  0  0
  8 33  1  0  0  0  0
  8 34  1  0  0  0  0
  9 10  1  0  0  0  0
  9 35  1  0  0  0  0
  9 36  1  0  0  0  0
 10 11  1  0  0  0  0
 10 37  1  0  0  0  0
 11 12  2  0  0  0  0
 11 13  1  0  0  0  0
 13 14  1  0  0  0  0
 14 19  2  0  0  0  0
 14 15  1  0  0  0  0
 15 16  2  0  0  0  0
 15 38  1  0  0  0  0
 16 17  1  0  0  0  0
 16 18  1  0  0  0  0
 17 39  1  0  0  0  0
 17 40  1  0  0  0  0
 17 41  1  0  0  0  0
 18 19  1  0  0  0  0
 20 21  1  0  0  0  0
 20 42  1  0  0  0  0
 20 43  1  0  0  0  0
 21 44  1  0  0  0  0
 21 45  1  0  0  0  0
M  CHG  1   3   1
M  CHG  1  13  -1
M  END
> <s_m_source_file>
AV-unprocessed.smi

> <i_m_source_file_index>
1586

> <i_lp_mmshare_version>
43012

> <i_f3d_flags>
0

> <s_epik_input>
W0NIM11bQ0gyXU4xW0NIMl1bQ0gyXU4oW0NIMl1bQ0gyXTEpW0NASF0oW0NIM10pW0NIMl1bTkhdQyg9TylbTkhdYzJbY0hdYyhbQ0gzXSlvbjI=

> <s_epik_cmdline>
J2VwaWtfcHl0aG9uJywgJy1waCcsICc3LjAnLCAnLXRuJywgJzgnLCAnLW1hJywgJzIwMCcsICctbWV0YWxfYmluZGluZycsICctaW1hZScsICc8aW5maWxlLm1hZT4nLCAnLW9tYWUnLCAnPG91dGZpbGUubWFlPic=

> <r_epik_Ionization_Penalty>
6.66134

> <r_epik_Ionization_Penalty_Charging>
6.66063

> <r_epik_Ionization_Penalty_Neutral>
0.000714131

> <r_epik_State_Penalty>
6.77843

> <r_epik_Charging_Adjusted_Penalty>
13.4391

> <i_epik_Tot_Q>
0

> <i_epik_Tot_abs_Q>
2

> <r_epik_Metal_State_Penalty>
2.70494

> <b_epik_Metal_Only>
1

> <s_lp_Force_Field>
OPLS_2005

> <r_lp_Energy>
11.4851

> <b_lp_Chiralities_Consistent>
1

> <s_lp_Variant>
AV-unprocessed.smi:1586-7

> <Gold.Version>
5.8.1

> <Gold.Id.Protein>
6NUR|6NUR_protein|mol2

> <Gold.PLP.Fitness>
47.9025

> <Gold.PLP.PLP>
-33.3794

> <Gold.PLP.part.hbond>
-4.0000

> <Gold.PLP.part.metal>
0.0000

> <Gold.PLP.part.buried>
-2.9857

> <Gold.PLP.part.nonpolar>
-27.6309

> <Gold.PLP.part.repulsive>
0.3333

> <Gold.PLP.ligand.clash>
0.0000

> <Gold.PLP.ligand.torsion>
0.3541

> <Gold.PLP.Chemscore.Hbond>
5.0268

> <Gold.PLP.Chemscore.CHOScore>
0.0000

> <Gold.PLP.Chemscore.Metal>
0.0000

> <Gold.Chemscore.Hbonds>
donor molecule, donor type, donor heavy atom, donor atom, acceptor molecule, acceptor atom, score
      L1  H     3    46       P1  7957  1.00
      P1  H  6896  6908       L1    12  1.00
      P1  H  6931  6943       L1    13  1.54
      P1  H  6934  6947       L1    13  1.49

> <Gold.PLP.Chemscore.Internal.Correction>
0.1509

> <Gold.Rescore>
     Score         DG    S(hbond)    S(metal)    S(lipo)     H(rot)  DE(clash)    DE(int)     intcor
     17.87     -20.04       3.01        0.00      76.14       1.73       0.20       1.98       ----

> <Gold.Chemscore.Fitness>
17.8691

> <Gold.Chemscore.DG>
-20.0422

> <Gold.Chemscore.ZeroCoef>
-5.4800

> <Gold.Chemscore.Hbond>
3.0148

> <Gold.Chemscore.Metal>
0.0000

> <Gold.Chemscore.Lipo>
76.1447

> <Gold.Chemscore.Internal_Hbond>
0.0000

> <Gold.Chemscore.DEClash>
0.1963

> <Gold.Chemscore.DEInternal>
1.9767

> <Gold.Chemscore.Rot>
1.7250

> <Gold.Chemscore.Internal.Correction>
   9.000000E+99

> <Gold.Chemscore.Hbonds>
donor molecule, donor type, donor heavy atom, donor atom, acceptor molecule, acceptor atom, score
      L1  H     3    46       P1  7957  1.00
      P1  H  6896  6908       L1    12  0.94
      P1  H  6931  6943       L1    13  0.30
      P1  H  6934  6947       L1    13  0.65

> <Gold.Chemscore.Hbond.Weighted>
-10.0693

> <Gold.Chemscore.Metal.Weighted>
-0.0000

> <Gold.Chemscore.Lipo.Weighted>
-8.9089

> <Gold.Chemscore.Internal_Hbond.Weighted>
0.0000

> <Gold.Chemscore.DEClash.Weighted>
0.1963

> <Gold.Chemscore.DEInternal.Weighted>
1.9767

> <Gold.Chemscore.Rot.Weighted>
4.4161

> <Gold.Chemscore.Internal.Correction.Weighted>
   9.000000E+99

> <Gold.Protein.RotatedTorsions>
[ 6907 6896 6895 6894 ] final  166.73 input  -60.11 | X-H torsion
[ 7974 7965 7964 7962 ] final  113.53 input  175.53 | X-H torsion
[ 8008 7997 7996 7995 ] final  -89.59 input   59.86 | X-H torsion
[ 10167 10162 10161 10158 ] final   69.31 input  -65.29 | X-H torsion
[ 10718 10713 10712 10709 ] final   28.73 input   66.30 | X-H torsion
[ 10763 10752 10751 10750 ] final   71.23 input  -60.55 | X-H torsion
[ 11005 11000 10999 10996 ] final -129.22 input  -57.11 | X-H torsion

> <Gold.Protein.ActiveResidues>
 VAL166  LYS551  ARG553  GLY616  TRP617  ASP618  TYR619  PRO620  LYS621  CYS622 
 ASP623  PHE694  ASN695  SER759  ASP760  ASP761  ALA762  ILE779  LEU786  VAL792 
 PHE793  MET794  SER795  GLU796  ALA797  LYS798  CYS799  TRP800  GLU811  SER814 

> <Gold.Protein.RotatedAtoms>
  151.8743  133.3482  159.3745 H   0  0  0  0  0  0  0  0  0  0  0  0  # atno 6907 bound_to 6896
  150.7144  134.5081  159.5603 H   0  0  0  0  0  0  0  0  0  0  0  0  # atno 6908 bound_to 6896
  152.2620  134.8024  160.0480 H   0  0  0  0  0  0  0  0  0  0  0  0  # atno 6909 bound_to 6896
  145.2158  139.2885  143.4244 H   0  0  0  0  0  0  0  0  0  0  0  0  # atno 7974 bound_to 7965
  154.6884  140.0540  157.0338 H   0  0  0  0  0  0  0  0  0  0  0  0  # atno 8008 bound_to 7997
  155.0852  140.3213  155.4571 H   0  0  0  0  0  0  0  0  0  0  0  0  # atno 8009 bound_to 7997
  156.2719  140.2058  156.5979 H   0  0  0  0  0  0  0  0  0  0  0  0  # atno 8010 bound_to 7997
  140.0692  144.5167  150.7239 H   0  0  0  0  0  0  0  0  0  0  0  0  # atno 10167 bound_to 10162
  157.2372  130.7052  149.6341 H   0  0  0  0  0  0  0  0  0  0  0  0  # atno 10718 bound_to 10713
  153.0387  135.5144  154.7561 H   0  0  0  0  0  0  0  0  0  0  0  0  # atno 10763 bound_to 10752
  154.6517  135.2926  154.9981 H   0  0  0  0  0  0  0  0  0  0  0  0  # atno 10764 bound_to 10752
  154.0863  135.6656  153.4898 H   0  0  0  0  0  0  0  0  0  0  0  0  # atno 10765 bound_to 10752
  140.9450  134.1143  157.4116 H   0  0  0  0  0  0  0  0  0  0  0  0  # atno 11005 bound_to 11000
  146.3387  140.2448  142.8596 LP  0  0  0  0  0  0  0  0  0  0  0  0  # atno 17320 bound_to 7965
  144.9813  140.8461  143.5396 LP  0  0  0  0  0  0  0  0  0  0  0  0  # atno 17321 bound_to 7965
  140.7134  143.2524  151.4510 LP  0  0  0  0  0  0  0  0  0  0  0  0  # atno 17342 bound_to 10162
  139.5846  144.1632  152.2013 LP  0  0  0  0  0  0  0  0  0  0  0  0  # atno 17343 bound_to 10162
  155.9672  130.4469  150.5561 LP  0  0  0  0  0  0  0  0  0  0  0  0  # atno 17370 bound_to 10713
  157.3416  131.0718  151.1783 LP  0  0  0  0  0  0  0  0  0  0  0  0  # atno 17371 bound_to 10713
  139.8831  135.0048  156.6274 LP  0  0  0  0  0  0  0  0  0  0  0  0  # atno 17394 bound_to 11000
  140.7682  133.8760  155.8471 LP  0  0  0  0  0  0  0  0  0  0  0  0  # atno 17395 bound_to 11000

$$$$
