AV-unprocessed.smi:157|AV-procd|sdf|1301|dock10
  -GOLD-   2262018593D 1   1.00000     0.00000
 Structure written by MMmdl.
 35 37  0  0  0  0  0  0  0  0  1 V2000
  152.2669  136.8653  155.9834 O   0  0  0  0  0  0  0  0  0  0  0  0
  151.5269  137.7677  155.1892 C   0  0  0  0  0  0  0  0  0  0  0  0
  151.2271  139.0518  155.9811 C   0  0  1  0  0  0  0  0  0  0  0  0
  152.3534  139.9197  155.9985 O   0  0  0  0  0  0  0  0  0  0  0  0
  151.9443  141.2122  156.3385 C   0  0  2  0  0  0  0  0  0  0  0  0
  152.2348  141.4512  157.7928 N   0  0  0  0  0  0  0  0  0  0  0  0
  152.7700  140.5865  158.6668 C   0  0  0  0  0  0  0  0  0  0  0  0
  152.9229  141.0635  159.8903 N   0  0  0  0  0  0  0  0  0  0  0  0
  152.4437  142.3689  159.8044 C   0  0  0  0  0  0  0  0  0  0  0  0
  152.0164  142.6309  158.5109 C   0  0  0  0  0  0  0  0  0  0  0  0
  151.4791  143.7132  157.8400 N   0  0  0  0  0  0  0  0  0  0  0  0
  150.9422  144.6590  158.5444 C   0  0  0  0  0  0  0  0  0  0  0  0
  150.8886  144.8300  159.9203 N   0  0  0  0  0  0  0  0  0  0  0  0
  152.0503  144.7044  160.7840 C   0  0  0  0  0  0  0  0  0  0  0  0
  152.4867  143.2525  161.0173 C   0  0  1  0  0  0  0  0  0  0  0  0
  151.6446  142.6628  161.9867 O   0  0  0  0  0  0  0  0  0  0  0  0
  150.4287  141.2943  156.0833 C   0  0  0  0  0  0  0  0  0  0  0  0
  150.1042  139.9514  155.4507 C   0  0  1  0  0  0  0  0  0  0  0  0
  150.1203  140.0484  154.0391 O   0  0  0  0  0  0  0  0  0  0  0  0
  151.0019  138.7864  157.0157 H   0  0  0  0  0  0  0  0  0  0  0  0
  152.5326  141.9606  155.8066 H   0  0  0  0  0  0  0  0  0  0  0  0
  153.4937  143.2578  161.4355 H   0  0  0  0  0  0  0  0  0  0  0  0
  149.1223  139.5889  155.7564 H   0  0  0  0  0  0  0  0  0  0  0  0
  153.0353  137.3109  156.3064 H   0  0  0  0  0  0  0  0  0  0  0  0
  152.1168  138.0087  154.3046 H   0  0  0  0  0  0  0  0  0  0  0  0
  150.6132  137.2878  154.8385 H   0  0  0  0  0  0  0  0  0  0  0  0
  153.0599  139.5796  158.4055 H   0  0  0  0  0  0  0  0  0  0  0  0
  150.4470  145.4777  158.0203 H   0  0  0  0  0  0  0  0  0  0  0  0
  150.2227  145.4889  160.2973 H   0  0  0  0  0  0  0  0  0  0  0  0
  152.8688  145.2435  160.3046 H   0  0  0  0  0  0  0  0  0  0  0  0
  151.8658  145.2116  161.7314 H   0  0  0  0  0  0  0  0  0  0  0  0
  152.0283  142.8096  162.8382 H   0  0  0  0  0  0  0  0  0  0  0  0
  149.8951  141.4066  157.0285 H   0  0  0  0  0  0  0  0  0  0  0  0
  150.1861  142.1476  155.4485 H   0  0  0  0  0  0  0  0  0  0  0  0
  149.5121  139.4147  153.6900 H   0  0  0  0  0  0  0  0  0  0  0  0
  1  2  1  0  0  0  0
  1 24  1  0  0  0  0
  2  3  1  0  0  0  0
  2 25  1  0  0  0  0
  2 26  1  0  0  0  0
  3 20  1  0  0  0  0
  3 18  1  0  0  0  0
  3  4  1  0  0  0  0
  4  5  1  0  0  0  0
  5 21  1  0  0  0  0
  5  6  1  0  0  0  0
  5 17  1  0  0  0  0
  6 10  1  0  0  0  0
  6  7  1  0  0  0  0
  7  8  2  0  0  0  0
  7 27  1  0  0  0  0
  8  9  1  0  0  0  0
  9 15  1  0  0  0  0
  9 10  2  0  0  0  0
 10 11  1  0  0  0  0
 11 12  2  0  0  0  0
 12 13  1  0  0  0  0
 12 28  1  0  0  0  0
 13 14  1  0  0  0  0
 13 29  1  0  0  0  0
 14 15  1  0  0  0  0
 14 30  1  0  0  0  0
 14 31  1  0  0  0  0
 15 22  1  0  0  0  0
 15 16  1  0  0  0  0
 16 32  1  0  0  0  0
 17 18  1  0  0  0  0
 17 33  1  0  0  0  0
 17 34  1  0  0  0  0
 18 23  1  0  0  0  0
 18 19  1  0  0  0  0
 19 35  1  0  0  0  0
M  END
> <s_m_source_file>
AV-unprocessed.smi

> <i_m_source_file_index>
157

> <i_lp_mmshare_version>
43012

> <i_f3d_flags>
0

> <s_epik_input>
W09IXVtDSDJdW0NASF0xT1tDQEhdKFtDSDJdW0NAQEhdMVtPSF0pbihbY0hdbjIpYyhjMjMpTj1bQ0hdW05IXVtDSDJdW0NASF0zW09IXQ==

> <s_epik_cmdline>
J2VwaWtfcHl0aG9uJywgJy1waCcsICc3LjAnLCAnLXRuJywgJzgnLCAnLW1hJywgJzIwMCcsICctbWV0YWxfYmluZGluZycsICctaW1hZScsICc8aW5maWxlLm1hZT4nLCAnLW9tYWUnLCAnPG91dGZpbGUubWFlPic=

> <r_lp_tautomer_probability>
1

> <r_epik_Ionization_Penalty>
0.0357149

> <r_epik_Ionization_Penalty_Charging>
0.0355056

> <r_epik_Ionization_Penalty_Neutral>
0.000209255

> <r_epik_State_Penalty>
0.0296046

> <r_epik_Charging_Adjusted_Penalty>
0.0651102

> <i_epik_Tot_Q>
0

> <i_epik_Tot_abs_Q>
0

> <r_epik_Metal_State_Penalty>
3.03559e-05

> <b_epik_Metal_Only>
0

> <s_epik_Chemistry_Notes>
This compound has an imine and may undergo hydrolysis. This compound contains an acetal/aminal-like group ( X-CH(R)-Y where X, Y are N, S, or O) that may be acid/base labile, releasing an aldehyde.

> <s_lp_Force_Field>
OPLS_2005

> <r_lp_Energy>
44.137

> <b_lp_Chiralities_Consistent>
1

> <s_lp_Variant>
AV-unprocessed.smi:157-11

> <Gold.Version>
5.8.1

> <Gold.Id.Protein>
6NUR|6NUR_protein|mol2

> <Gold.PLP.Fitness>
47.6702

> <Gold.PLP.PLP>
-33.8630

> <Gold.PLP.part.hbond>
-6.0000

> <Gold.PLP.part.metal>
0.0000

> <Gold.PLP.part.buried>
-8.1901

> <Gold.PLP.part.nonpolar>
-20.4970

> <Gold.PLP.part.repulsive>
0.2892

> <Gold.PLP.ligand.clash>
0.0000

> <Gold.PLP.ligand.torsion>
0.1893

> <Gold.PLP.Chemscore.Hbond>
3.8320

> <Gold.PLP.Chemscore.CHOScore>
0.8936

> <Gold.PLP.Chemscore.Metal>
0.0000

> <Gold.Chemscore.Hbonds>
donor molecule, donor type, donor heavy atom, donor atom, acceptor molecule, acceptor atom, score
      P1  H  6933  6945       L1    16  0.83
      P1  H  7989  7998       L1    19  0.94
      P1  H  7997  8009       L1     4  0.95
      P1  H 10752 10765       L1     1  0.79
      L1  C    12    28       P1  8028  0.03
      L1  C    12    28       P1  8029  0.49

> <Gold.PLP.Chemscore.Internal.Correction>
0.0089

> <Gold.Rescore>
     Score         DG    S(hbond)    S(metal)    S(lipo)     H(rot)  DE(clash)    DE(int)     intcor
     10.80     -13.47       3.16        0.00      57.65       3.64       2.49       0.18       ----

> <Gold.Chemscore.Fitness>
10.8034

> <Gold.Chemscore.DG>
-13.4713

> <Gold.Chemscore.ZeroCoef>
-5.4800

> <Gold.Chemscore.Hbond>
3.1601

> <Gold.Chemscore.Metal>
0.0000

> <Gold.Chemscore.Lipo>
57.6509

> <Gold.Chemscore.Internal_Hbond>
0.0000

> <Gold.Chemscore.DEClash>
2.4917

> <Gold.Chemscore.DEInternal>
0.1762

> <Gold.Chemscore.Rot>
3.6362

> <Gold.Chemscore.Internal.Correction>
   9.000000E+99

> <Gold.Chemscore.Hbonds>
donor molecule, donor type, donor heavy atom, donor atom, acceptor molecule, acceptor atom, score
      P1  H  6933  6945       L1    16  0.54
      P1  H  7989  7998       L1    19  0.71
      P1  H  7997  8009       L1     4  0.21
      P1  H 10752 10765       L1     1  0.10

> <Gold.Chemscore.Hbond.Weighted>
-10.5548

> <Gold.Chemscore.Metal.Weighted>
-0.0000

> <Gold.Chemscore.Lipo.Weighted>
-6.7452

> <Gold.Chemscore.Internal_Hbond.Weighted>
0.0000

> <Gold.Chemscore.DEClash.Weighted>
2.4917

> <Gold.Chemscore.DEInternal.Weighted>
0.1762

> <Gold.Chemscore.Rot.Weighted>
9.3087

> <Gold.Chemscore.Internal.Correction.Weighted>
   9.000000E+99

> <Gold.Protein.RotatedTorsions>
[ 6907 6896 6895 6894 ] final -129.21 input  -60.11 | X-H torsion
[ 7974 7965 7964 7962 ] final  -79.40 input  175.53 | X-H torsion
[ 8008 7997 7996 7995 ] final -158.47 input   59.86 | X-H torsion
[ 10167 10162 10161 10158 ] final  -23.56 input  -65.29 | X-H torsion
[ 10718 10713 10712 10709 ] final   18.98 input   66.30 | X-H torsion
[ 10763 10752 10751 10750 ] final -147.25 input  -60.55 | X-H torsion
[ 11005 11000 10999 10996 ] final  137.82 input  -57.11 | X-H torsion

> <Gold.Protein.ActiveResidues>
 VAL166  LYS551  ARG553  GLY616  TRP617  ASP618  TYR619  PRO620  LYS621  CYS622 
 ASP623  PHE694  ASN695  SER759  ASP760  ASP761  ALA762  ILE779  LEU786  VAL792 
 PHE793  MET794  SER795  GLU796  ALA797  LYS798  CYS799  TRP800  GLU811  SER814 

> <Gold.Protein.RotatedAtoms>
  150.9262  133.6820  159.2820 H   0  0  0  0  0  0  0  0  0  0  0  0  # atno 6907 bound_to 6896
  151.4258  135.1002  159.9637 H   0  0  0  0  0  0  0  0  0  0  0  0  # atno 6908 bound_to 6896
  152.5004  133.8704  159.7350 H   0  0  0  0  0  0  0  0  0  0  0  0  # atno 6909 bound_to 6896
  145.5737  140.9461  143.1381 H   0  0  0  0  0  0  0  0  0  0  0  0  # atno 7974 bound_to 7965
  155.7481  140.0823  157.2214 H   0  0  0  0  0  0  0  0  0  0  0  0  # atno 8008 bound_to 7997
  154.4015  140.1565  156.2748 H   0  0  0  0  0  0  0  0  0  0  0  0  # atno 8009 bound_to 7997
  155.8957  140.3412  155.5992 H   0  0  0  0  0  0  0  0  0  0  0  0  # atno 8010 bound_to 7997
  140.7288  143.4432  151.0626 H   0  0  0  0  0  0  0  0  0  0  0  0  # atno 10167 bound_to 10162
  157.1040  130.6480  149.5880 H   0  0  0  0  0  0  0  0  0  0  0  0  # atno 10718 bound_to 10713
  154.8295  135.3365  154.6789 H   0  0  0  0  0  0  0  0  0  0  0  0  # atno 10763 bound_to 10752
  153.7410  135.6946  153.4971 H   0  0  0  0  0  0  0  0  0  0  0  0  # atno 10764 bound_to 10752
  153.2243  135.4438  155.0476 H   0  0  0  0  0  0  0  0  0  0  0  0  # atno 10765 bound_to 10752
  140.0140  134.9426  157.0338 H   0  0  0  0  0  0  0  0  0  0  0  0  # atno 11005 bound_to 11000
  144.7426  139.7408  143.7305 LP  0  0  0  0  0  0  0  0  0  0  0  0  # atno 17320 bound_to 7965
  146.1766  139.4939  142.9893 LP  0  0  0  0  0  0  0  0  0  0  0  0  # atno 17321 bound_to 7965
  139.8101  143.7963  152.3170 LP  0  0  0  0  0  0  0  0  0  0  0  0  # atno 17342 bound_to 10162
  139.8009  144.7374  150.9825 LP  0  0  0  0  0  0  0  0  0  0  0  0  # atno 17343 bound_to 10162
  155.9866  130.4902  150.7089 LP  0  0  0  0  0  0  0  0  0  0  0  0  # atno 17370 bound_to 10713
  157.4617  131.0884  151.0739 LP  0  0  0  0  0  0  0  0  0  0  0  0  # atno 17371 bound_to 10713
  140.4503  134.1589  155.7181 LP  0  0  0  0  0  0  0  0  0  0  0  0  # atno 17394 bound_to 11000
  141.1730  133.8570  157.1510 LP  0  0  0  0  0  0  0  0  0  0  0  0  # atno 17395 bound_to 11000

$$$$
