#       Name:                AV-unprocessed.smi:304
#       Creating user name   scv26
#       Creation time:       Thu Mar 26 22:17:19 2020


#       File generated by GOLD software.
#

@<TRIPOS>MOLECULE
AV-unprocessed.smi:304
    41    43     1
SMALL
NO_CHARGES


@<TRIPOS>ATOM
      1 ****        -0.5025  -0.3057  -0.9301 O.3            1 S1                 0.0000
      2 ****         0.0528   0.2581   0.2420 C.3            1 S1                 0.0000
      3 ****         1.5825   0.2689   0.0966 C.3            1 S1                 0.0000
      4 ****         2.0847  -1.0223   0.3979 O.3            1 S1                 0.0000
      5 ****         3.4961  -1.1026   0.2789 C.3            1 S1                 0.0000
      6 ****         3.9070  -2.4960   0.6342 C.2            1 S1                 0.0000
      7 ****         5.0191  -3.1656   0.1908 C.2            1 S1                 0.0000
      8 ****         5.1397  -4.4795   0.7317 C.2            1 S1                 0.0000
      9 ****         4.1208  -4.7956   1.5902 C.2            1 S1                 0.0000
     10 ****         2.9904  -3.4801   1.7525 S.3            1 S1                 0.0000
     11 ****        -0.5152   1.6776   0.4348 C.3            1 S1                 0.0000
     12 ****        -1.9609   1.6865   0.5740 N.pl3          1 S1                 0.0000
     13 ****        -2.6676   1.4076   1.6860 C.2            1 S1                 0.0000
     14 ****        -3.9929   1.4763   1.5993 N.2            1 S1                 0.0000
     15 ****        -4.1678   1.8422   0.2757 C.ar           1 S1                 0.0000
     16 ****        -5.3500   2.0830  -0.4599 C.ar           1 S1                 0.0000
     17 ****        -5.2833   2.4500  -1.8201 C.ar           1 S1                 0.0000
     18 ****        -6.4260   2.6774  -2.5102 F              1 S1                 0.0000
     19 ****        -4.0351   2.5807  -2.4645 C.ar           1 S1                 0.0000
     20 ****        -3.9805   2.9322  -3.7711 F              1 S1                 0.0000
     21 ****        -2.8436   2.3461  -1.7518 C.ar           1 S1                 0.0000
     22 ****        -2.9148   1.9816  -0.3945 C.ar           1 S1                 0.0000
     23 ****        -0.1682  -1.1849  -1.0244 H              1 S1                 0.0000
     24 ****        -0.2293  -0.3561   1.0983 H              1 S1                 0.0000
     25 ****         1.8817   0.5914  -0.9024 H              1 S1                 0.0000
     26 ****         2.0144   0.9759   0.8069 H              1 S1                 0.0000
     27 ****         3.8049  -0.8648  -0.7402 H              1 S1                 0.0000
     28 ****         3.9776  -0.3909   0.9508 H              1 S1                 0.0000
     29 ****         5.7448  -2.7611  -0.4994 H              1 S1                 0.0000
     30 ****         5.9590  -5.1357   0.4778 H              1 S1                 0.0000
     31 ****         3.9674  -5.7143   2.1369 H              1 S1                 0.0000
     32 ****        -0.0874   2.1355   1.3278 H              1 S1                 0.0000
     33 ****        -0.2392   2.3178  -0.4041 H              1 S1                 0.0000
     34 ****        -2.1804   1.1384   2.6119 H              1 S1                 0.0000
     35 ****        -6.3110   1.9848   0.0226 H              1 S1                 0.0000
     36 ****        -1.8872   2.4425  -2.2436 H              1 S1                 0.0000
     37 ****        -0.2417   0.2422  -1.7250 LP             1 S1                 0.0000
     38 ****        -1.4993  -0.3294  -0.8543 LP             1 S1                 0.0000
     39 ****         1.6726  -1.6807  -0.2319 LP             1 S1                 0.0000
     40 ****         1.8291  -1.2539   1.3365 LP             1 S1                 0.0000
     41 ****        -4.6817   1.3080   2.3044 LP             1 S1                 0.0000
@<TRIPOS>BOND
    1    1    2 1     
    2    1   23 1     
    3    2    3 1     
    4    2   11 1     
    5    2   24 1     
    6    3    4 1     
    7    3   25 1     
    8    3   26 1     
    9    4    5 1     
   10    5    6 1     
   11    5   27 1     
   12    5   28 1     
   13    6   10 1     
   14    6    7 2     
   15    7    8 1     
   16    7   29 1     
   17    8    9 2     
   18    8   30 1     
   19    9   10 1     
   20    9   31 1     
   21   11   12 1     
   22   11   32 1     
   23   11   33 1     
   24   12   22 1     
   25   12   13 1     
   26   13   14 2     
   27   13   34 1     
   28   14   15 1     
   29   15   22 ar    
   30   15   16 ar    
   31   16   17 ar    
   32   16   35 1     
   33   17   18 1     
   34   17   19 ar    
   35   19   20 1     
   36   19   21 ar    
   37   21   22 ar    
   38   21   36 1     
   39    1   37 1     
   40    1   38 1     
   41    4   39 1     
   42    4   40 1     
   43   14   41 1     
@<TRIPOS>SUBSTRUCTURE
      1 S1             1
@<TRIPOS>SET
LONE_PAIRS      STATIC     ATOMS    <user>   **** ""
5 37 38 39 40 41
DONOR_HYDROGENS      STATIC     ATOMS    <user>   **** ""
1 23
ATOM$BLUE        STATIC     ATOMS    COLORGROUP SYSTEM
5 37 38 39 40 41
ATOM$RED        STATIC     ATOMS    COLORGROUP SYSTEM
1 23
