AV-unprocessed.smi:1562|AV-procd|sdf|6288|dock6
  -GOLD-   22720 6483D 1   1.00000     0.00000
 Structure written by MMmdl.
 41 42  0  0  0  0  0  0  0  0  2 V2000
  142.5235  144.4245  154.6094 N   0  0  0  0  0  0  0  0  0  0  0  0
  143.4714  144.1014  155.4926 C   0  0  0  0  0  0  0  0  0  0  0  0
  143.7673  144.8383  156.4316 O   0  0  0  0  0  0  0  0  0  0  0  0
  144.1874  142.7592  155.2918 C   0  0  0  0  0  0  0  0  0  0  0  0
  144.1069  141.8888  156.5690 C   0  0  0  0  0  0  0  0  0  0  0  0
  144.9470  140.6071  156.4223 C   0  0  0  0  0  0  0  0  0  0  0  0
  146.3355  140.9878  156.1131 N   0  0  0  0  0  0  0  0  0  0  0  0
  147.3777  140.9861  156.9824 C   0  0  0  0  0  0  0  0  0  0  0  0
  147.2379  141.0154  158.2061 O   0  0  0  0  0  0  0  0  0  0  0  0
  148.5905  140.9899  156.4061 N   0  0  0  0  0  0  0  0  0  0  0  0
  149.8517  140.9887  157.1342 C   0  0  0  0  0  0  0  0  0  0  0  0
  150.7631  142.1217  156.6432 C   0  0  0  0  0  0  0  0  0  0  0  0
  151.2687  142.9844  157.7834 C   0  0  0  0  0  0  0  0  0  0  0  0
  152.1573  142.4902  158.7629 C   0  0  0  0  0  0  0  0  0  0  0  0
  152.5846  143.3454  159.8001 C   0  0  0  0  0  0  0  0  0  0  0  0
  152.1134  144.6742  159.8372 C   0  0  0  0  0  0  0  0  0  0  0  0
  151.2260  145.1150  158.8343 C   0  0  0  0  0  0  0  0  0  0  0  0
  150.8411  144.2658  157.8561 N   0  3  0  0  0  0  0  0  0  0  0  0
  146.4227  141.6417  154.8022 C   0  0  0  0  0  0  0  0  0  0  0  0
  145.6578  142.9766  154.8625 C   0  0  0  0  0  0  0  0  0  0  0  0
  142.0296  145.3001  154.7047 H   0  0  0  0  0  0  0  0  0  0  0  0
  142.3049  143.7961  153.8503 H   0  0  0  0  0  0  0  0  0  0  0  0
  143.6848  142.2156  154.4895 H   0  0  0  0  0  0  0  0  0  0  0  0
  144.4621  142.4493  157.4356 H   0  0  0  0  0  0  0  0  0  0  0  0
  143.0691  141.6253  156.7764 H   0  0  0  0  0  0  0  0  0  0  0  0
  144.8447  139.9938  157.3173 H   0  0  0  0  0  0  0  0  0  0  0  0
  144.5527  139.9961  155.6091 H   0  0  0  0  0  0  0  0  0  0  0  0
  148.6373  140.9795  155.3975 H   0  0  0  0  0  0  0  0  0  0  0  0
  149.6600  141.1010  158.2028 H   0  0  0  0  0  0  0  0  0  0  0  0
  150.3410  140.0237  156.9932 H   0  0  0  0  0  0  0  0  0  0  0  0
  151.6161  141.7075  156.1036 H   0  0  0  0  0  0  0  0  0  0  0  0
  150.2276  142.7540  155.9336 H   0  0  0  0  0  0  0  0  0  0  0  0
  152.5073  141.4687  158.7227 H   0  0  0  0  0  0  0  0  0  0  0  0
  153.2645  142.9860  160.5588 H   0  0  0  0  0  0  0  0  0  0  0  0
  152.4278  145.3448  160.6236 H   0  0  0  0  0  0  0  0  0  0  0  0
  150.8148  146.1129  158.7852 H   0  0  0  0  0  0  0  0  0  0  0  0
  147.4526  141.8132  154.4862 H   0  0  0  0  0  0  0  0  0  0  0  0
  145.9863  140.9922  154.0422 H   0  0  0  0  0  0  0  0  0  0  0  0
  145.6946  143.4641  153.8875 H   0  0  0  0  0  0  0  0  0  0  0  0
  146.1634  143.6461  155.5608 H   0  0  0  0  0  0  0  0  0  0  0  0
  150.1965  144.6060  157.1419 H   0  0  0  0  0  0  0  0  0  0  0  0
  1  2  1  0  0  0  0
  1 21  1  0  0  0  0
  1 22  1  0  0  0  0
  2  3  2  0  0  0  0
  2  4  1  0  0  0  0
  4 20  1  0  0  0  0
  4  5  1  0  0  0  0
  4 23  1  0  0  0  0
  5  6  1  0  0  0  0
  5 24  1  0  0  0  0
  5 25  1  0  0  0  0
  6  7  1  0  0  0  0
  6 26  1  0  0  0  0
  6 27  1  0  0  0  0
  7  8  1  0  0  0  0
  7 19  1  0  0  0  0
  8  9  2  0  0  0  0
  8 10  1  0  0  0  0
 10 11  1  0  0  0  0
 10 28  1  0  0  0  0
 11 12  1  0  0  0  0
 11 29  1  0  0  0  0
 11 30  1  0  0  0  0
 12 13  1  0  0  0  0
 12 31  1  0  0  0  0
 12 32  1  0  0  0  0
 13 18  1  0  0  0  0
 13 14  2  0  0  0  0
 14 15  1  0  0  0  0
 14 33  1  0  0  0  0
 15 16  2  0  0  0  0
 15 34  1  0  0  0  0
 16 17  1  0  0  0  0
 16 35  1  0  0  0  0
 17 18  2  0  0  0  0
 17 36  1  0  0  0  0
 18 41  1  0  0  0  0
 19 20  1  0  0  0  0
 19 37  1  0  0  0  0
 19 38  1  0  0  0  0
 20 39  1  0  0  0  0
 20 40  1  0  0  0  0
M  CHG  1  18   1
M  END
> <s_m_source_file>
AV-unprocessed.smi

> <i_m_source_file_index>
1562

> <i_lp_mmshare_version>
43012

> <i_f3d_flags>
0

> <s_epik_input>
W05IMl1DKD1PKVtDSF0xW0NIMl1bQ0gyXU4oW0NIMl1bQ0gyXTEpQyg9TylbTkhdW0NIMl1bQ0gyXWMyW2NIXVtjSF1bY0hdW2NIXW4y

> <s_epik_cmdline>
J2VwaWtfcHl0aG9uJywgJy1waCcsICc3LjAnLCAnLXRuJywgJzgnLCAnLW1hJywgJzIwMCcsICctbWV0YWxfYmluZGluZycsICctaW1hZScsICc8aW5maWxlLm1hZT4nLCAnLW9tYWUnLCAnPG91dGZpbGUubWFlPic=

> <r_epik_Ionization_Penalty>
1.55599

> <r_epik_Ionization_Penalty_Charging>
1.55593

> <r_epik_Ionization_Penalty_Neutral>
5.20779e-05

> <r_epik_State_Penalty>
1.65054

> <r_epik_Charging_Adjusted_Penalty>
3.20648

> <i_epik_Tot_Q>
1

> <i_epik_Tot_abs_Q>
1

> <r_epik_Metal_State_Penalty>
1.69236

> <b_epik_Metal_Only>
0

> <s_lp_Force_Field>
OPLS_2005

> <r_lp_Energy>
33.1399

> <b_lp_Chiralities_Consistent>
1

> <s_lp_Variant>
AV-unprocessed.smi:1562-2

> <Gold.Version>
5.8.1

> <Gold.Id.Protein>
6NUR|6NUR_protein|mol2

> <Gold.PLP.Fitness>
44.2286

> <Gold.PLP.PLP>
-36.8113

> <Gold.PLP.part.hbond>
-2.0000

> <Gold.PLP.part.metal>
0.0000

> <Gold.PLP.part.buried>
-6.1837

> <Gold.PLP.part.nonpolar>
-29.6398

> <Gold.PLP.part.repulsive>
0.5825

> <Gold.PLP.ligand.clash>
0.0000

> <Gold.PLP.ligand.torsion>
0.8453

> <Gold.PLP.Chemscore.Hbond>
3.0000

> <Gold.PLP.Chemscore.CHOScore>
0.0000

> <Gold.PLP.Chemscore.Metal>
0.0000

> <Gold.Chemscore.Hbonds>
donor molecule, donor type, donor heavy atom, donor atom, acceptor molecule, acceptor atom, score
      L1  H     1    22       P1 10174  0.63
      L1  H    18    41       P1  8028  2.00

> <Gold.PLP.Chemscore.Internal.Correction>
0.1079

> <Gold.Rescore>
     Score         DG    S(hbond)    S(metal)    S(lipo)     H(rot)  DE(clash)    DE(int)     intcor
     15.98     -16.89       1.85        0.00      89.38       2.03       0.03       0.89       ----

> <Gold.Chemscore.Fitness>
15.9755

> <Gold.Chemscore.DG>
-16.8944

> <Gold.Chemscore.ZeroCoef>
-5.4800

> <Gold.Chemscore.Hbond>
1.8454

> <Gold.Chemscore.Metal>
0.0000

> <Gold.Chemscore.Lipo>
89.3813

> <Gold.Chemscore.Internal_Hbond>
0.0000

> <Gold.Chemscore.DEClash>
0.0317

> <Gold.Chemscore.DEInternal>
0.8873

> <Gold.Chemscore.Rot>
2.0339

> <Gold.Chemscore.Internal.Correction>
   9.000000E+99

> <Gold.Chemscore.Hbonds>
donor molecule, donor type, donor heavy atom, donor atom, acceptor molecule, acceptor atom, score
      L1  H     1    22       P1 10174  0.62
      L1  H    18    41       P1  8028  0.50

> <Gold.Chemscore.Hbond.Weighted>
-6.1637

> <Gold.Chemscore.Metal.Weighted>
-0.0000

> <Gold.Chemscore.Lipo.Weighted>
-10.4576

> <Gold.Chemscore.Internal_Hbond.Weighted>
0.0000

> <Gold.Chemscore.DEClash.Weighted>
0.0317

> <Gold.Chemscore.DEInternal.Weighted>
0.8873

> <Gold.Chemscore.Rot.Weighted>
5.2069

> <Gold.Chemscore.Internal.Correction.Weighted>
   9.000000E+99

> <Gold.Protein.RotatedTorsions>
[ 6907 6896 6895 6894 ] final -160.78 input  -60.11 | X-H torsion
[ 7974 7965 7964 7962 ] final   33.08 input  175.53 | X-H torsion
[ 8008 7997 7996 7995 ] final  -24.91 input   59.86 | X-H torsion
[ 10167 10162 10161 10158 ] final   10.14 input  -65.29 | X-H torsion
[ 10718 10713 10712 10709 ] final  125.17 input   66.30 | X-H torsion
[ 10763 10752 10751 10750 ] final -107.71 input  -60.55 | X-H torsion
[ 11005 11000 10999 10996 ] final -117.14 input  -57.11 | X-H torsion

> <Gold.Protein.ActiveResidues>
 VAL166  LYS551  ARG553  GLY616  TRP617  ASP618  TYR619  PRO620  LYS621  CYS622 
 ASP623  PHE694  ASN695  SER759  ASP760  ASP761  ALA762  ILE779  LEU786  VAL792 
 PHE793  MET794  SER795  GLU796  ALA797  LYS798  CYS799  TRP800  GLU811  SER814 

> <Gold.Protein.RotatedAtoms>
  151.3544  133.3913  159.2683 H   0  0  0  0  0  0  0  0  0  0  0  0  # atno 6907 bound_to 6896
  150.9775  134.9138  159.7835 H   0  0  0  0  0  0  0  0  0  0  0  0  # atno 6908 bound_to 6896
  152.5206  134.3507  159.9302 H   0  0  0  0  0  0  0  0  0  0  0  0  # atno 6909 bound_to 6896
  146.1444  139.6442  142.9141 H   0  0  0  0  0  0  0  0  0  0  0  0  # atno 7974 bound_to 7965
  154.4503  140.1940  156.0538 H   0  0  0  0  0  0  0  0  0  0  0  0  # atno 8008 bound_to 7997
  156.0634  140.3294  155.7461 H   0  0  0  0  0  0  0  0  0  0  0  0  # atno 8009 bound_to 7997
  155.5376  140.0583  157.2867 H   0  0  0  0  0  0  0  0  0  0  0  0  # atno 8010 bound_to 7997
  140.6212  143.8200  150.7177 H   0  0  0  0  0  0  0  0  0  0  0  0  # atno 10167 bound_to 10162
  157.5525  131.1093  150.8677 H   0  0  0  0  0  0  0  0  0  0  0  0  # atno 10718 bound_to 10713
  154.8091  135.4665  154.0470 H   0  0  0  0  0  0  0  0  0  0  0  0  # atno 10763 bound_to 10752
  153.1915  135.6856  153.8353 H   0  0  0  0  0  0  0  0  0  0  0  0  # atno 10764 bound_to 10752
  153.7869  135.3248  155.3350 H   0  0  0  0  0  0  0  0  0  0  0  0  # atno 10765 bound_to 10752
  141.0375  133.9887  157.3047 H   0  0  0  0  0  0  0  0  0  0  0  0  # atno 11005 bound_to 11000
  145.4972  141.0438  143.2560 LP  0  0  0  0  0  0  0  0  0  0  0  0  # atno 17320 bound_to 7965
  144.7829  139.6488  143.7146 LP  0  0  0  0  0  0  0  0  0  0  0  0  # atno 17321 bound_to 7965
  140.1790  143.4130  152.1946 LP  0  0  0  0  0  0  0  0  0  0  0  0  # atno 17342 bound_to 10162
  139.5440  144.7282  151.4641 LP  0  0  0  0  0  0  0  0  0  0  0  0  # atno 17343 bound_to 10162
  156.9198  130.5311  149.5279 LP  0  0  0  0  0  0  0  0  0  0  0  0  # atno 17370 bound_to 10713
  156.0589  130.5646  150.9152 LP  0  0  0  0  0  0  0  0  0  0  0  0  # atno 17371 bound_to 10713
  139.9251  135.0201  156.8206 LP  0  0  0  0  0  0  0  0  0  0  0  0  # atno 17394 bound_to 11000
  140.6295  133.9919  155.7655 LP  0  0  0  0  0  0  0  0  0  0  0  0  # atno 17395 bound_to 11000

$$$$
