AV-unprocessed.smi:1145|AV-procd|sdf|4883|dock8
  -GOLD-   22720 3453D 1   1.00000     0.00000
 Structure written by MMmdl.
 36 37  0  0  0  0  0  0  0  0  1 V2000
  151.7374  140.5166  158.7303 C   0  0  0  0  0  0  0  0  0  0  0  0
  153.0196  140.9880  159.4298 C   0  0  1  0  0  0  0  0  0  0  0  0
  152.7677  142.2624  160.2642 C   0  0  0  0  0  0  0  0  0  0  0  0
  152.3394  143.3903  159.4556 N   0  0  0  0  0  0  0  0  0  0  0  0
  152.2296  144.7152  159.8227 C   0  0  0  0  0  0  0  0  0  0  0  0
  151.8064  145.4072  158.7246 C   0  0  0  0  0  0  0  0  0  0  0  0
  151.6784  144.4049  157.7227 C   0  0  0  0  0  0  0  0  0  0  0  0
  151.9939  143.1980  158.1643 N   0  0  0  0  0  0  0  0  0  0  0  0
  153.5241  139.9062  160.2751 N   0  0  0  0  0  0  0  0  0  0  0  0
  154.7158  139.3007  160.1471 C   0  0  0  0  0  0  0  0  0  0  0  0
  155.5234  139.5754  159.2590 O   0  0  0  0  0  0  0  0  0  0  0  0
  155.0554  138.2363  161.1983 C   0  0  2  0  0  0  0  0  0  0  0  0
  154.0306  137.0909  161.1633 C   0  0  0  0  0  0  0  0  0  0  0  0
  154.3985  135.9902  162.1711 C   0  0  0  0  0  0  0  0  0  0  0  0
  154.7830  136.5333  163.5555 C   0  0  0  0  0  0  0  0  0  0  0  0
  154.7856  135.7751  164.5226 O   0  0  0  0  0  0  0  0  0  0  0  0
  155.1458  137.8228  163.6728 N   0  0  0  0  0  0  0  0  0  0  0  0
  155.0999  138.8374  162.6195 C   0  0  0  0  0  0  0  0  0  0  0  0
  151.3470  141.2882  158.0660 H   0  0  0  0  0  0  0  0  0  0  0  0
  150.9565  140.2731  159.4516 H   0  0  0  0  0  0  0  0  0  0  0  0
  151.9235  139.6277  158.1267 H   0  0  0  0  0  0  0  0  0  0  0  0
  153.7454  141.2177  158.6474 H   0  0  0  0  0  0  0  0  0  0  0  0
  151.9975  142.0744  161.0137 H   0  0  0  0  0  0  0  0  0  0  0  0
  153.6686  142.5464  160.8100 H   0  0  0  0  0  0  0  0  0  0  0  0
  152.4673  145.0520  160.8209 H   0  0  0  0  0  0  0  0  0  0  0  0
  151.6184  146.4679  158.6477 H   0  0  0  0  0  0  0  0  0  0  0  0
  151.3673  144.5174  156.6945 H   0  0  0  0  0  0  0  0  0  0  0  0
  152.9279  139.6122  161.0352 H   0  0  0  0  0  0  0  0  0  0  0  0
  156.0385  137.8201  160.9694 H   0  0  0  0  0  0  0  0  0  0  0  0
  153.0326  137.4701  161.3897 H   0  0  0  0  0  0  0  0  0  0  0  0
  153.9754  136.6618  160.1618 H   0  0  0  0  0  0  0  0  0  0  0  0
  153.5725  135.2855  162.2726 H   0  0  0  0  0  0  0  0  0  0  0  0
  155.2489  135.4216  161.7937 H   0  0  0  0  0  0  0  0  0  0  0  0
  155.4230  138.1422  164.5899 H   0  0  0  0  0  0  0  0  0  0  0  0
  155.9683  139.4881  162.7253 H   0  0  0  0  0  0  0  0  0  0  0  0
  154.2215  139.4570  162.8065 H   0  0  0  0  0  0  0  0  0  0  0  0
  1  2  1  0  0  0  0
  1 19  1  0  0  0  0
  1 20  1  0  0  0  0
  1 21  1  0  0  0  0
  2  3  1  0  0  0  0
  2  9  1  0  0  0  0
  2 22  1  0  0  0  0
  3  4  1  0  0  0  0
  3 23  1  0  0  0  0
  3 24  1  0  0  0  0
  4  8  1  0  0  0  0
  4  5  1  0  0  0  0
  5  6  2  0  0  0  0
  5 25  1  0  0  0  0
  6  7  1  0  0  0  0
  6 26  1  0  0  0  0
  7  8  2  0  0  0  0
  7 27  1  0  0  0  0
  9 10  1  0  0  0  0
  9 28  1  0  0  0  0
 10 11  2  0  0  0  0
 10 12  1  0  0  0  0
 12 18  1  0  0  0  0
 12 13  1  0  0  0  0
 12 29  1  0  0  0  0
 13 14  1  0  0  0  0
 13 30  1  0  0  0  0
 13 31  1  0  0  0  0
 14 15  1  0  0  0  0
 14 32  1  0  0  0  0
 14 33  1  0  0  0  0
 15 16  2  0  0  0  0
 15 17  1  0  0  0  0
 17 18  1  0  0  0  0
 17 34  1  0  0  0  0
 18 35  1  0  0  0  0
 18 36  1  0  0  0  0
M  END
> <s_m_source_file>
AV-unprocessed.smi

> <i_m_source_file_index>
1145

> <i_lp_mmshare_version>
43012

> <i_f3d_flags>
0

> <s_epik_input>
bjFbY0hdW2NIXVtjSF1uMVtDSDJdW0NAQEhdKFtDSDNdKVtOSF1DKD1PKVtDQEBIXTJbQ0gyXVtDSDJdQyg9TylbTkhdW0NIMl0y

> <s_epik_cmdline>
J2VwaWtfcHl0aG9uJywgJy1waCcsICc3LjAnLCAnLXRuJywgJzgnLCAnLW1hJywgJzIwMCcsICctbWV0YWxfYmluZGluZycsICctaW1hZScsICc8aW5maWxlLm1hZT4nLCAnLW9tYWUnLCAnPG91dGZpbGUubWFlPic=

> <r_lp_tautomer_probability>
1

> <r_epik_Ionization_Penalty>
0.000314064

> <r_epik_Ionization_Penalty_Charging>
0

> <r_epik_Ionization_Penalty_Neutral>
0.000314064

> <r_epik_State_Penalty>
-0

> <r_epik_Charging_Adjusted_Penalty>
0

> <i_epik_Tot_Q>
0

> <i_epik_Tot_abs_Q>
0

> <r_epik_Metal_State_Penalty>
-0

> <b_epik_Metal_Only>
0

> <s_lp_Force_Field>
OPLS_2005

> <r_lp_Energy>
11.8785

> <b_lp_Chiralities_Consistent>
1

> <s_lp_Variant>
AV-unprocessed.smi:1145-2

> <Gold.Version>
5.8.1

> <Gold.Id.Protein>
6NUR|6NUR_protein|mol2

> <Gold.PLP.Fitness>
42.3106

> <Gold.PLP.PLP>
-36.5351

> <Gold.PLP.part.hbond>
-1.0000

> <Gold.PLP.part.metal>
0.0000

> <Gold.PLP.part.buried>
-4.5311

> <Gold.PLP.part.nonpolar>
-30.8092

> <Gold.PLP.part.repulsive>
0.2210

> <Gold.PLP.ligand.clash>
0.0000

> <Gold.PLP.ligand.torsion>
0.1191

> <Gold.PLP.Chemscore.Hbond>
1.0000

> <Gold.PLP.Chemscore.CHOScore>
1.0000

> <Gold.PLP.Chemscore.Metal>
0.0000

> <Gold.Chemscore.Hbonds>
donor molecule, donor type, donor heavy atom, donor atom, acceptor molecule, acceptor atom, score
      P1  H  7997  8009       L1    11  1.00
      L1  C     7    27       P1  8028  0.68

> <Gold.PLP.Chemscore.Internal.Correction>
0.0137

> <Gold.Rescore>
     Score         DG    S(hbond)    S(metal)    S(lipo)     H(rot)  DE(clash)    DE(int)     intcor
     13.10     -14.59       1.00        0.00      88.66       1.80       0.06       1.43       ----

> <Gold.Chemscore.Fitness>
13.0976

> <Gold.Chemscore.DG>
-14.5867

> <Gold.Chemscore.ZeroCoef>
-5.4800

> <Gold.Chemscore.Hbond>
0.9992

> <Gold.Chemscore.Metal>
0.0000

> <Gold.Chemscore.Lipo>
88.6573

> <Gold.Chemscore.Internal_Hbond>
0.0000

> <Gold.Chemscore.DEClash>
0.0605

> <Gold.Chemscore.DEInternal>
1.4285

> <Gold.Chemscore.Rot>
1.7982

> <Gold.Chemscore.Internal.Correction>
   9.000000E+99

> <Gold.Chemscore.Hbonds>
donor molecule, donor type, donor heavy atom, donor atom, acceptor molecule, acceptor atom, score
      P1  H  7997  8009       L1    11  0.99

> <Gold.Chemscore.Hbond.Weighted>
-3.3372

> <Gold.Chemscore.Metal.Weighted>
-0.0000

> <Gold.Chemscore.Lipo.Weighted>
-10.3729

> <Gold.Chemscore.Internal_Hbond.Weighted>
0.0000

> <Gold.Chemscore.DEClash.Weighted>
0.0605

> <Gold.Chemscore.DEInternal.Weighted>
1.4285

> <Gold.Chemscore.Rot.Weighted>
4.6035

> <Gold.Chemscore.Internal.Correction.Weighted>
   9.000000E+99

> <Gold.Protein.RotatedTorsions>
[ 6907 6896 6895 6894 ] final   -6.45 input  -60.11 | X-H torsion
[ 7974 7965 7964 7962 ] final  120.71 input  175.53 | X-H torsion
[ 8008 7997 7996 7995 ] final  102.19 input   59.86 | X-H torsion
[ 10167 10162 10161 10158 ] final -138.35 input  -65.29 | X-H torsion
[ 10718 10713 10712 10709 ] final   53.20 input   66.30 | X-H torsion
[ 10763 10752 10751 10750 ] final  137.64 input  -60.55 | X-H torsion
[ 11005 11000 10999 10996 ] final   91.62 input  -57.11 | X-H torsion

> <Gold.Protein.ActiveResidues>
 VAL166  LYS551  ARG553  GLY616  TRP617  ASP618  TYR619  PRO620  LYS621  CYS622 
 ASP623  PHE694  ASN695  SER759  ASP760  ASP761  ALA762  ILE779  LEU786  VAL792 
 PHE793  MET794  SER795  GLU796  ALA797  LYS798  CYS799  TRP800  GLU811  SER814 

> <Gold.Protein.RotatedAtoms>
  151.4653  135.1041  159.9735 H   0  0  0  0  0  0  0  0  0  0  0  0  # atno 6907 bound_to 6896
  152.4837  133.8315  159.7116 H   0  0  0  0  0  0  0  0  0  0  0  0  # atno 6908 bound_to 6896
  150.8929  133.7158  159.2926 H   0  0  0  0  0  0  0  0  0  0  0  0  # atno 6909 bound_to 6896
  145.1279  139.3346  143.4680 H   0  0  0  0  0  0  0  0  0  0  0  0  # atno 7974 bound_to 7965
  156.1370  140.3185  155.8436 H   0  0  0  0  0  0  0  0  0  0  0  0  # atno 8008 bound_to 7997
  155.4226  140.0513  157.3041 H   0  0  0  0  0  0  0  0  0  0  0  0  # atno 8009 bound_to 7997
  154.4945  140.2105  155.9489 H   0  0  0  0  0  0  0  0  0  0  0  0  # atno 8010 bound_to 7997
  139.8487  143.7227  152.2659 H   0  0  0  0  0  0  0  0  0  0  0  0  # atno 10167 bound_to 10162
  157.5145  130.8523  149.8477 H   0  0  0  0  0  0  0  0  0  0  0  0  # atno 10718 bound_to 10713
  153.8764  135.3049  155.3444 H   0  0  0  0  0  0  0  0  0  0  0  0  # atno 10763 bound_to 10752
  154.7782  135.4850  153.9791 H   0  0  0  0  0  0  0  0  0  0  0  0  # atno 10764 bound_to 10752
  153.1376  135.6817  153.9174 H   0  0  0  0  0  0  0  0  0  0  0  0  # atno 10765 bound_to 10752
  139.8836  134.8685  156.3455 H   0  0  0  0  0  0  0  0  0  0  0  0  # atno 11005 bound_to 11000
  146.3516  140.1266  142.8598 LP  0  0  0  0  0  0  0  0  0  0  0  0  # atno 17320 bound_to 7965
  145.0668  140.9127  143.4906 LP  0  0  0  0  0  0  0  0  0  0  0  0  # atno 17321 bound_to 7965
  139.7487  144.7540  151.0540 LP  0  0  0  0  0  0  0  0  0  0  0  0  # atno 17342 bound_to 10162
  140.7790  143.4885  150.9924 LP  0  0  0  0  0  0  0  0  0  0  0  0  # atno 17343 bound_to 10162
  156.0311  130.3764  150.1686 LP  0  0  0  0  0  0  0  0  0  0  0  0  # atno 17370 bound_to 10713
  156.9875  130.9883  151.3423 LP  0  0  0  0  0  0  0  0  0  0  0  0  # atno 17371 bound_to 10713
  140.9630  133.7376  156.0427 LP  0  0  0  0  0  0  0  0  0  0  0  0  # atno 17394 bound_to 11000
  140.7966  134.3557  157.5451 LP  0  0  0  0  0  0  0  0  0  0  0  0  # atno 17395 bound_to 11000

$$$$
