#       Name:                AV-unprocessed.smi:2358
#       Creating user name   scv26
#       Creation time:       Fri Mar 27 13:03:38 2020


#       File generated by GOLD software.
#

@<TRIPOS>MOLECULE
AV-unprocessed.smi:2358
    53    55     1
SMALL
NO_CHARGES


@<TRIPOS>ATOM
      1 ****        -6.2401  -0.5842   0.7948 C.3            1 S1                 0.0000
      2 ****        -5.2477   0.5603   0.8131 C.ar           1 S1                 0.0000
      3 ****        -5.6872   1.8803   1.0373 C.ar           1 S1                 0.0000
      4 ****        -4.7594   2.9397   1.0557 C.ar           1 S1                 0.0000
      5 ****        -5.2389   4.3562   1.2968 C.3            1 S1                 0.0000
      6 ****        -3.3903   2.6741   0.8482 C.ar           1 S1                 0.0000
      7 ****        -2.9340   1.3596   0.6209 C.ar           1 S1                 0.0000
      8 ****        -1.5792   1.1936   0.4262 O.3            1 S1                 0.0000
      9 ****        -1.0927  -0.1137   0.1520 C.3            1 S1                 0.0000
     10 ****         0.4323  -0.0507  -0.0360 C.3            1 S1                 0.0000
     11 ****         0.6758   0.4167  -1.3489 O.3            1 S1                 0.0000
     12 ****         1.0835  -1.4454   0.0986 C.3            1 S1                 0.0000
     13 ****         2.5293  -1.3599   0.3371 N.am           1 S1                 0.0000
     14 ****         3.2970  -1.5429  -0.7986 N.2            1 S1                 0.0000
     15 ****         4.5874  -1.4826  -0.7481 C.2            1 S1                 0.0000
     16 ****         5.3777  -1.6668  -1.9520 N.pl3          1 S1                 0.0000
     17 ****         6.7679  -1.5451  -1.9659 C.2            1 S1                 0.0000
     18 ****         7.1535  -1.7795  -3.2675 C.2            1 S1                 0.0000
     19 ****         6.0360  -2.0402  -4.0585 N.2            1 S1                 0.0000
     20 ****         5.0192  -1.9540  -3.2112 C.2            1 S1                 0.0000
     21 ****         5.2493  -1.2321   0.5277 C.2            1 S1                 0.0000
     22 ****         4.4897  -1.0562   1.6306 C.2            1 S1                 0.0000
     23 ****         3.0299  -1.1094   1.5824 C.2            1 S1                 0.0000
     24 ****         2.3159  -0.9422   2.5708 O.2            1 S1                 0.0000
     25 ****        -3.8773   0.3012   0.6070 C.ar           1 S1                 0.0000
     26 ****        -7.2679  -0.2202   0.8100 H              1 S1                 0.0000
     27 ****        -6.0915  -1.2253   1.6640 H              1 S1                 0.0000
     28 ****        -6.1073  -1.1873  -0.1040 H              1 S1                 0.0000
     29 ****        -6.7366   2.0830   1.1966 H              1 S1                 0.0000
     30 ****        -4.4049   5.0569   1.3488 H              1 S1                 0.0000
     31 ****        -5.7900   4.4140   2.2358 H              1 S1                 0.0000
     32 ****        -5.9003   4.6730   0.4901 H              1 S1                 0.0000
     33 ****        -2.6772   3.4855   0.8612 H              1 S1                 0.0000
     34 ****        -1.3247  -0.7475   1.0093 H              1 S1                 0.0000
     35 ****        -1.5759  -0.5485  -0.7252 H              1 S1                 0.0000
     36 ****         0.8590   0.6417   0.6908 H              1 S1                 0.0000
     37 ****         0.2806  -0.1850  -1.9609 H              1 S1                 0.0000
     38 ****         0.6297  -1.9896   0.9287 H              1 S1                 0.0000
     39 ****         0.8687  -2.0542  -0.7821 H              1 S1                 0.0000
     40 ****         7.3815  -1.3092  -1.1117 H              1 S1                 0.0000
     41 ****         8.1458  -1.7775  -3.6941 H              1 S1                 0.0000
     42 ****         3.9933  -2.1038  -3.5150 H              1 S1                 0.0000
     43 ****         6.3207  -1.1880   0.6268 H              1 S1                 0.0000
     44 ****         4.9738  -0.8726   2.5786 H              1 S1                 0.0000
     45 ****        -3.5722  -0.7209   0.4409 H              1 S1                 0.0000
     46 ****        -1.1198   1.5126   1.2551 LP             1 S1                 0.0000
     47 ****        -1.3176   1.7745  -0.3446 LP             1 S1                 0.0000
     48 ****         1.6612   0.4647  -1.5122 LP             1 S1                 0.0000
     49 ****         0.2744   1.3254  -1.4630 LP             1 S1                 0.0000
     50 ****         2.8467  -1.7248  -1.6728 LP             1 S1                 0.0000
     51 ****         6.0074  -2.2447  -5.0370 LP             1 S1                 0.0000
     52 ****         1.3208  -0.9873   2.4822 LP             1 S1                 0.0000
     53 ****         2.7308  -0.7613   3.4625 LP             1 S1                 0.0000
@<TRIPOS>BOND
    1    1    2 1     
    2    1   26 1     
    3    1   27 1     
    4    1   28 1     
    5    2   25 ar    
    6    2    3 ar    
    7    3    4 ar    
    8    3   29 1     
    9    4    5 1     
   10    4    6 ar    
   11    5   30 1     
   12    5   31 1     
   13    5   32 1     
   14    6    7 ar    
   15    6   33 1     
   16    7    8 1     
   17    7   25 ar    
   18    8    9 1     
   19    9   10 1     
   20    9   34 1     
   21    9   35 1     
   22   10   11 1     
   23   10   12 1     
   24   10   36 1     
   25   11   37 1     
   26   12   13 1     
   27   12   38 1     
   28   12   39 1     
   29   13   23 am    
   30   13   14 1     
   31   14   15 2     
   32   15   16 1     
   33   15   21 1     
   34   16   20 1     
   35   16   17 1     
   36   17   18 2     
   37   17   40 1     
   38   18   19 1     
   39   18   41 1     
   40   19   20 2     
   41   20   42 1     
   42   21   22 2     
   43   21   43 1     
   44   22   23 1     
   45   22   44 1     
   46   23   24 2     
   47   25   45 1     
   48    8   46 1     
   49    8   47 1     
   50   11   48 1     
   51   11   49 1     
   52   14   50 1     
   53   19   51 1     
   54   24   52 1     
   55   24   53 1     
@<TRIPOS>SUBSTRUCTURE
      1 S1             1
@<TRIPOS>SET
LONE_PAIRS      STATIC     ATOMS    <user>   **** ""
8 46 47 48 49 50 51 52 53
DONOR_HYDROGENS      STATIC     ATOMS    <user>   **** ""
1 37
ATOM$BLUE        STATIC     ATOMS    COLORGROUP SYSTEM
8 46 47 48 49 50 51 52 53
ATOM$RED        STATIC     ATOMS    COLORGROUP SYSTEM
1 37
