AV-unprocessed.smi:2241|AV-procd|sdf|9058|dock9
  -GOLD-   2272012263D 1   1.00000     0.00000
 Structure written by MMmdl.
 45 47  0  0  0  0  0  0  0  0  1 V2000
  149.7950  132.0444  154.4412 C   0  0  0  0  0  0  0  0  0  0  0  0
  148.9287  133.2874  154.4359 C   0  0  0  0  0  0  0  0  0  0  0  0
  147.7160  133.3036  153.7196 C   0  0  0  0  0  0  0  0  0  0  0  0
  146.9163  134.4608  153.7197 C   0  0  0  0  0  0  0  0  0  0  0  0
  147.3239  135.6035  154.4349 C   0  0  0  0  0  0  0  0  0  0  0  0
  146.3218  137.0105  154.4175 Cl  0  0  0  0  0  0  0  0  0  0  0  0
  148.5360  135.6030  155.1604 C   0  0  0  0  0  0  0  0  0  0  0  0
  148.8697  136.7576  155.8380 O   0  0  0  0  0  0  0  0  0  0  0  0
  150.2403  137.0074  156.1168 C   0  0  0  0  0  0  0  0  0  0  0  0
  150.9213  137.5086  154.8305 C   0  0  2  0  0  0  0  0  0  0  0  0
  151.3497  136.3841  154.0908 O   0  0  0  0  0  0  0  0  0  0  0  0
  152.1677  138.3884  155.0849 C   0  0  0  0  0  0  0  0  0  0  0  0
  151.8970  139.5320  155.9746 N   0  0  0  0  0  0  0  0  0  0  0  0
  152.6269  139.5863  157.1786 C   0  0  0  0  0  0  0  0  0  0  0  0
  152.4589  140.5420  158.0360 N   0  0  0  0  0  0  0  0  0  0  0  0
  151.5341  141.5590  157.7724 C   0  0  0  0  0  0  0  0  0  0  0  0
  151.3482  142.6352  158.8332 C   0  0  0  0  0  0  0  0  0  0  0  0
  151.6321  144.0812  158.3918 C   0  0  0  0  0  0  0  0  0  0  0  0
  152.2649  144.3085  159.7693 C   0  0  0  0  0  0  0  0  0  0  0  0
  152.5025  142.7957  159.8360 C   0  0  0  0  0  0  0  0  0  0  0  0
  150.8156  141.5556  156.6244 C   0  0  0  0  0  0  0  0  0  0  0  0
  150.9925  140.4955  155.6322 C   0  0  0  0  0  0  0  0  0  0  0  0
  150.3695  140.4717  154.5706 O   0  0  0  0  0  0  0  0  0  0  0  0
  149.3351  134.4307  155.1541 C   0  0  0  0  0  0  0  0  0  0  0  0
  149.5408  131.3826  153.6125 H   0  0  0  0  0  0  0  0  0  0  0  0
  149.6592  131.4953  155.3731 H   0  0  0  0  0  0  0  0  0  0  0  0
  150.8484  132.3102  154.3490 H   0  0  0  0  0  0  0  0  0  0  0  0
  147.3953  132.4315  153.1688 H   0  0  0  0  0  0  0  0  0  0  0  0
  145.9870  134.4710  153.1694 H   0  0  0  0  0  0  0  0  0  0  0  0
  150.2869  137.7783  156.8856 H   0  0  0  0  0  0  0  0  0  0  0  0
  150.7444  136.1193  156.5021 H   0  0  0  0  0  0  0  0  0  0  0  0
  150.2011  138.0588  154.2241 H   0  0  0  0  0  0  0  0  0  0  0  0
  151.2241  136.5666  153.1718 H   0  0  0  0  0  0  0  0  0  0  0  0
  152.9812  137.7665  155.4643 H   0  0  0  0  0  0  0  0  0  0  0  0
  152.5394  138.7748  154.1336 H   0  0  0  0  0  0  0  0  0  0  0  0
  153.3326  138.7695  157.3390 H   0  0  0  0  0  0  0  0  0  0  0  0
  150.3832  142.5456  159.3354 H   0  0  0  0  0  0  0  0  0  0  0  0
  152.3620  144.1579  157.5837 H   0  0  0  0  0  0  0  0  0  0  0  0
  150.7435  144.6805  158.1916 H   0  0  0  0  0  0  0  0  0  0  0  0
  153.1717  144.9144  159.7626 H   0  0  0  0  0  0  0  0  0  0  0  0
  151.5475  144.6584  160.5136 H   0  0  0  0  0  0  0  0  0  0  0  0
  152.3244  142.3475  160.8140 H   0  0  0  0  0  0  0  0  0  0  0  0
  153.4752  142.5093  159.4308 H   0  0  0  0  0  0  0  0  0  0  0  0
  150.0987  142.3403  156.4311 H   0  0  0  0  0  0  0  0  0  0  0  0
  150.2682  134.3846  155.6947 H   0  0  0  0  0  0  0  0  0  0  0  0
  1  2  1  0  0  0  0
  1 25  1  0  0  0  0
  1 26  1  0  0  0  0
  1 27  1  0  0  0  0
  2 24  1  0  0  0  0
  2  3  2  0  0  0  0
  3  4  1  0  0  0  0
  3 28  1  0  0  0  0
  4  5  2  0  0  0  0
  4 29  1  0  0  0  0
  5  6  1  0  0  0  0
  5  7  1  0  0  0  0
  7  8  1  0  0  0  0
  7 24  2  0  0  0  0
  8  9  1  0  0  0  0
  9 10  1  0  0  0  0
  9 30  1  0  0  0  0
  9 31  1  0  0  0  0
 10 11  1  0  0  0  0
 10 12  1  0  0  0  0
 10 32  1  0  0  0  0
 11 33  1  0  0  0  0
 12 13  1  0  0  0  0
 12 34  1  0  0  0  0
 12 35  1  0  0  0  0
 13 22  1  0  0  0  0
 13 14  1  0  0  0  0
 14 15  2  0  0  0  0
 14 36  1  0  0  0  0
 15 16  1  0  0  0  0
 16 17  1  0  0  0  0
 16 21  2  0  0  0  0
 17 20  1  0  0  0  0
 17 18  1  0  0  0  0
 17 37  1  0  0  0  0
 18 19  1  0  0  0  0
 18 38  1  0  0  0  0
 18 39  1  0  0  0  0
 19 20  1  0  0  0  0
 19 40  1  0  0  0  0
 19 41  1  0  0  0  0
 20 42  1  0  0  0  0
 20 43  1  0  0  0  0
 21 22  1  0  0  0  0
 21 44  1  0  0  0  0
 22 23  2  0  0  0  0
 24 45  1  0  0  0  0
M  END
> <s_m_source_file>
AV-unprocessed.smi

> <i_m_source_file_index>
2241

> <i_lp_mmshare_version>
43012

> <i_f3d_flags>
0

> <s_epik_input>
W0NIM11jMVtjSF1bY0hdYyhDbCljKFtjSF0xKU9bQ0gyXVtDQEhdKFtPSF0pW0NIMl1uMltjSF1uYyhbY0hdYzI9TylbQ0hdM1tDSDJdW0NIMl1bQ0gyXTM=

> <s_epik_cmdline>
J2VwaWtfcHl0aG9uJywgJy1waCcsICc3LjAnLCAnLXRuJywgJzgnLCAnLW1hJywgJzIwMCcsICctbWV0YWxfYmluZGluZycsICctaW1hZScsICc8aW5maWxlLm1hZT4nLCAnLW9tYWUnLCAnPG91dGZpbGUubWFlPic=

> <r_lp_tautomer_probability>
1

> <r_epik_Ionization_Penalty>
1.78212e-05

> <r_epik_Ionization_Penalty_Charging>
5.61663e-08

> <r_epik_Ionization_Penalty_Neutral>
1.7765e-05

> <r_epik_State_Penalty>
-0

> <r_epik_Charging_Adjusted_Penalty>
5.61663e-08

> <i_epik_Tot_Q>
0

> <i_epik_Tot_abs_Q>
0

> <r_epik_Metal_State_Penalty>
-0

> <b_epik_Metal_Only>
0

> <s_lp_Force_Field>
OPLS_2005

> <r_lp_Energy>
31.1581

> <b_lp_Chiralities_Consistent>
1

> <s_lp_Variant>
AV-unprocessed.smi:2241-1

> <Gold.Version>
5.8.1

> <Gold.Id.Protein>
6NUR|6NUR_protein|mol2

> <Gold.PLP.Fitness>
50.8472

> <Gold.PLP.PLP>
-43.5440

> <Gold.PLP.part.hbond>
-3.7187

> <Gold.PLP.part.metal>
0.0000

> <Gold.PLP.part.buried>
-0.2943

> <Gold.PLP.part.nonpolar>
-39.2826

> <Gold.PLP.part.repulsive>
0.1612

> <Gold.PLP.ligand.clash>
0.0000

> <Gold.PLP.ligand.torsion>
1.0211

> <Gold.PLP.Chemscore.Hbond>
2.9840

> <Gold.PLP.Chemscore.CHOScore>
0.0000

> <Gold.PLP.Chemscore.Metal>
0.0000

> <Gold.Chemscore.Hbonds>
donor molecule, donor type, donor heavy atom, donor atom, acceptor molecule, acceptor atom, score
      L1  H    11    33       P1  7949  0.98
      P1  H  7989  7998       L1    23  0.99
      P1  H 10752 10765       L1    11  1.00

> <Gold.PLP.Chemscore.Internal.Correction>
0.3934

> <Gold.Rescore>
     Score         DG    S(hbond)    S(metal)    S(lipo)     H(rot)  DE(clash)    DE(int)     intcor
     14.01     -16.42       1.58        0.00     100.49       2.38       0.23       2.17       ----

> <Gold.Chemscore.Fitness>
14.0115

> <Gold.Chemscore.DG>
-16.4169

> <Gold.Chemscore.ZeroCoef>
-5.4800

> <Gold.Chemscore.Hbond>
1.5785

> <Gold.Chemscore.Metal>
0.0000

> <Gold.Chemscore.Lipo>
100.4942

> <Gold.Chemscore.Internal_Hbond>
0.0000

> <Gold.Chemscore.DEClash>
0.2317

> <Gold.Chemscore.DEInternal>
2.1737

> <Gold.Chemscore.Rot>
2.3801

> <Gold.Chemscore.Internal.Correction>
   9.000000E+99

> <Gold.Chemscore.Hbonds>
donor molecule, donor type, donor heavy atom, donor atom, acceptor molecule, acceptor atom, score
      L1  H    11    33       P1  7949  0.52
      P1  H  7989  7998       L1    23  0.24
      P1  H 10752 10765       L1    11  0.25

> <Gold.Chemscore.Hbond.Weighted>
-5.2721

> <Gold.Chemscore.Metal.Weighted>
-0.0000

> <Gold.Chemscore.Lipo.Weighted>
-11.7578

> <Gold.Chemscore.Internal_Hbond.Weighted>
0.0000

> <Gold.Chemscore.DEClash.Weighted>
0.2317

> <Gold.Chemscore.DEInternal.Weighted>
2.1737

> <Gold.Chemscore.Rot.Weighted>
6.0931

> <Gold.Chemscore.Internal.Correction.Weighted>
   9.000000E+99

> <Gold.Protein.RotatedTorsions>
[ 6907 6896 6895 6894 ] final  -40.05 input  -60.11 | X-H torsion
[ 7974 7965 7964 7962 ] final  121.11 input  175.53 | X-H torsion
[ 8008 7997 7996 7995 ] final   90.92 input   59.86 | X-H torsion
[ 10167 10162 10161 10158 ] final  -19.20 input  -65.29 | X-H torsion
[ 10718 10713 10712 10709 ] final  -69.26 input   66.30 | X-H torsion
[ 10763 10752 10751 10750 ] final  146.51 input  -60.55 | X-H torsion
[ 11005 11000 10999 10996 ] final  170.77 input  -57.11 | X-H torsion

> <Gold.Protein.ActiveResidues>
 VAL166  LYS551  ARG553  GLY616  TRP617  ASP618  TYR619  PRO620  LYS621  CYS622 
 ASP623  PHE694  ASN695  SER759  ASP760  ASP761  ALA762  ILE779  LEU786  VAL792 
 PHE793  MET794  SER795  GLU796  ALA797  LYS798  CYS799  TRP800  GLU811  SER814 

> <Gold.Protein.RotatedAtoms>
  150.9830  134.9181  159.7855 H   0  0  0  0  0  0  0  0  0  0  0  0  # atno 6907 bound_to 6896
  152.5228  134.3384  159.9218 H   0  0  0  0  0  0  0  0  0  0  0  0  # atno 6908 bound_to 6896
  151.3391  133.3928  159.2704 H   0  0  0  0  0  0  0  0  0  0  0  0  # atno 6909 bound_to 6896
  145.1232  139.3375  143.4703 H   0  0  0  0  0  0  0  0  0  0  0  0  # atno 7974 bound_to 7965
  156.0176  140.3344  155.7005 H   0  0  0  0  0  0  0  0  0  0  0  0  # atno 8008 bound_to 7997
  155.6068  140.0661  157.2735 H   0  0  0  0  0  0  0  0  0  0  0  0  # atno 8009 bound_to 7997
  154.4304  140.1800  156.1219 H   0  0  0  0  0  0  0  0  0  0  0  0  # atno 8010 bound_to 7997
  140.7266  143.4842  151.0077 H   0  0  0  0  0  0  0  0  0  0  0  0  # atno 10167 bound_to 10162
  156.0464  130.4309  150.2121 H   0  0  0  0  0  0  0  0  0  0  0  0  # atno 10718 bound_to 10713
  154.0231  135.2904  155.3378 H   0  0  0  0  0  0  0  0  0  0  0  0  # atno 10763 bound_to 10752
  154.7034  135.5179  153.8563 H   0  0  0  0  0  0  0  0  0  0  0  0  # atno 10764 bound_to 10752
  153.0672  135.6635  154.0451 H   0  0  0  0  0  0  0  0  0  0  0  0  # atno 10765 bound_to 10752
  140.3119  134.7509  157.3998 H   0  0  0  0  0  0  0  0  0  0  0  0  # atno 11005 bound_to 11000
  146.3519  140.1200  142.8600 LP  0  0  0  0  0  0  0  0  0  0  0  0  # atno 17320 bound_to 7965
  145.0717  140.9160  143.4878 LP  0  0  0  0  0  0  0  0  0  0  0  0  # atno 17321 bound_to 7965
  139.8542  143.7398  152.3176 LP  0  0  0  0  0  0  0  0  0  0  0  0  # atno 17342 bound_to 10162
  139.7591  144.7512  151.0391 LP  0  0  0  0  0  0  0  0  0  0  0  0  # atno 17343 bound_to 10162
  157.0210  130.9979  151.3339 LP  0  0  0  0  0  0  0  0  0  0  0  0  # atno 17370 bound_to 10713
  157.5344  130.8079  149.7954 LP  0  0  0  0  0  0  0  0  0  0  0  0  # atno 17371 bound_to 10713
  140.1017  134.5463  155.8346 LP  0  0  0  0  0  0  0  0  0  0  0  0  # atno 17394 bound_to 11000
  141.2106  133.6697  156.6522 LP  0  0  0  0  0  0  0  0  0  0  0  0  # atno 17395 bound_to 11000

$$$$
