AV-unprocessed.smi:1978|AV-procd|sdf|7994|dock10
  -GOLD-   2272010173D 1   1.00000     0.00000
 Structure written by MMmdl.
 45 46  0  0  0  0  0  0  0  0  2 V2000
  136.6499  139.2749  154.4920 C   0  0  0  0  0  0  0  0  0  0  0  0
  138.1194  139.4677  154.3383 C   0  0  0  0  0  0  0  0  0  0  0  0
  139.0853  138.7637  153.6758 C   0  0  0  0  0  0  0  0  0  0  0  0
  140.2657  139.5029  153.9528 C   0  0  0  0  0  0  0  0  0  0  0  0
  141.5200  139.0922  153.4339 N   0  0  0  0  0  0  0  0  0  0  0  0
  141.9420  137.8354  153.2159 C   0  0  0  0  0  0  0  0  0  0  0  0
  141.2844  136.8170  153.4319 O   0  0  0  0  0  0  0  0  0  0  0  0
  143.1896  137.8158  152.7249 N   0  0  0  0  0  0  0  0  0  0  0  0
  143.9239  136.6046  152.3734 C   0  0  0  0  0  0  0  0  0  0  0  0
  145.4602  136.8131  152.3970 C   0  0  2  0  0  0  0  0  0  0  0  0
  145.9373  137.8178  151.3279 C   0  0  0  0  0  0  0  0  0  0  0  0
  146.2267  135.5271  152.3272 N   0  3  2  0  0  0  0  0  0  0  0  0
  145.7619  134.6049  151.2497 C   0  0  0  0  0  0  0  0  0  0  0  0
  146.7459  133.4448  151.0418 C   0  0  0  0  0  0  0  0  0  0  0  0
  146.9437  132.6667  152.3442 C   0  0  0  0  0  0  0  0  0  0  0  0
  147.3900  133.6249  153.4531 C   0  0  0  0  0  0  0  0  0  0  0  0
  146.4042  134.8005  153.6292 C   0  0  1  0  0  0  0  0  0  0  0  0
  146.8953  135.7005  154.7812 C   0  0  0  0  0  0  0  0  0  0  0  0
  140.0409  140.5635  154.7130 N   0  0  0  0  0  0  0  0  0  0  0  0
  138.6638  140.5466  154.9638 O   0  0  0  0  0  0  0  0  0  0  0  0
  136.3103  138.4060  153.9279 H   0  0  0  0  0  0  0  0  0  0  0  0
  136.1053  140.1468  154.1294 H   0  0  0  0  0  0  0  0  0  0  0  0
  136.3875  139.1224  155.5390 H   0  0  0  0  0  0  0  0  0  0  0  0
  138.9637  137.8639  153.0912 H   0  0  0  0  0  0  0  0  0  0  0  0
  142.1614  139.8355  153.2003 H   0  0  0  0  0  0  0  0  0  0  0  0
  143.6601  138.6968  152.5758 H   0  0  0  0  0  0  0  0  0  0  0  0
  143.6237  135.8044  153.0507 H   0  0  0  0  0  0  0  0  0  0  0  0
  143.5935  136.3055  151.3788 H   0  0  0  0  0  0  0  0  0  0  0  0
  145.7238  137.2951  153.3361 H   0  0  0  0  0  0  0  0  0  0  0  0
  145.5642  138.8203  151.5392 H   0  0  0  0  0  0  0  0  0  0  0  0
  145.5917  137.5565  150.3281 H   0  0  0  0  0  0  0  0  0  0  0  0
  147.0256  137.8808  151.3043 H   0  0  0  0  0  0  0  0  0  0  0  0
  144.7775  134.2076  151.4997 H   0  0  0  0  0  0  0  0  0  0  0  0
  145.6583  135.1289  150.3015 H   0  0  0  0  0  0  0  0  0  0  0  0
  146.3767  132.7776  150.2623 H   0  0  0  0  0  0  0  0  0  0  0  0
  147.7041  133.8313  150.6919 H   0  0  0  0  0  0  0  0  0  0  0  0
  146.0120  132.1762  152.6295 H   0  0  0  0  0  0  0  0  0  0  0  0
  147.6836  131.8780  152.2049 H   0  0  0  0  0  0  0  0  0  0  0  0
  147.4855  133.0709  154.3878 H   0  0  0  0  0  0  0  0  0  0  0  0
  148.3844  134.0096  153.2214 H   0  0  0  0  0  0  0  0  0  0  0  0
  145.4402  134.3825  153.9223 H   0  0  0  0  0  0  0  0  0  0  0  0
  147.1434  135.1061  155.6609 H   0  0  0  0  0  0  0  0  0  0  0  0
  146.1331  136.4104  155.1017 H   0  0  0  0  0  0  0  0  0  0  0  0
  147.7889  136.2586  154.4996 H   0  0  0  0  0  0  0  0  0  0  0  0
  147.1596  135.8053  152.0584 H   0  0  0  0  0  0  0  0  0  0  0  0
  1  2  1  0  0  0  0
  1 21  1  0  0  0  0
  1 22  1  0  0  0  0
  1 23  1  0  0  0  0
  2 20  1  0  0  0  0
  2  3  2  0  0  0  0
  3  4  1  0  0  0  0
  3 24  1  0  0  0  0
  4  5  1  0  0  0  0
  4 19  2  0  0  0  0
  5  6  1  0  0  0  0
  5 25  1  0  0  0  0
  6  7  2  0  0  0  0
  6  8  1  0  0  0  0
  8  9  1  0  0  0  0
  8 26  1  0  0  0  0
  9 10  1  0  0  0  0
  9 27  1  0  0  0  0
  9 28  1  0  0  0  0
 10 11  1  0  0  0  0
 10 12  1  0  0  0  0
 10 29  1  0  0  0  0
 11 30  1  0  0  0  0
 11 31  1  0  0  0  0
 11 32  1  0  0  0  0
 12 17  1  0  0  0  0
 12 13  1  0  0  0  0
 12 45  1  0  0  0  0
 13 14  1  0  0  0  0
 13 33  1  0  0  0  0
 13 34  1  0  0  0  0
 14 15  1  0  0  0  0
 14 35  1  0  0  0  0
 14 36  1  0  0  0  0
 15 16  1  0  0  0  0
 15 37  1  0  0  0  0
 15 38  1  0  0  0  0
 16 17  1  0  0  0  0
 16 39  1  0  0  0  0
 16 40  1  0  0  0  0
 17 18  1  0  0  0  0
 17 41  1  0  0  0  0
 18 42  1  0  0  0  0
 18 43  1  0  0  0  0
 18 44  1  0  0  0  0
 19 20  1  0  0  0  0
M  CHG  1  12   1
M  END
> <s_m_source_file>
AV-unprocessed.smi

> <i_m_source_file_index>
1978

> <i_lp_mmshare_version>
43012

> <i_f3d_flags>
0

> <s_epik_input>
W0NIM11jMVtjSF1jKG5vMSlbTkhdQyg9TylbTkhdW0NIMl1bQ0BIXShbQ0gzXSlOMltDSDJdW0NIMl1bQ0gyXVtDSDJdW0NASF0yW0NIM10=

> <s_epik_cmdline>
J2VwaWtfcHl0aG9uJywgJy1waCcsICc3LjAnLCAnLXRuJywgJzgnLCAnLW1hJywgJzIwMCcsICctbWV0YWxfYmluZGluZycsICctaW1hZScsICc8aW5maWxlLm1hZT4nLCAnLW9tYWUnLCAnPG91dGZpbGUubWFlPic=

> <r_epik_Ionization_Penalty>
0.00265971

> <r_epik_Ionization_Penalty_Charging>
0.00262393

> <r_epik_Ionization_Penalty_Neutral>
3.57846e-05

> <r_epik_State_Penalty>
0.00182566

> <r_epik_Charging_Adjusted_Penalty>
0.00444959

> <i_epik_Tot_Q>
1

> <i_epik_Tot_abs_Q>
1

> <r_epik_Metal_State_Penalty>
0.0216344

> <b_epik_Metal_Only>
0

> <s_lp_Force_Field>
OPLS_2005

> <r_lp_Energy>
19.2971

> <b_lp_Chiralities_Consistent>
1

> <s_lp_Variant>
AV-unprocessed.smi:1978-3

> <Gold.Version>
5.8.1

> <Gold.Id.Protein>
6NUR|6NUR_protein|mol2

> <Gold.PLP.Fitness>
38.5828

> <Gold.PLP.PLP>
-28.2226

> <Gold.PLP.part.hbond>
-5.0000

> <Gold.PLP.part.metal>
0.0000

> <Gold.PLP.part.buried>
1.0187

> <Gold.PLP.part.nonpolar>
-24.4306

> <Gold.PLP.part.repulsive>
0.4501

> <Gold.PLP.ligand.clash>
0.0000

> <Gold.PLP.ligand.torsion>
0.8767

> <Gold.PLP.Chemscore.Hbond>
4.0000

> <Gold.PLP.Chemscore.CHOScore>
0.0000

> <Gold.PLP.Chemscore.Metal>
0.0000

> <Gold.Chemscore.Hbonds>
donor molecule, donor type, donor heavy atom, donor atom, acceptor molecule, acceptor atom, score
      L1  H     5    25       P1 10175  1.00
      L1  H     8    26       P1 10175  1.00
      L1  H    12    45       P1  7948  2.00

> <Gold.PLP.Chemscore.Internal.Correction>
0.1138

> <Gold.Rescore>
     Score         DG    S(hbond)    S(metal)    S(lipo)     H(rot)  DE(clash)    DE(int)     intcor
     16.10     -17.19       2.70        0.00      56.98       1.55       0.08       1.00       ----

> <Gold.Chemscore.Fitness>
16.1017

> <Gold.Chemscore.DG>
-17.1898

> <Gold.Chemscore.ZeroCoef>
-5.4800

> <Gold.Chemscore.Hbond>
2.6961

> <Gold.Chemscore.Metal>
0.0000

> <Gold.Chemscore.Lipo>
56.9759

> <Gold.Chemscore.Internal_Hbond>
0.0000

> <Gold.Chemscore.DEClash>
0.0833

> <Gold.Chemscore.DEInternal>
1.0048

> <Gold.Chemscore.Rot>
1.5474

> <Gold.Chemscore.Internal.Correction>
   9.000000E+99

> <Gold.Chemscore.Hbonds>
donor molecule, donor type, donor heavy atom, donor atom, acceptor molecule, acceptor atom, score
      L1  H     5    25       P1 10175  0.73
      L1  H     8    26       P1 10175  0.95
      L1  H    12    45       P1  7948  1.00

> <Gold.Chemscore.Hbond.Weighted>
-9.0049

> <Gold.Chemscore.Metal.Weighted>
-0.0000

> <Gold.Chemscore.Lipo.Weighted>
-6.6662

> <Gold.Chemscore.Internal_Hbond.Weighted>
0.0000

> <Gold.Chemscore.DEClash.Weighted>
0.0833

> <Gold.Chemscore.DEInternal.Weighted>
1.0048

> <Gold.Chemscore.Rot.Weighted>
3.9612

> <Gold.Chemscore.Internal.Correction.Weighted>
   9.000000E+99

> <Gold.Protein.RotatedTorsions>
[ 6907 6896 6895 6894 ] final   87.05 input  -60.11 | X-H torsion
[ 7974 7965 7964 7962 ] final  123.76 input  175.53 | X-H torsion
[ 8008 7997 7996 7995 ] final  -64.68 input   59.86 | X-H torsion
[ 10167 10162 10161 10158 ] final   64.66 input  -65.29 | X-H torsion
[ 10718 10713 10712 10709 ] final    9.76 input   66.30 | X-H torsion
[ 10763 10752 10751 10750 ] final -129.02 input  -60.55 | X-H torsion
[ 11005 11000 10999 10996 ] final  120.83 input  -57.11 | X-H torsion

> <Gold.Protein.ActiveResidues>
 VAL166  LYS551  ARG553  GLY616  TRP617  ASP618  TYR619  PRO620  LYS621  CYS622 
 ASP623  PHE694  ASN695  SER759  ASP760  ASP761  ALA762  ILE779  LEU786  VAL792 
 PHE793  MET794  SER795  GLU796  ALA797  LYS798  CYS799  TRP800  GLU811  SER814 

> <Gold.Protein.RotatedAtoms>
  152.5405  134.2336  159.8834 H   0  0  0  0  0  0  0  0  0  0  0  0  # atno 6907 bound_to 6896
  151.2307  133.4445  159.2611 H   0  0  0  0  0  0  0  0  0  0  0  0  # atno 6908 bound_to 6896
  151.0718  134.9816  159.8368 H   0  0  0  0  0  0  0  0  0  0  0  0  # atno 6909 bound_to 6896
  145.0922  139.3578  143.4854 H   0  0  0  0  0  0  0  0  0  0  0  0  # atno 7974 bound_to 7965
  154.4626  140.0949  156.6933 H   0  0  0  0  0  0  0  0  0  0  0  0  # atno 8008 bound_to 7997
  155.4951  140.3472  155.4343 H   0  0  0  0  0  0  0  0  0  0  0  0  # atno 8009 bound_to 7997
  156.0898  140.1394  156.9596 H   0  0  0  0  0  0  0  0  0  0  0  0  # atno 8010 bound_to 7997
  140.1198  144.4742  150.6927 H   0  0  0  0  0  0  0  0  0  0  0  0  # atno 10167 bound_to 10162
  156.9710  130.5969  149.5669 H   0  0  0  0  0  0  0  0  0  0  0  0  # atno 10718 bound_to 10713
  154.8757  135.3909  154.3851 H   0  0  0  0  0  0  0  0  0  0  0  0  # atno 10763 bound_to 10752
  153.4594  135.7029  153.6065 H   0  0  0  0  0  0  0  0  0  0  0  0  # atno 10764 bound_to 10752
  153.4570  135.3821  155.2285 H   0  0  0  0  0  0  0  0  0  0  0  0  # atno 10765 bound_to 10752
  139.9201  134.9636  156.7866 H   0  0  0  0  0  0  0  0  0  0  0  0  # atno 11005 bound_to 11000
  146.3531  140.0762  142.8620 LP  0  0  0  0  0  0  0  0  0  0  0  0  # atno 17320 bound_to 7965
  145.1052  140.9371  143.4689 LP  0  0  0  0  0  0  0  0  0  0  0  0  # atno 17321 bound_to 7965
  140.6878  143.2359  151.5212 LP  0  0  0  0  0  0  0  0  0  0  0  0  # atno 17342 bound_to 10162
  139.5575  144.2240  152.1636 LP  0  0  0  0  0  0  0  0  0  0  0  0  # atno 17343 bound_to 10162
  156.0282  130.5375  150.8465 LP  0  0  0  0  0  0  0  0  0  0  0  0  # atno 17370 bound_to 10713
  157.5592  131.0945  150.9584 LP  0  0  0  0  0  0  0  0  0  0  0  0  # atno 17371 bound_to 10713
  140.6501  133.9739  155.7751 LP  0  0  0  0  0  0  0  0  0  0  0  0  # atno 17394 bound_to 11000
  141.0713  134.0200  157.3521 LP  0  0  0  0  0  0  0  0  0  0  0  0  # atno 17395 bound_to 11000

$$$$
