AV-unprocessed.smi:1586|AV-procd|sdf|6386|dock5
  -GOLD-   22720 7 23D 1   1.00000     0.00000
 Structure written by MMmdl.
 45 46  0  0  0  0  0  0  0  0  2 V2000
  151.3387  145.0412  160.1677 C   0  0  0  0  0  0  0  0  0  0  0  0
  152.6512  144.5396  159.5488 C   0  0  0  0  0  0  0  0  0  0  0  0
  152.5116  143.3922  158.6544 N   0  0  0  0  0  0  0  0  0  0  0  0
  151.2974  143.4587  157.8420 C   0  0  0  0  0  0  0  0  0  0  0  0
  151.1642  142.2368  156.9130 C   0  0  0  0  0  0  0  0  0  0  0  0
  151.1369  140.9658  157.6534 N   0  0  0  0  0  0  0  0  0  0  0  0
  151.0129  139.7857  156.7657 C   0  0  1  0  0  0  0  0  0  0  0  0
  152.0862  139.7662  155.6470 C   0  0  0  0  0  0  0  0  0  0  0  0
  151.0625  138.4337  157.5294 C   0  0  0  0  0  0  0  0  0  0  0  0
  149.7322  137.9365  157.8669 N   0  0  0  0  0  0  0  0  0  0  0  0
  149.4218  137.2308  158.9626 C   0  0  0  0  0  0  0  0  0  0  0  0
  150.2977  136.9620  159.7882 O   0  0  0  0  0  0  0  0  0  0  0  0
  148.1169  136.8787  159.0329 N   0  5  0  0  0  0  0  0  0  0  0  0
  147.5864  136.4817  160.1998 C   0  0  0  0  0  0  0  0  0  0  0  0
  146.9577  135.2307  160.4472 C   0  0  0  0  0  0  0  0  0  0  0  0
  146.5852  135.3218  161.7580 C   0  0  0  0  0  0  0  0  0  0  0  0
  145.8874  134.3799  162.6787 C   0  0  0  0  0  0  0  0  0  0  0  0
  146.9446  136.5307  162.2678 O   0  0  0  0  0  0  0  0  0  0  0  0
  147.5790  137.2697  161.2620 N   0  0  0  0  0  0  0  0  0  0  0  0
  152.3500  140.9210  158.4839 C   0  0  0  0  0  0  0  0  0  0  0  0
  152.4714  142.1442  159.4104 C   0  0  0  0  0  0  0  0  0  0  0  0
  151.5086  145.9569  160.7344 H   0  0  0  0  0  0  0  0  0  0  0  0
  150.9068  144.3124  160.8533 H   0  0  0  0  0  0  0  0  0  0  0  0
  150.5994  145.2619  159.3976 H   0  0  0  0  0  0  0  0  0  0  0  0
  153.0855  145.3691  158.9895 H   0  0  0  0  0  0  0  0  0  0  0  0
  153.3629  144.3080  160.3426 H   0  0  0  0  0  0  0  0  0  0  0  0
  150.4183  143.5262  158.4851 H   0  0  0  0  0  0  0  0  0  0  0  0
  151.3048  144.3587  157.2282 H   0  0  0  0  0  0  0  0  0  0  0  0
  150.2437  142.3738  156.3497 H   0  0  0  0  0  0  0  0  0  0  0  0
  151.9813  142.2319  156.1901 H   0  0  0  0  0  0  0  0  0  0  0  0
  150.0404  139.8365  156.2734 H   0  0  0  0  0  0  0  0  0  0  0  0
  152.0349  138.8677  155.0331 H   0  0  0  0  0  0  0  0  0  0  0  0
  153.0916  139.8166  156.0657 H   0  0  0  0  0  0  0  0  0  0  0  0
  151.9694  140.5926  154.9477 H   0  0  0  0  0  0  0  0  0  0  0  0
  151.5967  137.6917  156.9334 H   0  0  0  0  0  0  0  0  0  0  0  0
  151.5900  138.5252  158.4774 H   0  0  0  0  0  0  0  0  0  0  0  0
  148.9882  138.1377  157.2153 H   0  0  0  0  0  0  0  0  0  0  0  0
  146.8093  134.4007  159.7729 H   0  0  0  0  0  0  0  0  0  0  0  0
  146.4452  133.4479  162.7708 H   0  0  0  0  0  0  0  0  0  0  0  0
  144.8916  134.1426  162.3042 H   0  0  0  0  0  0  0  0  0  0  0  0
  145.7803  134.8093  163.6751 H   0  0  0  0  0  0  0  0  0  0  0  0
  152.3442  140.0406  159.1236 H   0  0  0  0  0  0  0  0  0  0  0  0
  153.2356  140.8474  157.8508 H   0  0  0  0  0  0  0  0  0  0  0  0
  153.3769  142.0478  160.0104 H   0  0  0  0  0  0  0  0  0  0  0  0
  151.6344  142.1567  160.1105 H   0  0  0  0  0  0  0  0  0  0  0  0
  1  2  1  0  0  0  0
  1 22  1  0  0  0  0
  1 23  1  0  0  0  0
  1 24  1  0  0  0  0
  2  3  1  0  0  0  0
  2 25  1  0  0  0  0
  2 26  1  0  0  0  0
  3 21  1  0  0  0  0
  3  4  1  0  0  0  0
  4  5  1  0  0  0  0
  4 27  1  0  0  0  0
  4 28  1  0  0  0  0
  5  6  1  0  0  0  0
  5 29  1  0  0  0  0
  5 30  1  0  0  0  0
  6  7  1  0  0  0  0
  6 20  1  0  0  0  0
  7  8  1  0  0  0  0
  7  9  1  0  0  0  0
  7 31  1  0  0  0  0
  8 32  1  0  0  0  0
  8 33  1  0  0  0  0
  8 34  1  0  0  0  0
  9 10  1  0  0  0  0
  9 35  1  0  0  0  0
  9 36  1  0  0  0  0
 10 11  1  0  0  0  0
 10 37  1  0  0  0  0
 11 12  2  0  0  0  0
 11 13  1  0  0  0  0
 13 14  1  0  0  0  0
 14 19  2  0  0  0  0
 14 15  1  0  0  0  0
 15 16  2  0  0  0  0
 15 38  1  0  0  0  0
 16 17  1  0  0  0  0
 16 18  1  0  0  0  0
 17 39  1  0  0  0  0
 17 40  1  0  0  0  0
 17 41  1  0  0  0  0
 18 19  1  0  0  0  0
 20 21  1  0  0  0  0
 20 42  1  0  0  0  0
 20 43  1  0  0  0  0
 21 44  1  0  0  0  0
 21 45  1  0  0  0  0
M  CHG  1  13  -1
M  END
> <s_m_source_file>
AV-unprocessed.smi

> <i_m_source_file_index>
1586

> <i_lp_mmshare_version>
43012

> <i_f3d_flags>
0

> <s_epik_input>
W0NIM11bQ0gyXU4xW0NIMl1bQ0gyXU4oW0NIMl1bQ0gyXTEpW0NASF0oW0NIM10pW0NIMl1bTkhdQyg9TylbTkhdYzJbY0hdYyhbQ0gzXSlvbjI=

> <s_epik_cmdline>
J2VwaWtfcHl0aG9uJywgJy1waCcsICc3LjAnLCAnLXRuJywgJzgnLCAnLW1hJywgJzIwMCcsICctbWV0YWxfYmluZGluZycsICctaW1hZScsICc8aW5maWxlLm1hZT4nLCAnLW9tYWUnLCAnPG91dGZpbGUubWFlPic=

> <r_epik_Ionization_Penalty>
9.09031

> <r_epik_Ionization_Penalty_Charging>
6.65437

> <r_epik_Ionization_Penalty_Neutral>
2.43594

> <r_epik_State_Penalty>
8.41762

> <r_epik_Charging_Adjusted_Penalty>
15.072

> <i_epik_Tot_Q>
-1

> <i_epik_Tot_abs_Q>
1

> <r_epik_Metal_State_Penalty>
4.3436

> <b_epik_Metal_Only>
1

> <s_lp_Force_Field>
OPLS_2005

> <r_lp_Energy>
36.2307

> <b_lp_Chiralities_Consistent>
1

> <s_lp_Variant>
AV-unprocessed.smi:1586-14

> <Gold.Version>
5.8.1

> <Gold.Id.Protein>
6NUR|6NUR_protein|mol2

> <Gold.PLP.Fitness>
44.0154

> <Gold.PLP.PLP>
-38.7113

> <Gold.PLP.part.hbond>
-3.2989

> <Gold.PLP.part.metal>
0.0000

> <Gold.PLP.part.buried>
-5.4298

> <Gold.PLP.part.nonpolar>
-30.4566

> <Gold.PLP.part.repulsive>
0.1071

> <Gold.PLP.ligand.clash>
0.0000

> <Gold.PLP.ligand.torsion>
1.5761

> <Gold.PLP.Chemscore.Hbond>
2.7833

> <Gold.PLP.Chemscore.CHOScore>
0.0000

> <Gold.PLP.Chemscore.Metal>
0.0000

> <Gold.Chemscore.Hbonds>
donor molecule, donor type, donor heavy atom, donor atom, acceptor molecule, acceptor atom, score
      P1  H  6896  6908       L1    12  0.93
      P1  H  6931  6943       L1    19  0.90
      P1  H  6934  6947       L1    19  0.88

> <Gold.PLP.Chemscore.Internal.Correction>
0.1065

> <Gold.Rescore>
     Score         DG    S(hbond)    S(metal)    S(lipo)     H(rot)  DE(clash)    DE(int)     intcor
     19.35     -21.07       2.64        0.00      94.63       1.68       0.01       1.71       ----

> <Gold.Chemscore.Fitness>
19.3511

> <Gold.Chemscore.DG>
-21.0697

> <Gold.Chemscore.ZeroCoef>
-5.4800

> <Gold.Chemscore.Hbond>
2.6395

> <Gold.Chemscore.Metal>
0.0000

> <Gold.Chemscore.Lipo>
94.6298

> <Gold.Chemscore.Internal_Hbond>
0.0000

> <Gold.Chemscore.DEClash>
0.0086

> <Gold.Chemscore.DEInternal>
1.7100

> <Gold.Chemscore.Rot>
1.6788

> <Gold.Chemscore.Internal.Correction>
   9.000000E+99

> <Gold.Chemscore.Hbonds>
donor molecule, donor type, donor heavy atom, donor atom, acceptor molecule, acceptor atom, score
      P1  H  6896  6908       L1    12  0.85
      P1  H  6931  6943       L1    19  0.75
      P1  H  6934  6947       L1    19  0.80

> <Gold.Chemscore.Hbond.Weighted>
-8.8158

> <Gold.Chemscore.Metal.Weighted>
-0.0000

> <Gold.Chemscore.Lipo.Weighted>
-11.0717

> <Gold.Chemscore.Internal_Hbond.Weighted>
0.0000

> <Gold.Chemscore.DEClash.Weighted>
0.0086

> <Gold.Chemscore.DEInternal.Weighted>
1.7100

> <Gold.Chemscore.Rot.Weighted>
4.2978

> <Gold.Chemscore.Internal.Correction.Weighted>
   9.000000E+99

> <Gold.Protein.RotatedTorsions>
[ 6907 6896 6895 6894 ] final -153.08 input  -60.11 | X-H torsion
[ 7974 7965 7964 7962 ] final -150.00 input  175.53 | X-H torsion
[ 8008 7997 7996 7995 ] final -117.07 input   59.86 | X-H torsion
[ 10167 10162 10161 10158 ] final   54.20 input  -65.29 | X-H torsion
[ 10718 10713 10712 10709 ] final   15.05 input   66.30 | X-H torsion
[ 10763 10752 10751 10750 ] final  164.50 input  -60.55 | X-H torsion
[ 11005 11000 10999 10996 ] final   44.08 input  -57.11 | X-H torsion

> <Gold.Protein.ActiveResidues>
 VAL166  LYS551  ARG553  GLY616  TRP617  ASP618  TYR619  PRO620  LYS621  CYS622 
 ASP623  PHE694  ASN695  SER759  ASP760  ASP761  ALA762  ILE779  LEU786  VAL792 
 PHE793  MET794  SER795  GLU796  ALA797  LYS798  CYS799  TRP800  GLU811  SER814 

> <Gold.Protein.RotatedAtoms>
  151.2372  133.4418  159.2605 H   0  0  0  0  0  0  0  0  0  0  0  0  # atno 6907 bound_to 6896
  151.0739  134.9816  159.8332 H   0  0  0  0  0  0  0  0  0  0  0  0  # atno 6908 bound_to 6896
  152.5416  134.2316  159.8880 H   0  0  0  0  0  0  0  0  0  0  0  0  # atno 6909 bound_to 6896
  144.7934  140.4991  143.5757 H   0  0  0  0  0  0  0  0  0  0  0  0  # atno 7974 bound_to 7965
  155.0779  140.0394  157.2630 H   0  0  0  0  0  0  0  0  0  0  0  0  # atno 8008 bound_to 7997
  154.6930  140.2657  155.6769 H   0  0  0  0  0  0  0  0  0  0  0  0  # atno 8009 bound_to 7997
  156.2735  140.2756  156.1514 H   0  0  0  0  0  0  0  0  0  0  0  0  # atno 8010 bound_to 7997
  140.2326  144.3670  150.6409 H   0  0  0  0  0  0  0  0  0  0  0  0  # atno 10167 bound_to 10162
  157.0479  130.6258  149.5762 H   0  0  0  0  0  0  0  0  0  0  0  0  # atno 10718 bound_to 10713
  154.3099  135.2757  155.2571 H   0  0  0  0  0  0  0  0  0  0  0  0  # atno 10763 bound_to 10752
  154.4971  135.5818  153.6506 H   0  0  0  0  0  0  0  0  0  0  0  0  # atno 10764 bound_to 10752
  152.9889  135.6148  154.3276 H   0  0  0  0  0  0  0  0  0  0  0  0  # atno 10765 bound_to 10752
  140.1585  134.4371  155.8333 H   0  0  0  0  0  0  0  0  0  0  0  0  # atno 11005 bound_to 11000
  145.5736  139.1485  143.3274 LP  0  0  0  0  0  0  0  0  0  0  0  0  # atno 17320 bound_to 7965
  146.2194  140.5868  142.9024 LP  0  0  0  0  0  0  0  0  0  0  0  0  # atno 17321 bound_to 7965
  140.6173  143.2173  151.6765 LP  0  0  0  0  0  0  0  0  0  0  0  0  # atno 17342 bound_to 10162
  139.5104  144.3542  152.0623 LP  0  0  0  0  0  0  0  0  0  0  0  0  # atno 17343 bound_to 10162
  156.0017  130.5097  150.7686 LP  0  0  0  0  0  0  0  0  0  0  0  0  # atno 17370 bound_to 10713
  157.5053  131.0921  151.0264 LP  0  0  0  0  0  0  0  0  0  0  0  0  # atno 17371 bound_to 10713
  141.2207  133.6903  156.7551 LP  0  0  0  0  0  0  0  0  0  0  0  0  # atno 17394 bound_to 11000
  140.2518  134.8534  157.3675 LP  0  0  0  0  0  0  0  0  0  0  0  0  # atno 17395 bound_to 11000

$$$$
