AV-unprocessed.smi:2303|AV-procd|sdf|9242|dock8
  -GOLD-   2272012463D 1   1.00000     0.00000
 Structure written by MMmdl.
 33 34  0  0  0  0  0  0  0  0  1 V2000
  152.0160  142.7093  158.7575 C   0  0  0  0  0  0  0  0  0  0  0  0
  150.8493  142.9302  157.7781 C   0  0  0  0  0  0  0  0  0  0  0  0
  149.5182  143.0533  158.5409 C   0  0  0  0  0  0  0  0  0  0  0  0
  150.7703  141.8808  156.6685 C   0  0  0  0  0  0  0  0  0  0  0  0
  151.5427  140.7820  156.5471 C   0  0  0  0  0  0  0  0  0  0  0  0
  151.3328  139.8875  155.4218 C   0  0  0  0  0  0  0  0  0  0  0  0
  152.1366  138.6663  155.3505 C   0  0  0  0  0  0  0  0  0  0  0  0
  153.3671  138.6767  155.3115 O   0  0  0  0  0  0  0  0  0  0  0  0
  151.4547  137.4986  155.3252 N   0  0  0  0  0  0  0  0  0  0  0  0
  150.0138  137.3100  155.4301 C   0  0  0  0  0  0  0  0  0  0  0  0
  149.8633  135.8441  155.7942 C   0  0  0  0  0  0  0  0  0  0  0  0
  151.1866  135.5402  156.4783 C   0  0  0  0  0  0  0  0  0  0  0  0
  152.1101  136.3205  155.7392 O   0  0  0  0  0  0  0  0  0  0  0  0
  150.3488  140.1512  154.5265 C   0  0  0  0  0  0  0  0  0  0  0  0
  149.5160  141.3507  154.6392 C   0  0  0  0  0  0  0  0  0  0  0  0
  148.6308  141.6442  153.8392 O   0  0  0  0  0  0  0  0  0  0  0  0
  149.7825  142.1387  155.7062 N   0  0  0  0  0  0  0  0  0  0  0  0
  152.9734  142.6848  158.2362 H   0  0  0  0  0  0  0  0  0  0  0  0
  151.9051  141.7745  159.3083 H   0  0  0  0  0  0  0  0  0  0  0  0
  152.0681  143.5163  159.4889 H   0  0  0  0  0  0  0  0  0  0  0  0
  151.0299  143.8845  157.2810 H   0  0  0  0  0  0  0  0  0  0  0  0
  148.6954  143.3302  157.8814 H   0  0  0  0  0  0  0  0  0  0  0  0
  149.5800  143.8185  159.3151 H   0  0  0  0  0  0  0  0  0  0  0  0
  149.2542  142.1129  159.0258 H   0  0  0  0  0  0  0  0  0  0  0  0
  152.3117  140.5600  157.2724 H   0  0  0  0  0  0  0  0  0  0  0  0
  149.6120  137.9469  156.2200 H   0  0  0  0  0  0  0  0  0  0  0  0
  149.5073  137.5552  154.4961 H   0  0  0  0  0  0  0  0  0  0  0  0
  148.9982  135.6450  156.4272 H   0  0  0  0  0  0  0  0  0  0  0  0
  149.7695  135.2440  154.8880 H   0  0  0  0  0  0  0  0  0  0  0  0
  151.1742  135.8805  157.5149 H   0  0  0  0  0  0  0  0  0  0  0  0
  151.4442  134.4811  156.4621 H   0  0  0  0  0  0  0  0  0  0  0  0
  150.1490  139.4694  153.7120 H   0  0  0  0  0  0  0  0  0  0  0  0
  149.2337  142.9768  155.8330 H   0  0  0  0  0  0  0  0  0  0  0  0
  1  2  1  0  0  0  0
  1 18  1  0  0  0  0
  1 19  1  0  0  0  0
  1 20  1  0  0  0  0
  2  3  1  0  0  0  0
  2 21  1  0  0  0  0
  2  4  1  0  0  0  0
  3 22  1  0  0  0  0
  3 23  1  0  0  0  0
  3 24  1  0  0  0  0
  4 17  1  0  0  0  0
  4  5  2  0  0  0  0
  5 25  1  0  0  0  0
  5  6  1  0  0  0  0
  6  7  1  0  0  0  0
  6 14  2  0  0  0  0
  7  8  2  0  0  0  0
  7  9  1  0  0  0  0
  9 13  1  0  0  0  0
  9 10  1  0  0  0  0
 10 11  1  0  0  0  0
 10 26  1  0  0  0  0
 10 27  1  0  0  0  0
 11 12  1  0  0  0  0
 11 28  1  0  0  0  0
 11 29  1  0  0  0  0
 12 13  1  0  0  0  0
 12 30  1  0  0  0  0
 12 31  1  0  0  0  0
 14 15  1  0  0  0  0
 14 32  1  0  0  0  0
 15 16  2  0  0  0  0
 15 17  1  0  0  0  0
 17 33  1  0  0  0  0
M  END
> <s_m_source_file>
AV-unprocessed.smi

> <i_m_source_file_index>
2303

> <i_lp_mmshare_version>
43012

> <i_f3d_flags>
0

> <s_epik_input>
W0NIM11bQ0hdKFtDSDNdKWMxW2NIXWMoW2NIXWMobjEpW09IXSlDKD1PKU4yW0NIMl1bQ0gyXVtDSDJdTzI=

> <s_epik_cmdline>
J2VwaWtfcHl0aG9uJywgJy1waCcsICc3LjAnLCAnLXRuJywgJzgnLCAnLW1hJywgJzIwMCcsICctbWV0YWxfYmluZGluZycsICctaW1hZScsICc8aW5maWxlLm1hZT4nLCAnLW9tYWUnLCAnPG91dGZpbGUubWFlPic=

> <r_lp_tautomer_probability>
1

> <r_epik_Ionization_Penalty>
8.70942e-05

> <r_epik_Ionization_Penalty_Charging>
8.7046e-05

> <r_epik_Ionization_Penalty_Neutral>
4.82304e-08

> <r_epik_State_Penalty>
-0

> <r_epik_Charging_Adjusted_Penalty>
8.7046e-05

> <i_epik_Tot_Q>
0

> <i_epik_Tot_abs_Q>
0

> <r_epik_Metal_State_Penalty>
0.0811253

> <b_epik_Metal_Only>
0

> <s_epik_Chemistry_Notes>
This compound has a N-S or N-O group and may undergo hydrolysis at high or low pH.

> <s_lp_Force_Field>
OPLS_2005

> <r_lp_Energy>
27.1372

> <b_lp_Chiralities_Consistent>
1

> <s_lp_Variant>
AV-unprocessed.smi:2303-1

> <Gold.Version>
5.8.1

> <Gold.Id.Protein>
6NUR|6NUR_protein|mol2

> <Gold.PLP.Fitness>
37.2125

> <Gold.PLP.PLP>
-30.6203

> <Gold.PLP.part.hbond>
-3.7985

> <Gold.PLP.part.metal>
0.0000

> <Gold.PLP.part.buried>
-0.2089

> <Gold.PLP.part.nonpolar>
-26.2798

> <Gold.PLP.part.repulsive>
0.3671

> <Gold.PLP.ligand.clash>
0.0000

> <Gold.PLP.ligand.torsion>
1.1878

> <Gold.PLP.Chemscore.Hbond>
2.5844

> <Gold.PLP.Chemscore.CHOScore>
0.0000

> <Gold.PLP.Chemscore.Metal>
0.0000

> <Gold.Chemscore.Hbonds>
donor molecule, donor type, donor heavy atom, donor atom, acceptor molecule, acceptor atom, score
      L1  H    17    33       P1  8028  1.00
      P1  H  7997  8008       L1     8  0.98
      P1  H  8011  8017       L1    16  0.60

> <Gold.PLP.Chemscore.Internal.Correction>
1.2147

> <Gold.Rescore>
     Score         DG    S(hbond)    S(metal)    S(lipo)     H(rot)  DE(clash)    DE(int)     intcor
     12.51     -17.78       2.30        0.00      61.35       1.00       2.98       2.29       ----

> <Gold.Chemscore.Fitness>
12.5080

> <Gold.Chemscore.DG>
-17.7769

> <Gold.Chemscore.ZeroCoef>
-5.4800

> <Gold.Chemscore.Hbond>
2.2992

> <Gold.Chemscore.Metal>
0.0000

> <Gold.Chemscore.Lipo>
61.3483

> <Gold.Chemscore.Internal_Hbond>
0.0000

> <Gold.Chemscore.DEClash>
2.9816

> <Gold.Chemscore.DEInternal>
2.2873

> <Gold.Chemscore.Rot>
1.0000

> <Gold.Chemscore.Internal.Correction>
   9.000000E+99

> <Gold.Chemscore.Hbonds>
donor molecule, donor type, donor heavy atom, donor atom, acceptor molecule, acceptor atom, score
      L1  H    17    33       P1  8028  0.98
      P1  H  7997  8008       L1     8  0.90
      P1  H  8011  8017       L1    16  0.14

> <Gold.Chemscore.Hbond.Weighted>
-7.6792

> <Gold.Chemscore.Metal.Weighted>
-0.0000

> <Gold.Chemscore.Lipo.Weighted>
-7.1778

> <Gold.Chemscore.Internal_Hbond.Weighted>
0.0000

> <Gold.Chemscore.DEClash.Weighted>
2.9816

> <Gold.Chemscore.DEInternal.Weighted>
2.2873

> <Gold.Chemscore.Rot.Weighted>
2.5600

> <Gold.Chemscore.Internal.Correction.Weighted>
   9.000000E+99

> <Gold.Protein.RotatedTorsions>
[ 6907 6896 6895 6894 ] final  123.43 input  -60.11 | X-H torsion
[ 7974 7965 7964 7962 ] final    0.92 input  175.53 | X-H torsion
[ 8008 7997 7996 7995 ] final  -25.67 input   59.86 | X-H torsion
[ 10167 10162 10161 10158 ] final -102.41 input  -65.29 | X-H torsion
[ 10718 10713 10712 10709 ] final   -6.66 input   66.30 | X-H torsion
[ 10763 10752 10751 10750 ] final  -28.51 input  -60.55 | X-H torsion
[ 11005 11000 10999 10996 ] final   32.64 input  -57.11 | X-H torsion

> <Gold.Protein.ActiveResidues>
 VAL166  LYS551  ARG553  GLY616  TRP617  ASP618  TYR619  PRO620  LYS621  CYS622 
 ASP623  PHE694  ASN695  SER759  ASP760  ASP761  ALA762  ILE779  LEU786  VAL792 
 PHE793  MET794  SER795  GLU796  ALA797  LYS798  CYS799  TRP800  GLU811  SER814 

> <Gold.Protein.RotatedAtoms>
  152.4163  133.7043  159.6441 H   0  0  0  0  0  0  0  0  0  0  0  0  # atno 6907 bound_to 6896
  150.8040  133.8535  159.3220 H   0  0  0  0  0  0  0  0  0  0  0  0  # atno 6908 bound_to 6896
  151.6264  135.1029  160.0164 H   0  0  0  0  0  0  0  0  0  0  0  0  # atno 6909 bound_to 6896
  146.2437  140.1064  142.8345 H   0  0  0  0  0  0  0  0  0  0  0  0  # atno 7974 bound_to 7965
  154.4464  140.1920  156.0655 H   0  0  0  0  0  0  0  0  0  0  0  0  # atno 8008 bound_to 7997
  156.0551  140.3304  155.7369 H   0  0  0  0  0  0  0  0  0  0  0  0  # atno 8009 bound_to 7997
  155.5498  140.0594  157.2843 H   0  0  0  0  0  0  0  0  0  0  0  0  # atno 8010 bound_to 7997
  140.2309  143.3607  152.0887 H   0  0  0  0  0  0  0  0  0  0  0  0  # atno 10167 bound_to 10162
  156.7286  130.5173  149.5851 H   0  0  0  0  0  0  0  0  0  0  0  0  # atno 10718 bound_to 10713
  153.7494  135.6927  153.4949 H   0  0  0  0  0  0  0  0  0  0  0  0  # atno 10763 bound_to 10752
  153.2013  135.4435  155.0269 H   0  0  0  0  0  0  0  0  0  0  0  0  # atno 10764 bound_to 10752
  154.8192  135.3414  154.7016 H   0  0  0  0  0  0  0  0  0  0  0  0  # atno 10765 bound_to 10752
  140.2714  134.3078  155.7827 H   0  0  0  0  0  0  0  0  0  0  0  0  # atno 11005 bound_to 11000
  145.0524  140.9027  143.4987 LP  0  0  0  0  0  0  0  0  0  0  0  0  # atno 17320 bound_to 7965
  145.1165  139.2722  143.5611 LP  0  0  0  0  0  0  0  0  0  0  0  0  # atno 17321 bound_to 7965
  139.5110  144.6894  151.5801 LP  0  0  0  0  0  0  0  0  0  0  0  0  # atno 17342 bound_to 10162
  140.6185  143.9302  150.6508 LP  0  0  0  0  0  0  0  0  0  0  0  0  # atno 17343 bound_to 10162
  156.1545  130.6332  151.0639 LP  0  0  0  0  0  0  0  0  0  0  0  0  # atno 17370 bound_to 10713
  157.6868  131.0822  150.7219 LP  0  0  0  0  0  0  0  0  0  0  0  0  # atno 17371 bound_to 10713
  141.2177  133.7469  156.9340 LP  0  0  0  0  0  0  0  0  0  0  0  0  # atno 17394 bound_to 11000
  140.1369  134.9319  157.2414 LP  0  0  0  0  0  0  0  0  0  0  0  0  # atno 17395 bound_to 11000

$$$$
