#       Name:                AV-unprocessed.smi:54
#       Creating user name   scv26
#       Creation time:       Thu Mar 26 16:43:21 2020


#       File generated by GOLD software.
#

@<TRIPOS>MOLECULE
AV-unprocessed.smi:54
    58    60     1
SMALL
NO_CHARGES


@<TRIPOS>ATOM
      1 ****        -0.0727   5.3884  -1.9316 C.3            1 S1                 0.0000
      2 ****        -0.8167   4.8487  -0.6996 C.3            1 S1                 0.0000
      3 ****        -0.3429   5.5437   0.5873 C.3            1 S1                 0.0000
      4 ****        -0.6446   3.3295  -0.5889 C.2            1 S1                 0.0000
      5 ****         0.4552   2.8096  -0.3959 O.2            1 S1                 0.0000
      6 ****        -1.8658   2.5542  -0.7208 N.am           1 S1                 0.0000
      7 ****        -1.9983   1.2088  -0.6569 C.2            1 S1                 0.0000
      8 ****        -0.9682   0.3815  -0.5528 N.2            1 S1                 0.0000
      9 ****        -1.3044  -0.9426  -0.4901 C.2            1 S1                 0.0000
     10 ****        -2.5775  -1.4697  -0.5380 C.2            1 S1                 0.0000
     11 ****        -2.5248  -2.8556  -0.4543 N.2            1 S1                 0.0000
     12 ****        -1.2512  -3.1183  -0.3572 C.2            1 S1                 0.0000
     13 ****        -0.4379  -2.0071  -0.3565 N.pl3          1 S1                 0.0000
     14 ****         1.0595  -1.9067  -0.2737 C.3            1 S1                 0.0000
     15 ****         1.6057  -3.1492  -0.5920 O.3            1 S1                 0.0000
     16 ****         1.8794  -3.9204   0.5851 C.3            1 S1                 0.0000
     17 ****         3.3483  -4.3708   0.5121 C.3            1 S1                 0.0000
     18 ****         3.4715  -5.4873  -0.3429 O.3            1 S1                 0.0000
     19 ****         1.6068  -2.9858   1.7822 C.3            1 S1                 0.0000
     20 ****         0.3862  -3.3495   2.4028 O.3            1 S1                 0.0000
     21 ****         1.5479  -1.6023   1.1468 C.3            1 S1                 0.0000
     22 ****         0.7734  -0.6680   1.8778 O.3            1 S1                 0.0000
     23 ****        -3.7027  -0.5889  -0.6627 C.2            1 S1                 0.0000
     24 ****        -4.8954  -0.8798  -0.7229 O.2            1 S1                 0.0000
     25 ****        -3.3167   0.7570  -0.7149 N.am           1 S1                 0.0000
     26 ****         1.3254  -1.1489  -1.0117 H              1 S1                 0.0000
     27 ****         1.2295  -4.7961   0.6254 H              1 S1                 0.0000
     28 ****         2.3876  -3.0335   2.5420 H              1 S1                 0.0000
     29 ****         2.5624  -1.2124   1.0551 H              1 S1                 0.0000
     30 ****        -0.4080   4.8955  -2.8451 H              1 S1                 0.0000
     31 ****         1.0046   5.2381  -1.8480 H              1 S1                 0.0000
     32 ****        -0.2477   6.4575  -2.0550 H              1 S1                 0.0000
     33 ****        -1.8791   5.0629  -0.8260 H              1 S1                 0.0000
     34 ****        -0.8592   5.1510   1.4640 H              1 S1                 0.0000
     35 ****        -0.5393   6.6154   0.5458 H              1 S1                 0.0000
     36 ****         0.7285   5.4110   0.7448 H              1 S1                 0.0000
     37 ****        -2.7122   3.0858  -0.8615 H              1 S1                 0.0000
     38 ****        -0.8815  -4.1297  -0.2824 H              1 S1                 0.0000
     39 ****         3.9978  -3.5613   0.1777 H              1 S1                 0.0000
     40 ****         3.6985  -4.6813   1.4968 H              1 S1                 0.0000
     41 ****         4.3779  -5.7540  -0.3610 H              1 S1                 0.0000
     42 ****         0.1617  -2.6791   3.0304 H              1 S1                 0.0000
     43 ****         0.6992   0.1236   1.3663 H              1 S1                 0.0000
     44 ****        -4.0598   1.4352  -0.7982 H              1 S1                 0.0000
     45 ****         1.2701   3.3822  -0.3066 LP             1 S1                 0.0000
     46 ****         0.5331   1.8149  -0.3286 LP             1 S1                 0.0000
     47 ****        -0.0208   0.7001  -0.5226 LP             1 S1                 0.0000
     48 ****        -3.2875  -3.5023  -0.4659 LP             1 S1                 0.0000
     49 ****         2.4588  -3.0099  -1.0948 LP             1 S1                 0.0000
     50 ****         0.9587  -3.6510  -1.1661 LP             1 S1                 0.0000
     51 ****         3.1745  -5.2399  -1.2652 LP             1 S1                 0.0000
     52 ****         2.9061  -6.2378  -0.0008 LP             1 S1                 0.0000
     53 ****         0.4923  -4.2276   2.8692 LP             1 S1                 0.0000
     54 ****        -0.3349  -3.4230   1.7138 LP             1 S1                 0.0000
     55 ****         1.2211  -0.4664   2.7489 LP             1 S1                 0.0000
     56 ****        -0.1366  -1.0452   2.0501 LP             1 S1                 0.0000
     57 ****        -5.1789  -1.8380  -0.6850 LP             1 S1                 0.0000
     58 ****        -5.5823  -0.1582  -0.8099 LP             1 S1                 0.0000
@<TRIPOS>BOND
    1    1    2 1     
    2    1   30 1     
    3    1   31 1     
    4    1   32 1     
    5    2    3 1     
    6    2    4 1     
    7    2   33 1     
    8    3   34 1     
    9    3   35 1     
   10    3   36 1     
   11    4    5 2     
   12    4    6 am    
   13    6   37 1     
   14    6    7 1     
   15    7   25 1     
   16    7    8 2     
   17    8    9 1     
   18    9   13 1     
   19    9   10 2     
   20   10   11 1     
   21   10   23 1     
   22   11   12 2     
   23   12   13 1     
   24   12   38 1     
   25   13   14 1     
   26   14   26 1     
   27   14   21 1     
   28   14   15 1     
   29   15   16 1     
   30   16   27 1     
   31   16   17 1     
   32   16   19 1     
   33   17   18 1     
   34   17   39 1     
   35   17   40 1     
   36   18   41 1     
   37   19   28 1     
   38   19   20 1     
   39   19   21 1     
   40   20   42 1     
   41   21   29 1     
   42   21   22 1     
   43   22   43 1     
   44   23   24 2     
   45   23   25 am    
   46   25   44 1     
   47    5   45 1     
   48    5   46 1     
   49    8   47 1     
   50   11   48 1     
   51   15   49 1     
   52   15   50 1     
   53   18   51 1     
   54   18   52 1     
   55   20   53 1     
   56   20   54 1     
   57   22   55 1     
   58   22   56 1     
   59   24   57 1     
   60   24   58 1     
@<TRIPOS>SUBSTRUCTURE
      1 S1             1
@<TRIPOS>SET
LONE_PAIRS      STATIC     ATOMS    <user>   **** ""
14 45 46 47 48 49 50 51 52 53 54 55 56 57 58
DONOR_HYDROGENS      STATIC     ATOMS    <user>   **** ""
5 37 41 42 43 44
ATOM$BLUE        STATIC     ATOMS    COLORGROUP SYSTEM
14 45 46 47 48 49 50 51 52 53 54 55 56 57 58
ATOM$RED        STATIC     ATOMS    COLORGROUP SYSTEM
5 37 41 42 43 44
