#       Name:                AV-unprocessed.smi:1056
#       Creating user name   scv26
#       Creation time:       Fri Mar 27 03:14:39 2020


#       File generated by GOLD software.
#

@<TRIPOS>MOLECULE
AV-unprocessed.smi:1056
    50    52     1
SMALL
NO_CHARGES


@<TRIPOS>ATOM
      1 ****        -2.5319   4.5702   2.6074 C.3            1 S1                 0.0000
      2 ****        -2.3790   3.3876   1.6660 C.ar           1 S1                 0.0000
      3 ****        -2.9436   3.4780   0.3735 C.ar           1 S1                 0.0000
      4 ****        -2.7905   2.3792  -0.4635 C.ar           1 S1                 0.0000
      5 ****        -3.2220   2.1587  -1.7734 N.pl3          1 S1                 1.0000
      6 ****        -2.8322   0.9178  -2.1773 C.2            1 S1                 0.0000
      7 ****        -2.1589   0.3436  -1.1438 N.pl3          1 S1                 0.0000
      8 ****        -1.5309  -0.9808  -1.0455 C.3            1 S1                 0.0000
      9 ****        -0.0049  -0.9431  -1.2694 C.3            1 S1                 0.0000
     10 ****         0.2407  -0.3946  -2.5511 O.3            1 S1                 0.0000
     11 ****         0.6288  -2.3505  -1.1845 C.3            1 S1                 0.0000
     12 ****         1.9692  -2.4020  -0.5915 N.3            1 S1                 0.0000
     13 ****         2.9876  -1.7267  -1.3967 C.3            1 S1                 0.0000
     14 ****         4.3490  -1.6913  -0.6850 C.3            1 S1                 0.0000
     15 ****         4.7078  -2.9888  -0.1224 N.am           1 S1                 0.0000
     16 ****         3.8348  -3.9783   0.1267 C.2            1 S1                 0.0000
     17 ****         4.1851  -5.0317   0.6539 O.2            1 S1                 0.0000
     18 ****         2.3649  -3.7878  -0.2938 C.3            1 S1                 0.0000
     19 ****        -2.1061   1.2185  -0.0542 C.ar           1 S1                 0.0000
     20 ****        -1.5419   1.1130   1.2145 C.ar           1 S1                 0.0000
     21 ****        -1.6851   2.2209   2.0804 C.ar           1 S1                 0.0000
     22 ****        -1.0801   2.1361   3.4715 C.3            1 S1                 0.0000
     23 ****        -3.0961   5.3797   2.1431 H              1 S1                 0.0000
     24 ****        -1.5553   4.9642   2.8895 H              1 S1                 0.0000
     25 ****        -3.0610   4.2725   3.5131 H              1 S1                 0.0000
     26 ****        -3.4720   4.3631   0.0505 H              1 S1                 0.0000
     27 ****        -3.0205   0.4708  -3.1428 H              1 S1                 0.0000
     28 ****        -1.7741  -1.4020  -0.0692 H              1 S1                 0.0000
     29 ****        -2.0066  -1.6239  -1.7874 H              1 S1                 0.0000
     30 ****         0.4445  -0.2906  -0.5197 H              1 S1                 0.0000
     31 ****         1.1751  -0.3577  -2.6871 H              1 S1                 0.0000
     32 ****        -0.0256  -2.9635  -0.5624 H              1 S1                 0.0000
     33 ****         0.6221  -2.8359  -2.1625 H              1 S1                 0.0000
     34 ****         3.0883  -2.2297  -2.3604 H              1 S1                 0.0000
     35 ****         2.6944  -0.7001  -1.6123 H              1 S1                 0.0000
     36 ****         5.1300  -1.3652  -1.3719 H              1 S1                 0.0000
     37 ****         4.3213  -0.9683   0.1309 H              1 S1                 0.0000
     38 ****         5.6741  -3.1300   0.1343 H              1 S1                 0.0000
     39 ****         1.7236  -4.1936   0.4899 H              1 S1                 0.0000
     40 ****         2.2098  -4.4126  -1.1750 H              1 S1                 0.0000
     41 ****        -1.0149   0.2240   1.5284 H              1 S1                 0.0000
     42 ****        -0.5399   1.1998   3.6157 H              1 S1                 0.0000
     43 ****        -1.8602   2.1917   4.2313 H              1 S1                 0.0000
     44 ****        -0.3766   2.9525   3.6359 H              1 S1                 0.0000
     45 ****        -3.7434   2.8048  -2.3518 H              1 S1                 0.0000
     46 ****        -0.1444   0.5268  -2.6033 LP             1 S1                 0.0000
     47 ****        -0.1796  -0.9717  -3.2513 LP             1 S1                 0.0000
     48 ****         1.9112  -1.8936   0.2676 LP             1 S1                 0.0000
     49 ****         5.1422  -5.1689   0.9092 LP             1 S1                 0.0000
     50 ****         3.5131  -5.7515   0.8275 LP             1 S1                 0.0000
@<TRIPOS>BOND
    1    1    2 1     
    2    1   23 1     
    3    1   24 1     
    4    1   25 1     
    5    2   21 ar    
    6    2    3 ar    
    7    3    4 ar    
    8    3   26 1     
    9    4   19 ar    
   10    4    5 1     
   11    5    6 2     
   12    5   45 1     
   13    6    7 1     
   14    6   27 1     
   15    7    8 1     
   16    7   19 1     
   17    8    9 1     
   18    8   28 1     
   19    8   29 1     
   20    9   10 1     
   21    9   11 1     
   22    9   30 1     
   23   10   31 1     
   24   11   12 1     
   25   11   32 1     
   26   11   33 1     
   27   12   18 1     
   28   12   13 1     
   29   13   14 1     
   30   13   34 1     
   31   13   35 1     
   32   14   15 1     
   33   14   36 1     
   34   14   37 1     
   35   15   16 am    
   36   15   38 1     
   37   16   17 2     
   38   16   18 1     
   39   18   39 1     
   40   18   40 1     
   41   19   20 ar    
   42   20   21 ar    
   43   20   41 1     
   44   21   22 1     
   45   22   42 1     
   46   22   43 1     
   47   22   44 1     
   48   10   46 1     
   49   10   47 1     
   50   12   48 1     
   51   17   49 1     
   52   17   50 1     
@<TRIPOS>SUBSTRUCTURE
      1 S1             1
@<TRIPOS>SET
LONE_PAIRS      STATIC     ATOMS    <user>   **** ""
5 46 47 48 49 50
DONOR_HYDROGENS      STATIC     ATOMS    <user>   **** ""
3 45 31 38
ATOM$BLUE        STATIC     ATOMS    COLORGROUP SYSTEM
5 46 47 48 49 50
ATOM$RED        STATIC     ATOMS    COLORGROUP SYSTEM
3 45 31 38
