AV-unprocessed.smi:2061|AV-procd|sdf|8371|dock4
  -GOLD-   2272011 43D 1   1.00000     0.00000
 Structure written by MMmdl.
 46 47  0  0  0  0  0  0  0  0  2 V2000
  144.0720  131.2870  150.7267 C   0  0  0  0  0  0  0  0  0  0  0  0
  144.4405  132.6794  151.1091 C   0  0  0  0  0  0  0  0  0  0  0  0
  145.6394  133.3212  151.2410 C   0  0  0  0  0  0  0  0  0  0  0  0
  145.2555  134.6374  151.6314 C   0  0  0  0  0  0  0  0  0  0  0  0
  146.1286  135.7219  151.9048 N   0  0  0  0  0  0  0  0  0  0  0  0
  145.8181  136.9543  152.3411 C   0  0  0  0  0  0  0  0  0  0  0  0
  144.6807  137.3644  152.5721 O   0  0  0  0  0  0  0  0  0  0  0  0
  146.9190  137.7051  152.4964 N   0  0  0  0  0  0  0  0  0  0  0  0
  146.9471  139.0757  153.0035 C   0  0  0  0  0  0  0  0  0  0  0  0
  148.3816  139.6020  153.2944 C   0  0  1  0  0  0  0  0  0  0  0  0
  148.3269  140.8879  154.1564 C   0  0  0  0  0  0  0  0  0  0  0  0
  149.2540  138.5514  153.9238 N   0  3  1  0  0  0  0  0  0  0  0  0
  150.6522  138.9968  154.1796 C   0  0  0  0  0  0  0  0  0  0  0  0
  151.5124  137.8665  154.7731 C   0  0  1  0  0  0  0  0  0  0  0  0
  152.9211  138.3499  155.1349 C   0  0  0  0  0  0  0  0  0  0  0  0
  150.9068  137.3736  155.9604 O   0  0  0  0  0  0  0  0  0  0  0  0
  149.5852  136.8779  155.7775 C   0  0  2  0  0  0  0  0  0  0  0  0
  149.5547  135.5512  154.9962 C   0  0  0  0  0  0  0  0  0  0  0  0
  148.6840  137.9726  155.1737 C   0  0  0  0  0  0  0  0  0  0  0  0
  143.9463  134.7770  151.7309 N   0  0  0  0  0  0  0  0  0  0  0  0
  143.4152  133.5263  151.3953 O   0  0  0  0  0  0  0  0  0  0  0  0
  144.9574  130.6550  150.6558 H   0  0  0  0  0  0  0  0  0  0  0  0
  143.5677  131.2726  149.7604 H   0  0  0  0  0  0  0  0  0  0  0  0
  143.4018  130.8474  151.4657 H   0  0  0  0  0  0  0  0  0  0  0  0
  146.6207  132.9013  151.0802 H   0  0  0  0  0  0  0  0  0  0  0  0
  147.1096  135.5276  151.7678 H   0  0  0  0  0  0  0  0  0  0  0  0
  147.8109  137.2856  152.2765 H   0  0  0  0  0  0  0  0  0  0  0  0
  146.4232  139.7565  152.3302 H   0  0  0  0  0  0  0  0  0  0  0  0
  146.3568  139.0304  153.9168 H   0  0  0  0  0  0  0  0  0  0  0  0
  148.8324  139.8681  152.3368 H   0  0  0  0  0  0  0  0  0  0  0  0
  147.6616  141.6383  153.7326 H   0  0  0  0  0  0  0  0  0  0  0  0
  149.2916  141.3869  154.2269 H   0  0  0  0  0  0  0  0  0  0  0  0
  147.9780  140.6733  155.1672 H   0  0  0  0  0  0  0  0  0  0  0  0
  151.1400  139.3044  153.2570 H   0  0  0  0  0  0  0  0  0  0  0  0
  150.6421  139.8600  154.8473 H   0  0  0  0  0  0  0  0  0  0  0  0
  151.6116  137.0615  154.0449 H   0  0  0  0  0  0  0  0  0  0  0  0
  153.4430  138.7345  154.2582 H   0  0  0  0  0  0  0  0  0  0  0  0
  153.5184  137.5354  155.5453 H   0  0  0  0  0  0  0  0  0  0  0  0
  152.8866  139.1456  155.8800 H   0  0  0  0  0  0  0  0  0  0  0  0
  149.2102  136.6580  156.7775 H   0  0  0  0  0  0  0  0  0  0  0  0
  148.5523  135.1222  155.0038 H   0  0  0  0  0  0  0  0  0  0  0  0
  150.2274  134.8202  155.4455 H   0  0  0  0  0  0  0  0  0  0  0  0
  149.8429  135.6759  153.9527 H   0  0  0  0  0  0  0  0  0  0  0  0
  148.5452  138.7737  155.9016 H   0  0  0  0  0  0  0  0  0  0  0  0
  147.7064  137.5273  155.0017 H   0  0  0  0  0  0  0  0  0  0  0  0
  149.3142  137.7937  153.2585 H   0  0  0  0  0  0  0  0  0  0  0  0
  1  2  1  0  0  0  0
  1 22  1  0  0  0  0
  1 23  1  0  0  0  0
  1 24  1  0  0  0  0
  2 21  1  0  0  0  0
  2  3  2  0  0  0  0
  3  4  1  0  0  0  0
  3 25  1  0  0  0  0
  4  5  1  0  0  0  0
  4 20  2  0  0  0  0
  5  6  1  0  0  0  0
  5 26  1  0  0  0  0
  6  7  2  0  0  0  0
  6  8  1  0  0  0  0
  8  9  1  0  0  0  0
  8 27  1  0  0  0  0
  9 10  1  0  0  0  0
  9 28  1  0  0  0  0
  9 29  1  0  0  0  0
 10 11  1  0  0  0  0
 10 12  1  0  0  0  0
 10 30  1  0  0  0  0
 11 31  1  0  0  0  0
 11 32  1  0  0  0  0
 11 33  1  0  0  0  0
 12 19  1  0  0  0  0
 12 13  1  0  0  0  0
 12 46  1  0  0  0  0
 13 14  1  0  0  0  0
 13 34  1  0  0  0  0
 13 35  1  0  0  0  0
 14 15  1  0  0  0  0
 14 16  1  0  0  0  0
 14 36  1  0  0  0  0
 15 37  1  0  0  0  0
 15 38  1  0  0  0  0
 15 39  1  0  0  0  0
 16 17  1  0  0  0  0
 17 18  1  0  0  0  0
 17 19  1  0  0  0  0
 17 40  1  0  0  0  0
 18 41  1  0  0  0  0
 18 42  1  0  0  0  0
 18 43  1  0  0  0  0
 19 44  1  0  0  0  0
 19 45  1  0  0  0  0
 20 21  1  0  0  0  0
M  CHG  1  12   1
M  END
> <s_m_source_file>
AV-unprocessed.smi

> <i_m_source_file_index>
2061

> <i_lp_mmshare_version>
43012

> <i_f3d_flags>
0

> <s_epik_input>
W0NIM11jMVtjSF1jKG5vMSlbTkhdQyg9TylbTkhdW0NIMl1bQ0BIXShbQ0gzXSlOMltDSDJdW0NAQEhdKFtDSDNdKU9bQ0BASF0oW0NIM10pW0NIMl0y

> <s_epik_cmdline>
J2VwaWtfcHl0aG9uJywgJy1waCcsICc3LjAnLCAnLXRuJywgJzgnLCAnLW1hJywgJzIwMCcsICctbWV0YWxfYmluZGluZycsICctaW1hZScsICc8aW5maWxlLm1hZT4nLCAnLW9tYWUnLCAnPG91dGZpbGUubWFlPic=

> <r_epik_Ionization_Penalty>
0.707076

> <r_epik_Ionization_Penalty_Charging>
0.707039

> <r_epik_Ionization_Penalty_Neutral>
3.6548e-05

> <r_epik_State_Penalty>
0.730276

> <r_epik_Charging_Adjusted_Penalty>
1.43732

> <i_epik_Tot_Q>
1

> <i_epik_Tot_abs_Q>
1

> <r_epik_Metal_State_Penalty>
0.743132

> <b_epik_Metal_Only>
0

> <s_lp_Force_Field>
OPLS_2005

> <r_lp_Energy>
23.7206

> <b_lp_Chiralities_Consistent>
1

> <s_lp_Variant>
AV-unprocessed.smi:2061-12

> <Gold.Version>
5.8.1

> <Gold.Id.Protein>
6NUR|6NUR_protein|mol2

> <Gold.PLP.Fitness>
40.3278

> <Gold.PLP.PLP>
-29.2903

> <Gold.PLP.part.hbond>
-3.7833

> <Gold.PLP.part.metal>
0.0000

> <Gold.PLP.part.buried>
1.0556

> <Gold.PLP.part.nonpolar>
-28.1841

> <Gold.PLP.part.repulsive>
0.7769

> <Gold.PLP.ligand.clash>
0.0000

> <Gold.PLP.ligand.torsion>
0.2213

> <Gold.PLP.Chemscore.Hbond>
3.8125

> <Gold.PLP.Chemscore.CHOScore>
0.0000

> <Gold.PLP.Chemscore.Metal>
0.0000

> <Gold.Chemscore.Hbonds>
donor molecule, donor type, donor heavy atom, donor atom, acceptor molecule, acceptor atom, score
      L1  H     5    26       P1  7948  0.94
      L1  H     8    27       P1  7948  1.00
      L1  H    12    46       P1  7948  1.66

> <Gold.PLP.Chemscore.Internal.Correction>
0.0425

> <Gold.Rescore>
     Score         DG    S(hbond)    S(metal)    S(lipo)     H(rot)  DE(clash)    DE(int)     intcor
     17.08     -20.59       2.83        0.00      82.95       1.58       1.92       1.59       ----

> <Gold.Chemscore.Fitness>
17.0846

> <Gold.Chemscore.DG>
-20.5913

> <Gold.Chemscore.ZeroCoef>
-5.4800

> <Gold.Chemscore.Hbond>
2.8322

> <Gold.Chemscore.Metal>
0.0000

> <Gold.Chemscore.Lipo>
82.9515

> <Gold.Chemscore.Internal_Hbond>
0.0000

> <Gold.Chemscore.DEClash>
1.9154

> <Gold.Chemscore.DEInternal>
1.5913

> <Gold.Chemscore.Rot>
1.5834

> <Gold.Chemscore.Internal.Correction>
   9.000000E+99

> <Gold.Chemscore.Hbonds>
donor molecule, donor type, donor heavy atom, donor atom, acceptor molecule, acceptor atom, score
      L1  H     5    26       P1  7948  0.91
      L1  H     8    27       P1  7948  0.98
      L1  H    12    46       P1  7948  0.80

> <Gold.Chemscore.Hbond.Weighted>
-9.4595

> <Gold.Chemscore.Metal.Weighted>
-0.0000

> <Gold.Chemscore.Lipo.Weighted>
-9.7053

> <Gold.Chemscore.Internal_Hbond.Weighted>
0.0000

> <Gold.Chemscore.DEClash.Weighted>
1.9154

> <Gold.Chemscore.DEInternal.Weighted>
1.5913

> <Gold.Chemscore.Rot.Weighted>
4.0535

> <Gold.Chemscore.Internal.Correction.Weighted>
   9.000000E+99

> <Gold.Protein.RotatedTorsions>
[ 6907 6896 6895 6894 ] final -136.53 input  -60.11 | X-H torsion
[ 7974 7965 7964 7962 ] final -107.73 input  175.53 | X-H torsion
[ 8008 7997 7996 7995 ] final  -55.35 input   59.86 | X-H torsion
[ 10167 10162 10161 10158 ] final   66.26 input  -65.29 | X-H torsion
[ 10718 10713 10712 10709 ] final -129.69 input   66.30 | X-H torsion
[ 10763 10752 10751 10750 ] final  -73.71 input  -60.55 | X-H torsion
[ 11005 11000 10999 10996 ] final   45.79 input  -57.11 | X-H torsion

> <Gold.Protein.ActiveResidues>
 VAL166  LYS551  ARG553  GLY616  TRP617  ASP618  TYR619  PRO620  LYS621  CYS622 
 ASP623  PHE694  ASN695  SER759  ASP760  ASP761  ALA762  ILE779  LEU786  VAL792 
 PHE793  MET794  SER795  GLU796  ALA797  LYS798  CYS799  TRP800  GLU811  SER814 

> <Gold.Protein.RotatedAtoms>
  151.0112  133.5963  159.2682 H   0  0  0  0  0  0  0  0  0  0  0  0  # atno 6907 bound_to 6896
  151.3114  135.0794  159.9283 H   0  0  0  0  0  0  0  0  0  0  0  0  # atno 6908 bound_to 6896
  152.5300  133.9776  159.7846 H   0  0  0  0  0  0  0  0  0  0  0  0  # atno 6909 bound_to 6896
  145.2016  140.9059  143.3366 H   0  0  0  0  0  0  0  0  0  0  0  0  # atno 7974 bound_to 7965
  154.4192  140.1155  156.5463 H   0  0  0  0  0  0  0  0  0  0  0  0  # atno 8008 bound_to 7997
  155.6456  140.3496  155.4711 H   0  0  0  0  0  0  0  0  0  0  0  0  # atno 8009 bound_to 7997
  155.9835  140.1165  157.0694 H   0  0  0  0  0  0  0  0  0  0  0  0  # atno 8010 bound_to 7997
  140.1023  144.4893  150.7030 H   0  0  0  0  0  0  0  0  0  0  0  0  # atno 10167 bound_to 10162
  156.2071  130.6895  151.0607 H   0  0  0  0  0  0  0  0  0  0  0  0  # atno 10718 bound_to 10713
  154.4632  135.5888  153.6270 H   0  0  0  0  0  0  0  0  0  0  0  0  # atno 10763 bound_to 10752
  152.9825  135.6049  154.3460 H   0  0  0  0  0  0  0  0  0  0  0  0  # atno 10764 bound_to 10752
  154.3334  135.2842  155.2439 H   0  0  0  0  0  0  0  0  0  0  0  0  # atno 10765 bound_to 10752
  140.1427  134.4562  155.8438 H   0  0  0  0  0  0  0  0  0  0  0  0  # atno 11005 bound_to 11000
  144.9942  139.3660  143.6200 LP  0  0  0  0  0  0  0  0  0  0  0  0  # atno 17320 bound_to 7965
  146.3416  139.9138  142.8776 LP  0  0  0  0  0  0  0  0  0  0  0  0  # atno 17321 bound_to 7965
  140.6971  143.2411  151.4970 LP  0  0  0  0  0  0  0  0  0  0  0  0  # atno 17342 bound_to 10162
  139.5664  144.2031  152.1772 LP  0  0  0  0  0  0  0  0  0  0  0  0  # atno 17343 bound_to 10162
  157.7018  131.0773  150.6795 LP  0  0  0  0  0  0  0  0  0  0  0  0  # atno 17370 bound_to 10713
  156.6854  130.4579  149.5615 LP  0  0  0  0  0  0  0  0  0  0  0  0  # atno 17371 bound_to 10713
  141.2188  133.6840  156.7277 LP  0  0  0  0  0  0  0  0  0  0  0  0  # atno 17394 bound_to 11000
  140.2701  134.8398  157.3839 LP  0  0  0  0  0  0  0  0  0  0  0  0  # atno 17395 bound_to 11000

$$$$
