AV-unprocessed.smi:697|AV-procd|sdf|3395|dock1
  -GOLD-   22720 0373D 1   1.00000     0.00000
 Structure written by MMmdl.
 43 44  0  0  0  0  0  0  0  0  2 V2000
  152.4295  138.6736  154.7205 C   0  0  0  0  0  0  0  0  0  0  0  0
  151.7378  139.8325  155.1697 O   0  0  0  0  0  0  0  0  0  0  0  0
  150.3374  139.6961  155.4471 C   0  0  1  0  0  0  0  0  0  0  0  0
  149.5036  140.1023  154.2252 C   0  0  0  0  0  0  0  0  0  0  0  0
  150.0630  138.3435  156.1319 C   0  0  0  0  0  0  0  0  0  0  0  0
  150.4576  139.0123  157.4472 C   0  0  2  0  0  0  0  0  0  0  0  0
  149.6399  138.5682  158.5712 N   0  0  0  0  0  0  0  0  0  0  0  0
  149.2950  137.2945  158.8022 C   0  0  0  0  0  0  0  0  0  0  0  0
  149.6215  136.3663  158.0629 O   0  0  0  0  0  0  0  0  0  0  0  0
  148.5614  137.1957  159.9257 N   0  0  0  0  0  0  0  0  0  0  0  0
  148.0314  136.0569  160.5577 C   0  0  0  0  0  0  0  0  0  0  0  0
  148.2017  134.7746  160.1306 C   0  0  0  0  0  0  0  0  0  0  0  0
  147.6374  133.6337  160.8406 C   0  0  0  0  0  0  0  0  0  0  0  0
  147.7270  132.2030  160.3395 C   0  0  0  0  0  0  0  0  0  0  0  0
  146.5179  131.7110  160.0693 F   0  0  0  0  0  0  0  0  0  0  0  0
  148.4679  132.1303  159.2338 F   0  0  0  0  0  0  0  0  0  0  0  0
  148.2909  131.4321  161.2681 F   0  0  0  0  0  0  0  0  0  0  0  0
  146.9223  134.0137  161.9597 C   0  0  0  0  0  0  0  0  0  0  0  0
  146.7281  135.2515  162.4648 N   0  5  0  0  0  0  0  0  0  0  0  0
  147.2615  136.3110  161.7933 C   0  0  0  0  0  0  0  0  0  0  0  0
  147.1161  137.4662  162.1952 O   0  0  0  0  0  0  0  0  0  0  0  0
  150.0366  140.3695  156.8263 C   0  0  0  0  0  0  0  0  0  0  0  0
  150.9031  141.5762  157.2042 C   0  0  0  0  0  0  0  0  0  0  0  0
  148.5793  140.8130  157.0573 C   0  0  0  0  0  0  0  0  0  0  0  0
  153.4995  138.8794  154.7134 H   0  0  0  0  0  0  0  0  0  0  0  0
  152.1466  138.4078  153.7021 H   0  0  0  0  0  0  0  0  0  0  0  0
  152.2627  137.8123  155.3664 H   0  0  0  0  0  0  0  0  0  0  0  0
  148.4369  140.1058  154.4455 H   0  0  0  0  0  0  0  0  0  0  0  0
  149.6366  139.4112  153.3934 H   0  0  0  0  0  0  0  0  0  0  0  0
  149.7693  141.1011  153.8785 H   0  0  0  0  0  0  0  0  0  0  0  0
  149.0121  138.0524  156.0865 H   0  0  0  0  0  0  0  0  0  0  0  0
  150.7098  137.5166  155.8408 H   0  0  0  0  0  0  0  0  0  0  0  0
  151.5327  138.9424  157.6280 H   0  0  0  0  0  0  0  0  0  0  0  0
  149.3283  139.2745  159.2217 H   0  0  0  0  0  0  0  0  0  0  0  0
  148.3378  138.0640  160.3898 H   0  0  0  0  0  0  0  0  0  0  0  0
  148.7823  134.5534  159.2510 H   0  0  0  0  0  0  0  0  0  0  0  0
  146.4291  133.2008  162.5343 H   0  0  0  0  0  0  0  0  0  0  0  0
  150.6832  141.9274  158.2129 H   0  0  0  0  0  0  0  0  0  0  0  0
  150.7445  142.4111  156.5212 H   0  0  0  0  0  0  0  0  0  0  0  0
  151.9667  141.3377  157.1836 H   0  0  0  0  0  0  0  0  0  0  0  0
  148.4079  141.1111  158.0923 H   0  0  0  0  0  0  0  0  0  0  0  0
  147.8661  140.0194  156.8342 H   0  0  0  0  0  0  0  0  0  0  0  0
  148.3175  141.6660  156.4308 H   0  0  0  0  0  0  0  0  0  0  0  0
  1  2  1  0  0  0  0
  1 25  1  0  0  0  0
  1 26  1  0  0  0  0
  1 27  1  0  0  0  0
  2  3  1  0  0  0  0
  3 22  1  0  0  0  0
  3  4  1  0  0  0  0
  3  5  1  0  0  0  0
  4 28  1  0  0  0  0
  4 29  1  0  0  0  0
  4 30  1  0  0  0  0
  5  6  1  0  0  0  0
  5 31  1  0  0  0  0
  5 32  1  0  0  0  0
  6  7  1  0  0  0  0
  6 22  1  0  0  0  0
  6 33  1  0  0  0  0
  7  8  1  0  0  0  0
  7 34  1  0  0  0  0
  8  9  2  0  0  0  0
  8 10  1  0  0  0  0
 10 11  1  0  0  0  0
 10 35  1  0  0  0  0
 11 20  1  0  0  0  0
 11 12  2  0  0  0  0
 12 13  1  0  0  0  0
 12 36  1  0  0  0  0
 13 14  1  0  0  0  0
 13 18  2  0  0  0  0
 14 15  1  0  0  0  0
 14 16  1  0  0  0  0
 14 17  1  0  0  0  0
 18 19  1  0  0  0  0
 18 37  1  0  0  0  0
 19 20  1  0  0  0  0
 20 21  2  0  0  0  0
 22 23  1  0  0  0  0
 22 24  1  0  0  0  0
 23 38  1  0  0  0  0
 23 39  1  0  0  0  0
 23 40  1  0  0  0  0
 24 41  1  0  0  0  0
 24 42  1  0  0  0  0
 24 43  1  0  0  0  0
M  CHG  1  19  -1
M  END
> <s_m_source_file>
AV-unprocessed.smi

> <i_m_source_file_index>
697

> <i_lp_mmshare_version>
43012

> <i_f3d_flags>
0

> <s_epik_input>
W0NIM11PW0NAQF0xKFtDSDNdKVtDSDJdW0NASF0oQzEoW0NIM10pW0NIM10pW05IXUMoPU8pW05IXWMyW2NIXWMoQyhGKShGKUYpW2NIXVtuSF1jMj1P

> <s_epik_cmdline>
J2VwaWtfcHl0aG9uJywgJy1waCcsICc3LjAnLCAnLXRuJywgJzgnLCAnLW1hJywgJzIwMCcsICctbWV0YWxfYmluZGluZycsICctaW1hZScsICc8aW5maWxlLm1hZT4nLCAnLW9tYWUnLCAnPG91dGZpbGUubWFlPic=

> <r_lp_tautomer_probability>
1

> <r_epik_Ionization_Penalty>
3.20094

> <r_epik_Ionization_Penalty_Charging>
0.180017

> <r_epik_Ionization_Penalty_Neutral>
3.02092

> <r_epik_State_Penalty>
3.01726

> <r_epik_Charging_Adjusted_Penalty>
3.19727

> <i_epik_Tot_Q>
-1

> <i_epik_Tot_abs_Q>
1

> <r_epik_Metal_State_Penalty>
0.455096

> <b_epik_Metal_Only>
1

> <s_lp_Force_Field>
OPLS_2005

> <r_lp_Energy>
36.256

> <b_lp_Chiralities_Consistent>
1

> <s_lp_Variant>
AV-unprocessed.smi:697-7

> <Gold.Version>
5.8.1

> <Gold.Id.Protein>
6NUR|6NUR_protein|mol2

> <Gold.PLP.Fitness>
40.7266

> <Gold.PLP.PLP>
-35.2712

> <Gold.PLP.part.hbond>
-3.0000

> <Gold.PLP.part.metal>
0.0000

> <Gold.PLP.part.buried>
-4.2078

> <Gold.PLP.part.nonpolar>
-28.1693

> <Gold.PLP.part.repulsive>
1.5590

> <Gold.PLP.ligand.clash>
0.0000

> <Gold.PLP.ligand.torsion>
0.9621

> <Gold.PLP.Chemscore.Hbond>
2.2960

> <Gold.PLP.Chemscore.CHOScore>
0.0000

> <Gold.PLP.Chemscore.Metal>
0.0000

> <Gold.Chemscore.Hbonds>
donor molecule, donor type, donor heavy atom, donor atom, acceptor molecule, acceptor atom, score
      P1  H  6931  6943       L1    21  0.60
      P1  H  6934  6947       L1    21  0.64
      P1  H  7989  7998       L1     2  1.00

> <Gold.PLP.Chemscore.Internal.Correction>
0.4916

> <Gold.Rescore>
     Score         DG    S(hbond)    S(metal)    S(lipo)     H(rot)  DE(clash)    DE(int)     intcor
     11.13     -15.34       1.54        0.00      68.79       1.30       0.38       3.83       ----

> <Gold.Chemscore.Fitness>
11.1257

> <Gold.Chemscore.DG>
-15.3359

> <Gold.Chemscore.ZeroCoef>
-5.4800

> <Gold.Chemscore.Hbond>
1.5356

> <Gold.Chemscore.Metal>
0.0000

> <Gold.Chemscore.Lipo>
68.7852

> <Gold.Chemscore.Internal_Hbond>
0.0000

> <Gold.Chemscore.DEClash>
0.3846

> <Gold.Chemscore.DEInternal>
3.8255

> <Gold.Chemscore.Rot>
1.2973

> <Gold.Chemscore.Internal.Correction>
   9.000000E+99

> <Gold.Chemscore.Hbonds>
donor molecule, donor type, donor heavy atom, donor atom, acceptor molecule, acceptor atom, score
      P1  H  6931  6943       L1    21  0.20
      P1  H  6934  6947       L1    21  0.61
      P1  H  7989  7998       L1     2  0.06

> <Gold.Chemscore.Hbond.Weighted>
-5.1290

> <Gold.Chemscore.Metal.Weighted>
-0.0000

> <Gold.Chemscore.Lipo.Weighted>
-8.0479

> <Gold.Chemscore.Internal_Hbond.Weighted>
0.0000

> <Gold.Chemscore.DEClash.Weighted>
0.3846

> <Gold.Chemscore.DEInternal.Weighted>
3.8255

> <Gold.Chemscore.Rot.Weighted>
3.3210

> <Gold.Chemscore.Internal.Correction.Weighted>
   9.000000E+99

> <Gold.Protein.RotatedTorsions>
[ 6907 6896 6895 6894 ] final   23.99 input  -60.11 | X-H torsion
[ 7974 7965 7964 7962 ] final -170.61 input  175.53 | X-H torsion
[ 8008 7997 7996 7995 ] final    5.64 input   59.86 | X-H torsion
[ 10167 10162 10161 10158 ] final   -1.13 input  -65.29 | X-H torsion
[ 10718 10713 10712 10709 ] final   92.85 input   66.30 | X-H torsion
[ 10763 10752 10751 10750 ] final  102.04 input  -60.55 | X-H torsion
[ 11005 11000 10999 10996 ] final   19.64 input  -57.11 | X-H torsion

> <Gold.Protein.ActiveResidues>
 VAL166  LYS551  ARG553  GLY616  TRP617  ASP618  TYR619  PRO620  LYS621  CYS622 
 ASP623  PHE694  ASN695  SER759  ASP760  ASP761  ALA762  ILE779  LEU786  VAL792 
 PHE793  MET794  SER795  GLU796  ALA797  LYS798  CYS799  TRP800  GLU811  SER814 

> <Gold.Protein.RotatedAtoms>
  151.9507  135.0170  160.0541 H   0  0  0  0  0  0  0  0  0  0  0  0  # atno 6907 bound_to 6896
  152.1955  133.4799  159.5039 H   0  0  0  0  0  0  0  0  0  0  0  0  # atno 6908 bound_to 6896
  150.6944  134.1574  159.4206 H   0  0  0  0  0  0  0  0  0  0  0  0  # atno 6909 bound_to 6896
  144.7168  140.2045  143.6334 H   0  0  0  0  0  0  0  0  0  0  0  0  # atno 7974 bound_to 7965
  154.7309  140.2730  155.6457 H   0  0  0  0  0  0  0  0  0  0  0  0  # atno 8008 bound_to 7997
  156.2849  140.2716  156.1934 H   0  0  0  0  0  0  0  0  0  0  0  0  # atno 8009 bound_to 7997
  155.0383  140.0371  157.2490 H   0  0  0  0  0  0  0  0  0  0  0  0  # atno 8010 bound_to 7997
  140.6797  143.6812  150.8104 H   0  0  0  0  0  0  0  0  0  0  0  0  # atno 10167 bound_to 10162
  157.6957  131.0458  150.3945 H   0  0  0  0  0  0  0  0  0  0  0  0  # atno 10718 bound_to 10713
  153.3344  135.4024  155.1522 H   0  0  0  0  0  0  0  0  0  0  0  0  # atno 10763 bound_to 10752
  154.8630  135.3618  154.5427 H   0  0  0  0  0  0  0  0  0  0  0  0  # atno 10764 bound_to 10752
  153.5868  135.7075  153.5499 H   0  0  0  0  0  0  0  0  0  0  0  0  # atno 10765 bound_to 10752
  140.4115  134.1613  155.7667 H   0  0  0  0  0  0  0  0  0  0  0  0  # atno 11005 bound_to 11000
  145.8648  139.2241  143.1695 LP  0  0  0  0  0  0  0  0  0  0  0  0  # atno 17320 bound_to 7965
  146.0139  140.8410  142.9957 LP  0  0  0  0  0  0  0  0  0  0  0  0  # atno 17321 bound_to 7965
  140.0510  143.5249  152.2673 LP  0  0  0  0  0  0  0  0  0  0  0  0  # atno 17342 bound_to 10162
  139.6111  144.7609  151.2949 LP  0  0  0  0  0  0  0  0  0  0  0  0  # atno 17343 bound_to 10162
  156.4345  130.3979  149.6738 LP  0  0  0  0  0  0  0  0  0  0  0  0  # atno 17370 bound_to 10713
  156.3944  130.7643  151.2647 LP  0  0  0  0  0  0  0  0  0  0  0  0  # atno 17371 bound_to 10713
  141.1819  133.8395  157.1226 LP  0  0  0  0  0  0  0  0  0  0  0  0  # atno 17394 bound_to 11000
  140.0264  134.9922  157.0694 LP  0  0  0  0  0  0  0  0  0  0  0  0  # atno 17395 bound_to 11000

$$$$
