AV-unprocessed.smi:2981|AV-procd|sdf|11374|dock3
  -GOLD-   2272016293D 1   1.00000     0.00000
 Structure written by MMmdl.
 31 32  0  0  0  0  0  0  0  0  1 V2000
  146.8786  140.0049  154.0140 O   0  0  0  0  0  0  0  0  0  0  0  0
  147.3718  139.2484  153.1762 C   0  0  0  0  0  0  0  0  0  0  0  0
  146.6384  138.9448  151.8613 C   0  0  0  0  0  0  0  0  0  0  0  0
  145.8937  137.6768  151.8874 N   0  0  0  0  0  0  0  0  0  0  0  0
  146.1091  136.8731  150.7816 N   0  0  0  0  0  0  0  0  0  0  0  0
  145.5196  135.7300  150.7037 C   0  0  0  0  0  0  0  0  0  0  0  0
  144.6279  135.2508  151.7367 C   0  0  0  0  0  0  0  0  0  0  0  0
  143.8654  133.7079  151.5771 Cl  0  0  0  0  0  0  0  0  0  0  0  0
  144.4186  136.0492  152.8136 C   0  0  0  0  0  0  0  0  0  0  0  0
  143.3639  135.5454  154.0895 Cl  0  0  0  0  0  0  0  0  0  0  0  0
  145.0736  137.3589  152.9363 C   0  0  0  0  0  0  0  0  0  0  0  0
  144.9080  138.1136  153.8957 O   0  0  0  0  0  0  0  0  0  0  0  0
  148.5489  138.6287  153.3498 N   0  0  0  0  0  0  0  0  0  0  0  0
  149.4093  138.7763  154.5193 C   0  0  2  0  0  0  0  0  0  0  0  0
  149.5568  140.2562  154.9182 C   0  0  0  0  0  0  0  0  0  0  0  0
  150.7262  140.3865  155.9021 C   0  0  0  0  0  0  0  0  0  0  0  0
  151.9153  139.0632  155.4589 S   0  0  0  0  0  0  0  0  0  0  0  0
  153.0544  139.6458  154.7332 O   0  0  0  0  0  0  0  0  0  0  0  0
  152.1261  138.2015  156.6320 O   0  0  0  0  0  0  0  0  0  0  0  0
  150.8160  138.2120  154.2656 C   0  0  0  0  0  0  0  0  0  0  0  0
  145.9618  139.7673  151.6207 H   0  0  0  0  0  0  0  0  0  0  0  0
  147.3786  138.9319  151.0592 H   0  0  0  0  0  0  0  0  0  0  0  0
  145.6612  135.0624  149.8537 H   0  0  0  0  0  0  0  0  0  0  0  0
  148.8779  138.0202  152.6141 H   0  0  0  0  0  0  0  0  0  0  0  0
  148.9689  138.2469  155.3668 H   0  0  0  0  0  0  0  0  0  0  0  0
  149.7834  140.8468  154.0292 H   0  0  0  0  0  0  0  0  0  0  0  0
  148.6340  140.6569  155.3392 H   0  0  0  0  0  0  0  0  0  0  0  0
  151.2123  141.3614  155.8593 H   0  0  0  0  0  0  0  0  0  0  0  0
  150.3923  140.2084  156.9245 H   0  0  0  0  0  0  0  0  0  0  0  0
  150.8741  137.1321  154.4043 H   0  0  0  0  0  0  0  0  0  0  0  0
  151.1650  138.4538  153.2612 H   0  0  0  0  0  0  0  0  0  0  0  0
  1  2  2  0  0  0  0
  2  3  1  0  0  0  0
  2 13  1  0  0  0  0
  3  4  1  0  0  0  0
  3 21  1  0  0  0  0
  3 22  1  0  0  0  0
  4 11  1  0  0  0  0
  4  5  1  0  0  0  0
  5  6  2  0  0  0  0
  6  7  1  0  0  0  0
  6 23  1  0  0  0  0
  7  8  1  0  0  0  0
  7  9  2  0  0  0  0
  9 10  1  0  0  0  0
  9 11  1  0  0  0  0
 11 12  2  0  0  0  0
 13 14  1  0  0  0  0
 13 24  1  0  0  0  0
 14 20  1  0  0  0  0
 14 15  1  0  0  0  0
 14 25  1  0  0  0  0
 15 16  1  0  0  0  0
 15 26  1  0  0  0  0
 15 27  1  0  0  0  0
 16 17  1  0  0  0  0
 16 28  1  0  0  0  0
 16 29  1  0  0  0  0
 17 18  2  0  0  0  0
 17 19  2  0  0  0  0
 17 20  1  0  0  0  0
 20 30  1  0  0  0  0
 20 31  1  0  0  0  0
M  END
> <s_m_source_file>
AV-unprocessed.smi

> <i_m_source_file_index>
2981

> <i_lp_mmshare_version>
43012

> <i_f3d_flags>
0

> <s_epik_input>
Tz1TMSg9TylbQ0gyXVtDSDJdW0NASF0oW0NIMl0xKVtOSF1DKD1PKVtDSDJdbjJuW2NIXWMoQ2wpYyhDbCljMj1P

> <s_epik_cmdline>
J2VwaWtfcHl0aG9uJywgJy1waCcsICc3LjAnLCAnLXRuJywgJzgnLCAnLW1hJywgJzIwMCcsICctbWV0YWxfYmluZGluZycsICctaW1hZScsICc8aW5maWxlLm1hZT4nLCAnLW9tYWUnLCAnPG91dGZpbGUubWFlPic=

> <r_lp_tautomer_probability>
1

> <r_epik_Ionization_Penalty>
1.07216e-07

> <r_epik_Ionization_Penalty_Charging>
2.33395e-11

> <r_epik_Ionization_Penalty_Neutral>
1.07193e-07

> <r_epik_State_Penalty>
-0

> <r_epik_Charging_Adjusted_Penalty>
2.33395e-11

> <i_epik_Tot_Q>
0

> <i_epik_Tot_abs_Q>
0

> <r_epik_Metal_State_Penalty>
-0

> <b_epik_Metal_Only>
0

> <s_lp_Force_Field>
OPLS_2005

> <r_lp_Energy>
19.0616

> <b_lp_Chiralities_Consistent>
1

> <s_lp_Variant>
AV-unprocessed.smi:2981-1

> <Gold.Version>
5.8.1

> <Gold.Id.Protein>
6NUR|6NUR_protein|mol2

> <Gold.PLP.Fitness>
43.2275

> <Gold.PLP.PLP>
-35.1955

> <Gold.PLP.part.hbond>
-4.0000

> <Gold.PLP.part.metal>
0.0000

> <Gold.PLP.part.buried>
-3.9464

> <Gold.PLP.part.nonpolar>
-31.0735

> <Gold.PLP.part.repulsive>
2.6418

> <Gold.PLP.ligand.clash>
0.0000

> <Gold.PLP.ligand.torsion>
0.6048

> <Gold.PLP.Chemscore.Hbond>
2.0801

> <Gold.PLP.Chemscore.CHOScore>
1.0000

> <Gold.PLP.Chemscore.Metal>
0.0000

> <Gold.Chemscore.Hbonds>
donor molecule, donor type, donor heavy atom, donor atom, acceptor molecule, acceptor atom, score
      L1  H    13    24       P1  7948  0.99
      P1  H  7989  7998       L1    18  0.12
      P1  H  7997  8008       L1    18  1.00
      L1  C     6    23       P1  7921  1.00

> <Gold.PLP.Chemscore.Internal.Correction>
0.0014

> <Gold.Rescore>
     Score         DG    S(hbond)    S(metal)    S(lipo)     H(rot)  DE(clash)    DE(int)     intcor
      9.17     -14.35       1.98        0.00      56.51       1.70       0.39       4.79       ----

> <Gold.Chemscore.Fitness>
9.1686

> <Gold.Chemscore.DG>
-14.3486

> <Gold.Chemscore.ZeroCoef>
-5.4800

> <Gold.Chemscore.Hbond>
1.9826

> <Gold.Chemscore.Metal>
0.0000

> <Gold.Chemscore.Lipo>
56.5072

> <Gold.Chemscore.Internal_Hbond>
0.0000

> <Gold.Chemscore.DEClash>
0.3938

> <Gold.Chemscore.DEInternal>
4.7861

> <Gold.Chemscore.Rot>
1.7049

> <Gold.Chemscore.Internal.Correction>
   9.000000E+99

> <Gold.Chemscore.Hbonds>
donor molecule, donor type, donor heavy atom, donor atom, acceptor molecule, acceptor atom, score
      L1  H    13    24       P1  7948  0.94
      P1  H  7954  7966       L1     5  0.02
      P1  H  7989  7998       L1    18  0.01
      P1  H  7997  8008       L1    18  0.93

> <Gold.Chemscore.Hbond.Weighted>
-6.6219

> <Gold.Chemscore.Metal.Weighted>
-0.0000

> <Gold.Chemscore.Lipo.Weighted>
-6.6113

> <Gold.Chemscore.Internal_Hbond.Weighted>
0.0000

> <Gold.Chemscore.DEClash.Weighted>
0.3938

> <Gold.Chemscore.DEInternal.Weighted>
4.7861

> <Gold.Chemscore.Rot.Weighted>
4.3646

> <Gold.Chemscore.Internal.Correction.Weighted>
   9.000000E+99

> <Gold.Protein.RotatedTorsions>
[ 6907 6896 6895 6894 ] final   -4.76 input  -60.11 | X-H torsion
[ 7974 7965 7964 7962 ] final  -93.84 input  175.53 | X-H torsion
[ 8008 7997 7996 7995 ] final  -10.01 input   59.86 | X-H torsion
[ 10167 10162 10161 10158 ] final  112.65 input  -65.29 | X-H torsion
[ 10718 10713 10712 10709 ] final -167.01 input   66.30 | X-H torsion
[ 10763 10752 10751 10750 ] final   54.14 input  -60.55 | X-H torsion
[ 11005 11000 10999 10996 ] final   -5.64 input  -57.11 | X-H torsion

> <Gold.Protein.ActiveResidues>
 VAL166  LYS551  ARG553  GLY616  TRP617  ASP618  TYR619  PRO620  LYS621  CYS622 
 ASP623  PHE694  ASN695  SER759  ASP760  ASP761  ALA762  ILE779  LEU786  VAL792 
 PHE793  MET794  SER795  GLU796  ALA797  LYS798  CYS799  TRP800  GLU811  SER814 

> <Gold.Protein.RotatedAtoms>
  151.4925  135.1058  159.9806 H   0  0  0  0  0  0  0  0  0  0  0  0  # atno 6907 bound_to 6896
  152.4735  133.8080  159.6999 H   0  0  0  0  0  0  0  0  0  0  0  0  # atno 6908 bound_to 6896
  150.8759  133.7378  159.2973 H   0  0  0  0  0  0  0  0  0  0  0  0  # atno 6909 bound_to 6896
  145.3812  140.9518  143.2393 H   0  0  0  0  0  0  0  0  0  0  0  0  # atno 7974 bound_to 7965
  154.5594  140.2340  155.8359 H   0  0  0  0  0  0  0  0  0  0  0  0  # atno 8008 bound_to 7997
  156.2016  140.3051  155.9498 H   0  0  0  0  0  0  0  0  0  0  0  0  # atno 8009 bound_to 7997
  155.2918  140.0427  157.3014 H   0  0  0  0  0  0  0  0  0  0  0  0  # atno 8010 bound_to 7997
  139.6520  144.7128  151.2030 H   0  0  0  0  0  0  0  0  0  0  0  0  # atno 10167 bound_to 10162
  156.6761  130.9103  151.3050 H   0  0  0  0  0  0  0  0  0  0  0  0  # atno 10718 bound_to 10713
  152.9802  135.5755  154.4856 H   0  0  0  0  0  0  0  0  0  0  0  0  # atno 10763 bound_to 10752
  154.4398  135.2775  155.1857 H   0  0  0  0  0  0  0  0  0  0  0  0  # atno 10764 bound_to 10752
  154.3530  135.6205  153.5706 H   0  0  0  0  0  0  0  0  0  0  0  0  # atno 10765 bound_to 10752
  140.6933  133.9052  155.8633 H   0  0  0  0  0  0  0  0  0  0  0  0  # atno 11005 bound_to 11000
  144.8506  139.5327  143.6858 LP  0  0  0  0  0  0  0  0  0  0  0  0  # atno 17320 bound_to 7965
  146.2841  139.6956  142.9208 LP  0  0  0  0  0  0  0  0  0  0  0  0  # atno 17321 bound_to 7965
  140.7542  143.6135  150.8583 LP  0  0  0  0  0  0  0  0  0  0  0  0  # atno 17342 bound_to 10162
  139.9784  143.5979  152.2951 LP  0  0  0  0  0  0  0  0  0  0  0  0  # atno 17343 bound_to 10162
  157.7060  130.9386  150.0933 LP  0  0  0  0  0  0  0  0  0  0  0  0  # atno 17370 bound_to 10713
  156.1902  130.3654  149.8919 LP  0  0  0  0  0  0  0  0  0  0  0  0  # atno 17371 bound_to 10713
  141.0223  134.0871  157.4106 LP  0  0  0  0  0  0  0  0  0  0  0  0  # atno 17394 bound_to 11000
  139.8917  135.0120  156.6806 LP  0  0  0  0  0  0  0  0  0  0  0  0  # atno 17395 bound_to 11000

$$$$
