AV-unprocessed.smi:232|AV-procd|sdf|1773|dock7
  -GOLD-   2262020313D 1   1.00000     0.00000
 Structure written by MMmdl.
 52 55  0  0  0  0  0  0  0  0  1 V2000
  153.6587  137.9657  160.9023 C   0  0  0  0  0  0  0  0  0  0  0  0
  152.7384  138.7214  159.9360 C   0  0  0  0  0  0  0  0  0  0  0  0
  153.2670  140.1224  159.5655 C   0  0  2  0  0  0  0  0  0  0  0  0
  153.6898  140.9704  160.7734 C   0  0  0  0  0  0  0  0  0  0  0  0
  153.3920  142.4169  160.3597 C   0  0  0  0  0  0  0  0  0  0  0  0
  152.7815  142.3044  158.9568 C   0  0  2  0  0  0  0  0  0  0  0  0
  151.7106  143.3703  158.6683 C   0  0  0  0  0  0  0  0  0  0  0  0
  152.2717  140.9411  158.8820 N   0  0  0  0  0  0  0  0  0  0  0  0
  151.9111  140.5356  157.6417 C   0  0  0  0  0  0  0  0  0  0  0  0
  152.6744  139.6438  156.9552 N   0  0  0  0  0  0  0  0  0  0  0  0
  152.3043  139.2522  155.7318 C   0  0  0  0  0  0  0  0  0  0  0  0
  151.2325  139.6195  155.0252 N   0  0  0  0  0  0  0  0  0  0  0  0
  150.4697  140.5170  155.7137 C   0  0  0  0  0  0  0  0  0  0  0  0
  150.7364  141.0254  157.0149 C   0  0  0  0  0  0  0  0  0  0  0  0
  149.7447  141.9215  157.3924 N   0  0  0  0  0  0  0  0  0  0  0  0
  148.9339  141.9421  156.3694 C   0  0  0  0  0  0  0  0  0  0  0  0
  149.2918  141.1265  155.3197 N   0  0  0  0  0  0  0  0  0  0  0  0
  148.5716  140.9571  154.0704 C   0  0  0  0  0  0  0  0  0  0  0  0
  147.2600  140.1674  154.2480 C   0  0  1  0  0  0  0  0  0  0  0  0
  146.1634  141.0130  153.9573 O   0  0  0  0  0  0  0  0  0  0  0  0
  147.1944  138.9318  153.3309 C   0  0  2  0  0  0  0  0  0  0  0  0
  146.8611  139.2455  151.8710 C   0  0  0  0  0  0  0  0  0  0  0  0
  146.2835  137.9311  151.3999 C   0  0  0  0  0  0  0  0  0  0  0  0
  145.4878  137.4875  152.6228 C   0  0  0  0  0  0  0  0  0  0  0  0
  146.1518  138.0529  153.7506 O   0  0  0  0  0  0  0  0  0  0  0  0
  153.2641  136.9713  161.1124 H   0  0  0  0  0  0  0  0  0  0  0  0
  153.7561  138.4893  161.8534 H   0  0  0  0  0  0  0  0  0  0  0  0
  154.6570  137.8456  160.4805 H   0  0  0  0  0  0  0  0  0  0  0  0
  152.6265  138.1201  159.0330 H   0  0  0  0  0  0  0  0  0  0  0  0
  151.7411  138.8046  160.3700 H   0  0  0  0  0  0  0  0  0  0  0  0
  154.1341  140.0116  158.9119 H   0  0  0  0  0  0  0  0  0  0  0  0
  153.0981  140.7158  161.6538 H   0  0  0  0  0  0  0  0  0  0  0  0
  154.7398  140.8183  161.0251 H   0  0  0  0  0  0  0  0  0  0  0  0
  152.6847  142.8592  161.0627 H   0  0  0  0  0  0  0  0  0  0  0  0
  154.2876  143.0390  160.3557 H   0  0  0  0  0  0  0  0  0  0  0  0
  153.5857  142.4106  158.2265 H   0  0  0  0  0  0  0  0  0  0  0  0
  152.1217  144.3737  158.7794 H   0  0  0  0  0  0  0  0  0  0  0  0
  150.8655  143.2782  159.3515 H   0  0  0  0  0  0  0  0  0  0  0  0
  151.3270  143.2855  157.6512 H   0  0  0  0  0  0  0  0  0  0  0  0
  152.9607  138.5427  155.2498 H   0  0  0  0  0  0  0  0  0  0  0  0
  148.0458  142.5569  156.3512 H   0  0  0  0  0  0  0  0  0  0  0  0
  148.3725  141.9406  153.6428 H   0  0  0  0  0  0  0  0  0  0  0  0
  149.2307  140.4431  153.3699 H   0  0  0  0  0  0  0  0  0  0  0  0
  147.1705  139.8481  155.2872 H   0  0  0  0  0  0  0  0  0  0  0  0
  145.5375  140.5263  153.4427 H   0  0  0  0  0  0  0  0  0  0  0  0
  148.1333  138.3765  153.3732 H   0  0  0  0  0  0  0  0  0  0  0  0
  146.1043  140.0290  151.8071 H   0  0  0  0  0  0  0  0  0  0  0  0
  147.7304  139.5612  151.2936 H   0  0  0  0  0  0  0  0  0  0  0  0
  145.6714  138.0258  150.5028 H   0  0  0  0  0  0  0  0  0  0  0  0
  147.0866  137.2218  151.1948 H   0  0  0  0  0  0  0  0  0  0  0  0
  144.4742  137.8877  152.5841 H   0  0  0  0  0  0  0  0  0  0  0  0
  145.4210  136.4023  152.7026 H   0  0  0  0  0  0  0  0  0  0  0  0
  1  2  1  0  0  0  0
  1 26  1  0  0  0  0
  1 27  1  0  0  0  0
  1 28  1  0  0  0  0
  2  3  1  0  0  0  0
  2 29  1  0  0  0  0
  2 30  1  0  0  0  0
  3  8  1  0  0  0  0
  3  4  1  0  0  0  0
  3 31  1  0  0  0  0
  4  5  1  0  0  0  0
  4 32  1  0  0  0  0
  4 33  1  0  0  0  0
  5  6  1  0  0  0  0
  5 34  1  0  0  0  0
  5 35  1  0  0  0  0
  6  7  1  0  0  0  0
  6  8  1  0  0  0  0
  6 36  1  0  0  0  0
  7 37  1  0  0  0  0
  7 38  1  0  0  0  0
  7 39  1  0  0  0  0
  8  9  1  0  0  0  0
  9 14  1  0  0  0  0
  9 10  2  0  0  0  0
 10 11  1  0  0  0  0
 11 12  2  0  0  0  0
 11 40  1  0  0  0  0
 12 13  1  0  0  0  0
 13 17  1  0  0  0  0
 13 14  2  0  0  0  0
 14 15  1  0  0  0  0
 15 16  2  0  0  0  0
 16 17  1  0  0  0  0
 16 41  1  0  0  0  0
 17 18  1  0  0  0  0
 18 19  1  0  0  0  0
 18 42  1  0  0  0  0
 18 43  1  0  0  0  0
 19 20  1  0  0  0  0
 19 21  1  0  0  0  0
 19 44  1  0  0  0  0
 20 45  1  0  0  0  0
 21 25  1  0  0  0  0
 21 22  1  0  0  0  0
 21 46  1  0  0  0  0
 22 23  1  0  0  0  0
 22 47  1  0  0  0  0
 22 48  1  0  0  0  0
 23 24  1  0  0  0  0
 23 49  1  0  0  0  0
 23 50  1  0  0  0  0
 24 25  1  0  0  0  0
 24 51  1  0  0  0  0
 24 52  1  0  0  0  0
M  END
> <s_m_source_file>
AV-unprocessed.smi

> <i_m_source_file_index>
232

> <i_lp_mmshare_version>
43012

> <i_f3d_flags>
0

> <s_epik_input>
W0NIM11bQ0gyXVtDQEBIXTFbQ0gyXVtDSDJdW0NAQEhdKFtDSDNdKU4xYyhuW2NIXW4yKWMoYzIzKW5bY0hdbjNbQ0gyXVtDQEhdKFtPSF0pW0NAQEhdNFtDSDJdW0NIMl1bQ0gyXU80

> <s_epik_cmdline>
J2VwaWtfcHl0aG9uJywgJy1waCcsICc3LjAnLCAnLXRuJywgJzgnLCAnLW1hJywgJzIwMCcsICctbWV0YWxfYmluZGluZycsICctaW1hZScsICc8aW5maWxlLm1hZT4nLCAnLW9tYWUnLCAnPG91dGZpbGUubWFlPic=

> <r_lp_tautomer_probability>
1

> <r_epik_Ionization_Penalty>
0.00258048

> <r_epik_Ionization_Penalty_Charging>
0

> <r_epik_Ionization_Penalty_Neutral>
0.00258048

> <r_epik_State_Penalty>
0.00168551

> <r_epik_Charging_Adjusted_Penalty>
0.00168551

> <i_epik_Tot_Q>
0

> <i_epik_Tot_abs_Q>
0

> <r_epik_Metal_State_Penalty>
-0

> <b_epik_Metal_Only>
0

> <s_lp_Force_Field>
OPLS_2005

> <r_lp_Energy>
51.2688

> <b_lp_Chiralities_Consistent>
1

> <s_lp_Variant>
AV-unprocessed.smi:232-7

> <Gold.Version>
5.8.1

> <Gold.Id.Protein>
6NUR|6NUR_protein|mol2

> <Gold.PLP.Fitness>
52.4584

> <Gold.PLP.PLP>
-45.4335

> <Gold.PLP.part.hbond>
-3.0000

> <Gold.PLP.part.metal>
0.0000

> <Gold.PLP.part.buried>
2.2946

> <Gold.PLP.part.nonpolar>
-45.8402

> <Gold.PLP.part.repulsive>
0.3555

> <Gold.PLP.ligand.clash>
0.0000

> <Gold.PLP.ligand.torsion>
1.5176

> <Gold.PLP.Chemscore.Hbond>
2.9440

> <Gold.PLP.Chemscore.CHOScore>
0.3753

> <Gold.PLP.Chemscore.Metal>
0.0000

> <Gold.Chemscore.Hbonds>
donor molecule, donor type, donor heavy atom, donor atom, acceptor molecule, acceptor atom, score
      L1  H    20    45       P1 10175  0.83
      P1  H  7989  7998       L1    12  0.75
      P1  H  7997  8009       L1    10  0.80
      L1  C    16    41       P1  8028  0.48

> <Gold.PLP.Chemscore.Internal.Correction>
0.1021

> <Gold.Rescore>
     Score         DG    S(hbond)    S(metal)    S(lipo)     H(rot)  DE(clash)    DE(int)     intcor
     14.34     -16.80       1.42        0.00     109.36       2.43       0.90       1.56       ----

> <Gold.Chemscore.Fitness>
14.3432

> <Gold.Chemscore.DG>
-16.8011

> <Gold.Chemscore.ZeroCoef>
-5.4800

> <Gold.Chemscore.Hbond>
1.4182

> <Gold.Chemscore.Metal>
0.0000

> <Gold.Chemscore.Lipo>
109.3577

> <Gold.Chemscore.Internal_Hbond>
0.0000

> <Gold.Chemscore.DEClash>
0.9009

> <Gold.Chemscore.DEInternal>
1.5571

> <Gold.Chemscore.Rot>
2.4260

> <Gold.Chemscore.Internal.Correction>
   9.000000E+99

> <Gold.Chemscore.Hbonds>
donor molecule, donor type, donor heavy atom, donor atom, acceptor molecule, acceptor atom, score
      L1  H    20    45       P1 10175  0.74
      P1  H  7989  7998       L1    12  0.08
      P1  H  7997  8009       L1    10  0.11

> <Gold.Chemscore.Hbond.Weighted>
-4.7369

> <Gold.Chemscore.Metal.Weighted>
-0.0000

> <Gold.Chemscore.Lipo.Weighted>
-12.7949

> <Gold.Chemscore.Internal_Hbond.Weighted>
0.0000

> <Gold.Chemscore.DEClash.Weighted>
0.9009

> <Gold.Chemscore.DEInternal.Weighted>
1.5571

> <Gold.Chemscore.Rot.Weighted>
6.2107

> <Gold.Chemscore.Internal.Correction.Weighted>
   9.000000E+99

> <Gold.Protein.RotatedTorsions>
[ 6907 6896 6895 6894 ] final   13.32 input  -60.11 | X-H torsion
[ 7974 7965 7964 7962 ] final   97.85 input  175.53 | X-H torsion
[ 8008 7997 7996 7995 ] final -170.68 input   59.86 | X-H torsion
[ 10167 10162 10161 10158 ] final   25.29 input  -65.29 | X-H torsion
[ 10718 10713 10712 10709 ] final   85.09 input   66.30 | X-H torsion
[ 10763 10752 10751 10750 ] final -143.88 input  -60.55 | X-H torsion
[ 11005 11000 10999 10996 ] final   10.24 input  -57.11 | X-H torsion

> <Gold.Protein.ActiveResidues>
 VAL166  LYS551  ARG553  GLY616  TRP617  ASP618  TYR619  PRO620  LYS621  CYS622 
 ASP623  PHE694  ASN695  SER759  ASP760  ASP761  ALA762  ILE779  LEU786  VAL792 
 PHE793  MET794  SER795  GLU796  ALA797  LYS798  CYS799  TRP800  GLU811  SER814 

> <Gold.Protein.RotatedAtoms>
  151.7844  135.0753  160.0378 H   0  0  0  0  0  0  0  0  0  0  0  0  # atno 6907 bound_to 6896
  152.3201  133.5840  159.5747 H   0  0  0  0  0  0  0  0  0  0  0  0  # atno 6908 bound_to 6896
  150.7365  133.9940  159.3658 H   0  0  0  0  0  0  0  0  0  0  0  0  # atno 6909 bound_to 6896
  145.4201  139.2322  143.3201 H   0  0  0  0  0  0  0  0  0  0  0  0  # atno 7974 bound_to 7965
  155.9216  140.1075  157.1203 H   0  0  0  0  0  0  0  0  0  0  0  0  # atno 8008 bound_to 7997
  154.4055  140.1255  156.4751 H   0  0  0  0  0  0  0  0  0  0  0  0  # atno 8009 bound_to 7997
  155.7189  140.3470  155.5009 H   0  0  0  0  0  0  0  0  0  0  0  0  # atno 8010 bound_to 7997
  140.5118  144.0148  150.6376 H   0  0  0  0  0  0  0  0  0  0  0  0  # atno 10167 bound_to 10162
  157.6909  131.0160  150.2771 H   0  0  0  0  0  0  0  0  0  0  0  0  # atno 10718 bound_to 10713
  154.8451  135.3455  154.6258 H   0  0  0  0  0  0  0  0  0  0  0  0  # atno 10763 bound_to 10752
  153.6867  135.6977  153.5106 H   0  0  0  0  0  0  0  0  0  0  0  0  # atno 10764 bound_to 10752
  153.2626  135.4318  155.0865 H   0  0  0  0  0  0  0  0  0  0  0  0  # atno 10765 bound_to 10752
  140.5167  134.0599  155.7833 H   0  0  0  0  0  0  0  0  0  0  0  0  # atno 11005 bound_to 11000
  146.2661  140.4924  142.8833 LP  0  0  0  0  0  0  0  0  0  0  0  0  # atno 17320 bound_to 7965
  144.8251  140.6615  143.6327 LP  0  0  0  0  0  0  0  0  0  0  0  0  # atno 17321 bound_to 7965
  140.3472  143.2984  152.0525 LP  0  0  0  0  0  0  0  0  0  0  0  0  # atno 17342 bound_to 10162
  139.4898  144.6400  151.6897 LP  0  0  0  0  0  0  0  0  0  0  0  0  # atno 17343 bound_to 10162
  156.3324  130.3802  149.7479 LP  0  0  0  0  0  0  0  0  0  0  0  0  # atno 17370 bound_to 10713
  156.5015  130.8131  151.3134 LP  0  0  0  0  0  0  0  0  0  0  0  0  # atno 17371 bound_to 10713
  141.1356  133.9227  157.2441 LP  0  0  0  0  0  0  0  0  0  0  0  0  # atno 17394 bound_to 11000
  139.9628  135.0150  156.9307 LP  0  0  0  0  0  0  0  0  0  0  0  0  # atno 17395 bound_to 11000

$$$$
