#       Name:                AV-unprocessed.smi:37
#       Creating user name   scv26
#       Creation time:       Thu Mar 26 16:12:31 2020


#       File generated by GOLD software.
#

@<TRIPOS>MOLECULE
AV-unprocessed.smi:37
    54    55     1
SMALL
NO_CHARGES


@<TRIPOS>ATOM
      1 ****        -3.5149   3.5733   0.1048 C.3            1 S1                 0.0000
      2 ****        -4.0972   2.5412  -0.8705 C.3            1 S1                 0.0000
      3 ****        -3.6505   1.1189  -0.5403 C.2            1 S1                 0.0000
      4 ****        -4.4542   0.2635  -0.1687 O.2            1 S1                 0.0000
      5 ****        -2.3315   0.9377  -0.7110 O.3            1 S1                 0.0000
      6 ****        -1.7590  -0.3317  -0.4465 C.3            1 S1                 0.0000
      7 ****        -0.2427  -0.2549  -0.6646 C.3            1 S1                 0.0000
      8 ****         0.4021   0.4193   0.4100 O.3            1 S1                 0.0000
      9 ****         1.7299  -0.0074   0.5115 C.3            1 S1                 0.0000
     10 ****         2.6634   1.1427   0.2069 N.am           1 S1                 0.0000
     11 ****         2.2471   2.2725  -0.4877 C.2            1 S1                 0.0000
     12 ****         3.0742   3.3066  -0.7709 C.2            1 S1                 0.0000
     13 ****         2.6024   4.3657  -1.4503 F              1 S1                 0.0000
     14 ****         4.4720   3.2806  -0.3496 C.2            1 S1                 0.0000
     15 ****         5.2961   4.1688  -0.5586 O.2            1 S1                 0.0000
     16 ****         4.8454   2.1244   0.3422 N.am           1 S1                 0.0000
     17 ****         4.0043   1.0509   0.6390 C.2            1 S1                 0.0000
     18 ****         4.4396   0.0729   1.2455 O.2            1 S1                 0.0000
     19 ****         1.9093  -1.2043  -0.4491 C.3            1 S1                 0.0000
     20 ****         2.7429  -0.7100  -2.1988 Br             1 S1                 0.0000
     21 ****         0.4691  -1.6084  -0.7138 C.3            1 S1                 0.0000
     22 ****        -0.0201  -2.4532   0.3230 O.3            1 S1                 0.0000
     23 ****         0.1090  -3.7890   0.2313 C.2            1 S1                 0.0000
     24 ****         0.6648  -4.3993  -0.6818 O.2            1 S1                 0.0000
     25 ****        -0.5077  -4.5221   1.4203 C.3            1 S1                 0.0000
     26 ****        -2.0265  -4.3165   1.5043 C.3            1 S1                 0.0000
     27 ****         5.8049   2.0600   0.6494 H              1 S1                 0.0000
     28 ****        -3.8594   4.5761  -0.1476 H              1 S1                 0.0000
     29 ****        -2.4246   3.5828   0.0756 H              1 S1                 0.0000
     30 ****        -3.8237   3.3665   1.1302 H              1 S1                 0.0000
     31 ****        -5.1864   2.5840  -0.8489 H              1 S1                 0.0000
     32 ****        -3.7916   2.7773  -1.8901 H              1 S1                 0.0000
     33 ****        -1.9872  -0.6537   0.5705 H              1 S1                 0.0000
     34 ****        -2.1935  -1.0627  -1.1299 H              1 S1                 0.0000
     35 ****        -0.0311   0.2828  -1.5904 H              1 S1                 0.0000
     36 ****         1.9002  -0.2674   1.5582 H              1 S1                 0.0000
     37 ****         1.2267   2.3477  -0.8332 H              1 S1                 0.0000
     38 ****         2.5177  -1.9872   0.0051 H              1 S1                 0.0000
     39 ****         0.3430  -2.0870  -1.6861 H              1 S1                 0.0000
     40 ****        -0.2833  -5.5856   1.3335 H              1 S1                 0.0000
     41 ****        -0.0314  -4.1714   2.3361 H              1 S1                 0.0000
     42 ****        -2.4443  -4.8817   2.3375 H              1 S1                 0.0000
     43 ****        -2.5234  -4.6545   0.5942 H              1 S1                 0.0000
     44 ****        -2.2819  -3.2674   1.6577 H              1 S1                 0.0000
     45 ****        -5.4230   0.4937  -0.0775 LP             1 S1                 0.0000
     46 ****        -4.1381  -0.6616   0.0420 LP             1 S1                 0.0000
     47 ****        -0.0774   0.2168   1.2639 LP             1 S1                 0.0000
     48 ****         0.3825   1.4049   0.2424 LP             1 S1                 0.0000
     49 ****         5.0268   4.9940  -1.0550 LP             1 S1                 0.0000
     50 ****         6.2358   4.0659  -0.2321 LP             1 S1                 0.0000
     51 ****         3.8362  -0.6978   1.4503 LP             1 S1                 0.0000
     52 ****         5.3969   0.0486   1.5337 LP             1 S1                 0.0000
     53 ****         1.0710  -3.8964  -1.4447 LP             1 S1                 0.0000
     54 ****         0.7102  -5.3981  -0.6606 LP             1 S1                 0.0000
@<TRIPOS>BOND
    1    1    2 1     
    2    1   28 1     
    3    1   29 1     
    4    1   30 1     
    5    2    3 1     
    6    2   31 1     
    7    2   32 1     
    8    3    4 2     
    9    3    5 1     
   10    5    6 1     
   11    6    7 1     
   12    6   33 1     
   13    6   34 1     
   14    7   21 1     
   15    7    8 1     
   16    7   35 1     
   17    8    9 1     
   18    9   10 1     
   19    9   19 1     
   20    9   36 1     
   21   10   17 1     
   22   10   11 1     
   23   11   12 2     
   24   11   37 1     
   25   12   13 1     
   26   12   14 1     
   27   14   15 2     
   28   14   16 1     
   29   16   27 1     
   30   16   17 1     
   31   17   18 2     
   32   19   20 1     
   33   19   21 1     
   34   19   38 1     
   35   21   22 1     
   36   21   39 1     
   37   22   23 1     
   38   23   24 2     
   39   23   25 1     
   40   25   26 1     
   41   25   40 1     
   42   25   41 1     
   43   26   42 1     
   44   26   43 1     
   45   26   44 1     
   46    4   45 1     
   47    4   46 1     
   48    8   47 1     
   49    8   48 1     
   50   15   49 1     
   51   15   50 1     
   52   18   51 1     
   53   18   52 1     
   54   24   53 1     
   55   24   54 1     
@<TRIPOS>SUBSTRUCTURE
      1 S1             1
@<TRIPOS>SET
LONE_PAIRS      STATIC     ATOMS    <user>   **** ""
10 45 46 47 48 49 50 51 52 53 54
DONOR_HYDROGENS      STATIC     ATOMS    <user>   **** ""
1 27
ATOM$BLUE        STATIC     ATOMS    COLORGROUP SYSTEM
10 45 46 47 48 49 50 51 52 53 54
ATOM$RED        STATIC     ATOMS    COLORGROUP SYSTEM
1 27
