AV-unprocessed.smi:283|AV-procd|sdf|2127|dock7
  -GOLD-   2262021433D 1   1.00000     0.00000
 Structure written by MMmdl.
 48 51  0  0  0  0  0  0  0  0  1 V2000
  154.2287  139.9947  159.2138 C   0  0  0  0  0  0  0  0  0  0  0  0
  152.6916  140.0812  159.1882 C   0  0  2  0  0  0  0  0  0  0  0  0
  152.1334  139.2515  158.1207 N   0  0  0  0  0  0  0  0  0  0  0  0
  151.4060  138.1437  158.3862 C   0  0  0  0  0  0  0  0  0  0  0  0
  150.9763  137.8643  159.6440 N   0  0  0  0  0  0  0  0  0  0  0  0
  150.2558  136.7631  159.8743 C   0  0  0  0  0  0  0  0  0  0  0  0
  149.8608  135.8288  159.0073 N   0  0  0  0  0  0  0  0  0  0  0  0
  150.2851  136.1049  157.7401 C   0  0  0  0  0  0  0  0  0  0  0  0
  151.0547  137.2376  157.3524 C   0  0  0  0  0  0  0  0  0  0  0  0
  151.2990  137.1963  155.9862 N   0  0  0  0  0  0  0  0  0  0  0  0
  150.7069  136.1011  155.5933 C   0  0  0  0  0  0  0  0  0  0  0  0
  150.0712  135.3822  156.5814 N   0  0  0  0  0  0  0  0  0  0  0  0
  149.3182  134.0951  156.4188 C   0  0  1  0  0  0  0  0  0  0  0  0
  148.9573  133.9313  155.0781 O   0  0  0  0  0  0  0  0  0  0  0  0
  149.5347  132.7397  154.5446 C   0  0  2  0  0  0  0  0  0  0  0  0
  148.6039  132.1506  153.4745 C   0  0  0  0  0  0  0  0  0  0  0  0
  148.5598  133.0062  152.3529 O   0  0  0  0  0  0  0  0  0  0  0  0
  149.6871  131.8547  155.7828 C   0  0  1  0  0  0  0  0  0  0  0  0
  150.6079  130.7949  155.6080 O   0  0  0  0  0  0  0  0  0  0  0  0
  150.1283  132.8545  156.8418 C   0  0  1  0  0  0  0  0  0  0  0  0
  151.5328  133.0641  156.8420 O   0  0  0  0  0  0  0  0  0  0  0  0
  152.2551  141.5420  159.0870 C   0  0  0  0  0  0  0  0  0  0  0  0
  151.4648  141.9705  157.9939 C   0  0  0  0  0  0  0  0  0  0  0  0
  151.0630  143.3147  157.8808 C   0  0  0  0  0  0  0  0  0  0  0  0
  151.4522  144.2492  158.8569 C   0  0  0  0  0  0  0  0  0  0  0  0
  152.2476  143.8380  159.9418 C   0  0  0  0  0  0  0  0  0  0  0  0
  152.6539  142.4936  160.0604 C   0  0  0  0  0  0  0  0  0  0  0  0
  153.6463  142.0521  161.4062 Cl  0  0  0  0  0  0  0  0  0  0  0  0
  148.4119  134.2292  157.0108 H   0  0  0  0  0  0  0  0  0  0  0  0
  150.5208  132.9573  154.1307 H   0  0  0  0  0  0  0  0  0  0  0  0
  148.7159  131.4410  156.0587 H   0  0  0  0  0  0  0  0  0  0  0  0
  149.8271  132.5440  157.8428 H   0  0  0  0  0  0  0  0  0  0  0  0
  154.6383  140.5769  160.0397 H   0  0  0  0  0  0  0  0  0  0  0  0
  154.6612  140.3809  158.2904 H   0  0  0  0  0  0  0  0  0  0  0  0
  154.5774  138.9697  159.3379 H   0  0  0  0  0  0  0  0  0  0  0  0
  152.3042  139.6892  160.1278 H   0  0  0  0  0  0  0  0  0  0  0  0
  152.3996  139.5142  157.1829 H   0  0  0  0  0  0  0  0  0  0  0  0
  149.9522  136.6082  160.8991 H   0  0  0  0  0  0  0  0  0  0  0  0
  150.7169  135.7844  154.5605 H   0  0  0  0  0  0  0  0  0  0  0  0
  148.9827  131.1860  153.1357 H   0  0  0  0  0  0  0  0  0  0  0  0
  147.6001  131.9852  153.8672 H   0  0  0  0  0  0  0  0  0  0  0  0
  148.8907  132.5340  151.6039 H   0  0  0  0  0  0  0  0  0  0  0  0
  151.4542  131.1689  155.4129 H   0  0  0  0  0  0  0  0  0  0  0  0
  151.9399  132.3654  156.3529 H   0  0  0  0  0  0  0  0  0  0  0  0
  151.1634  141.2718  157.2276 H   0  0  0  0  0  0  0  0  0  0  0  0
  150.4578  143.6288  157.0432 H   0  0  0  0  0  0  0  0  0  0  0  0
  151.1461  145.2813  158.7710 H   0  0  0  0  0  0  0  0  0  0  0  0
  152.5506  144.5602  160.6858 H   0  0  0  0  0  0  0  0  0  0  0  0
  1  2  1  0  0  0  0
  1 33  1  0  0  0  0
  1 34  1  0  0  0  0
  1 35  1  0  0  0  0
  2  3  1  0  0  0  0
  2 22  1  0  0  0  0
  2 36  1  0  0  0  0
  3  4  1  0  0  0  0
  3 37  1  0  0  0  0
  4  9  1  0  0  0  0
  4  5  2  0  0  0  0
  5  6  1  0  0  0  0
  6  7  2  0  0  0  0
  6 38  1  0  0  0  0
  7  8  1  0  0  0  0
  8 12  1  0  0  0  0
  8  9  2  0  0  0  0
  9 10  1  0  0  0  0
 10 11  2  0  0  0  0
 11 12  1  0  0  0  0
 11 39  1  0  0  0  0
 12 13  1  0  0  0  0
 13 29  1  0  0  0  0
 13 20  1  0  0  0  0
 13 14  1  0  0  0  0
 14 15  1  0  0  0  0
 15 30  1  0  0  0  0
 15 16  1  0  0  0  0
 15 18  1  0  0  0  0
 16 17  1  0  0  0  0
 16 40  1  0  0  0  0
 16 41  1  0  0  0  0
 17 42  1  0  0  0  0
 18 31  1  0  0  0  0
 18 19  1  0  0  0  0
 18 20  1  0  0  0  0
 19 43  1  0  0  0  0
 20 32  1  0  0  0  0
 20 21  1  0  0  0  0
 21 44  1  0  0  0  0
 22 27  1  0  0  0  0
 22 23  2  0  0  0  0
 23 24  1  0  0  0  0
 23 45  1  0  0  0  0
 24 25  2  0  0  0  0
 24 46  1  0  0  0  0
 25 26  1  0  0  0  0
 25 47  1  0  0  0  0
 26 27  2  0  0  0  0
 26 48  1  0  0  0  0
 27 28  1  0  0  0  0
M  END
> <s_m_source_file>
AV-unprocessed.smi

> <i_m_source_file_index>
283

> <i_lp_mmshare_version>
43012

> <i_f3d_flags>
0

> <s_epik_input>
Q2xjMVtjSF1bY0hdW2NIXVtjSF1jMVtDQEhdKFtDSDNdKVtOSF1jKG5bY0hdbjIpYyhjMjMpbltjSF1uM1tDQEBIXTRPW0NASF0oW0NIMl1bT0hdKVtDQEBIXShbT0hdKVtDQEhdNFtPSF0=

> <s_epik_cmdline>
J2VwaWtfcHl0aG9uJywgJy1waCcsICc3LjAnLCAnLXRuJywgJzgnLCAnLW1hJywgJzIwMCcsICctbWV0YWxfYmluZGluZycsICctaW1hZScsICc8aW5maWxlLm1hZT4nLCAnLW9tYWUnLCAnPG91dGZpbGUubWFlPic=

> <r_lp_tautomer_probability>
1

> <r_epik_Ionization_Penalty>
0.000266407

> <r_epik_Ionization_Penalty_Charging>
0

> <r_epik_Ionization_Penalty_Neutral>
0.000266407

> <r_epik_State_Penalty>
-0

> <r_epik_Charging_Adjusted_Penalty>
0

> <i_epik_Tot_Q>
0

> <i_epik_Tot_abs_Q>
0

> <r_epik_Metal_State_Penalty>
-0

> <b_epik_Metal_Only>
0

> <s_epik_Chemistry_Notes>
This compound contains an acetal/aminal-like group ( X-CH(R)-Y where X, Y are N, S, or O) that may be acid/base labile, releasing an aldehyde.

> <s_lp_Force_Field>
OPLS_2005

> <r_lp_Energy>
51.5446

> <b_lp_Chiralities_Consistent>
1

> <s_lp_Variant>
AV-unprocessed.smi:283-3

> <Gold.Version>
5.8.1

> <Gold.Id.Protein>
6NUR|6NUR_protein|mol2

> <Gold.PLP.Fitness>
46.9926

> <Gold.PLP.PLP>
-41.7441

> <Gold.PLP.part.hbond>
-4.0000

> <Gold.PLP.part.metal>
0.0000

> <Gold.PLP.part.buried>
-2.4831

> <Gold.PLP.part.nonpolar>
-36.0441

> <Gold.PLP.part.repulsive>
0.1729

> <Gold.PLP.ligand.clash>
0.0000

> <Gold.PLP.ligand.torsion>
0.6382

> <Gold.PLP.Chemscore.Hbond>
2.1515

> <Gold.PLP.Chemscore.CHOScore>
0.0000

> <Gold.PLP.Chemscore.Metal>
0.0000

> <Gold.Chemscore.Hbonds>
donor molecule, donor type, donor heavy atom, donor atom, acceptor molecule, acceptor atom, score
      L1  H    17    42       P1 10747  0.78
      P1  H  6896  6907       L1     7  0.45
      P1  H  6896  6909       L1    21  0.03

> <Gold.PLP.Chemscore.Internal.Correction>
0.0703

> <Gold.Rescore>
     Score         DG    S(hbond)    S(metal)    S(lipo)     H(rot)  DE(clash)    DE(int)     intcor
     11.55     -13.21       1.66        0.00     108.29       4.10       0.46       1.20       ----

> <Gold.Chemscore.Fitness>
11.5485

> <Gold.Chemscore.DG>
-13.2073

> <Gold.Chemscore.ZeroCoef>
-5.4800

> <Gold.Chemscore.Hbond>
1.6603

> <Gold.Chemscore.Metal>
0.0000

> <Gold.Chemscore.Lipo>
108.2886

> <Gold.Chemscore.Internal_Hbond>
0.0000

> <Gold.Chemscore.DEClash>
0.4556

> <Gold.Chemscore.DEInternal>
1.2032

> <Gold.Chemscore.Rot>
4.0968

> <Gold.Chemscore.Internal.Correction>
   9.000000E+99

> <Gold.Chemscore.Hbonds>
donor molecule, donor type, donor heavy atom, donor atom, acceptor molecule, acceptor atom, score
      L1  H    17    42       P1 10747  0.72
      P1  H  6896  6907       L1     7  0.01

> <Gold.Chemscore.Hbond.Weighted>
-5.5455

> <Gold.Chemscore.Metal.Weighted>
-0.0000

> <Gold.Chemscore.Lipo.Weighted>
-12.6698

> <Gold.Chemscore.Internal_Hbond.Weighted>
0.0000

> <Gold.Chemscore.DEClash.Weighted>
0.4556

> <Gold.Chemscore.DEInternal.Weighted>
1.2032

> <Gold.Chemscore.Rot.Weighted>
10.4879

> <Gold.Chemscore.Internal.Correction.Weighted>
   9.000000E+99

> <Gold.Protein.RotatedTorsions>
[ 6907 6896 6895 6894 ] final  -51.58 input  -60.11 | X-H torsion
[ 7974 7965 7964 7962 ] final -100.74 input  175.53 | X-H torsion
[ 8008 7997 7996 7995 ] final   59.72 input   59.86 | X-H torsion
[ 10167 10162 10161 10158 ] final  169.43 input  -65.29 | X-H torsion
[ 10718 10713 10712 10709 ] final   32.36 input   66.30 | X-H torsion
[ 10763 10752 10751 10750 ] final   73.04 input  -60.55 | X-H torsion
[ 11005 11000 10999 10996 ] final  -19.80 input  -57.11 | X-H torsion

> <Gold.Protein.ActiveResidues>
 VAL166  LYS551  ARG553  GLY616  TRP617  ASP618  TYR619  PRO620  LYS621  CYS622 
 ASP623  PHE694  ASN695  SER759  ASP760  ASP761  ALA762  ILE779  LEU786  VAL792 
 PHE793  MET794  SER795  GLU796  ALA797  LYS798  CYS799  TRP800  GLU811  SER814 

> <Gold.Protein.RotatedAtoms>
  150.8598  134.7947  159.7073 H   0  0  0  0  0  0  0  0  0  0  0  0  # atno 6907 bound_to 6896
  152.4638  134.5118  159.9766 H   0  0  0  0  0  0  0  0  0  0  0  0  # atno 6908 bound_to 6896
  151.5224  133.3426  159.2939 H   0  0  0  0  0  0  0  0  0  0  0  0  # atno 6909 bound_to 6896
  145.2907  140.9352  143.2879 H   0  0  0  0  0  0  0  0  0  0  0  0  # atno 7974 bound_to 7965
  155.5708  140.3490  155.4515 H   0  0  0  0  0  0  0  0  0  0  0  0  # atno 8008 bound_to 7997
  156.0446  140.1303  157.0144 H   0  0  0  0  0  0  0  0  0  0  0  0  # atno 8009 bound_to 7997
  154.4407  140.1017  156.6272 H   0  0  0  0  0  0  0  0  0  0  0  0  # atno 8010 bound_to 7997
  139.4992  144.3707  151.9727 H   0  0  0  0  0  0  0  0  0  0  0  0  # atno 10167 bound_to 10162
  157.2842  130.7270  149.6574 H   0  0  0  0  0  0  0  0  0  0  0  0  # atno 10718 bound_to 10713
  153.0496  135.5078  154.7834 H   0  0  0  0  0  0  0  0  0  0  0  0  # atno 10763 bound_to 10752
  154.6706  135.2952  154.9749 H   0  0  0  0  0  0  0  0  0  0  0  0  # atno 10764 bound_to 10752
  154.0568  135.6696  153.4859 H   0  0  0  0  0  0  0  0  0  0  0  0  # atno 10765 bound_to 10752
  140.8402  133.7932  155.9853 H   0  0  0  0  0  0  0  0  0  0  0  0  # atno 11005 bound_to 11000
  144.9175  139.4452  143.6557 LP  0  0  0  0  0  0  0  0  0  0  0  0  # atno 17320 bound_to 7965
  146.3186  139.8018  142.8964 LP  0  0  0  0  0  0  0  0  0  0  0  0  # atno 17321 bound_to 7965
  140.3143  144.3501  150.6025 LP  0  0  0  0  0  0  0  0  0  0  0  0  # atno 17342 bound_to 10162
  140.5773  143.2175  151.7491 LP  0  0  0  0  0  0  0  0  0  0  0  0  # atno 17343 bound_to 10162
  155.9665  130.4329  150.4982 LP  0  0  0  0  0  0  0  0  0  0  0  0  # atno 17370 bound_to 10713
  157.2931  131.0630  151.2120 LP  0  0  0  0  0  0  0  0  0  0  0  0  # atno 17371 bound_to 10713
  140.8903  134.2503  157.5098 LP  0  0  0  0  0  0  0  0  0  0  0  0  # atno 17394 bound_to 11000
  139.8703  134.9658  156.4541 LP  0  0  0  0  0  0  0  0  0  0  0  0  # atno 17395 bound_to 11000

$$$$
