AV-unprocessed.smi:113|AV-procd|sdf|1096|dock6
  -GOLD-   2262018203D 1   1.00000     0.00000
 Structure written by MMmdl.
 52 55  0  0  0  0  0  0  0  0  1 V2000
  150.6838  136.9422  157.9645 C   0  0  0  0  0  0  0  0  0  0  0  0
  151.0726  138.3979  158.1182 C   0  0  0  0  0  0  0  0  0  0  0  0
  150.5183  139.3813  157.2799 C   0  0  0  0  0  0  0  0  0  0  0  0
  150.9076  140.7293  157.4533 C   0  0  0  0  0  0  0  0  0  0  0  0
  150.3328  141.8398  156.5672 C   0  0  0  0  0  0  0  0  0  0  0  0
  148.9699  141.6579  156.0880 N   0  0  0  0  0  0  0  0  0  0  0  0
  148.7929  141.1835  154.7651 C   0  0  0  0  0  0  0  0  0  0  0  0
  149.7545  140.9218  154.0392 O   0  0  0  0  0  0  0  0  0  0  0  0
  147.3995  141.0194  154.3439 C   0  0  0  0  0  0  0  0  0  0  0  0
  147.1302  140.5563  152.9209 C   0  0  0  0  0  0  0  0  0  0  0  0
  146.3980  141.2808  155.2176 C   0  0  0  0  0  0  0  0  0  0  0  0
  146.6016  141.7010  156.5210 N   0  0  0  0  0  0  0  0  0  0  0  0
  145.4361  141.9571  157.4491 C   0  0  1  0  0  0  0  0  0  0  0  0
  145.5565  141.1108  158.7176 C   0  0  0  0  0  0  0  0  0  0  0  0
  145.0531  142.0737  159.7723 C   0  0  1  0  0  0  0  0  0  0  0  0
  145.5767  141.7455  161.0429 O   0  0  0  0  0  0  0  0  0  0  0  0
  145.5726  143.4151  159.2463 C   0  0  2  0  0  0  0  0  0  0  0  0
  144.7948  144.6465  159.7356 C   0  0  0  0  0  0  0  0  0  0  0  0
  145.3677  145.8299  159.2220 O   0  0  0  0  0  0  0  0  0  0  0  0
  145.4393  143.3025  157.8307 O   0  0  0  0  0  0  0  0  0  0  0  0
  147.9133  141.9198  156.9894 C   0  0  0  0  0  0  0  0  0  0  0  0
  148.1213  142.3147  158.1392 O   0  0  0  0  0  0  0  0  0  0  0  0
  151.8490  141.0238  158.4763 C   0  0  0  0  0  0  0  0  0  0  0  0
  152.2891  142.3478  158.7180 C   0  0  0  0  0  0  0  0  0  0  0  0
  153.2235  142.6177  159.7337 C   0  0  0  0  0  0  0  0  0  0  0  0
  153.7282  141.5677  160.5181 C   0  0  0  0  0  0  0  0  0  0  0  0
  153.2954  140.2498  160.2852 C   0  0  0  0  0  0  0  0  0  0  0  0
  152.3575  139.9553  159.2724 C   0  0  0  0  0  0  0  0  0  0  0  0
  151.9686  138.6747  159.0854 N   0  0  0  0  0  0  0  0  0  0  0  0
  149.7329  136.8445  157.4395 H   0  0  0  0  0  0  0  0  0  0  0  0
  150.5815  136.4623  158.9385 H   0  0  0  0  0  0  0  0  0  0  0  0
  151.4453  136.4082  157.3958 H   0  0  0  0  0  0  0  0  0  0  0  0
  149.8078  139.0903  156.5208 H   0  0  0  0  0  0  0  0  0  0  0  0
  150.3700  142.7960  157.0915 H   0  0  0  0  0  0  0  0  0  0  0  0
  150.9660  141.9890  155.6914 H   0  0  0  0  0  0  0  0  0  0  0  0
  146.0627  140.5098  152.7036 H   0  0  0  0  0  0  0  0  0  0  0  0
  147.5479  139.5619  152.7591 H   0  0  0  0  0  0  0  0  0  0  0  0
  147.5857  141.2402  152.2036 H   0  0  0  0  0  0  0  0  0  0  0  0
  145.3838  141.1551  154.8701 H   0  0  0  0  0  0  0  0  0  0  0  0
  144.5178  141.7764  156.8890 H   0  0  0  0  0  0  0  0  0  0  0  0
  144.9737  140.1927  158.6390 H   0  0  0  0  0  0  0  0  0  0  0  0
  146.6038  140.8561  158.8909 H   0  0  0  0  0  0  0  0  0  0  0  0
  143.9623  142.0627  159.7984 H   0  0  0  0  0  0  0  0  0  0  0  0
  145.8703  142.5400  161.4624 H   0  0  0  0  0  0  0  0  0  0  0  0
  146.6353  143.5230  159.4708 H   0  0  0  0  0  0  0  0  0  0  0  0
  143.7612  144.5950  159.3927 H   0  0  0  0  0  0  0  0  0  0  0  0
  144.7710  144.6899  160.8249 H   0  0  0  0  0  0  0  0  0  0  0  0
  146.0541  145.5933  158.6166 H   0  0  0  0  0  0  0  0  0  0  0  0
  151.9214  143.1774  158.1338 H   0  0  0  0  0  0  0  0  0  0  0  0
  153.5525  143.6313  159.9101 H   0  0  0  0  0  0  0  0  0  0  0  0
  154.4465  141.7718  161.2984 H   0  0  0  0  0  0  0  0  0  0  0  0
  153.6904  139.4508  160.8955 H   0  0  0  0  0  0  0  0  0  0  0  0
  1  2  1  0  0  0  0
  1 30  1  0  0  0  0
  1 31  1  0  0  0  0
  1 32  1  0  0  0  0
  2 29  1  0  0  0  0
  2  3  2  0  0  0  0
  3  4  1  0  0  0  0
  3 33  1  0  0  0  0
  4  5  1  0  0  0  0
  4 23  2  0  0  0  0
  5  6  1  0  0  0  0
  5 34  1  0  0  0  0
  5 35  1  0  0  0  0
  6 21  1  0  0  0  0
  6  7  1  0  0  0  0
  7  8  2  0  0  0  0
  7  9  1  0  0  0  0
  9 10  1  0  0  0  0
  9 11  2  0  0  0  0
 10 36  1  0  0  0  0
 10 37  1  0  0  0  0
 10 38  1  0  0  0  0
 11 12  1  0  0  0  0
 11 39  1  0  0  0  0
 12 13  1  0  0  0  0
 12 21  1  0  0  0  0
 13 20  1  0  0  0  0
 13 14  1  0  0  0  0
 13 40  1  0  0  0  0
 14 15  1  0  0  0  0
 14 41  1  0  0  0  0
 14 42  1  0  0  0  0
 15 16  1  0  0  0  0
 15 17  1  0  0  0  0
 15 43  1  0  0  0  0
 16 44  1  0  0  0  0
 17 18  1  0  0  0  0
 17 20  1  0  0  0  0
 17 45  1  0  0  0  0
 18 19  1  0  0  0  0
 18 46  1  0  0  0  0
 18 47  1  0  0  0  0
 19 48  1  0  0  0  0
 21 22  2  0  0  0  0
 23 28  1  0  0  0  0
 23 24  1  0  0  0  0
 24 25  2  0  0  0  0
 24 49  1  0  0  0  0
 25 26  1  0  0  0  0
 25 50  1  0  0  0  0
 26 27  2  0  0  0  0
 26 51  1  0  0  0  0
 27 28  1  0  0  0  0
 27 52  1  0  0  0  0
 28 29  2  0  0  0  0
M  END
> <s_m_source_file>
AV-unprocessed.smi

> <i_m_source_file_index>
113

> <i_lp_mmshare_version>
43012

> <i_f3d_flags>
0

> <s_epik_input>
W2NIXTFbY0hdW2NIXVtjSF1jKGMxMiluYyhbQ0gzXSlbY0hdYzJbQ0gyXW4zYyg9TyljKFtDSDNdKVtjSF1uKGMzPU8pW0NAQEhdNFtDSDJdW0NAQEhdKFtPSF0pW0NASF0oTzQpW0NIMl1bT0hd

> <s_epik_cmdline>
J2VwaWtfcHl0aG9uJywgJy1waCcsICc3LjAnLCAnLXRuJywgJzgnLCAnLW1hJywgJzIwMCcsICctbWV0YWxfYmluZGluZycsICctaW1hZScsICc8aW5maWxlLm1hZT4nLCAnLW9tYWUnLCAnPG91dGZpbGUubWFlPic=

> <r_lp_tautomer_probability>
1

> <r_epik_Ionization_Penalty>
0.214728

> <r_epik_Ionization_Penalty_Charging>
3.04883e-08

> <r_epik_Ionization_Penalty_Neutral>
0.214728

> <r_epik_State_Penalty>
0.204913

> <r_epik_Charging_Adjusted_Penalty>
0.204913

> <i_epik_Tot_Q>
0

> <i_epik_Tot_abs_Q>
0

> <r_epik_Metal_State_Penalty>
0.000244761

> <b_epik_Metal_Only>
0

> <s_epik_Chemistry_Notes>
This compound contains an acetal/aminal-like group ( X-CH(R)-Y where X, Y are N, S, or O) that may be acid/base labile, releasing an aldehyde.

> <s_lp_Force_Field>
OPLS_2005

> <r_lp_Energy>
37.2315

> <b_lp_Chiralities_Consistent>
1

> <s_lp_Variant>
AV-unprocessed.smi:113-6

> <Gold.Version>
5.8.1

> <Gold.Id.Protein>
6NUR|6NUR_protein|mol2

> <Gold.PLP.Fitness>
48.0823

> <Gold.PLP.PLP>
-40.6865

> <Gold.PLP.part.hbond>
-3.6984

> <Gold.PLP.part.metal>
0.0000

> <Gold.PLP.part.buried>
-2.0089

> <Gold.PLP.part.nonpolar>
-35.4781

> <Gold.PLP.part.repulsive>
1.3510

> <Gold.PLP.ligand.clash>
0.0000

> <Gold.PLP.ligand.torsion>
0.6556

> <Gold.PLP.Chemscore.Hbond>
2.8964

> <Gold.PLP.Chemscore.CHOScore>
0.0000

> <Gold.PLP.Chemscore.Metal>
0.0000

> <Gold.Chemscore.Hbonds>
donor molecule, donor type, donor heavy atom, donor atom, acceptor molecule, acceptor atom, score
      L1  H    19    48       P1  8029  0.44
      P1  H  6934  6946       L1    16  0.91
      P1  H  7989  7998       L1     8  0.50
      P1  H  8011  8017       L1     8  0.37

> <Gold.PLP.Chemscore.Internal.Correction>
0.0177

> <Gold.Rescore>
     Score         DG    S(hbond)    S(metal)    S(lipo)     H(rot)  DE(clash)    DE(int)     intcor
     12.44     -17.04       2.10        0.00     103.39       2.95       0.29       4.32       ----

> <Gold.Chemscore.Fitness>
12.4366

> <Gold.Chemscore.DG>
-17.0413

> <Gold.Chemscore.ZeroCoef>
-5.4800

> <Gold.Chemscore.Hbond>
2.0985

> <Gold.Chemscore.Metal>
0.0000

> <Gold.Chemscore.Lipo>
103.3861

> <Gold.Chemscore.Internal_Hbond>
0.0000

> <Gold.Chemscore.DEClash>
0.2891

> <Gold.Chemscore.DEInternal>
4.3155

> <Gold.Chemscore.Rot>
2.9469

> <Gold.Chemscore.Internal.Correction>
   9.000000E+99

> <Gold.Chemscore.Hbonds>
donor molecule, donor type, donor heavy atom, donor atom, acceptor molecule, acceptor atom, score
      L1  H    19    48       P1  8029  0.43
      P1  H  6934  6946       L1    16  0.30
      P1  H  7989  7998       L1     8  0.50
      P1  H  8011  8017       L1     8  0.25

> <Gold.Chemscore.Hbond.Weighted>
-7.0091

> <Gold.Chemscore.Metal.Weighted>
-0.0000

> <Gold.Chemscore.Lipo.Weighted>
-12.0962

> <Gold.Chemscore.Internal_Hbond.Weighted>
0.0000

> <Gold.Chemscore.DEClash.Weighted>
0.2891

> <Gold.Chemscore.DEInternal.Weighted>
4.3155

> <Gold.Chemscore.Rot.Weighted>
7.5439

> <Gold.Chemscore.Internal.Correction.Weighted>
   9.000000E+99

> <Gold.Protein.RotatedTorsions>
[ 6907 6896 6895 6894 ] final  137.57 input  -60.11 | X-H torsion
[ 7974 7965 7964 7962 ] final -173.83 input  175.53 | X-H torsion
[ 8008 7997 7996 7995 ] final   98.90 input   59.86 | X-H torsion
[ 10167 10162 10161 10158 ] final -156.90 input  -65.29 | X-H torsion
[ 10718 10713 10712 10709 ] final   90.40 input   66.30 | X-H torsion
[ 10763 10752 10751 10750 ] final -117.00 input  -60.55 | X-H torsion
[ 11005 11000 10999 10996 ] final    7.50 input  -57.11 | X-H torsion

> <Gold.Protein.ActiveResidues>
 VAL166  LYS551  ARG553  GLY616  TRP617  ASP618  TYR619  PRO620  LYS621  CYS622 
 ASP623  PHE694  ASN695  SER759  ASP760  ASP761  ALA762  ILE779  LEU786  VAL792 
 PHE793  MET794  SER795  GLU796  ALA797  LYS798  CYS799  TRP800  GLU811  SER814 

> <Gold.Protein.RotatedAtoms>
  152.2766  133.5431  159.5471 H   0  0  0  0  0  0  0  0  0  0  0  0  # atno 6907 bound_to 6896
  150.7179  134.0623  159.3844 H   0  0  0  0  0  0  0  0  0  0  0  0  # atno 6908 bound_to 6896
  151.8535  135.0549  160.0512 H   0  0  0  0  0  0  0  0  0  0  0  0  # atno 6909 bound_to 6896
  144.7135  140.1563  143.6380 H   0  0  0  0  0  0  0  0  0  0  0  0  # atno 7974 bound_to 7965
  156.1051  140.3237  155.7995 H   0  0  0  0  0  0  0  0  0  0  0  0  # atno 8008 bound_to 7997
  155.4770  140.0551  157.2989 H   0  0  0  0  0  0  0  0  0  0  0  0  # atno 8009 bound_to 7997
  154.4722  140.2016  155.9980 H   0  0  0  0  0  0  0  0  0  0  0  0  # atno 8010 bound_to 7997
  139.6814  143.9575  152.2338 H   0  0  0  0  0  0  0  0  0  0  0  0  # atno 10167 bound_to 10162
  157.6959  131.0369  150.3571 H   0  0  0  0  0  0  0  0  0  0  0  0  # atno 10718 bound_to 10713
  154.8539  135.4325  154.1910 H   0  0  0  0  0  0  0  0  0  0  0  0  # atno 10763 bound_to 10752
  153.2979  135.6966  153.7237 H   0  0  0  0  0  0  0  0  0  0  0  0  # atno 10764 bound_to 10752
  153.6379  135.3473  155.3036 H   0  0  0  0  0  0  0  0  0  0  0  0  # atno 10765 bound_to 10752
  140.5476  134.0314  155.7925 H   0  0  0  0  0  0  0  0  0  0  0  0  # atno 11005 bound_to 11000
  145.9071  139.2465  143.1459 LP  0  0  0  0  0  0  0  0  0  0  0  0  # atno 17320 bound_to 7965
  145.9753  140.8727  143.0142 LP  0  0  0  0  0  0  0  0  0  0  0  0  # atno 17321 bound_to 7965
  139.9366  144.6708  150.8308 LP  0  0  0  0  0  0  0  0  0  0  0  0  # atno 17342 bound_to 10162
  140.7653  143.3272  151.2489 LP  0  0  0  0  0  0  0  0  0  0  0  0  # atno 17343 bound_to 10162
  156.4012  130.3916  149.6958 LP  0  0  0  0  0  0  0  0  0  0  0  0  # atno 17370 bound_to 10713
  156.4274  130.7798  151.2817 LP  0  0  0  0  0  0  0  0  0  0  0  0  # atno 17371 bound_to 10713
  141.1191  133.9492  157.2765 LP  0  0  0  0  0  0  0  0  0  0  0  0  # atno 17394 bound_to 11000
  139.9472  135.0182  156.8886 LP  0  0  0  0  0  0  0  0  0  0  0  0  # atno 17395 bound_to 11000

$$$$
