#       Name:                AV-unprocessed.smi:106
#       Creating user name   scv26
#       Creation time:       Thu Mar 26 18:01:01 2020


#       File generated by GOLD software.
#

@<TRIPOS>MOLECULE
AV-unprocessed.smi:106
    61    64     1
SMALL
NO_CHARGES


@<TRIPOS>ATOM
      1 ****        -0.4725   1.0597   0.8418 O.2            1 S1                 0.0000
      2 ****         0.1369   0.0779   0.4113 C.2            1 S1                 0.0000
      3 ****         1.5723   0.2650  -0.1276 C.3            1 S1                 0.0000
      4 ****         2.1329   1.6107   0.1323 N.am           1 S1                 0.0000
      5 ****         2.8156   1.8335   1.3537 C.2            1 S1                 0.0000
      6 ****         2.9406   0.9362   2.1886 O.2            1 S1                 0.0000
      7 ****         3.3447   3.1788   1.5426 C.2            1 S1                 0.0000
      8 ****         4.0322   3.4737   2.6590 F              1 S1                 0.0000
      9 ****         3.1586   4.1349   0.6098 C.2            1 S1                 0.0000
     10 ****         2.4578   3.9179  -0.5604 N.am           1 S1                 0.0000
     11 ****         2.3322   5.0496  -1.5573 C.3            1 S1                 0.0000
     12 ****         0.8810   5.4562  -1.8541 C.3            1 S1                 0.0000
     13 ****         0.9745   5.8287  -3.3179 C.3            1 S1                 0.0000
     14 ****         2.0052   4.8304  -3.8340 C.3            1 S1                 0.0000
     15 ****         2.9315   4.6695  -2.7626 O.3            1 S1                 0.0000
     16 ****         1.9453   2.6280  -0.8353 C.2            1 S1                 0.0000
     17 ****         1.3490   2.3904  -1.8864 O.2            1 S1                 0.0000
     18 ****        -0.4155  -1.1602   0.3952 N.am           1 S1                 0.0000
     19 ****         0.2574  -2.3446  -0.1594 C.3            1 S1                 0.0000
     20 ****        -0.7368  -3.4158  -0.6487 C.3            1 S1                 0.0000
     21 ****        -1.6916  -3.8322   0.3888 N.am           1 S1                 0.0000
     22 ****        -2.3408  -5.0191   0.2751 C.2            1 S1                 0.0000
     23 ****        -2.2619  -5.7096  -0.7429 O.2            1 S1                 0.0000
     24 ****        -3.1562  -5.5167   1.4117 C.2            1 S1                 0.0000
     25 ****        -2.9796  -5.4765   2.7741 C.2            1 S1                 0.0000
     26 ****        -4.0137  -6.1420   3.4957 C.2            1 S1                 0.0000
     27 ****        -4.9544  -6.7074   2.6772 C.2            1 S1                 0.0000
     28 ****        -4.5811  -6.4430   0.9965 S.3            1 S1                 0.0000
     29 ****        -1.9559  -2.8380   1.4405 C.3            1 S1                 0.0000
     30 ****        -1.7579  -1.3913   0.9491 C.3            1 S1                 0.0000
     31 ****         2.2198  -0.5010   0.3022 H              1 S1                 0.0000
     32 ****         1.5740   0.0504  -1.1968 H              1 S1                 0.0000
     33 ****         3.5749   5.1137   0.7986 H              1 S1                 0.0000
     34 ****         2.9069   5.8799  -1.1452 H              1 S1                 0.0000
     35 ****         0.1925   4.6241  -1.7136 H              1 S1                 0.0000
     36 ****         0.5676   6.2806  -1.2132 H              1 S1                 0.0000
     37 ****         0.0189   5.7639  -3.8389 H              1 S1                 0.0000
     38 ****         1.3545   6.8459  -3.4218 H              1 S1                 0.0000
     39 ****         1.5334   3.8723  -4.0530 H              1 S1                 0.0000
     40 ****         2.5027   5.1746  -4.7409 H              1 S1                 0.0000
     41 ****         0.8944  -2.0872  -1.0050 H              1 S1                 0.0000
     42 ****         0.9092  -2.7648   0.6078 H              1 S1                 0.0000
     43 ****        -1.2975  -3.0353  -1.5042 H              1 S1                 0.0000
     44 ****        -0.1625  -4.2716  -1.0081 H              1 S1                 0.0000
     45 ****        -2.1524  -4.9998   3.2781 H              1 S1                 0.0000
     46 ****        -4.0264  -6.1895   4.5746 H              1 S1                 0.0000
     47 ****        -5.8326  -7.2710   2.9555 H              1 S1                 0.0000
     48 ****        -2.9786  -2.9174   1.8106 H              1 S1                 0.0000
     49 ****        -1.2931  -3.0336   2.2841 H              1 S1                 0.0000
     50 ****        -1.9569  -0.7232   1.7888 H              1 S1                 0.0000
     51 ****        -2.4964  -1.1543   0.1819 H              1 S1                 0.0000
     52 ****        -0.0367   1.9597   0.8385 LP             1 S1                 0.0000
     53 ****        -1.4026   0.9558   1.1943 LP             1 S1                 0.0000
     54 ****         2.5566   0.0302   2.0103 LP             1 S1                 0.0000
     55 ****         3.4260   1.1138   3.0447 LP             1 S1                 0.0000
     56 ****         3.2111   3.7110  -2.7065 LP             1 S1                 0.0000
     57 ****         3.7344   5.2418  -2.9291 LP             1 S1                 0.0000
     58 ****         0.9924   1.4729  -2.0626 LP             1 S1                 0.0000
     59 ****         1.2213   3.1150  -2.5636 LP             1 S1                 0.0000
     60 ****        -1.7077  -5.3999  -1.5154 LP             1 S1                 0.0000
     61 ****        -2.7522  -6.5796  -0.7962 LP             1 S1                 0.0000
@<TRIPOS>BOND
    1    1    2 2     
    2    2    3 1     
    3    2   18 am    
    4    3    4 1     
    5    3   31 1     
    6    3   32 1     
    7    4   16 am    
    8    4    5 am    
    9    5    6 2     
   10    5    7 1     
   11    7    8 1     
   12    7    9 2     
   13    9   10 1     
   14    9   33 1     
   15   10   11 1     
   16   10   16 am    
   17   11   15 1     
   18   11   12 1     
   19   11   34 1     
   20   12   13 1     
   21   12   35 1     
   22   12   36 1     
   23   13   14 1     
   24   13   37 1     
   25   13   38 1     
   26   14   15 1     
   27   14   39 1     
   28   14   40 1     
   29   16   17 2     
   30   18   30 1     
   31   18   19 1     
   32   19   20 1     
   33   19   41 1     
   34   19   42 1     
   35   20   21 1     
   36   20   43 1     
   37   20   44 1     
   38   21   22 am    
   39   21   29 1     
   40   22   23 2     
   41   22   24 1     
   42   24   28 1     
   43   24   25 2     
   44   25   26 1     
   45   25   45 1     
   46   26   27 2     
   47   26   46 1     
   48   27   28 1     
   49   27   47 1     
   50   29   30 1     
   51   29   48 1     
   52   29   49 1     
   53   30   50 1     
   54   30   51 1     
   55    1   52 1     
   56    1   53 1     
   57    6   54 1     
   58    6   55 1     
   59   15   56 1     
   60   15   57 1     
   61   17   58 1     
   62   17   59 1     
   63   23   60 1     
   64   23   61 1     
@<TRIPOS>SUBSTRUCTURE
      1 S1             1
@<TRIPOS>SET
LONE_PAIRS      STATIC     ATOMS    <user>   **** ""
10 52 53 54 55 56 57 58 59 60 61
ATOM$BLUE        STATIC     ATOMS    COLORGROUP SYSTEM
10 52 53 54 55 56 57 58 59 60 61
