AV-unprocessed.smi:1831|AV-procd|sdf|7463|dock6
  -GOLD-   22720 9153D 1   1.00000     0.00000
 Structure written by MMmdl.
 40 41  0  0  0  0  0  0  0  0  3 V2000
  152.8517  142.8726  160.0706 C   0  0  0  0  0  0  0  0  0  0  0  0
  152.6801  141.6689  159.2090 C   0  0  0  0  0  0  0  0  0  0  0  0
  153.6220  140.7314  159.0797 N   0  0  0  0  0  0  0  0  0  0  0  0
  153.2296  139.7103  158.2266 N   0  0  0  0  0  0  0  0  0  0  0  0
  151.9957  139.8830  157.7327 C   0  0  0  0  0  0  0  0  0  0  0  0
  151.4284  139.0057  156.8884 N   0  5  0  0  0  0  0  0  0  0  0  0
  150.9719  139.4261  155.6882 C   0  0  0  0  0  0  0  0  0  0  0  0
  151.4642  140.3178  154.9917 O   0  0  0  0  0  0  0  0  0  0  0  0
  149.8930  138.7567  155.2539 N   0  0  0  0  0  0  0  0  0  0  0  0
  149.2039  138.9792  153.9856 C   0  0  0  0  0  0  0  0  0  0  0  0
  147.6870  139.2286  154.1606 C   0  0  1  0  0  0  0  0  0  0  0  0
  147.0914  139.9045  152.9241 C   0  0  0  0  0  0  0  0  0  0  0  0
  146.6285  138.7472  152.0238 C   0  0  0  0  0  0  0  0  0  0  0  0
  146.6849  137.5116  152.8443 N   0  3  2  0  0  0  0  0  0  0  0  0
  145.6020  136.5210  152.5916 C   0  0  0  0  0  0  0  0  0  0  0  0
  145.6133  136.0284  151.1318 C   0  0  0  0  0  0  0  0  0  0  0  0
  144.2208  137.1162  152.9224 C   0  0  0  0  0  0  0  0  0  0  0  0
  146.8358  137.9569  154.2441 C   0  0  0  0  0  0  0  0  0  0  0  0
  151.2181  141.3662  158.2858 S   0  0  0  0  0  0  0  0  0  0  0  0
  152.5114  142.6558  161.0831 H   0  0  0  0  0  0  0  0  0  0  0  0
  152.2697  143.7053  159.6754 H   0  0  0  0  0  0  0  0  0  0  0  0
  153.9007  143.1681  160.1074 H   0  0  0  0  0  0  0  0  0  0  0  0
  149.5232  138.0348  155.8554 H   0  0  0  0  0  0  0  0  0  0  0  0
  149.6592  139.8504  153.5139 H   0  0  0  0  0  0  0  0  0  0  0  0
  149.3828  138.1483  153.3012 H   0  0  0  0  0  0  0  0  0  0  0  0
  147.5352  139.8427  155.0493 H   0  0  0  0  0  0  0  0  0  0  0  0
  146.2273  140.5019  153.2184 H   0  0  0  0  0  0  0  0  0  0  0  0
  147.7918  140.5733  152.4221 H   0  0  0  0  0  0  0  0  0  0  0  0
  145.6200  138.9447  151.6579 H   0  0  0  0  0  0  0  0  0  0  0  0
  147.2821  138.6310  151.1587 H   0  0  0  0  0  0  0  0  0  0  0  0
  145.7692  135.6602  153.2408 H   0  0  0  0  0  0  0  0  0  0  0  0
  144.7772  135.3556  150.9393 H   0  0  0  0  0  0  0  0  0  0  0  0
  146.5217  135.4747  150.8943 H   0  0  0  0  0  0  0  0  0  0  0  0
  145.5353  136.8612  150.4314 H   0  0  0  0  0  0  0  0  0  0  0  0
  143.4266  136.3979  152.7172 H   0  0  0  0  0  0  0  0  0  0  0  0
  144.0219  138.0068  152.3253 H   0  0  0  0  0  0  0  0  0  0  0  0
  144.1335  137.3933  153.9727 H   0  0  0  0  0  0  0  0  0  0  0  0
  147.2573  137.1873  154.8880 H   0  0  0  0  0  0  0  0  0  0  0  0
  145.8528  138.2065  154.6472 H   0  0  0  0  0  0  0  0  0  0  0  0
  147.5585  137.0595  152.6125 H   0  0  0  0  0  0  0  0  0  0  0  0
  1  2  1  0  0  0  0
  1 20  1  0  0  0  0
  1 21  1  0  0  0  0
  1 22  1  0  0  0  0
  2 19  1  0  0  0  0
  2  3  2  0  0  0  0
  3  4  1  0  0  0  0
  4  5  2  0  0  0  0
  5  6  1  0  0  0  0
  5 19  1  0  0  0  0
  6  7  1  0  0  0  0
  7  8  2  0  0  0  0
  7  9  1  0  0  0  0
  9 10  1  0  0  0  0
  9 23  1  0  0  0  0
 10 11  1  0  0  0  0
 10 24  1  0  0  0  0
 10 25  1  0  0  0  0
 11 18  1  0  0  0  0
 11 12  1  0  0  0  0
 11 26  1  0  0  0  0
 12 13  1  0  0  0  0
 12 27  1  0  0  0  0
 12 28  1  0  0  0  0
 13 14  1  0  0  0  0
 13 29  1  0  0  0  0
 13 30  1  0  0  0  0
 14 15  1  0  0  0  0
 14 18  1  0  0  0  0
 14 40  1  0  0  0  0
 15 16  1  0  0  0  0
 15 17  1  0  0  0  0
 15 31  1  0  0  0  0
 16 32  1  0  0  0  0
 16 33  1  0  0  0  0
 16 34  1  0  0  0  0
 17 35  1  0  0  0  0
 17 36  1  0  0  0  0
 17 37  1  0  0  0  0
 18 38  1  0  0  0  0
 18 39  1  0  0  0  0
M  CHG  1   6  -1
M  CHG  1  14   1
M  END
> <s_m_source_file>
AV-unprocessed.smi

> <i_m_source_file_index>
1831

> <i_lp_mmshare_version>
43012

> <i_f3d_flags>
0

> <s_epik_input>
W0NIM11jMW5uYyhzMSlbTkhdQyg9TylbTkhdW0NIMl1bQ0BASF0yW0NIMl1bQ0gyXU4oW0NIMl0yKVtDSF0oW0NIM10pW0NIM10=

> <s_epik_cmdline>
J2VwaWtfcHl0aG9uJywgJy1waCcsICc3LjAnLCAnLXRuJywgJzgnLCAnLW1hJywgJzIwMCcsICctbWV0YWxfYmluZGluZycsICctaW1hZScsICc8aW5maWxlLm1hZT4nLCAnLW9tYWUnLCAnPG91dGZpbGUubWFlPic=

> <r_lp_tautomer_probability>
1

> <r_epik_Ionization_Penalty>
4.24531

> <r_epik_Ionization_Penalty_Charging>
4.11954

> <r_epik_Ionization_Penalty_Neutral>
0.125766

> <r_epik_State_Penalty>
4.11879

> <r_epik_Charging_Adjusted_Penalty>
8.23833

> <i_epik_Tot_Q>
0

> <i_epik_Tot_abs_Q>
2

> <r_epik_Metal_State_Penalty>
0.659341

> <b_epik_Metal_Only>
1

> <s_lp_Force_Field>
OPLS_2005

> <r_lp_Energy>
23.48

> <b_lp_Chiralities_Consistent>
1

> <s_lp_Variant>
AV-unprocessed.smi:1831-8

> <Gold.Version>
5.8.1

> <Gold.Id.Protein>
6NUR|6NUR_protein|mol2

> <Gold.PLP.Fitness>
41.2873

> <Gold.PLP.PLP>
-31.3163

> <Gold.PLP.part.hbond>
-3.4827

> <Gold.PLP.part.metal>
0.0000

> <Gold.PLP.part.buried>
-1.4252

> <Gold.PLP.part.nonpolar>
-26.8706

> <Gold.PLP.part.repulsive>
0.1197

> <Gold.PLP.ligand.clash>
0.0000

> <Gold.PLP.ligand.torsion>
0.9890

> <Gold.PLP.Chemscore.Hbond>
3.9500

> <Gold.PLP.Chemscore.CHOScore>
0.0000

> <Gold.PLP.Chemscore.Metal>
0.0000

> <Gold.Chemscore.Hbonds>
donor molecule, donor type, donor heavy atom, donor atom, acceptor molecule, acceptor atom, score
      L1  H    14    40       P1  7948  2.00
      P1  H  7989  7998       L1     8  1.00
      P1  H  7997  8010       L1     4  0.90

> <Gold.PLP.Chemscore.Internal.Correction>
0.0990

> <Gold.Rescore>
     Score         DG    S(hbond)    S(metal)    S(lipo)     H(rot)  DE(clash)    DE(int)     intcor
     15.88     -16.72       1.98        0.00      72.50       1.51       0.05       0.79       ----

> <Gold.Chemscore.Fitness>
15.8812

> <Gold.Chemscore.DG>
-16.7170

> <Gold.Chemscore.ZeroCoef>
-5.4800

> <Gold.Chemscore.Hbond>
1.9844

> <Gold.Chemscore.Metal>
0.0000

> <Gold.Chemscore.Lipo>
72.5017

> <Gold.Chemscore.Internal_Hbond>
0.0000

> <Gold.Chemscore.DEClash>
0.0489

> <Gold.Chemscore.DEInternal>
0.7869

> <Gold.Chemscore.Rot>
1.5131

> <Gold.Chemscore.Internal.Correction>
   9.000000E+99

> <Gold.Chemscore.Hbonds>
donor molecule, donor type, donor heavy atom, donor atom, acceptor molecule, acceptor atom, score
      L1  H    14    40       P1  7948  1.00
      P1  H  7989  7998       L1     8  0.93
      P1  H  7997  8010       L1     4  0.10

> <Gold.Chemscore.Hbond.Weighted>
-6.6278

> <Gold.Chemscore.Metal.Weighted>
-0.0000

> <Gold.Chemscore.Lipo.Weighted>
-8.4827

> <Gold.Chemscore.Internal_Hbond.Weighted>
0.0000

> <Gold.Chemscore.DEClash.Weighted>
0.0489

> <Gold.Chemscore.DEInternal.Weighted>
0.7869

> <Gold.Chemscore.Rot.Weighted>
3.8735

> <Gold.Chemscore.Internal.Correction.Weighted>
   9.000000E+99

> <Gold.Protein.RotatedTorsions>
[ 6907 6896 6895 6894 ] final -134.75 input  -60.11 | X-H torsion
[ 7974 7965 7964 7962 ] final  -78.60 input  175.53 | X-H torsion
[ 8008 7997 7996 7995 ] final   50.04 input   59.86 | X-H torsion
[ 10167 10162 10161 10158 ] final -173.33 input  -65.29 | X-H torsion
[ 10718 10713 10712 10709 ] final  179.16 input   66.30 | X-H torsion
[ 10763 10752 10751 10750 ] final  -68.22 input  -60.55 | X-H torsion
[ 11005 11000 10999 10996 ] final  -67.84 input  -57.11 | X-H torsion

> <Gold.Protein.ActiveResidues>
 VAL166  LYS551  ARG553  GLY616  TRP617  ASP618  TYR619  PRO620  LYS621  CYS622 
 ASP623  PHE694  ASN695  SER759  ASP760  ASP761  ALA762  ILE779  LEU786  VAL792 
 PHE793  MET794  SER795  GLU796  ALA797  LYS798  CYS799  TRP800  GLU811  SER814 

> <Gold.Protein.RotatedAtoms>
  150.9896  133.6163  159.2710 H   0  0  0  0  0  0  0  0  0  0  0  0  # atno 6907 bound_to 6896
  151.3388  135.0858  159.9374 H   0  0  0  0  0  0  0  0  0  0  0  0  # atno 6908 bound_to 6896
  152.5241  133.9511  159.7727 H   0  0  0  0  0  0  0  0  0  0  0  0  # atno 6909 bound_to 6896
  145.5843  140.9442  143.1327 H   0  0  0  0  0  0  0  0  0  0  0  0  # atno 7974 bound_to 7965
  155.4121  140.3443  155.4264 H   0  0  0  0  0  0  0  0  0  0  0  0  # atno 8008 bound_to 7997
  156.1442  140.1551  156.8904 H   0  0  0  0  0  0  0  0  0  0  0  0  # atno 8009 bound_to 7997
  154.4997  140.0818  156.7752 H   0  0  0  0  0  0  0  0  0  0  0  0  # atno 8010 bound_to 7997
  139.5694  144.1677  152.1362 H   0  0  0  0  0  0  0  0  0  0  0  0  # atno 10167 bound_to 10162
  156.8799  130.9812  151.3063 H   0  0  0  0  0  0  0  0  0  0  0  0  # atno 10718 bound_to 10713
  154.3859  135.6063  153.5816 H   0  0  0  0  0  0  0  0  0  0  0  0  # atno 10763 bound_to 10752
  152.9787  135.5872  154.4355 H   0  0  0  0  0  0  0  0  0  0  0  0  # atno 10764 bound_to 10752
  154.4131  135.2844  155.2002 H   0  0  0  0  0  0  0  0  0  0  0  0  # atno 10765 bound_to 10752
  141.1518  133.6727  156.6354 H   0  0  0  0  0  0  0  0  0  0  0  0  # atno 11005 bound_to 11000
  144.7380  139.7530  143.7322 LP  0  0  0  0  0  0  0  0  0  0  0  0  # atno 17320 bound_to 7965
  146.1694  139.4838  142.9937 LP  0  0  0  0  0  0  0  0  0  0  0  0  # atno 17321 bound_to 7965
  140.1207  144.5376  150.6865 LP  0  0  0  0  0  0  0  0  0  0  0  0  # atno 17342 bound_to 10162
  140.6979  143.2415  151.4950 LP  0  0  0  0  0  0  0  0  0  0  0  0  # atno 17343 bound_to 10162
  157.6146  130.8609  149.9008 LP  0  0  0  0  0  0  0  0  0  0  0  0  # atno 17370 bound_to 10713
  156.0683  130.3689  150.0831 LP  0  0  0  0  0  0  0  0  0  0  0  0  # atno 17371 bound_to 10713
  140.3434  134.7830  157.4414 LP  0  0  0  0  0  0  0  0  0  0  0  0  # atno 17394 bound_to 11000
  140.0919  134.5589  155.8436 LP  0  0  0  0  0  0  0  0  0  0  0  0  # atno 17395 bound_to 11000

$$$$
