AV-unprocessed.smi:1875|AV-procd|sdf|7617|dock8
  -GOLD-   22720 9343D 1   1.00000     0.00000
 Structure written by MMmdl.
 49 51  0  0  0  0  0  0  0  0  3 V2000
  153.4749  139.0474  154.6065 C   0  0  0  0  0  0  0  0  0  0  0  0
  152.0838  138.7154  155.1054 C   0  0  0  0  0  0  0  0  0  0  0  0
  151.9979  138.0128  156.2392 N   0  0  0  0  0  0  0  0  0  0  0  0
  150.7573  137.7197  156.6864 C   0  0  0  0  0  0  0  0  0  0  0  0
  149.6023  138.1333  155.9915 C   0  0  0  0  0  0  0  0  0  0  0  0
  149.8185  138.8722  154.8095 C   0  0  0  0  0  0  0  0  0  0  0  0
  148.6641  139.3611  153.9602 C   0  0  0  0  0  0  0  0  0  0  0  0
  147.8478  138.2204  153.5056 N   0  3  0  0  0  0  0  0  0  0  0  0
  146.6549  138.6013  152.7230 C   0  0  0  0  0  0  0  0  0  0  0  0
  145.7365  137.3910  152.4854 C   0  0  1  0  0  0  0  0  0  0  0  0
  144.4480  137.8565  152.1317 O   0  0  0  0  0  0  0  0  0  0  0  0
  146.2663  136.4638  151.3722 C   0  0  0  0  0  0  0  0  0  0  0  0
  145.3503  135.3552  151.0680 N   0  0  0  0  0  0  0  0  0  0  0  0
  144.1403  135.3624  150.4443 C   0  0  0  0  0  0  0  0  0  0  0  0
  143.6842  134.0797  150.4183 N   0  3  0  0  0  0  0  0  0  0  0  0
  144.6182  133.2401  151.0288 C   0  0  0  0  0  0  0  0  0  0  0  0
  144.6049  131.8673  151.2452 C   0  0  0  0  0  0  0  0  0  0  0  0
  145.7241  131.3069  151.9015 C   0  0  0  0  0  0  0  0  0  0  0  0
  145.7412  129.8090  152.1544 C   0  0  0  0  0  0  0  0  0  0  0  0
  146.8109  132.1204  152.3150 C   0  0  0  0  0  0  0  0  0  0  0  0
  148.0117  131.5064  153.0142 C   0  0  0  0  0  0  0  0  0  0  0  0
  146.8045  133.5154  152.0872 C   0  0  0  0  0  0  0  0  0  0  0  0
  145.6925  134.0512  151.4424 C   0  0  0  0  0  0  0  0  0  0  0  0
  151.0626  139.1584  154.3652 N   0  0  0  0  0  0  0  0  0  0  0  0
  154.2394  138.5090  155.1680 H   0  0  0  0  0  0  0  0  0  0  0  0
  153.6666  140.1158  154.7090 H   0  0  0  0  0  0  0  0  0  0  0  0
  153.5776  138.7792  153.5545 H   0  0  0  0  0  0  0  0  0  0  0  0
  150.6853  137.1506  157.6014 H   0  0  0  0  0  0  0  0  0  0  0  0
  148.6117  137.8953  156.3501 H   0  0  0  0  0  0  0  0  0  0  0  0
  148.0467  140.0516  154.5362 H   0  0  0  0  0  0  0  0  0  0  0  0
  149.0493  139.9097  153.0993 H   0  0  0  0  0  0  0  0  0  0  0  0
  148.4312  137.6221  152.9381 H   0  0  0  0  0  0  0  0  0  0  0  0
  146.1136  139.3999  153.2325 H   0  0  0  0  0  0  0  0  0  0  0  0
  146.9898  139.0032  151.7657 H   0  0  0  0  0  0  0  0  0  0  0  0
  145.6475  136.8220  153.4116 H   0  0  0  0  0  0  0  0  0  0  0  0
  144.3645  138.7578  152.4042 H   0  0  0  0  0  0  0  0  0  0  0  0
  146.4183  137.0254  150.4493 H   0  0  0  0  0  0  0  0  0  0  0  0
  147.2358  136.0427  151.6418 H   0  0  0  0  0  0  0  0  0  0  0  0
  143.6298  136.2283  150.0474 H   0  0  0  0  0  0  0  0  0  0  0  0
  143.7749  131.2539  150.9256 H   0  0  0  0  0  0  0  0  0  0  0  0
  146.5719  129.3413  151.6257 H   0  0  0  0  0  0  0  0  0  0  0  0
  144.8200  129.3357  151.8138 H   0  0  0  0  0  0  0  0  0  0  0  0
  145.8464  129.6001  153.2192 H   0  0  0  0  0  0  0  0  0  0  0  0
  148.7629  132.2598  153.2531 H   0  0  0  0  0  0  0  0  0  0  0  0
  148.4831  130.7568  152.3781 H   0  0  0  0  0  0  0  0  0  0  0  0
  147.7100  131.0300  153.9471 H   0  0  0  0  0  0  0  0  0  0  0  0
  147.6317  134.1341  152.4016 H   0  0  0  0  0  0  0  0  0  0  0  0
  147.5482  137.6991  154.3173 H   0  0  0  0  0  0  0  0  0  0  0  0
  142.7995  133.8001  150.0134 H   0  0  0  0  0  0  0  0  0  0  0  0
  1  2  1  0  0  0  0
  1 25  1  0  0  0  0
  1 26  1  0  0  0  0
  1 27  1  0  0  0  0
  2 24  1  0  0  0  0
  2  3  2  0  0  0  0
  3  4  1  0  0  0  0
  4  5  2  0  0  0  0
  4 28  1  0  0  0  0
  5  6  1  0  0  0  0
  5 29  1  0  0  0  0
  6  7  1  0  0  0  0
  6 24  2  0  0  0  0
  7  8  1  0  0  0  0
  7 30  1  0  0  0  0
  7 31  1  0  0  0  0
  8  9  1  0  0  0  0
  8 32  1  0  0  0  0
  8 48  1  0  0  0  0
  9 10  1  0  0  0  0
  9 33  1  0  0  0  0
  9 34  1  0  0  0  0
 10 11  1  0  0  0  0
 10 12  1  0  0  0  0
 10 35  1  0  0  0  0
 11 36  1  0  0  0  0
 12 13  1  0  0  0  0
 12 37  1  0  0  0  0
 12 38  1  0  0  0  0
 13 23  1  0  0  0  0
 13 14  1  0  0  0  0
 14 15  2  0  0  0  0
 14 39  1  0  0  0  0
 15 16  1  0  0  0  0
 15 49  1  0  0  0  0
 16 23  2  0  0  0  0
 16 17  1  0  0  0  0
 17 18  2  0  0  0  0
 17 40  1  0  0  0  0
 18 19  1  0  0  0  0
 18 20  1  0  0  0  0
 19 41  1  0  0  0  0
 19 42  1  0  0  0  0
 19 43  1  0  0  0  0
 20 21  1  0  0  0  0
 20 22  2  0  0  0  0
 21 44  1  0  0  0  0
 21 45  1  0  0  0  0
 21 46  1  0  0  0  0
 22 23  1  0  0  0  0
 22 47  1  0  0  0  0
M  CHG  1   8   1
M  CHG  1  15   1
M  END
> <s_m_source_file>
AV-unprocessed.smi

> <i_m_source_file_index>
1875

> <i_lp_mmshare_version>
43012

> <i_f3d_flags>
0

> <s_epik_input>
W0NIM11jMW5bY0hdW2NIXWMobjEpW0NIMl1bTkhdW0NIMl1bQ0BIXShbT0hdKVtDSDJdbihbY0hdbjIpYyhjMjMpW2NIXWMoW0NIM10pYyhbY0hdMylbQ0gzXQ==

> <s_epik_cmdline>
J2VwaWtfcHl0aG9uJywgJy1waCcsICc3LjAnLCAnLXRuJywgJzgnLCAnLW1hJywgJzIwMCcsICctbWV0YWxfYmluZGluZycsICctaW1hZScsICc8aW5maWxlLm1hZT4nLCAnLW9tYWUnLCAnPG91dGZpbGUubWFlPic=

> <r_lp_tautomer_probability>
1

> <r_epik_Ionization_Penalty>
1.27527

> <r_epik_Ionization_Penalty_Charging>
1.27526

> <r_epik_Ionization_Penalty_Neutral>
8.72389e-06

> <r_epik_State_Penalty>
1.28654

> <r_epik_Charging_Adjusted_Penalty>
2.5618

> <i_epik_Tot_Q>
2

> <i_epik_Tot_abs_Q>
2

> <r_epik_Metal_State_Penalty>
1.36882

> <b_epik_Metal_Only>
0

> <s_epik_Chemistry_Notes>
This compound contains an electron-poor aromatic ring that is susceptible to covalent hydrolysis at low pH, typically resulting in measured values for nitrogen ring protonation that are around two units higher than predicted values.

> <s_lp_Force_Field>
OPLS_2005

> <r_lp_Energy>
13.7453

> <b_lp_Chiralities_Consistent>
1

> <s_lp_Variant>
AV-unprocessed.smi:1875-6

> <Gold.Version>
5.8.1

> <Gold.Id.Protein>
6NUR|6NUR_protein|mol2

> <Gold.PLP.Fitness>
59.9009

> <Gold.PLP.PLP>
-39.8918

> <Gold.PLP.part.hbond>
-4.6688

> <Gold.PLP.part.metal>
0.0000

> <Gold.PLP.part.buried>
1.5493

> <Gold.PLP.part.nonpolar>
-37.3327

> <Gold.PLP.part.repulsive>
0.1930

> <Gold.PLP.ligand.clash>
0.0000

> <Gold.PLP.ligand.torsion>
0.3014

> <Gold.PLP.Chemscore.Hbond>
5.8560

> <Gold.PLP.Chemscore.CHOScore>
1.0000

> <Gold.PLP.Chemscore.Metal>
0.0000

> <Gold.Chemscore.Hbonds>
donor molecule, donor type, donor heavy atom, donor atom, acceptor molecule, acceptor atom, score
      L1  H     8    32       P1  7948  2.00
      L1  H    11    36       P1 10175  1.00
      L1  H    15    49       P1 10186  1.76
      P1  H  7989  7998       L1    24  1.00
      L1  C    14    39       P1 10171  1.00

> <Gold.PLP.Chemscore.Internal.Correction>
0.0437

> <Gold.Rescore>
     Score         DG    S(hbond)    S(metal)    S(lipo)     H(rot)  DE(clash)    DE(int)     intcor
     18.76     -21.60       3.52        0.00     100.30       2.88       1.69       1.16       ----

> <Gold.Chemscore.Fitness>
18.7556

> <Gold.Chemscore.DG>
-21.5997

> <Gold.Chemscore.ZeroCoef>
-5.4800

> <Gold.Chemscore.Hbond>
3.5229

> <Gold.Chemscore.Metal>
0.0000

> <Gold.Chemscore.Lipo>
100.3037

> <Gold.Chemscore.Internal_Hbond>
0.0000

> <Gold.Chemscore.DEClash>
1.6875

> <Gold.Chemscore.DEInternal>
1.1566

> <Gold.Chemscore.Rot>
2.8838

> <Gold.Chemscore.Internal.Correction>
   9.000000E+99

> <Gold.Chemscore.Hbonds>
donor molecule, donor type, donor heavy atom, donor atom, acceptor molecule, acceptor atom, score
      L1  H     8    32       P1  7948  1.00
      L1  H    11    36       P1 10175  0.99
      L1  H    15    49       P1 10186  0.86
      P1  H  7989  7998       L1    24  0.63

> <Gold.Chemscore.Hbond.Weighted>
-11.7665

> <Gold.Chemscore.Metal.Weighted>
-0.0000

> <Gold.Chemscore.Lipo.Weighted>
-11.7355

> <Gold.Chemscore.Internal_Hbond.Weighted>
0.0000

> <Gold.Chemscore.DEClash.Weighted>
1.6875

> <Gold.Chemscore.DEInternal.Weighted>
1.1566

> <Gold.Chemscore.Rot.Weighted>
7.3824

> <Gold.Chemscore.Internal.Correction.Weighted>
   9.000000E+99

> <Gold.Protein.RotatedTorsions>
[ 6907 6896 6895 6894 ] final  -45.52 input  -60.11 | X-H torsion
[ 7974 7965 7964 7962 ] final   70.36 input  175.53 | X-H torsion
[ 8008 7997 7996 7995 ] final   14.24 input   59.86 | X-H torsion
[ 10167 10162 10161 10158 ] final -168.17 input  -65.29 | X-H torsion
[ 10718 10713 10712 10709 ] final  -74.13 input   66.30 | X-H torsion
[ 10763 10752 10751 10750 ] final  128.88 input  -60.55 | X-H torsion
[ 11005 11000 10999 10996 ] final  -11.36 input  -57.11 | X-H torsion

> <Gold.Protein.ActiveResidues>
 VAL166  LYS551  ARG553  GLY616  TRP617  ASP618  TYR619  PRO620  LYS621  CYS622 
 ASP623  PHE694  ASN695  SER759  ASP760  ASP761  ALA762  ILE779  LEU786  VAL792 
 PHE793  MET794  SER795  GLU796  ALA797  LYS798  CYS799  TRP800  GLU811  SER814 

> <Gold.Protein.RotatedAtoms>
  150.9210  134.8628  159.7488 H   0  0  0  0  0  0  0  0  0  0  0  0  # atno 6907 bound_to 6896
  152.4992  134.4218  159.9493 H   0  0  0  0  0  0  0  0  0  0  0  0  # atno 6908 bound_to 6896
  151.4252  133.3647  159.2796 H   0  0  0  0  0  0  0  0  0  0  0  0  # atno 6909 bound_to 6896
  145.7791  139.2879  143.1276 H   0  0  0  0  0  0  0  0  0  0  0  0  # atno 7974 bound_to 7965
  154.8457  140.2921  155.5631 H   0  0  0  0  0  0  0  0  0  0  0  0  # atno 8008 bound_to 7997
  156.3014  140.2505  156.3338 H   0  0  0  0  0  0  0  0  0  0  0  0  # atno 8009 bound_to 7997
  154.9077  140.0389  157.1918 H   0  0  0  0  0  0  0  0  0  0  0  0  # atno 8010 bound_to 7997
  139.6002  144.1027  152.1734 H   0  0  0  0  0  0  0  0  0  0  0  0  # atno 10167 bound_to 10162
  156.0254  130.4410  150.2846 H   0  0  0  0  0  0  0  0  0  0  0  0  # atno 10718 bound_to 10713
  153.7327  135.3236  155.3289 H   0  0  0  0  0  0  0  0  0  0  0  0  # atno 10763 bound_to 10752
  154.8321  135.4526  154.1106 H   0  0  0  0  0  0  0  0  0  0  0  0  # atno 10764 bound_to 10752
  153.2258  135.6954  153.8028 H   0  0  0  0  0  0  0  0  0  0  0  0  # atno 10765 bound_to 10752
  140.7545  133.8565  155.9072 H   0  0  0  0  0  0  0  0  0  0  0  0  # atno 11005 bound_to 11000
  146.0092  140.8451  142.9979 LP  0  0  0  0  0  0  0  0  0  0  0  0  # atno 17320 bound_to 7965
  144.6799  140.2465  143.7337 LP  0  0  0  0  0  0  0  0  0  0  0  0  # atno 17321 bound_to 7965
  140.0621  144.5848  150.7255 LP  0  0  0  0  0  0  0  0  0  0  0  0  # atno 17342 bound_to 10162
  140.7243  143.2620  151.4172 LP  0  0  0  0  0  0  0  0  0  0  0  0  # atno 17343 bound_to 10162
  157.0949  131.0180  151.3107 LP  0  0  0  0  0  0  0  0  0  0  0  0  # atno 17370 bound_to 10713
  157.4825  130.7773  149.7428 LP  0  0  0  0  0  0  0  0  0  0  0  0  # atno 17371 bound_to 10713
  140.9720  134.1518  157.4568 LP  0  0  0  0  0  0  0  0  0  0  0  0  # atno 17394 bound_to 11000
  139.8781  134.9982  156.5886 LP  0  0  0  0  0  0  0  0  0  0  0  0  # atno 17395 bound_to 11000

$$$$
