#       Name:                AV-unprocessed.smi:2003
#       Creating user name   scv26
#       Creation time:       Fri Mar 27 10:35:17 2020


#       File generated by GOLD software.
#

@<TRIPOS>MOLECULE
AV-unprocessed.smi:2003
    49    50     1
SMALL
NO_CHARGES


@<TRIPOS>ATOM
      1 ****        -4.5483   4.3806   0.9352 C.3            1 S1                 0.0000
      2 ****        -3.8693   3.0480   1.0532 C.2            1 S1                 0.0000
      3 ****        -2.4710   2.7762   1.1031 C.2            1 S1                 0.0000
      4 ****        -2.4330   1.4127   1.2100 C.2            1 S1                 0.0000
      5 ****        -1.3532   0.5905   1.2893 N.am           1 S1                 0.0000
      6 ****        -0.0492   0.9164   1.3091 C.2            1 S1                 0.0000
      7 ****         0.4019   2.0612   1.2869 O.2            1 S1                 0.0000
      8 ****         0.7214  -0.1797   1.3542 N.am           1 S1                 0.0000
      9 ****         2.1835  -0.1893   1.3876 C.3            1 S1                 0.0000
     10 ****         2.8345  -0.2493  -0.0209 C.3            1 S1                 0.0000
     11 ****         2.8555   1.1602  -0.6519 C.3            1 S1                 0.0000
     12 ****         2.1905  -1.2717  -0.9086 N.4            1 S1                 1.0000
     13 ****         2.6624  -1.2461  -2.3203 C.3            1 S1                 0.0000
     14 ****         1.9371  -2.3056  -3.1676 C.3            1 S1                 0.0000
     15 ****         2.1211  -3.5911  -2.5942 O.3            1 S1                 0.0000
     16 ****         1.5724  -3.6602  -1.2869 C.3            1 S1                 0.0000
     17 ****         2.2933  -2.6565  -0.3725 C.3            1 S1                 0.0000
     18 ****        -3.7229   0.9309   1.2198 N.pl3          1 S1                 0.0000
     19 ****        -4.1952  -0.4368   1.3116 C.3            1 S1                 0.0000
     20 ****        -4.6079   1.9460   1.1210 N.2            1 S1                 0.0000
     21 ****        -3.8233   5.1949   0.9467 H              1 S1                 0.0000
     22 ****        -5.2418   4.5434   1.7607 H              1 S1                 0.0000
     23 ****        -5.1125   4.4521   0.0051 H              1 S1                 0.0000
     24 ****        -1.6526   3.4790   1.0641 H              1 S1                 0.0000
     25 ****        -1.5681  -0.3946   1.3337 H              1 S1                 0.0000
     26 ****         0.2618  -1.0780   1.3860 H              1 S1                 0.0000
     27 ****         2.5598   0.6664   1.9509 H              1 S1                 0.0000
     28 ****         2.4871  -1.0573   1.9725 H              1 S1                 0.0000
     29 ****         3.8768  -0.5423   0.1163 H              1 S1                 0.0000
     30 ****         3.2016   1.9067   0.0637 H              1 S1                 0.0000
     31 ****         1.8657   1.4649  -0.9925 H              1 S1                 0.0000
     32 ****         3.5365   1.2162  -1.5009 H              1 S1                 0.0000
     33 ****         2.4735  -0.2762  -2.7782 H              1 S1                 0.0000
     34 ****         3.7399  -1.4156  -2.3491 H              1 S1                 0.0000
     35 ****         0.8728  -2.0780  -3.2486 H              1 S1                 0.0000
     36 ****         2.3374  -2.3121  -4.1816 H              1 S1                 0.0000
     37 ****         0.4993  -3.4630  -1.3149 H              1 S1                 0.0000
     38 ****         1.6996  -4.6734  -0.9054 H              1 S1                 0.0000
     39 ****         3.3443  -2.9328  -0.2738 H              1 S1                 0.0000
     40 ****         1.8511  -2.7252   0.6202 H              1 S1                 0.0000
     41 ****        -3.7156  -0.9361   2.1540 H              1 S1                 0.0000
     42 ****        -3.9492  -0.9701   0.3932 H              1 S1                 0.0000
     43 ****        -5.2760  -0.4611   1.4582 H              1 S1                 0.0000
     44 ****         1.2072  -1.0427  -0.9366 H              1 S1                 0.0000
     45 ****        -0.2203   2.8432   1.2510 LP             1 S1                 0.0000
     46 ****         1.3907   2.2094   1.3047 LP             1 S1                 0.0000
     47 ****         3.1003  -3.7887  -2.5467 LP             1 S1                 0.0000
     48 ****         1.6713  -4.2722  -3.1720 LP             1 S1                 0.0000
     49 ****        -5.6057   1.8818   1.1027 LP             1 S1                 0.0000
@<TRIPOS>BOND
    1    1    2 1     
    2    1   21 1     
    3    1   22 1     
    4    1   23 1     
    5    2   20 2     
    6    2    3 1     
    7    3    4 2     
    8    3   24 1     
    9    4    5 1     
   10    4   18 1     
   11    5    6 am    
   12    5   25 1     
   13    6    7 2     
   14    6    8 am    
   15    8    9 1     
   16    8   26 1     
   17    9   10 1     
   18    9   27 1     
   19    9   28 1     
   20   10   11 1     
   21   10   12 1     
   22   10   29 1     
   23   11   30 1     
   24   11   31 1     
   25   11   32 1     
   26   12   17 1     
   27   12   13 1     
   28   12   44 1     
   29   13   14 1     
   30   13   33 1     
   31   13   34 1     
   32   14   15 1     
   33   14   35 1     
   34   14   36 1     
   35   15   16 1     
   36   16   17 1     
   37   16   37 1     
   38   16   38 1     
   39   17   39 1     
   40   17   40 1     
   41   18   19 1     
   42   18   20 1     
   43   19   41 1     
   44   19   42 1     
   45   19   43 1     
   46    7   45 1     
   47    7   46 1     
   48   15   47 1     
   49   15   48 1     
   50   20   49 1     
@<TRIPOS>SUBSTRUCTURE
      1 S1             1
@<TRIPOS>SET
LONE_PAIRS      STATIC     ATOMS    <user>   **** ""
5 45 46 47 48 49
DONOR_HYDROGENS      STATIC     ATOMS    <user>   **** ""
3 25 26 44
ATOM$BLUE        STATIC     ATOMS    COLORGROUP SYSTEM
5 45 46 47 48 49
ATOM$RED        STATIC     ATOMS    COLORGROUP SYSTEM
3 25 26 44
