AV-unprocessed.smi:3102|AV-procd|sdf|11812|dock4
  -GOLD-   2272017183D 1   1.00000     0.00000
 Structure written by MMmdl.
 31 32  0  0  0  0  0  0  0  0  1 V2000
  152.7275  138.3013  154.7608 C   0  0  0  0  0  0  0  0  0  0  0  0
  151.9291  139.4798  154.7553 O   0  0  0  0  0  0  0  0  0  0  0  0
  151.8283  140.2076  155.9232 C   0  0  0  0  0  0  0  0  0  0  0  0
  150.9998  141.3454  155.9397 C   0  0  0  0  0  0  0  0  0  0  0  0
  150.8961  142.0922  157.1279 C   0  0  0  0  0  0  0  0  0  0  0  0
  151.6251  141.6835  158.2697 C   0  0  0  0  0  0  0  0  0  0  0  0
  151.5754  142.3765  159.4910 N   0  0  0  0  0  0  0  0  0  0  0  0
  152.0202  143.7599  159.6028 C   0  0  2  0  0  0  0  0  0  0  0  0
  151.6985  144.3970  160.9409 C   0  0  0  0  0  0  0  0  0  0  0  0
  151.7791  145.8819  160.6011 C   0  0  0  0  0  0  0  0  0  0  0  0
  151.3791  145.9914  159.2372 O   0  0  0  0  0  0  0  0  0  0  0  0
  151.2762  144.6960  158.6527 C   0  0  0  0  0  0  0  0  0  0  0  0
  152.4268  140.5213  158.1510 C   0  0  0  0  0  0  0  0  0  0  0  0
  153.2444  139.9994  159.3201 C   0  0  0  0  0  0  0  0  0  0  0  0
  152.5281  139.8032  157.0107 N   0  0  0  0  0  0  0  0  0  0  0  0
  152.7061  137.8466  153.7704 H   0  0  0  0  0  0  0  0  0  0  0  0
  152.3480  137.5652  155.4708 H   0  0  0  0  0  0  0  0  0  0  0  0
  153.7681  138.5257  154.9992 H   0  0  0  0  0  0  0  0  0  0  0  0
  150.4530  141.6408  155.0566 H   0  0  0  0  0  0  0  0  0  0  0  0
  150.2586  142.9630  157.1418 H   0  0  0  0  0  0  0  0  0  0  0  0
  151.4940  141.8416  160.3440 H   0  0  0  0  0  0  0  0  0  0  0  0
  153.0885  143.8355  159.3971 H   0  0  0  0  0  0  0  0  0  0  0  0
  150.6841  144.1425  161.2529 H   0  0  0  0  0  0  0  0  0  0  0  0
  152.3831  144.1077  161.7384 H   0  0  0  0  0  0  0  0  0  0  0  0
  151.1514  146.4916  161.2513 H   0  0  0  0  0  0  0  0  0  0  0  0
  152.8061  146.2376  160.6905 H   0  0  0  0  0  0  0  0  0  0  0  0
  151.6839  144.6784  157.6416 H   0  0  0  0  0  0  0  0  0  0  0  0
  150.2185  144.4336  158.5958 H   0  0  0  0  0  0  0  0  0  0  0  0
  153.9627  140.7519  159.6467 H   0  0  0  0  0  0  0  0  0  0  0  0
  153.7988  139.0990  159.0521 H   0  0  0  0  0  0  0  0  0  0  0  0
  152.5932  139.7553  160.1599 H   0  0  0  0  0  0  0  0  0  0  0  0
  1  2  1  0  0  0  0
  1 16  1  0  0  0  0
  1 17  1  0  0  0  0
  1 18  1  0  0  0  0
  2  3  1  0  0  0  0
  3 15  1  0  0  0  0
  3  4  2  0  0  0  0
  4  5  1  0  0  0  0
  4 19  1  0  0  0  0
  5  6  2  0  0  0  0
  5 20  1  0  0  0  0
  6  7  1  0  0  0  0
  6 13  1  0  0  0  0
  7  8  1  0  0  0  0
  7 21  1  0  0  0  0
  8 12  1  0  0  0  0
  8  9  1  0  0  0  0
  8 22  1  0  0  0  0
  9 10  1  0  0  0  0
  9 23  1  0  0  0  0
  9 24  1  0  0  0  0
 10 11  1  0  0  0  0
 10 25  1  0  0  0  0
 10 26  1  0  0  0  0
 11 12  1  0  0  0  0
 12 27  1  0  0  0  0
 12 28  1  0  0  0  0
 13 14  1  0  0  0  0
 13 15  2  0  0  0  0
 14 29  1  0  0  0  0
 14 30  1  0  0  0  0
 14 31  1  0  0  0  0
M  END
> <s_m_source_file>
AV-unprocessed.smi

> <i_m_source_file_index>
3102

> <i_lp_mmshare_version>
43012

> <i_f3d_flags>
0

> <s_epik_input>
W0NIM11PYzFbY0hdW2NIXWMoYyhuMSlbQ0gzXSlbTkhdW0NAQEhdMltDSDJdW0NIMl1PW0NIMl0y

> <s_epik_cmdline>
J2VwaWtfcHl0aG9uJywgJy1waCcsICc3LjAnLCAnLXRuJywgJzgnLCAnLW1hJywgJzIwMCcsICctbWV0YWxfYmluZGluZycsICctaW1hZScsICc8aW5maWxlLm1hZT4nLCAnLW9tYWUnLCAnPG91dGZpbGUubWFlPic=

> <r_lp_tautomer_probability>
1

> <r_epik_Ionization_Penalty>
0.00117248

> <r_epik_Ionization_Penalty_Charging>
0

> <r_epik_Ionization_Penalty_Neutral>
0.00117248

> <r_epik_State_Penalty>
0.000742146

> <r_epik_Charging_Adjusted_Penalty>
0.000742146

> <i_epik_Tot_Q>
0

> <i_epik_Tot_abs_Q>
0

> <r_epik_Metal_State_Penalty>
-0

> <b_epik_Metal_Only>
0

> <s_lp_Force_Field>
OPLS_2005

> <r_lp_Energy>
20.6196

> <b_lp_Chiralities_Consistent>
1

> <s_lp_Variant>
AV-unprocessed.smi:3102-1

> <Gold.Version>
5.8.1

> <Gold.Id.Protein>
6NUR|6NUR_protein|mol2

> <Gold.PLP.Fitness>
38.6024

> <Gold.PLP.PLP>
-34.2879

> <Gold.PLP.part.hbond>
-3.3447

> <Gold.PLP.part.metal>
0.0000

> <Gold.PLP.part.buried>
-1.1879

> <Gold.PLP.part.nonpolar>
-28.2419

> <Gold.PLP.part.repulsive>
0.3328

> <Gold.PLP.ligand.clash>
0.0000

> <Gold.PLP.ligand.torsion>
0.6281

> <Gold.PLP.Chemscore.Hbond>
1.8500

> <Gold.PLP.Chemscore.CHOScore>
0.0000

> <Gold.PLP.Chemscore.Metal>
0.0000

> <Gold.Chemscore.Hbonds>
donor molecule, donor type, donor heavy atom, donor atom, acceptor molecule, acceptor atom, score
      P1  H  7989  7998       L1     2  0.96
      P1  H  7997  8009       L1    15  1.00

> <Gold.PLP.Chemscore.Internal.Correction>
0.0206

> <Gold.Rescore>
     Score         DG    S(hbond)    S(metal)    S(lipo)     H(rot)  DE(clash)    DE(int)     intcor
     14.01     -17.28       1.14        0.00      94.11       1.18       2.71       0.55       ----

> <Gold.Chemscore.Fitness>
14.0146

> <Gold.Chemscore.DG>
-17.2759

> <Gold.Chemscore.ZeroCoef>
-5.4800

> <Gold.Chemscore.Hbond>
1.1430

> <Gold.Chemscore.Metal>
0.0000

> <Gold.Chemscore.Lipo>
94.1121

> <Gold.Chemscore.Internal_Hbond>
0.0000

> <Gold.Chemscore.DEClash>
2.7083

> <Gold.Chemscore.DEInternal>
0.5530

> <Gold.Chemscore.Rot>
1.1847

> <Gold.Chemscore.Internal.Correction>
   9.000000E+99

> <Gold.Chemscore.Hbonds>
donor molecule, donor type, donor heavy atom, donor atom, acceptor molecule, acceptor atom, score
      P1  H  7989  7998       L1     2  0.24
      P1  H  7997  8009       L1    15  0.14

> <Gold.Chemscore.Hbond.Weighted>
-3.8176

> <Gold.Chemscore.Metal.Weighted>
-0.0000

> <Gold.Chemscore.Lipo.Weighted>
-11.0111

> <Gold.Chemscore.Internal_Hbond.Weighted>
0.0000

> <Gold.Chemscore.DEClash.Weighted>
2.7083

> <Gold.Chemscore.DEInternal.Weighted>
0.5530

> <Gold.Chemscore.Rot.Weighted>
3.0328

> <Gold.Chemscore.Internal.Correction.Weighted>
   9.000000E+99

> <Gold.Protein.RotatedTorsions>
[ 6907 6896 6895 6894 ] final  -97.29 input  -60.11 | X-H torsion
[ 7974 7965 7964 7962 ] final -116.49 input  175.53 | X-H torsion
[ 8008 7997 7996 7995 ] final -176.46 input   59.86 | X-H torsion
[ 10167 10162 10161 10158 ] final    5.58 input  -65.29 | X-H torsion
[ 10718 10713 10712 10709 ] final  -80.20 input   66.30 | X-H torsion
[ 10763 10752 10751 10750 ] final  156.94 input  -60.55 | X-H torsion
[ 11005 11000 10999 10996 ] final  177.48 input  -57.11 | X-H torsion

> <Gold.Protein.ActiveResidues>
 VAL166  LYS551  ARG553  GLY616  TRP617  ASP618  TYR619  PRO620  LYS621  CYS622 
 ASP623  PHE694  ASN695  SER759  ASP760  ASP761  ALA762  ILE779  LEU786  VAL792 
 PHE793  MET794  SER795  GLU796  ALA797  LYS798  CYS799  TRP800  GLU811  SER814 

> <Gold.Protein.RotatedAtoms>
  150.7012  134.1372  159.4091 H   0  0  0  0  0  0  0  0  0  0  0  0  # atno 6907 bound_to 6896
  151.9357  135.0234  160.0541 H   0  0  0  0  0  0  0  0  0  0  0  0  # atno 6908 bound_to 6896
  152.2137  133.4895  159.5161 H   0  0  0  0  0  0  0  0  0  0  0  0  # atno 6909 bound_to 6896
  145.0961  140.8522  143.3954 H   0  0  0  0  0  0  0  0  0  0  0  0  # atno 7974 bound_to 7965
  155.9951  140.1209  157.0601 H   0  0  0  0  0  0  0  0  0  0  0  0  # atno 8008 bound_to 7997
  154.4224  140.1118  156.5688 H   0  0  0  0  0  0  0  0  0  0  0  0  # atno 8009 bound_to 7997
  155.6289  140.3473  155.4678 H   0  0  0  0  0  0  0  0  0  0  0  0  # atno 8010 bound_to 7997
  140.6474  143.7627  150.7521 H   0  0  0  0  0  0  0  0  0  0  0  0  # atno 10167 bound_to 10162
  156.0075  130.4567  150.3765 H   0  0  0  0  0  0  0  0  0  0  0  0  # atno 10718 bound_to 10713
  154.1924  135.2794  155.3017 H   0  0  0  0  0  0  0  0  0  0  0  0  # atno 10763 bound_to 10752
  154.5918  135.5557  153.7290 H   0  0  0  0  0  0  0  0  0  0  0  0  # atno 10764 bound_to 10752
  153.0109  135.6370  154.2062 H   0  0  0  0  0  0  0  0  0  0  0  0  # atno 10765 bound_to 10752
  140.3845  134.6917  157.4471 H   0  0  0  0  0  0  0  0  0  0  0  0  # atno 11005 bound_to 11000
  145.1009  139.2823  143.5686 LP  0  0  0  0  0  0  0  0  0  0  0  0  # atno 17320 bound_to 7965
  146.3530  140.0576  142.8631 LP  0  0  0  0  0  0  0  0  0  0  0  0  # atno 17321 bound_to 7965
  140.1271  143.4559  152.2277 LP  0  0  0  0  0  0  0  0  0  0  0  0  # atno 17342 bound_to 10162
  139.5686  144.7450  151.3953 LP  0  0  0  0  0  0  0  0  0  0  0  0  # atno 17343 bound_to 10162
  157.1847  131.0400  151.2731 LP  0  0  0  0  0  0  0  0  0  0  0  0  # atno 17370 bound_to 10713
  157.4115  130.7387  149.6842 LP  0  0  0  0  0  0  0  0  0  0  0  0  # atno 17371 bound_to 10713
  140.0453  134.6208  155.8929 LP  0  0  0  0  0  0  0  0  0  0  0  0  # atno 17394 bound_to 11000
  141.1912  133.6571  156.5446 LP  0  0  0  0  0  0  0  0  0  0  0  0  # atno 17395 bound_to 11000

$$$$
