AV-unprocessed.smi:1703|AV-procd|sdf|6860|dock6
  -GOLD-   22720 8 43D 1   1.00000     0.00000
 Structure written by MMmdl.
 49 51  0  0  0  0  0  0  0  0  2 V2000
  146.7769  138.8239  152.0721 C   0  0  0  0  0  0  0  0  0  0  0  0
  146.9867  139.6408  153.3514 C   0  0  1  0  0  0  0  0  0  0  0  0
  148.4722  139.6990  153.7644 C   0  0  0  0  0  0  0  0  0  0  0  0
  148.6683  140.5619  154.9544 N   0  3  2  0  0  0  0  0  0  0  0  0
  148.2736  139.9111  156.2319 C   0  0  0  0  0  0  0  0  0  0  0  0
  149.3309  140.1052  157.3429 C   0  0  2  0  0  0  0  0  0  0  0  0
  148.7011  140.6469  158.4856 O   0  0  0  0  0  0  0  0  0  0  0  0
  150.4938  141.0354  156.9422 C   0  0  0  0  0  0  0  0  0  0  0  0
  151.3804  141.3254  158.0629 N   0  0  0  0  0  0  0  0  0  0  0  0
  152.2797  140.5059  158.6664 C   0  0  0  0  0  0  0  0  0  0  0  0
  152.5068  139.0936  158.2208 C   0  0  0  0  0  0  0  0  0  0  0  0
  153.8402  138.8542  157.8249 O   0  0  0  0  0  0  0  0  0  0  0  0
  152.9420  141.0313  159.6970 N   0  0  0  0  0  0  0  0  0  0  0  0
  152.4356  142.3141  159.7635 C   0  0  0  0  0  0  0  0  0  0  0  0
  152.7308  143.3727  160.6518 C   0  0  0  0  0  0  0  0  0  0  0  0
  152.0735  144.6141  160.5264 C   0  0  0  0  0  0  0  0  0  0  0  0
  151.1152  144.8149  159.5121 C   0  0  0  0  0  0  0  0  0  0  0  0
  150.8054  143.7728  158.6174 C   0  0  0  0  0  0  0  0  0  0  0  0
  151.4612  142.5338  158.7492 C   0  0  0  0  0  0  0  0  0  0  0  0
  148.0606  141.8998  154.7274 C   0  0  0  0  0  0  0  0  0  0  0  0
  146.5896  141.7916  154.2698 C   0  0  1  0  0  0  0  0  0  0  0  0
  145.9959  143.1603  153.9200 C   0  0  0  0  0  0  0  0  0  0  0  0
  146.5208  140.9651  153.1127 O   0  0  0  0  0  0  0  0  0  0  0  0
  147.1095  137.7942  152.2050 H   0  0  0  0  0  0  0  0  0  0  0  0
  147.3317  139.2496  151.2353 H   0  0  0  0  0  0  0  0  0  0  0  0
  145.7229  138.7986  151.7941 H   0  0  0  0  0  0  0  0  0  0  0  0
  146.3931  139.1885  154.1477 H   0  0  0  0  0  0  0  0  0  0  0  0
  148.8664  138.6989  153.9496 H   0  0  0  0  0  0  0  0  0  0  0  0
  149.0620  140.1115  152.9446 H   0  0  0  0  0  0  0  0  0  0  0  0
  147.3041  140.3007  156.5355 H   0  0  0  0  0  0  0  0  0  0  0  0
  148.1212  138.8414  156.0808 H   0  0  0  0  0  0  0  0  0  0  0  0
  149.7545  139.1465  157.6358 H   0  0  0  0  0  0  0  0  0  0  0  0
  149.3663  140.9299  159.0948 H   0  0  0  0  0  0  0  0  0  0  0  0
  151.0630  140.5978  156.1230 H   0  0  0  0  0  0  0  0  0  0  0  0
  150.1036  141.9828  156.5676 H   0  0  0  0  0  0  0  0  0  0  0  0
  152.2600  138.4131  159.0366 H   0  0  0  0  0  0  0  0  0  0  0  0
  151.8316  138.8546  157.3990 H   0  0  0  0  0  0  0  0  0  0  0  0
  154.1667  138.1068  158.3020 H   0  0  0  0  0  0  0  0  0  0  0  0
  153.4651  143.2299  161.4309 H   0  0  0  0  0  0  0  0  0  0  0  0
  152.3081  145.4171  161.2099 H   0  0  0  0  0  0  0  0  0  0  0  0
  150.6193  145.7703  159.4204 H   0  0  0  0  0  0  0  0  0  0  0  0
  150.0734  143.9269  157.8389 H   0  0  0  0  0  0  0  0  0  0  0  0
  148.1350  142.5268  155.6150 H   0  0  0  0  0  0  0  0  0  0  0  0
  148.6422  142.4031  153.9537 H   0  0  0  0  0  0  0  0  0  0  0  0
  145.9758  141.3543  155.0584 H   0  0  0  0  0  0  0  0  0  0  0  0
  146.0140  143.8268  154.7827 H   0  0  0  0  0  0  0  0  0  0  0  0
  144.9588  143.0642  153.5977 H   0  0  0  0  0  0  0  0  0  0  0  0
  146.5523  143.6396  153.1141 H   0  0  0  0  0  0  0  0  0  0  0  0
  149.6657  140.7039  155.0322 H   0  0  0  0  0  0  0  0  0  0  0  0
  1  2  1  0  0  0  0
  1 24  1  0  0  0  0
  1 25  1  0  0  0  0
  1 26  1  0  0  0  0
  2 23  1  0  0  0  0
  2  3  1  0  0  0  0
  2 27  1  0  0  0  0
  3  4  1  0  0  0  0
  3 28  1  0  0  0  0
  3 29  1  0  0  0  0
  4  5  1  0  0  0  0
  4 20  1  0  0  0  0
  4 49  1  0  0  0  0
  5  6  1  0  0  0  0
  5 30  1  0  0  0  0
  5 31  1  0  0  0  0
  6  7  1  0  0  0  0
  6  8  1  0  0  0  0
  6 32  1  0  0  0  0
  7 33  1  0  0  0  0
  8  9  1  0  0  0  0
  8 34  1  0  0  0  0
  8 35  1  0  0  0  0
  9 19  1  0  0  0  0
  9 10  1  0  0  0  0
 10 11  1  0  0  0  0
 10 13  2  0  0  0  0
 11 12  1  0  0  0  0
 11 36  1  0  0  0  0
 11 37  1  0  0  0  0
 12 38  1  0  0  0  0
 13 14  1  0  0  0  0
 14 19  2  0  0  0  0
 14 15  1  0  0  0  0
 15 16  2  0  0  0  0
 15 39  1  0  0  0  0
 16 17  1  0  0  0  0
 16 40  1  0  0  0  0
 17 18  2  0  0  0  0
 17 41  1  0  0  0  0
 18 19  1  0  0  0  0
 18 42  1  0  0  0  0
 20 21  1  0  0  0  0
 20 43  1  0  0  0  0
 20 44  1  0  0  0  0
 21 22  1  0  0  0  0
 21 23  1  0  0  0  0
 21 45  1  0  0  0  0
 22 46  1  0  0  0  0
 22 47  1  0  0  0  0
 22 48  1  0  0  0  0
M  CHG  1   4   1
M  END
> <s_m_source_file>
AV-unprocessed.smi

> <i_m_source_file_index>
1703

> <i_lp_mmshare_version>
43012

> <i_f3d_flags>
0

> <s_epik_input>
W0NIM11bQ0BASF0xW0NIMl1OKFtDSDJdW0NASF0oTzEpW0NIM10pW0NIMl1bQ0BIXShbT0hdKVtDSDJdbihjKG4yKVtDSDJdW09IXSljKGMyMylbY0hdW2NIXVtjSF1bY0hdMw==

> <s_epik_cmdline>
J2VwaWtfcHl0aG9uJywgJy1waCcsICc3LjAnLCAnLXRuJywgJzgnLCAnLW1hJywgJzIwMCcsICctbWV0YWxfYmluZGluZycsICctaW1hZScsICc8aW5maWxlLm1hZT4nLCAnLW9tYWUnLCAnPG91dGZpbGUubWFlPic=

> <r_epik_Ionization_Penalty>
0.655661

> <r_epik_Ionization_Penalty_Charging>
0.608065

> <r_epik_Ionization_Penalty_Neutral>
0.0475963

> <r_epik_State_Penalty>
0.695267

> <r_epik_Charging_Adjusted_Penalty>
1.30333

> <i_epik_Tot_Q>
1

> <i_epik_Tot_abs_Q>
1

> <r_epik_Metal_State_Penalty>
0.653591

> <b_epik_Metal_Only>
0

> <s_lp_Force_Field>
OPLS_2005

> <r_lp_Energy>
23.3655

> <b_lp_Chiralities_Consistent>
1

> <s_lp_Variant>
AV-unprocessed.smi:1703-8

> <Gold.Version>
5.8.1

> <Gold.Id.Protein>
6NUR|6NUR_protein|mol2

> <Gold.PLP.Fitness>
42.7823

> <Gold.PLP.PLP>
-43.0530

> <Gold.PLP.part.hbond>
-2.0000

> <Gold.PLP.part.metal>
0.0000

> <Gold.PLP.part.buried>
-2.9788

> <Gold.PLP.part.nonpolar>
-40.4977

> <Gold.PLP.part.repulsive>
1.4242

> <Gold.PLP.ligand.clash>
0.3600

> <Gold.PLP.ligand.torsion>
1.4991

> <Gold.PLP.Chemscore.Hbond>
1.0000

> <Gold.PLP.Chemscore.CHOScore>
0.0000

> <Gold.PLP.Chemscore.Metal>
0.0000

> <Gold.Chemscore.Hbonds>
donor molecule, donor type, donor heavy atom, donor atom, acceptor molecule, acceptor atom, score
      P1  H  7997  8008       L1    12  0.98

> <Gold.PLP.Chemscore.Internal.Correction>
0.0875

> <Gold.Rescore>
     Score         DG    S(hbond)    S(metal)    S(lipo)     H(rot)  DE(clash)    DE(int)     intcor
     12.36     -15.19       0.99        0.00     119.63       2.96       1.34       1.50       ----

> <Gold.Chemscore.Fitness>
12.3580

> <Gold.Chemscore.DG>
-15.1929

> <Gold.Chemscore.ZeroCoef>
-5.4800

> <Gold.Chemscore.Hbond>
0.9869

> <Gold.Chemscore.Metal>
0.0000

> <Gold.Chemscore.Lipo>
119.6313

> <Gold.Chemscore.Internal_Hbond>
0.0000

> <Gold.Chemscore.DEClash>
1.3361

> <Gold.Chemscore.DEInternal>
1.4988

> <Gold.Chemscore.Rot>
2.9611

> <Gold.Chemscore.Internal.Correction>
   9.000000E+99

> <Gold.Chemscore.Hbonds>
donor molecule, donor type, donor heavy atom, donor atom, acceptor molecule, acceptor atom, score
      P1  H  7997  8008       L1    12  0.82

> <Gold.Chemscore.Hbond.Weighted>
-3.2964

> <Gold.Chemscore.Metal.Weighted>
-0.0000

> <Gold.Chemscore.Lipo.Weighted>
-13.9969

> <Gold.Chemscore.Internal_Hbond.Weighted>
0.0000

> <Gold.Chemscore.DEClash.Weighted>
1.3361

> <Gold.Chemscore.DEInternal.Weighted>
1.4988

> <Gold.Chemscore.Rot.Weighted>
7.5803

> <Gold.Chemscore.Internal.Correction.Weighted>
   9.000000E+99

> <Gold.Protein.RotatedTorsions>
[ 6907 6896 6895 6894 ] final  -12.23 input  -60.11 | X-H torsion
[ 7974 7965 7964 7962 ] final  110.14 input  175.53 | X-H torsion
[ 8008 7997 7996 7995 ] final  -72.18 input   59.86 | X-H torsion
[ 10167 10162 10161 10158 ] final   78.04 input  -65.29 | X-H torsion
[ 10718 10713 10712 10709 ] final  -69.83 input   66.30 | X-H torsion
[ 10763 10752 10751 10750 ] final  161.65 input  -60.55 | X-H torsion
[ 11005 11000 10999 10996 ] final  -39.63 input  -57.11 | X-H torsion

> <Gold.Protein.ActiveResidues>
 VAL166  LYS551  ARG553  GLY616  TRP617  ASP618  TYR619  PRO620  LYS621  CYS622 
 ASP623  PHE694  ASN695  SER759  ASP760  ASP761  ALA762  ILE779  LEU786  VAL792 
 PHE793  MET794  SER795  GLU796  ALA797  LYS798  CYS799  TRP800  GLU811  SER814 

> <Gold.Protein.RotatedAtoms>
  151.3737  135.0927  159.9473 H   0  0  0  0  0  0  0  0  0  0  0  0  # atno 6907 bound_to 6896
  152.5128  133.9140  159.7512 H   0  0  0  0  0  0  0  0  0  0  0  0  # atno 6908 bound_to 6896
  150.9559  133.6443  159.2792 H   0  0  0  0  0  0  0  0  0  0  0  0  # atno 6909 bound_to 6896
  145.2588  139.2710  143.4028 H   0  0  0  0  0  0  0  0  0  0  0  0  # atno 7974 bound_to 7965
  154.5146  140.0802  156.8056 H   0  0  0  0  0  0  0  0  0  0  0  0  # atno 8008 bound_to 7997
  155.3709  140.3423  155.4225 H   0  0  0  0  0  0  0  0  0  0  0  0  # atno 8009 bound_to 7997
  156.1613  140.1589  156.8595 H   0  0  0  0  0  0  0  0  0  0  0  0  # atno 8010 bound_to 7997
  139.9751  144.5866  150.7950 H   0  0  0  0  0  0  0  0  0  0  0  0  # atno 10167 bound_to 10162
  156.0436  130.4320  150.2206 H   0  0  0  0  0  0  0  0  0  0  0  0  # atno 10718 bound_to 10713
  154.2661  135.2767  155.2757 H   0  0  0  0  0  0  0  0  0  0  0  0  # atno 10763 bound_to 10752
  154.5341  135.5721  153.6787 H   0  0  0  0  0  0  0  0  0  0  0  0  # atno 10764 bound_to 10752
  152.9953  135.6235  154.2814 H   0  0  0  0  0  0  0  0  0  0  0  0  # atno 10765 bound_to 10752
  141.0116  133.6905  156.2212 H   0  0  0  0  0  0  0  0  0  0  0  0  # atno 11005 bound_to 11000
  146.3281  140.2999  142.8620 LP  0  0  0  0  0  0  0  0  0  0  0  0  # atno 17320 bound_to 7965
  144.9437  140.8105  143.5615 LP  0  0  0  0  0  0  0  0  0  0  0  0  # atno 17321 bound_to 7965
  140.7508  143.2962  151.3198 LP  0  0  0  0  0  0  0  0  0  0  0  0  # atno 17342 bound_to 10162
  139.6451  144.0466  152.2585 LP  0  0  0  0  0  0  0  0  0  0  0  0  # atno 17343 bound_to 10162
  157.0298  131.0004  151.3315 LP  0  0  0  0  0  0  0  0  0  0  0  0  # atno 17370 bound_to 10713
  157.5285  130.8043  149.7890 LP  0  0  0  0  0  0  0  0  0  0  0  0  # atno 17371 bound_to 10713
  140.6725  134.4853  157.5587 LP  0  0  0  0  0  0  0  0  0  0  0  0  # atno 17394 bound_to 11000
  139.9093  134.8380  156.1588 LP  0  0  0  0  0  0  0  0  0  0  0  0  # atno 17395 bound_to 11000

$$$$
