AV-unprocessed.smi:193|AV-procd|sdf|1500|dock3
  -GOLD-   2262019323D 1   1.00000     0.00000
 Structure written by MMmdl.
 62 66  0  0  0  0  0  0  0  0  2 V2000
  144.0168  132.6630  149.4754 C   0  0  0  0  0  0  0  0  0  0  0  0
  144.8431  132.7046  150.7711 C   0  0  2  0  0  0  0  0  0  0  0  0
  145.4329  134.1184  150.9585 C   0  0  0  0  0  0  0  0  0  0  0  0
  145.7844  134.4497  152.3414 N   0  0  0  0  0  0  0  0  0  0  0  0
  145.9903  135.7568  152.6514 C   0  0  0  0  0  0  0  0  0  0  0  0
  145.3381  136.7154  151.9410 N   0  0  0  0  0  0  0  0  0  0  0  0
  145.5343  138.0092  152.2110 C   0  0  0  0  0  0  0  0  0  0  0  0
  146.3250  138.5577  153.1344 N   0  0  0  0  0  0  0  0  0  0  0  0
  146.9753  137.6036  153.8595 C   0  0  0  0  0  0  0  0  0  0  0  0
  146.8620  136.1941  153.6911 C   0  0  0  0  0  0  0  0  0  0  0  0
  147.6554  135.5428  154.6294 N   0  0  0  0  0  0  0  0  0  0  0  0
  148.2154  136.5105  155.3023 C   0  0  0  0  0  0  0  0  0  0  0  0
  147.8751  137.7809  154.8961 N   0  0  0  0  0  0  0  0  0  0  0  0
  148.3584  139.0328  155.4588 C   0  0  0  0  0  0  0  0  0  0  0  0
  149.8159  139.3802  155.0629 C   0  0  0  0  0  0  0  0  0  0  0  0
  149.7822  140.0151  153.7968 O   0  0  0  0  0  0  0  0  0  0  0  0
  150.4286  140.3625  156.0815 C   0  0  0  0  0  0  0  0  0  0  0  0
  151.9279  140.6021  155.8291 C   0  0  0  0  0  0  0  0  0  0  0  0
  152.6241  139.3618  155.8240 O   0  0  0  0  0  0  0  0  0  0  0  0
  152.2018  138.4999  154.7746 C   0  0  0  0  0  0  0  0  0  0  0  0
  150.7186  138.1310  154.9556 C   0  0  0  0  0  0  0  0  0  0  0  0
  146.2869  133.4454  153.2788 C   0  0  0  0  0  0  0  0  0  0  0  0
  147.2636  132.4504  152.6392 C   0  0  0  0  0  0  0  0  0  0  0  0
  146.5422  131.3057  152.0338 N   0  3  2  0  0  0  0  0  0  0  0  0
  147.3890  130.0914  151.9625 C   0  0  1  0  0  0  0  0  0  0  0  0
  147.3942  129.2701  153.2329 C   0  0  0  0  0  0  0  0  0  0  0  0
  146.6363  128.7735  152.0217 C   0  0  1  0  0  0  0  0  0  0  0  0
  145.1224  128.6711  152.0621 C   0  0  0  0  0  0  0  0  0  0  0  0
  145.9437  131.6220  150.7137 C   0  0  0  0  0  0  0  0  0  0  0  0
  144.6360  132.8722  148.6023 H   0  0  0  0  0  0  0  0  0  0  0  0
  143.2120  133.3985  149.4963 H   0  0  0  0  0  0  0  0  0  0  0  0
  143.5562  131.6852  149.3306 H   0  0  0  0  0  0  0  0  0  0  0  0
  144.1557  132.4836  151.5894 H   0  0  0  0  0  0  0  0  0  0  0  0
  146.3015  134.2548  150.3127 H   0  0  0  0  0  0  0  0  0  0  0  0
  144.6915  134.8497  150.6319 H   0  0  0  0  0  0  0  0  0  0  0  0
  144.9808  138.7048  151.5974 H   0  0  0  0  0  0  0  0  0  0  0  0
  148.9041  136.3235  156.1136 H   0  0  0  0  0  0  0  0  0  0  0  0
  147.6805  139.8315  155.1540 H   0  0  0  0  0  0  0  0  0  0  0  0
  148.2747  138.9636  156.5442 H   0  0  0  0  0  0  0  0  0  0  0  0
  149.7075  139.3511  153.1286 H   0  0  0  0  0  0  0  0  0  0  0  0
  149.8907  141.3114  156.0703 H   0  0  0  0  0  0  0  0  0  0  0  0
  150.3109  139.9584  157.0879 H   0  0  0  0  0  0  0  0  0  0  0  0
  152.0907  141.1287  154.8874 H   0  0  0  0  0  0  0  0  0  0  0  0
  152.3416  141.2318  156.6167 H   0  0  0  0  0  0  0  0  0  0  0  0
  152.3745  138.9741  153.8072 H   0  0  0  0  0  0  0  0  0  0  0  0
  152.8138  137.5979  154.7951 H   0  0  0  0  0  0  0  0  0  0  0  0
  150.6177  137.5362  155.8644 H   0  0  0  0  0  0  0  0  0  0  0  0
  150.4014  137.4901  154.1324 H   0  0  0  0  0  0  0  0  0  0  0  0
  146.8271  133.9379  154.0875 H   0  0  0  0  0  0  0  0  0  0  0  0
  145.4499  132.9271  153.7479 H   0  0  0  0  0  0  0  0  0  0  0  0
  147.9339  132.9299  151.9240 H   0  0  0  0  0  0  0  0  0  0  0  0
  147.9010  132.0713  153.4388 H   0  0  0  0  0  0  0  0  0  0  0  0
  148.3010  130.1832  151.3748 H   0  0  0  0  0  0  0  0  0  0  0  0
  148.3142  128.7494  153.4908 H   0  0  0  0  0  0  0  0  0  0  0  0
  146.8132  129.6290  154.0808 H   0  0  0  0  0  0  0  0  0  0  0  0
  147.1017  127.9536  151.4779 H   0  0  0  0  0  0  0  0  0  0  0  0
  144.6851  129.4560  152.6797 H   0  0  0  0  0  0  0  0  0  0  0  0
  144.8283  127.7080  152.4796 H   0  0  0  0  0  0  0  0  0  0  0  0
  144.7130  128.7483  151.0548 H   0  0  0  0  0  0  0  0  0  0  0  0
  145.5065  130.7026  150.3227 H   0  0  0  0  0  0  0  0  0  0  0  0
  146.7264  131.9050  150.0080 H   0  0  0  0  0  0  0  0  0  0  0  0
  145.7819  131.0774  152.6583 H   0  0  0  0  0  0  0  0  0  0  0  0
  1  2  1  0  0  0  0
  1 30  1  0  0  0  0
  1 31  1  0  0  0  0
  1 32  1  0  0  0  0
  2 29  1  0  0  0  0
  2  3  1  0  0  0  0
  2 33  1  0  0  0  0
  3  4  1  0  0  0  0
  3 34  1  0  0  0  0
  3 35  1  0  0  0  0
  4  5  1  0  0  0  0
  4 22  1  0  0  0  0
  5 10  1  0  0  0  0
  5  6  2  0  0  0  0
  6  7  1  0  0  0  0
  7  8  2  0  0  0  0
  7 36  1  0  0  0  0
  8  9  1  0  0  0  0
  9 13  1  0  0  0  0
  9 10  2  0  0  0  0
 10 11  1  0  0  0  0
 11 12  2  0  0  0  0
 12 13  1  0  0  0  0
 12 37  1  0  0  0  0
 13 14  1  0  0  0  0
 14 15  1  0  0  0  0
 14 38  1  0  0  0  0
 14 39  1  0  0  0  0
 15 21  1  0  0  0  0
 15 16  1  0  0  0  0
 15 17  1  0  0  0  0
 16 40  1  0  0  0  0
 17 18  1  0  0  0  0
 17 41  1  0  0  0  0
 17 42  1  0  0  0  0
 18 19  1  0  0  0  0
 18 43  1  0  0  0  0
 18 44  1  0  0  0  0
 19 20  1  0  0  0  0
 20 21  1  0  0  0  0
 20 45  1  0  0  0  0
 20 46  1  0  0  0  0
 21 47  1  0  0  0  0
 21 48  1  0  0  0  0
 22 23  1  0  0  0  0
 22 49  1  0  0  0  0
 22 50  1  0  0  0  0
 23 24  1  0  0  0  0
 23 51  1  0  0  0  0
 23 52  1  0  0  0  0
 24 25  1  0  0  0  0
 24 29  1  0  0  0  0
 24 62  1  0  0  0  0
 25 27  1  0  0  0  0
 25 26  1  0  0  0  0
 25 53  1  0  0  0  0
 26 27  1  0  0  0  0
 26 54  1  0  0  0  0
 26 55  1  0  0  0  0
 27 28  1  0  0  0  0
 27 56  1  0  0  0  0
 28 57  1  0  0  0  0
 28 58  1  0  0  0  0
 28 59  1  0  0  0  0
 29 60  1  0  0  0  0
 29 61  1  0  0  0  0
M  CHG  1  24   1
M  END
> <s_m_source_file>
AV-unprocessed.smi

> <i_m_source_file_index>
193

> <i_lp_mmshare_version>
43012

> <i_f3d_flags>
0

> <s_epik_input>
W0NIM11bQ0BASF0xW0NIMl1bQ0BIXTFOKFtDSDJdMilbQ0gyXVtDSDJdTihbQ0gyXVtDQEhdMltDSDNdKWMobltjSF1uMyljKGMzNCluW2NIXW40W0NIMl1DNShbT0hdKVtDSDJdW0NIMl1PW0NIMl1bQ0gyXTU=

> <s_epik_cmdline>
J2VwaWtfcHl0aG9uJywgJy1waCcsICc3LjAnLCAnLXRuJywgJzgnLCAnLW1hJywgJzIwMCcsICctbWV0YWxfYmluZGluZycsICctaW1hZScsICc8aW5maWxlLm1hZT4nLCAnLW9tYWUnLCAnPG91dGZpbGUubWFlPic=

> <r_lp_tautomer_probability>
1

> <r_epik_Ionization_Penalty>
0.0540825

> <r_epik_Ionization_Penalty_Charging>
0.0538476

> <r_epik_Ionization_Penalty_Neutral>
0.000234891

> <r_epik_State_Penalty>
0.0200719

> <r_epik_Charging_Adjusted_Penalty>
0.0739194

> <i_epik_Tot_Q>
1

> <i_epik_Tot_abs_Q>
1

> <r_epik_Metal_State_Penalty>
0.0199414

> <b_epik_Metal_Only>
0

> <s_lp_Force_Field>
OPLS_2005

> <r_lp_Energy>
56.6778

> <b_lp_Chiralities_Consistent>
1

> <s_lp_Variant>
AV-unprocessed.smi:193-5

> <Gold.Version>
5.8.1

> <Gold.Id.Protein>
6NUR|6NUR_protein|mol2

> <Gold.PLP.Fitness>
43.7098

> <Gold.PLP.PLP>
-33.9149

> <Gold.PLP.part.hbond>
-4.0000

> <Gold.PLP.part.metal>
0.0000

> <Gold.PLP.part.buried>
5.7658

> <Gold.PLP.part.nonpolar>
-35.0748

> <Gold.PLP.part.repulsive>
0.5552

> <Gold.PLP.ligand.clash>
0.0000

> <Gold.PLP.ligand.torsion>
1.3757

> <Gold.PLP.Chemscore.Hbond>
1.7421

> <Gold.PLP.Chemscore.CHOScore>
2.0000

> <Gold.PLP.Chemscore.Metal>
0.0000

> <Gold.Chemscore.Hbonds>
donor molecule, donor type, donor heavy atom, donor atom, acceptor molecule, acceptor atom, score
      L1  H    16    40       P1  7957  0.29
      P1  H  7989  7998       L1    16  0.75
      P1  H  7997  8008       L1    19  0.80
      L1  C     7    36       P1 10171  1.00
      L1  C     7    36       P1 10175  0.90

> <Gold.PLP.Chemscore.Internal.Correction>
1.3202

> <Gold.Rescore>
     Score         DG    S(hbond)    S(metal)    S(lipo)     H(rot)  DE(clash)    DE(int)     intcor
      9.45     -16.75       0.79        0.00     116.09       1.93       3.48       3.81       ----

> <Gold.Chemscore.Fitness>
9.4503

> <Gold.Chemscore.DG>
-16.7478

> <Gold.Chemscore.ZeroCoef>
-5.4800

> <Gold.Chemscore.Hbond>
0.7855

> <Gold.Chemscore.Metal>
0.0000

> <Gold.Chemscore.Lipo>
116.0901

> <Gold.Chemscore.Internal_Hbond>
0.0000

> <Gold.Chemscore.DEClash>
3.4835

> <Gold.Chemscore.DEInternal>
3.8140

> <Gold.Chemscore.Rot>
1.9290

> <Gold.Chemscore.Internal.Correction>
   9.000000E+99

> <Gold.Chemscore.Hbonds>
donor molecule, donor type, donor heavy atom, donor atom, acceptor molecule, acceptor atom, score
      L1  H    16    40       P1  7957  0.29
      P1  H  7989  7998       L1    16  0.20
      P1  H  7997  8008       L1    19  0.11

> <Gold.Chemscore.Hbond.Weighted>
-2.6236

> <Gold.Chemscore.Metal.Weighted>
-0.0000

> <Gold.Chemscore.Lipo.Weighted>
-13.5825

> <Gold.Chemscore.Internal_Hbond.Weighted>
0.0000

> <Gold.Chemscore.DEClash.Weighted>
3.4835

> <Gold.Chemscore.DEInternal.Weighted>
3.8140

> <Gold.Chemscore.Rot.Weighted>
4.9383

> <Gold.Chemscore.Internal.Correction.Weighted>
   9.000000E+99

> <Gold.Protein.RotatedTorsions>
[ 6907 6896 6895 6894 ] final  129.92 input  -60.11 | X-H torsion
[ 7974 7965 7964 7962 ] final  -19.38 input  175.53 | X-H torsion
[ 8008 7997 7996 7995 ] final  -53.64 input   59.86 | X-H torsion
[ 10167 10162 10161 10158 ] final  160.41 input  -65.29 | X-H torsion
[ 10718 10713 10712 10709 ] final  -88.43 input   66.30 | X-H torsion
[ 10763 10752 10751 10750 ] final  -36.00 input  -60.55 | X-H torsion
[ 11005 11000 10999 10996 ] final  -78.83 input  -57.11 | X-H torsion

> <Gold.Protein.ActiveResidues>
 VAL166  LYS551  ARG553  GLY616  TRP617  ASP618  TYR619  PRO620  LYS621  CYS622 
 ASP623  PHE694  ASN695  SER759  ASP760  ASP761  ALA762  ILE779  LEU786  VAL792 
 PHE793  MET794  SER795  GLU796  ALA797  LYS798  CYS799  TRP800  GLU811  SER814 

> <Gold.Protein.RotatedAtoms>
  152.3577  133.6257  159.5991 H   0  0  0  0  0  0  0  0  0  0  0  0  # atno 6907 bound_to 6896
  150.7580  133.9474  159.3484 H   0  0  0  0  0  0  0  0  0  0  0  0  # atno 6908 bound_to 6896
  151.7316  135.0874  160.0352 H   0  0  0  0  0  0  0  0  0  0  0  0  # atno 6909 bound_to 6896
  146.1844  140.4053  142.8482 H   0  0  0  0  0  0  0  0  0  0  0  0  # atno 7974 bound_to 7965
  154.4139  140.1195  156.5186 H   0  0  0  0  0  0  0  0  0  0  0  0  # atno 8008 bound_to 7997
  155.6725  140.3496  155.4804 H   0  0  0  0  0  0  0  0  0  0  0  0  # atno 8009 bound_to 7997
  155.9620  140.1125  157.0877 H   0  0  0  0  0  0  0  0  0  0  0  0  # atno 8010 bound_to 7997
  139.4840  144.4636  151.8671 H   0  0  0  0  0  0  0  0  0  0  0  0  # atno 10167 bound_to 10162
  155.9983  130.4835  150.5019 H   0  0  0  0  0  0  0  0  0  0  0  0  # atno 10718 bound_to 10713
  153.8726  135.6829  153.4773 H   0  0  0  0  0  0  0  0  0  0  0  0  # atno 10763 bound_to 10752
  153.1279  135.4711  154.9299 H   0  0  0  0  0  0  0  0  0  0  0  0  # atno 10764 bound_to 10752
  154.7707  135.3238  154.8146 H   0  0  0  0  0  0  0  0  0  0  0  0  # atno 10765 bound_to 10752
  141.1666  133.7080  156.8031 H   0  0  0  0  0  0  0  0  0  0  0  0  # atno 11005 bound_to 11000
  144.8372  140.6800  143.6253 LP  0  0  0  0  0  0  0  0  0  0  0  0  # atno 17320 bound_to 7965
  145.3981  139.1603  143.4192 LP  0  0  0  0  0  0  0  0  0  0  0  0  # atno 17321 bound_to 7965
  140.4100  144.2381  150.5889 LP  0  0  0  0  0  0  0  0  0  0  0  0  # atno 17342 bound_to 10162
  140.4975  143.2328  151.8728 LP  0  0  0  0  0  0  0  0  0  0  0  0  # atno 17343 bound_to 10162
  157.3002  131.0643  151.2073 LP  0  0  0  0  0  0  0  0  0  0  0  0  # atno 17370 bound_to 10713
  157.3055  130.6864  149.6187 LP  0  0  0  0  0  0  0  0  0  0  0  0  # atno 17371 bound_to 10713
  140.2241  134.8735  157.3409 LP  0  0  0  0  0  0  0  0  0  0  0  0  # atno 17394 bound_to 11000
  140.1957  134.4316  155.7690 LP  0  0  0  0  0  0  0  0  0  0  0  0  # atno 17395 bound_to 11000

$$$$
