AV-unprocessed.smi:1725|AV-procd|sdf|6953|dock7
  -GOLD-   22720 8163D 1   1.00000     0.00000
 Structure written by MMmdl.
 36 37  0  0  0  0  0  0  0  0  1 V2000
  148.2260  134.8175  156.8573 C   0  0  0  0  0  0  0  0  0  0  0  0
  148.3075  135.3932  155.4358 C   0  0  2  0  0  0  0  0  0  0  0  0
  148.3211  136.8135  155.5493 O   0  0  0  0  0  0  0  0  0  0  0  0
  149.5529  137.3762  155.9830 C   0  0  0  0  0  0  0  0  0  0  0  0
  150.4375  137.5978  154.7755 C   0  0  0  0  0  0  0  0  0  0  0  0
  151.6722  138.4638  154.8811 C   0  0  0  0  0  0  0  0  0  0  0  0
  150.4834  138.9433  154.0874 C   0  0  0  0  0  0  0  0  0  0  0  0
  147.1140  134.9394  154.5796 C   0  0  0  0  0  0  0  0  0  0  0  0
  146.2463  134.2272  155.0842 O   0  0  0  0  0  0  0  0  0  0  0  0
  147.1027  135.3998  153.3127 N   0  0  0  0  0  0  0  0  0  0  0  0
  146.1774  135.1665  152.2807 C   0  0  0  0  0  0  0  0  0  0  0  0
  145.9137  133.9536  151.7276 C   0  0  0  0  0  0  0  0  0  0  0  0
  144.9517  133.7886  150.6522 C   0  0  0  0  0  0  0  0  0  0  0  0
  144.6655  132.4148  150.0675 C   0  0  0  0  0  0  0  0  0  0  0  0
  143.7674  132.4711  149.0830 F   0  0  0  0  0  0  0  0  0  0  0  0
  145.7864  131.8819  149.5829 F   0  0  0  0  0  0  0  0  0  0  0  0
  144.1995  131.6007  151.0141 F   0  0  0  0  0  0  0  0  0  0  0  0
  144.3365  134.9043  150.2180 C   0  0  0  0  0  0  0  0  0  0  0  0
  144.6093  136.1563  150.7734 N   0  0  0  0  0  0  0  0  0  0  0  0
  145.4890  136.3674  151.7781 C   0  0  0  0  0  0  0  0  0  0  0  0
  145.6729  137.5035  152.2135 O   0  0  0  0  0  0  0  0  0  0  0  0
  144.1102  136.9465  150.3906 H   0  0  0  0  0  0  0  0  0  0  0  0
  148.1970  133.7275  156.8428 H   0  0  0  0  0  0  0  0  0  0  0  0
  147.3386  135.1703  157.3841 H   0  0  0  0  0  0  0  0  0  0  0  0
  149.0954  135.1149  157.4439 H   0  0  0  0  0  0  0  0  0  0  0  0
  149.2425  135.0558  154.9839 H   0  0  0  0  0  0  0  0  0  0  0  0
  149.3793  138.3251  156.4929 H   0  0  0  0  0  0  0  0  0  0  0  0
  150.0721  136.7136  156.6758 H   0  0  0  0  0  0  0  0  0  0  0  0
  150.5246  136.7260  154.1297 H   0  0  0  0  0  0  0  0  0  0  0  0
  151.8694  138.9526  155.8331 H   0  0  0  0  0  0  0  0  0  0  0  0
  152.5543  138.1504  154.3266 H   0  0  0  0  0  0  0  0  0  0  0  0
  150.5702  138.9480  153.0027 H   0  0  0  0  0  0  0  0  0  0  0  0
  149.8891  139.7505  154.5109 H   0  0  0  0  0  0  0  0  0  0  0  0
  147.8536  136.0279  153.0640 H   0  0  0  0  0  0  0  0  0  0  0  0
  146.4236  133.0630  152.0556 H   0  0  0  0  0  0  0  0  0  0  0  0
  143.6005  134.9292  149.4280 H   0  0  0  0  0  0  0  0  0  0  0  0
  1  2  1  0  0  0  0
  1 23  1  0  0  0  0
  1 24  1  0  0  0  0
  1 25  1  0  0  0  0
  2  3  1  0  0  0  0
  2  8  1  0  0  0  0
  2 26  1  0  0  0  0
  3  4  1  0  0  0  0
  4  5  1  0  0  0  0
  4 27  1  0  0  0  0
  4 28  1  0  0  0  0
  5  7  1  0  0  0  0
  5  6  1  0  0  0  0
  5 29  1  0  0  0  0
  6  7  1  0  0  0  0
  6 30  1  0  0  0  0
  6 31  1  0  0  0  0
  7 32  1  0  0  0  0
  7 33  1  0  0  0  0
  8  9  2  0  0  0  0
  8 10  1  0  0  0  0
 10 11  1  0  0  0  0
 10 34  1  0  0  0  0
 11 20  1  0  0  0  0
 11 12  2  0  0  0  0
 12 13  1  0  0  0  0
 12 35  1  0  0  0  0
 13 14  1  0  0  0  0
 13 18  2  0  0  0  0
 14 15  1  0  0  0  0
 14 16  1  0  0  0  0
 14 17  1  0  0  0  0
 18 19  1  0  0  0  0
 18 36  1  0  0  0  0
 19 22  1  0  0  0  0
 19 20  1  0  0  0  0
 20 21  2  0  0  0  0
M  END
> <s_m_source_file>
AV-unprocessed.smi

> <i_m_source_file_index>
1725

> <i_lp_mmshare_version>
43012

> <i_f3d_flags>
0

> <s_epik_input>
W0NIMl0xW0NIMl1bQ0hdMVtDSDJdT1tDQEBIXShbQ0gzXSlDKD1PKVtOSF1jMltjSF1jKEMoRikoRilGKVtjSF1bbkhdYzI9Tw==

> <s_epik_cmdline>
J2VwaWtfcHl0aG9uJywgJy1waCcsICc3LjAnLCAnLXRuJywgJzgnLCAnLW1hJywgJzIwMCcsICctbWV0YWxfYmluZGluZycsICctaW1hZScsICc8aW5maWxlLm1hZT4nLCAnLW9tYWUnLCAnPG91dGZpbGUubWFlPic=

> <r_lp_tautomer_probability>
0.999

> <r_epik_Ionization_Penalty>
0.00763408

> <r_epik_Ionization_Penalty_Charging>
0.00763398

> <r_epik_Ionization_Penalty_Neutral>
9.25705e-08

> <r_epik_State_Penalty>
0.00571302

> <r_epik_Charging_Adjusted_Penalty>
0.013347

> <i_epik_Tot_Q>
0

> <i_epik_Tot_abs_Q>
0

> <r_epik_Metal_State_Penalty>
0.392814

> <b_epik_Metal_Only>
0

> <s_lp_Force_Field>
OPLS_2005

> <r_lp_Energy>
28.2776

> <b_lp_Chiralities_Consistent>
1

> <s_lp_Variant>
AV-unprocessed.smi:1725-1

> <Gold.Version>
5.8.1

> <Gold.Id.Protein>
6NUR|6NUR_protein|mol2

> <Gold.PLP.Fitness>
42.4705

> <Gold.PLP.PLP>
-36.2337

> <Gold.PLP.part.hbond>
-1.5708

> <Gold.PLP.part.metal>
0.0000

> <Gold.PLP.part.buried>
-3.0183

> <Gold.PLP.part.nonpolar>
-31.0303

> <Gold.PLP.part.repulsive>
0.4043

> <Gold.PLP.ligand.clash>
0.1997

> <Gold.PLP.ligand.torsion>
1.1616

> <Gold.PLP.Chemscore.Hbond>
1.7280

> <Gold.PLP.Chemscore.CHOScore>
0.9921

> <Gold.PLP.Chemscore.Metal>
0.0000

> <Gold.Chemscore.Hbonds>
donor molecule, donor type, donor heavy atom, donor atom, acceptor molecule, acceptor atom, score
      L1  H    10    34       P1  7948  0.77
      L1  H    19    22       P1 10171  1.00
      L1  C    18    36       P1 10186  0.74

> <Gold.PLP.Chemscore.Internal.Correction>
0.5993

> <Gold.Rescore>
     Score         DG    S(hbond)    S(metal)    S(lipo)     H(rot)  DE(clash)    DE(int)     intcor
     11.93     -14.00       1.71        0.00      63.15       1.79       1.08       0.99       ----

> <Gold.Chemscore.Fitness>
11.9275

> <Gold.Chemscore.DG>
-14.0032

> <Gold.Chemscore.ZeroCoef>
-5.4800

> <Gold.Chemscore.Hbond>
1.7146

> <Gold.Chemscore.Metal>
0.0000

> <Gold.Chemscore.Lipo>
63.1525

> <Gold.Chemscore.Internal_Hbond>
0.0000

> <Gold.Chemscore.DEClash>
1.0847

> <Gold.Chemscore.DEInternal>
0.9910

> <Gold.Chemscore.Rot>
1.7938

> <Gold.Chemscore.Internal.Correction>
   9.000000E+99

> <Gold.Chemscore.Hbonds>
donor molecule, donor type, donor heavy atom, donor atom, acceptor molecule, acceptor atom, score
      L1  H    10    34       P1  7948  0.75
      L1  H    19    22       P1 10171  0.99

> <Gold.Chemscore.Hbond.Weighted>
-5.7266

> <Gold.Chemscore.Metal.Weighted>
-0.0000

> <Gold.Chemscore.Lipo.Weighted>
-7.3888

> <Gold.Chemscore.Internal_Hbond.Weighted>
0.0000

> <Gold.Chemscore.DEClash.Weighted>
1.0847

> <Gold.Chemscore.DEInternal.Weighted>
0.9910

> <Gold.Chemscore.Rot.Weighted>
4.5922

> <Gold.Chemscore.Internal.Correction.Weighted>
   9.000000E+99

> <Gold.Protein.RotatedTorsions>
[ 6907 6896 6895 6894 ] final -134.01 input  -60.11 | X-H torsion
[ 7974 7965 7964 7962 ] final   35.80 input  175.53 | X-H torsion
[ 8008 7997 7996 7995 ] final  -63.65 input   59.86 | X-H torsion
[ 10167 10162 10161 10158 ] final  -63.80 input  -65.29 | X-H torsion
[ 10718 10713 10712 10709 ] final  105.96 input   66.30 | X-H torsion
[ 10763 10752 10751 10750 ] final -170.75 input  -60.55 | X-H torsion
[ 11005 11000 10999 10996 ] final   36.11 input  -57.11 | X-H torsion

> <Gold.Protein.ActiveResidues>
 VAL166  LYS551  ARG553  GLY616  TRP617  ASP618  TYR619  PRO620  LYS621  CYS622 
 ASP623  PHE694  ASN695  SER759  ASP760  ASP761  ALA762  ILE779  LEU786  VAL792 
 PHE793  MET794  SER795  GLU796  ALA797  LYS798  CYS799  TRP800  GLU811  SER814 

> <Gold.Protein.RotatedAtoms>
  150.9808  133.6247  159.2722 H   0  0  0  0  0  0  0  0  0  0  0  0  # atno 6907 bound_to 6896
  151.3503  135.0882  159.9410 H   0  0  0  0  0  0  0  0  0  0  0  0  # atno 6908 bound_to 6896
  152.5215  133.9402  159.7677 H   0  0  0  0  0  0  0  0  0  0  0  0  # atno 6909 bound_to 6896
  146.1257  139.6097  142.9260 H   0  0  0  0  0  0  0  0  0  0  0  0  # atno 7974 bound_to 7965
  154.4567  140.0970  156.6776 H   0  0  0  0  0  0  0  0  0  0  0  0  # atno 8008 bound_to 7997
  155.5118  140.3476  155.4371 H   0  0  0  0  0  0  0  0  0  0  0  0  # atno 8009 bound_to 7997
  156.0790  140.1368  156.9724 H   0  0  0  0  0  0  0  0  0  0  0  0  # atno 8010 bound_to 7997
  140.5845  143.2332  151.6271 H   0  0  0  0  0  0  0  0  0  0  0  0  # atno 10167 bound_to 10162
  157.6686  131.0840  150.5935 H   0  0  0  0  0  0  0  0  0  0  0  0  # atno 10718 bound_to 10713
  154.6381  135.2895  155.0137 H   0  0  0  0  0  0  0  0  0  0  0  0  # atno 10763 bound_to 10752
  154.1273  135.6539  153.4919 H   0  0  0  0  0  0  0  0  0  0  0  0  # atno 10764 bound_to 10752
  153.0312  135.5302  154.7236 H   0  0  0  0  0  0  0  0  0  0  0  0  # atno 10765 bound_to 10752
  140.2358  134.3473  155.7945 H   0  0  0  0  0  0  0  0  0  0  0  0  # atno 11005 bound_to 11000
  145.5370  141.0423  143.2351 LP  0  0  0  0  0  0  0  0  0  0  0  0  # atno 17320 bound_to 7965
  144.7640  139.6889  143.7222 LP  0  0  0  0  0  0  0  0  0  0  0  0  # atno 17321 bound_to 7965
  139.5189  144.3268  152.0861 LP  0  0  0  0  0  0  0  0  0  0  0  0  # atno 17342 bound_to 10162
  140.2423  144.4256  150.6255 LP  0  0  0  0  0  0  0  0  0  0  0  0  # atno 17343 bound_to 10162
  156.6236  130.4412  149.5813 LP  0  0  0  0  0  0  0  0  0  0  0  0  # atno 17370 bound_to 10713
  156.2336  130.6809  151.1488 LP  0  0  0  0  0  0  0  0  0  0  0  0  # atno 17371 bound_to 10713
  141.2214  133.7271  156.8806 LP  0  0  0  0  0  0  0  0  0  0  0  0  # atno 17394 bound_to 11000
  140.1703  134.9104  157.2825 LP  0  0  0  0  0  0  0  0  0  0  0  0  # atno 17395 bound_to 11000

$$$$
