AV-unprocessed.smi:2148|AV-procd|sdf|8750|dock5
  -GOLD-   2272011523D 1   1.00000     0.00000
 Structure written by MMmdl.
 44 45  0  0  0  0  0  0  0  0  1 V2000
  139.8668  137.6359  153.2877 C   0  0  0  0  0  0  0  0  0  0  0  0
  141.5220  138.1577  153.8150 S   0  0  0  0  0  0  0  0  0  0  0  0
  142.5314  136.7712  153.2106 C   0  0  2  0  0  0  0  0  0  0  0  0
  141.8643  135.4339  153.5690 C   0  0  0  0  0  0  0  0  0  0  0  0
  143.9675  136.8329  153.7468 C   0  0  0  0  0  0  0  0  0  0  0  0
  144.4484  135.8510  154.3117 O   0  0  0  0  0  0  0  0  0  0  0  0
  144.6037  138.0075  153.5774 N   0  0  0  0  0  0  0  0  0  0  0  0
  145.9181  138.3808  153.9701 C   0  0  0  0  0  0  0  0  0  0  0  0
  146.8225  137.3521  154.2980 C   0  0  0  0  0  0  0  0  0  0  0  0
  148.1285  137.6839  154.7045 C   0  0  0  0  0  0  0  0  0  0  0  0
  148.5036  139.0462  154.7775 C   0  0  0  0  0  0  0  0  0  0  0  0
  149.8091  139.4063  155.1781 N   0  0  0  0  0  0  0  0  0  0  0  0
  150.9001  138.7221  154.4910 C   0  0  0  0  0  0  0  0  0  0  0  0
  152.2188  138.9083  155.2625 C   0  0  1  0  0  0  0  0  0  0  0  0
  153.4116  138.3113  154.5084 C   0  0  0  0  0  0  0  0  0  0  0  0
  152.4687  140.3001  155.4538 O   0  0  0  0  0  0  0  0  0  0  0  0
  151.4370  141.0023  156.1502 C   0  0  2  0  0  0  0  0  0  0  0  0
  151.3896  140.6343  157.6437 C   0  0  0  0  0  0  0  0  0  0  0  0
  150.0866  140.8194  155.4297 C   0  0  0  0  0  0  0  0  0  0  0  0
  147.6266  140.0364  154.4807 N   0  0  0  0  0  0  0  0  0  0  0  0
  146.3750  139.7147  154.0913 C   0  0  0  0  0  0  0  0  0  0  0  0
  139.1236  138.3614  153.6185 H   0  0  0  0  0  0  0  0  0  0  0  0
  139.6173  136.6659  153.7171 H   0  0  0  0  0  0  0  0  0  0  0  0
  139.8118  137.5625  152.2016 H   0  0  0  0  0  0  0  0  0  0  0  0
  142.5576  136.8435  152.1221 H   0  0  0  0  0  0  0  0  0  0  0  0
  142.4545  134.5879  153.2144 H   0  0  0  0  0  0  0  0  0  0  0  0
  140.8774  135.3576  153.1119 H   0  0  0  0  0  0  0  0  0  0  0  0
  141.7366  135.3243  154.6469 H   0  0  0  0  0  0  0  0  0  0  0  0
  144.0563  138.7434  153.1552 H   0  0  0  0  0  0  0  0  0  0  0  0
  146.5223  136.3160  154.2396 H   0  0  0  0  0  0  0  0  0  0  0  0
  148.8167  136.8943  154.9665 H   0  0  0  0  0  0  0  0  0  0  0  0
  150.7035  137.6572  154.3764 H   0  0  0  0  0  0  0  0  0  0  0  0
  150.9916  139.1356  153.4859 H   0  0  0  0  0  0  0  0  0  0  0  0
  152.1496  138.4101  156.2297 H   0  0  0  0  0  0  0  0  0  0  0  0
  153.2754  137.2422  154.3420 H   0  0  0  0  0  0  0  0  0  0  0  0
  154.3351  138.4446  155.0726 H   0  0  0  0  0  0  0  0  0  0  0  0
  153.5427  138.7877  153.5364 H   0  0  0  0  0  0  0  0  0  0  0  0
  151.6996  142.0591  156.0961 H   0  0  0  0  0  0  0  0  0  0  0  0
  150.6949  141.2826  158.1781 H   0  0  0  0  0  0  0  0  0  0  0  0
  152.3707  140.7521  158.1041 H   0  0  0  0  0  0  0  0  0  0  0  0
  151.0632  139.6076  157.8076 H   0  0  0  0  0  0  0  0  0  0  0  0
  150.1078  141.3454  154.4741 H   0  0  0  0  0  0  0  0  0  0  0  0
  149.2917  141.2686  156.0264 H   0  0  0  0  0  0  0  0  0  0  0  0
  145.7381  140.5625  153.8965 H   0  0  0  0  0  0  0  0  0  0  0  0
  1  2  1  0  0  0  0
  1 22  1  0  0  0  0
  1 23  1  0  0  0  0
  1 24  1  0  0  0  0
  2  3  1  0  0  0  0
  3  4  1  0  0  0  0
  3  5  1  0  0  0  0
  3 25  1  0  0  0  0
  4 26  1  0  0  0  0
  4 27  1  0  0  0  0
  4 28  1  0  0  0  0
  5  6  2  0  0  0  0
  5  7  1  0  0  0  0
  7  8  1  0  0  0  0
  7 29  1  0  0  0  0
  8 21  1  0  0  0  0
  8  9  2  0  0  0  0
  9 10  1  0  0  0  0
  9 30  1  0  0  0  0
 10 11  2  0  0  0  0
 10 31  1  0  0  0  0
 11 12  1  0  0  0  0
 11 20  1  0  0  0  0
 12 19  1  0  0  0  0
 12 13  1  0  0  0  0
 13 14  1  0  0  0  0
 13 32  1  0  0  0  0
 13 33  1  0  0  0  0
 14 15  1  0  0  0  0
 14 16  1  0  0  0  0
 14 34  1  0  0  0  0
 15 35  1  0  0  0  0
 15 36  1  0  0  0  0
 15 37  1  0  0  0  0
 16 17  1  0  0  0  0
 17 18  1  0  0  0  0
 17 19  1  0  0  0  0
 17 38  1  0  0  0  0
 18 39  1  0  0  0  0
 18 40  1  0  0  0  0
 18 41  1  0  0  0  0
 19 42  1  0  0  0  0
 19 43  1  0  0  0  0
 20 21  2  0  0  0  0
 21 44  1  0  0  0  0
M  END
> <s_m_source_file>
AV-unprocessed.smi

> <i_m_source_file_index>
2148

> <i_lp_mmshare_version>
43012

> <i_f3d_flags>
0

> <s_epik_input>
W0NIM11TW0NASF0oW0NIM10pQyg9TylbTkhdYzFbY0hdW2NIXWMobltjSF0xKU4yW0NIMl1bQ0BASF0oW0NIM10pT1tDQEBIXShbQ0gzXSlbQ0gyXTI=

> <s_epik_cmdline>
J2VwaWtfcHl0aG9uJywgJy1waCcsICc3LjAnLCAnLXRuJywgJzgnLCAnLW1hJywgJzIwMCcsICctbWV0YWxfYmluZGluZycsICctaW1hZScsICc8aW5maWxlLm1hZT4nLCAnLW9tYWUnLCAnPG91dGZpbGUubWFlPic=

> <r_lp_tautomer_probability>
1

> <r_epik_Ionization_Penalty>
0.000646494

> <r_epik_Ionization_Penalty_Charging>
0

> <r_epik_Ionization_Penalty_Neutral>
0.000646494

> <r_epik_State_Penalty>
0.000408447

> <r_epik_Charging_Adjusted_Penalty>
0.000408447

> <i_epik_Tot_Q>
0

> <i_epik_Tot_abs_Q>
0

> <r_epik_Metal_State_Penalty>
-0

> <b_epik_Metal_Only>
0

> <s_lp_Force_Field>
OPLS_2005

> <r_lp_Energy>
25.6467

> <b_lp_Chiralities_Consistent>
1

> <s_lp_Variant>
AV-unprocessed.smi:2148-5

> <Gold.Version>
5.8.1

> <Gold.Id.Protein>
6NUR|6NUR_protein|mol2

> <Gold.PLP.Fitness>
37.8336

> <Gold.PLP.PLP>
-29.1862

> <Gold.PLP.part.hbond>
-3.0000

> <Gold.PLP.part.metal>
0.0000

> <Gold.PLP.part.buried>
-1.4721

> <Gold.PLP.part.nonpolar>
-25.4421

> <Gold.PLP.part.repulsive>
0.1843

> <Gold.PLP.ligand.clash>
0.0000

> <Gold.PLP.ligand.torsion>
0.4011

> <Gold.PLP.Chemscore.Hbond>
2.1401

> <Gold.PLP.Chemscore.CHOScore>
0.8869

> <Gold.PLP.Chemscore.Metal>
0.0000

> <Gold.Chemscore.Hbonds>
donor molecule, donor type, donor heavy atom, donor atom, acceptor molecule, acceptor atom, score
      L1  H     7    29       P1 10175  1.00
      P1  H  7989  7998       L1    16  0.16
      P1  H  7997  8008       L1    16  0.94
      L1  C    21    44       P1 10175  0.90

> <Gold.PLP.Chemscore.Internal.Correction>
0.3686

> <Gold.Rescore>
     Score         DG    S(hbond)    S(metal)    S(lipo)     H(rot)  DE(clash)    DE(int)     intcor
     14.17     -17.12       1.85        0.00      74.33       1.27       1.30       1.65       ----

> <Gold.Chemscore.Fitness>
14.1714

> <Gold.Chemscore.DG>
-17.1153

> <Gold.Chemscore.ZeroCoef>
-5.4800

> <Gold.Chemscore.Hbond>
1.8500

> <Gold.Chemscore.Metal>
0.0000

> <Gold.Chemscore.Lipo>
74.3332

> <Gold.Chemscore.Internal_Hbond>
0.0000

> <Gold.Chemscore.DEClash>
1.2963

> <Gold.Chemscore.DEInternal>
1.6476

> <Gold.Chemscore.Rot>
1.2659

> <Gold.Chemscore.Internal.Correction>
   9.000000E+99

> <Gold.Chemscore.Hbonds>
donor molecule, donor type, donor heavy atom, donor atom, acceptor molecule, acceptor atom, score
      L1  H     7    29       P1 10175  0.99
      P1  H  7997  8008       L1    16  0.19

> <Gold.Chemscore.Hbond.Weighted>
-6.1788

> <Gold.Chemscore.Metal.Weighted>
-0.0000

> <Gold.Chemscore.Lipo.Weighted>
-8.6970

> <Gold.Chemscore.Internal_Hbond.Weighted>
0.0000

> <Gold.Chemscore.DEClash.Weighted>
1.2963

> <Gold.Chemscore.DEInternal.Weighted>
1.6476

> <Gold.Chemscore.Rot.Weighted>
3.2406

> <Gold.Chemscore.Internal.Correction.Weighted>
   9.000000E+99

> <Gold.Protein.RotatedTorsions>
[ 6907 6896 6895 6894 ] final  -50.46 input  -60.11 | X-H torsion
[ 7974 7965 7964 7962 ] final  -77.83 input  175.53 | X-H torsion
[ 8008 7997 7996 7995 ] final  -14.04 input   59.86 | X-H torsion
[ 10167 10162 10161 10158 ] final  -70.26 input  -65.29 | X-H torsion
[ 10718 10713 10712 10709 ] final  170.93 input   66.30 | X-H torsion
[ 10763 10752 10751 10750 ] final  153.65 input  -60.55 | X-H torsion
[ 11005 11000 10999 10996 ] final   29.66 input  -57.11 | X-H torsion

> <Gold.Protein.ActiveResidues>
 VAL166  LYS551  ARG553  GLY616  TRP617  ASP618  TYR619  PRO620  LYS621  CYS622 
 ASP623  PHE694  ASN695  SER759  ASP760  ASP761  ALA762  ILE779  LEU786  VAL792 
 PHE793  MET794  SER795  GLU796  ALA797  LYS798  CYS799  TRP800  GLU811  SER814 

> <Gold.Protein.RotatedAtoms>
  150.8705  134.8077  159.7150 H   0  0  0  0  0  0  0  0  0  0  0  0  # atno 6907 bound_to 6896
  152.4711  134.4955  159.9718 H   0  0  0  0  0  0  0  0  0  0  0  0  # atno 6908 bound_to 6896
  151.5044  133.3459  159.2910 H   0  0  0  0  0  0  0  0  0  0  0  0  # atno 6909 bound_to 6896
  145.5945  140.9422  143.1274 H   0  0  0  0  0  0  0  0  0  0  0  0  # atno 7974 bound_to 7965
  154.5243  140.2233  155.8919 H   0  0  0  0  0  0  0  0  0  0  0  0  # atno 8008 bound_to 7997
  156.1696  140.3124  155.8914 H   0  0  0  0  0  0  0  0  0  0  0  0  # atno 8009 bound_to 7997
  155.3586  140.0460  157.3037 H   0  0  0  0  0  0  0  0  0  0  0  0  # atno 8010 bound_to 7997
  140.5366  143.2317  151.7165 H   0  0  0  0  0  0  0  0  0  0  0  0  # atno 10167 bound_to 10162
  157.0009  131.0176  151.2831 H   0  0  0  0  0  0  0  0  0  0  0  0  # atno 10718 bound_to 10713
  154.1397  135.2821  155.3164 H   0  0  0  0  0  0  0  0  0  0  0  0  # atno 10763 bound_to 10752
  154.6296  135.5440  153.7669 H   0  0  0  0  0  0  0  0  0  0  0  0  # atno 10764 bound_to 10752
  153.0254  135.6459  154.1544 H   0  0  0  0  0  0  0  0  0  0  0  0  # atno 10765 bound_to 10752
  140.3026  134.2740  155.7751 H   0  0  0  0  0  0  0  0  0  0  0  0  # atno 11005 bound_to 11000
  144.7337  139.7650  143.7337 LP  0  0  0  0  0  0  0  0  0  0  0  0  # atno 17320 bound_to 7965
  146.1622  139.4741  142.9981 LP  0  0  0  0  0  0  0  0  0  0  0  0  # atno 17321 bound_to 7965
  139.4973  144.4033  152.0159 LP  0  0  0  0  0  0  0  0  0  0  0  0  # atno 17342 bound_to 10162
  140.3138  144.3507  150.6027 LP  0  0  0  0  0  0  0  0  0  0  0  0  # atno 17343 bound_to 10162
  157.5391  130.8108  149.8007 LP  0  0  0  0  0  0  0  0  0  0  0  0  # atno 17370 bound_to 10713
  156.0171  130.3809  150.2076 LP  0  0  0  0  0  0  0  0  0  0  0  0  # atno 17371 bound_to 10713
  141.2125  133.7656  156.9789 LP  0  0  0  0  0  0  0  0  0  0  0  0  # atno 17394 bound_to 11000
  140.1096  134.9485  157.2045 LP  0  0  0  0  0  0  0  0  0  0  0  0  # atno 17395 bound_to 11000

$$$$
