AV-unprocessed.smi:3254|AV-procd|sdf|12453|dock8
  -GOLD-   2272018353D 1   1.00000     0.00000
 Structure written by MMmdl.
 37 38  0  0  0  0  0  0  0  0  2 V2000
  153.3272  142.6229  162.1764 C   0  0  0  0  0  0  0  0  0  0  0  0
  152.4794  143.8339  161.7636 C   0  0  0  0  0  0  0  0  0  0  0  0
  152.1758  143.8127  160.3356 N   0  0  0  0  0  0  0  0  0  0  0  0
  152.6010  142.6996  159.5037 C   0  0  0  0  0  0  0  0  0  0  0  0
  151.9443  142.9354  158.1260 C   0  0  1  0  0  0  0  0  0  0  0  0
  150.8230  141.9263  157.8319 C   0  0  0  0  0  0  0  0  0  0  0  0
  150.5368  141.0603  158.6590 O   0  0  0  0  0  0  0  0  0  0  0  0
  150.2032  142.0514  156.6488 N   0  0  0  0  0  0  0  0  0  0  0  0
  149.1189  141.2015  156.1657 C   0  0  0  0  0  0  0  0  0  0  0  0
  149.4549  140.5937  154.7942 C   0  0  0  0  0  0  0  0  0  0  0  0
  148.2842  140.0064  154.1347 N   0  0  0  0  0  0  0  0  0  0  0  0
  148.1807  138.7527  153.5885 C   0  0  0  0  0  0  0  0  0  0  0  0
  146.9073  138.6469  153.0912 C   0  0  0  0  0  0  0  0  0  0  0  0
  146.2865  139.8377  153.3582 N   0  3  0  0  0  0  0  0  0  0  0  0
  147.1244  140.6621  153.9951 C   0  0  0  0  0  0  0  0  0  0  0  0
  151.4052  144.3790  158.1814 C   0  0  0  0  0  0  0  0  0  0  0  0
  151.5539  144.7721  159.6418 C   0  0  0  0  0  0  0  0  0  0  0  0
  151.1347  145.8376  160.0912 O   0  0  0  0  0  0  0  0  0  0  0  0
  153.5668  142.6614  163.2391 H   0  0  0  0  0  0  0  0  0  0  0  0
  154.2670  142.5954  161.6243 H   0  0  0  0  0  0  0  0  0  0  0  0
  152.8014  141.6861  161.9897 H   0  0  0  0  0  0  0  0  0  0  0  0
  151.5502  143.8521  162.3351 H   0  0  0  0  0  0  0  0  0  0  0  0
  153.0092  144.7551  162.0094 H   0  0  0  0  0  0  0  0  0  0  0  0
  153.6885  142.7062  159.4198 H   0  0  0  0  0  0  0  0  0  0  0  0
  152.3125  141.7508  159.9599 H   0  0  0  0  0  0  0  0  0  0  0  0
  152.7042  142.8585  157.3463 H   0  0  0  0  0  0  0  0  0  0  0  0
  150.5142  142.7879  156.0326 H   0  0  0  0  0  0  0  0  0  0  0  0
  148.9355  140.4144  156.8978 H   0  0  0  0  0  0  0  0  0  0  0  0
  148.1898  141.7669  156.0788 H   0  0  0  0  0  0  0  0  0  0  0  0
  149.8482  141.3643  154.1303 H   0  0  0  0  0  0  0  0  0  0  0  0
  150.2292  139.8303  154.8869 H   0  0  0  0  0  0  0  0  0  0  0  0
  148.9998  138.0481  153.5935 H   0  0  0  0  0  0  0  0  0  0  0  0
  146.4094  137.8346  152.5821 H   0  0  0  0  0  0  0  0  0  0  0  0
  146.9062  141.6609  154.3291 H   0  0  0  0  0  0  0  0  0  0  0  0
  152.0052  145.0474  157.5630 H   0  0  0  0  0  0  0  0  0  0  0  0
  150.3645  144.4719  157.8661 H   0  0  0  0  0  0  0  0  0  0  0  0
  145.3302  140.0625  153.1134 H   0  0  0  0  0  0  0  0  0  0  0  0
  1  2  1  0  0  0  0
  1 19  1  0  0  0  0
  1 20  1  0  0  0  0
  1 21  1  0  0  0  0
  2  3  1  0  0  0  0
  2 22  1  0  0  0  0
  2 23  1  0  0  0  0
  3 17  1  0  0  0  0
  3  4  1  0  0  0  0
  4  5  1  0  0  0  0
  4 24  1  0  0  0  0
  4 25  1  0  0  0  0
  5  6  1  0  0  0  0
  5 16  1  0  0  0  0
  5 26  1  0  0  0  0
  6  7  2  0  0  0  0
  6  8  1  0  0  0  0
  8  9  1  0  0  0  0
  8 27  1  0  0  0  0
  9 10  1  0  0  0  0
  9 28  1  0  0  0  0
  9 29  1  0  0  0  0
 10 11  1  0  0  0  0
 10 30  1  0  0  0  0
 10 31  1  0  0  0  0
 11 15  1  0  0  0  0
 11 12  1  0  0  0  0
 12 13  2  0  0  0  0
 12 32  1  0  0  0  0
 13 14  1  0  0  0  0
 13 33  1  0  0  0  0
 14 15  2  0  0  0  0
 14 37  1  0  0  0  0
 15 34  1  0  0  0  0
 16 17  1  0  0  0  0
 16 35  1  0  0  0  0
 16 36  1  0  0  0  0
 17 18  2  0  0  0  0
M  CHG  1  14   1
M  END
> <s_m_source_file>
AV-unprocessed.smi

> <i_m_source_file_index>
3254

> <i_lp_mmshare_version>
43012

> <i_f3d_flags>
0

> <s_epik_input>
W0NIM11bQ0gyXU4xW0NIMl1bQ0BIXShbQ0gyXUMxPU8pQyg9TylbTkhdW0NIMl1bQ0gyXW4yW2NIXVtjSF1uW2NIXTI=

> <s_epik_cmdline>
J2VwaWtfcHl0aG9uJywgJy1waCcsICc3LjAnLCAnLXRuJywgJzgnLCAnLW1hJywgJzIwMCcsICctbWV0YWxfYmluZGluZycsICctaW1hZScsICc8aW5maWxlLm1hZT4nLCAnLW9tYWUnLCAnPG91dGZpbGUubWFlPic=

> <r_lp_tautomer_probability>
1

> <r_epik_Ionization_Penalty>
0.274742

> <r_epik_Ionization_Penalty_Charging>
0

> <r_epik_Ionization_Penalty_Neutral>
0.274742

> <r_epik_State_Penalty>
0.267046

> <r_epik_Charging_Adjusted_Penalty>
0.267046

> <i_epik_Tot_Q>
1

> <i_epik_Tot_abs_Q>
1

> <r_epik_Metal_State_Penalty>
0.550456

> <b_epik_Metal_Only>
0

> <s_lp_Force_Field>
OPLS_2005

> <r_lp_Energy>
18.3055

> <b_lp_Chiralities_Consistent>
1

> <s_lp_Variant>
AV-unprocessed.smi:3254-1

> <Gold.Version>
5.8.1

> <Gold.Id.Protein>
6NUR|6NUR_protein|mol2

> <Gold.PLP.Fitness>
53.6885

> <Gold.PLP.PLP>
-45.9363

> <Gold.PLP.part.hbond>
-3.2366

> <Gold.PLP.part.metal>
0.0000

> <Gold.PLP.part.buried>
-4.0782

> <Gold.PLP.part.nonpolar>
-38.6651

> <Gold.PLP.part.repulsive>
0.2805

> <Gold.PLP.ligand.clash>
0.0000

> <Gold.PLP.ligand.torsion>
0.1818

> <Gold.PLP.Chemscore.Hbond>
2.0000

> <Gold.PLP.Chemscore.CHOScore>
0.6987

> <Gold.PLP.Chemscore.Metal>
0.0000

> <Gold.Chemscore.Hbonds>
donor molecule, donor type, donor heavy atom, donor atom, acceptor molecule, acceptor atom, score
      L1  H    14    37       P1 10175  2.00
      L1  C    12    32       P1  7948  0.75

> <Gold.PLP.Chemscore.Internal.Correction>
0.0199

> <Gold.Rescore>
     Score         DG    S(hbond)    S(metal)    S(lipo)     H(rot)  DE(clash)    DE(int)     intcor
     12.67     -12.88       0.99        0.00      84.71       2.28       0.11       0.10       ----

> <Gold.Chemscore.Fitness>
12.6656

> <Gold.Chemscore.DG>
-12.8764

> <Gold.Chemscore.ZeroCoef>
-5.4800

> <Gold.Chemscore.Hbond>
0.9928

> <Gold.Chemscore.Metal>
0.0000

> <Gold.Chemscore.Lipo>
84.7114

> <Gold.Chemscore.Internal_Hbond>
0.0000

> <Gold.Chemscore.DEClash>
0.1123

> <Gold.Chemscore.DEInternal>
0.0985

> <Gold.Chemscore.Rot>
2.2776

> <Gold.Chemscore.Internal.Correction>
   9.000000E+99

> <Gold.Chemscore.Hbonds>
donor molecule, donor type, donor heavy atom, donor atom, acceptor molecule, acceptor atom, score
      L1  H    14    37       P1 10175  1.00

> <Gold.Chemscore.Hbond.Weighted>
-3.3159

> <Gold.Chemscore.Metal.Weighted>
-0.0000

> <Gold.Chemscore.Lipo.Weighted>
-9.9112

> <Gold.Chemscore.Internal_Hbond.Weighted>
0.0000

> <Gold.Chemscore.DEClash.Weighted>
0.1123

> <Gold.Chemscore.DEInternal.Weighted>
0.0985

> <Gold.Chemscore.Rot.Weighted>
5.8307

> <Gold.Chemscore.Internal.Correction.Weighted>
   9.000000E+99

> <Gold.Protein.RotatedTorsions>
[ 6907 6896 6895 6894 ] final  -99.65 input  -60.11 | X-H torsion
[ 7974 7965 7964 7962 ] final   55.76 input  175.53 | X-H torsion
[ 8008 7997 7996 7995 ] final    0.31 input   59.86 | X-H torsion
[ 10167 10162 10161 10158 ] final   55.43 input  -65.29 | X-H torsion
[ 10718 10713 10712 10709 ] final  -56.52 input   66.30 | X-H torsion
[ 10763 10752 10751 10750 ] final  -84.25 input  -60.55 | X-H torsion
[ 11005 11000 10999 10996 ] final   94.55 input  -57.11 | X-H torsion

> <Gold.Protein.ActiveResidues>
 VAL166  LYS551  ARG553  GLY616  TRP617  ASP618  TYR619  PRO620  LYS621  CYS622 
 ASP623  PHE694  ASN695  SER759  ASP760  ASP761  ALA762  ILE779  LEU786  VAL792 
 PHE793  MET794  SER795  GLU796  ALA797  LYS798  CYS799  TRP800  GLU811  SER814 

> <Gold.Protein.RotatedAtoms>
  150.7087  134.1008  159.3964 H   0  0  0  0  0  0  0  0  0  0  0  0  # atno 6907 bound_to 6896
  151.8994  135.0382  160.0514 H   0  0  0  0  0  0  0  0  0  0  0  0  # atno 6908 bound_to 6896
  152.2426  133.5113  159.5316 H   0  0  0  0  0  0  0  0  0  0  0  0  # atno 6909 bound_to 6896
  145.9470  139.3938  143.0329 H   0  0  0  0  0  0  0  0  0  0  0  0  # atno 7974 bound_to 7965
  154.6667  140.2602  155.7051 H   0  0  0  0  0  0  0  0  0  0  0  0  # atno 8008 bound_to 7997
  156.2641  140.2837  156.1082 H   0  0  0  0  0  0  0  0  0  0  0  0  # atno 8009 bound_to 7997
  155.1229  140.0377  157.2745 H   0  0  0  0  0  0  0  0  0  0  0  0  # atno 8010 bound_to 7997
  140.2195  144.3804  150.6456 H   0  0  0  0  0  0  0  0  0  0  0  0  # atno 10167 bound_to 10162
  156.1282  130.4161  150.0316 H   0  0  0  0  0  0  0  0  0  0  0  0  # atno 10718 bound_to 10713
  154.5973  135.5527  153.7339 H   0  0  0  0  0  0  0  0  0  0  0  0  # atno 10763 bound_to 10752
  153.0140  135.6358  154.1764 H   0  0  0  0  0  0  0  0  0  0  0  0  # atno 10764 bound_to 10752
  154.1704  135.2892  155.3062 H   0  0  0  0  0  0  0  0  0  0  0  0  # atno 10765 bound_to 10752
  139.8797  134.8851  156.3880 H   0  0  0  0  0  0  0  0  0  0  0  0  # atno 11005 bound_to 11000
  145.8223  140.9673  143.0892 LP  0  0  0  0  0  0  0  0  0  0  0  0  # atno 17320 bound_to 7965
  144.6789  140.0057  143.7484 LP  0  0  0  0  0  0  0  0  0  0  0  0  # atno 17321 bound_to 7965
  140.6265  143.2182  151.6585 LP  0  0  0  0  0  0  0  0  0  0  0  0  # atno 17342 bound_to 10162
  139.5149  144.3394  152.0754 LP  0  0  0  0  0  0  0  0  0  0  0  0  # atno 17343 bound_to 10162
  156.8235  130.9367  151.3640 LP  0  0  0  0  0  0  0  0  0  0  0  0  # atno 17370 bound_to 10713
  157.6462  130.8846  149.9544 LP  0  0  0  0  0  0  0  0  0  0  0  0  # atno 17371 bound_to 10713
  140.9352  133.7552  156.0076 LP  0  0  0  0  0  0  0  0  0  0  0  0  # atno 17394 bound_to 11000
  140.8283  134.3208  157.5358 LP  0  0  0  0  0  0  0  0  0  0  0  0  # atno 17395 bound_to 11000

$$$$
