AV-unprocessed.smi:767|AV-procd|sdf|3667|dock3
  -GOLD-   22720 1 73D 1   1.00000     0.00000
 Structure written by MMmdl.
 48 50  0  0  0  0  0  0  0  0  2 V2000
  151.6363  145.2294  158.8344 C   0  0  0  0  0  0  0  0  0  0  0  0
  151.5396  143.7362  158.6037 C   0  0  0  0  0  0  0  0  0  0  0  0
  152.2797  142.8079  159.3664 C   0  0  0  0  0  0  0  0  0  0  0  0
  152.1387  141.4308  159.0992 C   0  0  0  0  0  0  0  0  0  0  0  0
  151.2579  141.0083  158.0792 C   0  0  0  0  0  0  0  0  0  0  0  0
  151.0650  139.5295  157.7882 C   0  0  0  0  0  0  0  0  0  0  0  0
  152.3792  138.7829  157.4782 C   0  0  0  0  0  0  0  0  0  0  0  0
  153.2321  138.6056  158.6503 N   0  0  0  0  0  0  0  0  0  0  0  0
  152.9725  137.7865  159.6783 C   0  0  0  0  0  0  0  0  0  0  0  0
  151.9666  137.0826  159.7645 O   0  0  0  0  0  0  0  0  0  0  0  0
  153.9544  137.8105  160.5880 N   0  0  0  0  0  0  0  0  0  0  0  0
  153.9845  137.0034  161.8088 C   0  0  2  0  0  0  0  0  0  0  0  0
  154.7341  137.7005  162.9673 C   0  0  2  0  0  0  0  0  0  0  0  0
  155.1454  139.1521  162.9228 C   0  0  0  0  0  0  0  0  0  0  0  0
  156.6038  139.0775  162.4597 C   0  0  0  0  0  0  0  0  0  0  0  0
  156.7241  137.8008  161.8352 O   0  0  0  0  0  0  0  0  0  0  0  0
  155.9526  136.8720  162.5944 C   0  0  2  0  0  0  0  0  0  0  0  0
  155.0709  135.8926  161.7927 C   0  0  0  0  0  0  0  0  0  0  0  0
  154.6830  134.6279  162.5646 C   0  0  0  0  0  0  0  0  0  0  0  0
  155.6359  135.4171  160.4479 C   0  0  0  0  0  0  0  0  0  0  0  0
  150.5492  141.9825  157.3446 C   0  0  0  0  0  0  0  0  0  0  0  0
  150.7135  143.2929  157.6294 N   0  3  0  0  0  0  0  0  0  0  0  0
  152.0492  145.4448  159.8204 H   0  0  0  0  0  0  0  0  0  0  0  0
  150.6519  145.6940  158.7712 H   0  0  0  0  0  0  0  0  0  0  0  0
  152.2826  145.6863  158.0848 H   0  0  0  0  0  0  0  0  0  0  0  0
  152.9445  143.1432  160.1492 H   0  0  0  0  0  0  0  0  0  0  0  0
  152.6936  140.7078  159.6795 H   0  0  0  0  0  0  0  0  0  0  0  0
  150.5709  139.0636  158.6412 H   0  0  0  0  0  0  0  0  0  0  0  0
  150.3765  139.4204  156.9491 H   0  0  0  0  0  0  0  0  0  0  0  0
  152.1467  137.7868  157.1009 H   0  0  0  0  0  0  0  0  0  0  0  0
  152.9290  139.2910  156.6845 H   0  0  0  0  0  0  0  0  0  0  0  0
  154.0870  139.1419  158.6761 H   0  0  0  0  0  0  0  0  0  0  0  0
  154.7461  138.4157  160.4248 H   0  0  0  0  0  0  0  0  0  0  0  0
  153.0020  136.6407  162.1160 H   0  0  0  0  0  0  0  0  0  0  0  0
  154.3306  137.3891  163.9321 H   0  0  0  0  0  0  0  0  0  0  0  0
  154.5365  139.7317  162.2294 H   0  0  0  0  0  0  0  0  0  0  0  0
  155.0688  139.6317  163.8989 H   0  0  0  0  0  0  0  0  0  0  0  0
  156.8705  139.8845  161.7771 H   0  0  0  0  0  0  0  0  0  0  0  0
  157.2792  139.1174  163.3156 H   0  0  0  0  0  0  0  0  0  0  0  0
  156.4872  136.4538  163.4487 H   0  0  0  0  0  0  0  0  0  0  0  0
  155.5433  133.9782  162.7289 H   0  0  0  0  0  0  0  0  0  0  0  0
  153.9289  134.0491  162.0302 H   0  0  0  0  0  0  0  0  0  0  0  0
  154.2699  134.8652  163.5453 H   0  0  0  0  0  0  0  0  0  0  0  0
  156.4696  134.7282  160.5861 H   0  0  0  0  0  0  0  0  0  0  0  0
  156.0098  136.2431  159.8431 H   0  0  0  0  0  0  0  0  0  0  0  0
  154.8772  134.9003  159.8595 H   0  0  0  0  0  0  0  0  0  0  0  0
  149.8549  141.7551  156.5487 H   0  0  0  0  0  0  0  0  0  0  0  0
  150.1880  143.9790  157.0871 H   0  0  0  0  0  0  0  0  0  0  0  0
  1  2  1  0  0  0  0
  1 23  1  0  0  0  0
  1 24  1  0  0  0  0
  1 25  1  0  0  0  0
  2 22  1  0  0  0  0
  2  3  2  0  0  0  0
  3  4  1  0  0  0  0
  3 26  1  0  0  0  0
  4  5  2  0  0  0  0
  4 27  1  0  0  0  0
  5  6  1  0  0  0  0
  5 21  1  0  0  0  0
  6  7  1  0  0  0  0
  6 28  1  0  0  0  0
  6 29  1  0  0  0  0
  7  8  1  0  0  0  0
  7 30  1  0  0  0  0
  7 31  1  0  0  0  0
  8  9  1  0  0  0  0
  8 32  1  0  0  0  0
  9 10  2  0  0  0  0
  9 11  1  0  0  0  0
 11 12  1  0  0  0  0
 11 33  1  0  0  0  0
 12 18  1  0  0  0  0
 12 13  1  0  0  0  0
 12 34  1  0  0  0  0
 13 17  1  0  0  0  0
 13 14  1  0  0  0  0
 13 35  1  0  0  0  0
 14 15  1  0  0  0  0
 14 36  1  0  0  0  0
 14 37  1  0  0  0  0
 15 16  1  0  0  0  0
 15 38  1  0  0  0  0
 15 39  1  0  0  0  0
 16 17  1  0  0  0  0
 17 18  1  0  0  0  0
 17 40  1  0  0  0  0
 18 19  1  0  0  0  0
 18 20  1  0  0  0  0
 19 41  1  0  0  0  0
 19 42  1  0  0  0  0
 19 43  1  0  0  0  0
 20 44  1  0  0  0  0
 20 45  1  0  0  0  0
 20 46  1  0  0  0  0
 21 22  2  0  0  0  0
 21 47  1  0  0  0  0
 22 48  1  0  0  0  0
M  CHG  1  22   1
M  END
> <s_m_source_file>
AV-unprocessed.smi

> <i_m_source_file_index>
767

> <i_lp_mmshare_version>
43012

> <i_f3d_flags>
0

> <s_epik_input>
W0NIM11jMVtjSF1bY0hdYyhbY0hdbjEpW0NIMl1bQ0gyXVtOSF1DKD1PKVtOSF1bQ0BIXTJDKFtDSDNdKShbQ0gzXSlbQ0BIXShbQ0BASF0yMylPW0NIMl1bQ0gyXTM=

> <s_epik_cmdline>
J2VwaWtfcHl0aG9uJywgJy1waCcsICc3LjAnLCAnLXRuJywgJzgnLCAnLW1hJywgJzIwMCcsICctbWV0YWxfYmluZGluZycsICctaW1hZScsICc8aW5maWxlLm1hZT4nLCAnLW9tYWUnLCAnPG91dGZpbGUubWFlPic=

> <r_epik_Ionization_Penalty>
1.41853

> <r_epik_Ionization_Penalty_Charging>
1.41848

> <r_epik_Ionization_Penalty_Neutral>
5.17407e-05

> <r_epik_State_Penalty>
1.50205

> <r_epik_Charging_Adjusted_Penalty>
2.92053

> <i_epik_Tot_Q>
1

> <i_epik_Tot_abs_Q>
1

> <r_epik_Metal_State_Penalty>
1.5544

> <b_epik_Metal_Only>
0

> <s_lp_Force_Field>
OPLS_2005

> <r_lp_Energy>
40.587

> <b_lp_Chiralities_Consistent>
1

> <s_lp_Variant>
AV-unprocessed.smi:767-11

> <Gold.Version>
5.8.1

> <Gold.Id.Protein>
6NUR|6NUR_protein|mol2

> <Gold.PLP.Fitness>
43.4361

> <Gold.PLP.PLP>
-34.9689

> <Gold.PLP.part.hbond>
-1.9948

> <Gold.PLP.part.metal>
0.0000

> <Gold.PLP.part.buried>
-5.1595

> <Gold.PLP.part.nonpolar>
-28.1776

> <Gold.PLP.part.repulsive>
0.1108

> <Gold.PLP.ligand.clash>
0.0000

> <Gold.PLP.ligand.torsion>
0.3362

> <Gold.PLP.Chemscore.Hbond>
2.9825

> <Gold.PLP.Chemscore.CHOScore>
0.0000

> <Gold.PLP.Chemscore.Metal>
0.0000

> <Gold.Chemscore.Hbonds>
donor molecule, donor type, donor heavy atom, donor atom, acceptor molecule, acceptor atom, score
      L1  H    22    48       P1  8028  1.92
      P1  H  6896  6907       L1    10  1.00

> <Gold.PLP.Chemscore.Internal.Correction>
0.1920

> <Gold.Rescore>
     Score         DG    S(hbond)    S(metal)    S(lipo)     H(rot)  DE(clash)    DE(int)     intcor
     20.31     -20.68       1.94        0.00     107.83       1.52       0.14       0.23       ----

> <Gold.Chemscore.Fitness>
20.3077

> <Gold.Chemscore.DG>
-20.6803

> <Gold.Chemscore.ZeroCoef>
-5.4800

> <Gold.Chemscore.Hbond>
1.9412

> <Gold.Chemscore.Metal>
0.0000

> <Gold.Chemscore.Lipo>
107.8321

> <Gold.Chemscore.Internal_Hbond>
0.0000

> <Gold.Chemscore.DEClash>
0.1417

> <Gold.Chemscore.DEInternal>
0.2310

> <Gold.Chemscore.Rot>
1.5233

> <Gold.Chemscore.Internal.Correction>
   9.000000E+99

> <Gold.Chemscore.Hbonds>
donor molecule, donor type, donor heavy atom, donor atom, acceptor molecule, acceptor atom, score
      L1  H    22    48       P1  8028  0.85
      P1  H  6896  6907       L1    10  0.99

> <Gold.Chemscore.Hbond.Weighted>
-6.4835

> <Gold.Chemscore.Metal.Weighted>
-0.0000

> <Gold.Chemscore.Lipo.Weighted>
-12.6164

> <Gold.Chemscore.Internal_Hbond.Weighted>
0.0000

> <Gold.Chemscore.DEClash.Weighted>
0.1417

> <Gold.Chemscore.DEInternal.Weighted>
0.2310

> <Gold.Chemscore.Rot.Weighted>
3.8995

> <Gold.Chemscore.Internal.Correction.Weighted>
   9.000000E+99

> <Gold.Protein.RotatedTorsions>
[ 6907 6896 6895 6894 ] final    2.80 input  -60.11 | X-H torsion
[ 7974 7965 7964 7962 ] final   73.86 input  175.53 | X-H torsion
[ 8008 7997 7996 7995 ] final  114.77 input   59.86 | X-H torsion
[ 10167 10162 10161 10158 ] final   24.66 input  -65.29 | X-H torsion
[ 10718 10713 10712 10709 ] final   37.78 input   66.30 | X-H torsion
[ 10763 10752 10751 10750 ] final  118.50 input  -60.55 | X-H torsion
[ 11005 11000 10999 10996 ] final -130.51 input  -57.11 | X-H torsion

> <Gold.Protein.ActiveResidues>
 VAL166  LYS551  ARG553  GLY616  TRP617  ASP618  TYR619  PRO620  LYS621  CYS622 
 ASP623  PHE694  ASN695  SER759  ASP760  ASP761  ALA762  ILE779  LEU786  VAL792 
 PHE793  MET794  SER795  GLU796  ALA797  LYS798  CYS799  TRP800  GLU811  SER814 

> <Gold.Protein.RotatedAtoms>
  151.6147  135.1037  160.0088 H   0  0  0  0  0  0  0  0  0  0  0  0  # atno 6907 bound_to 6896
  152.4190  133.7080  159.6473 H   0  0  0  0  0  0  0  0  0  0  0  0  # atno 6908 bound_to 6896
  150.8077  133.8405  159.3219 H   0  0  0  0  0  0  0  0  0  0  0  0  # atno 6909 bound_to 6896
  145.7355  139.2700  143.1516 H   0  0  0  0  0  0  0  0  0  0  0  0  # atno 7974 bound_to 7965
  156.2341  140.2952  156.0266 H   0  0  0  0  0  0  0  0  0  0  0  0  # atno 8008 bound_to 7997
  155.2141  140.0413  157.2955 H   0  0  0  0  0  0  0  0  0  0  0  0  # atno 8009 bound_to 7997
  154.6048  140.2436  155.7753 H   0  0  0  0  0  0  0  0  0  0  0  0  # atno 8010 bound_to 7997
  140.5170  144.0066  150.6398 H   0  0  0  0  0  0  0  0  0  0  0  0  # atno 10167 bound_to 10162
  157.3510  130.7598  149.6979 H   0  0  0  0  0  0  0  0  0  0  0  0  # atno 10718 bound_to 10713
  153.5687  135.3506  155.2829 H   0  0  0  0  0  0  0  0  0  0  0  0  # atno 10763 bound_to 10752
  154.8685  135.4154  154.2750 H   0  0  0  0  0  0  0  0  0  0  0  0  # atno 10764 bound_to 10752
  153.3511  135.7055  153.6858 H   0  0  0  0  0  0  0  0  0  0  0  0  # atno 10765 bound_to 10752
  140.9339  134.1282  157.4210 H   0  0  0  0  0  0  0  0  0  0  0  0  # atno 11005 bound_to 11000
  146.0497  140.8081  142.9787 LP  0  0  0  0  0  0  0  0  0  0  0  0  # atno 17320 bound_to 7965
  144.6883  140.3035  143.7259 LP  0  0  0  0  0  0  0  0  0  0  0  0  # atno 17321 bound_to 7965
  140.3404  143.3023  152.0594 LP  0  0  0  0  0  0  0  0  0  0  0  0  # atno 17342 bound_to 10162
  139.4912  144.6446  151.6805 LP  0  0  0  0  0  0  0  0  0  0  0  0  # atno 17343 bound_to 10162
  155.9721  130.4140  150.4113 LP  0  0  0  0  0  0  0  0  0  0  0  0  # atno 17370 bound_to 10713
  157.2175  131.0475  151.2565 LP  0  0  0  0  0  0  0  0  0  0  0  0  # atno 17371 bound_to 10713
  139.8803  135.0014  156.6068 LP  0  0  0  0  0  0  0  0  0  0  0  0  # atno 17394 bound_to 11000
  140.7825  133.8648  155.8579 LP  0  0  0  0  0  0  0  0  0  0  0  0  # atno 17395 bound_to 11000

$$$$
