AV-unprocessed.smi:195|AV-procd|sdf|1524|dock2
  -GOLD-   2262019363D 1   1.00000     0.00000
 Structure written by MMmdl.
 45 48  0  0  0  0  0  0  0  0  1 V2000
  153.8748  138.4088  158.0972 N   0  0  0  0  0  0  0  0  0  0  0  0
  152.8341  138.1923  157.6406 C   0  0  0  0  0  0  0  0  0  0  0  0
  151.5109  137.9171  157.0585 C   0  0  0  0  0  0  0  0  0  0  0  0
  151.3828  138.3644  155.5995 C   0  0  0  0  0  0  0  0  0  0  0  0
  151.6720  137.2092  154.8405 O   0  0  0  0  0  0  0  0  0  0  0  0
  150.1008  139.1001  155.1982 C   0  0  0  0  0  0  0  0  0  0  0  0
  150.8580  140.3475  155.2679 N   0  0  0  0  0  0  0  0  0  0  0  0
  150.6154  141.1018  156.4590 C   0  0  0  0  0  0  0  0  0  0  0  0
  151.6380  141.4482  157.2871 N   0  0  0  0  0  0  0  0  0  0  0  0
  151.4203  142.1571  158.3983 C   0  0  0  0  0  0  0  0  0  0  0  0
  150.2674  142.6312  158.8708 N   0  0  0  0  0  0  0  0  0  0  0  0
  149.2331  142.3110  158.0436 C   0  0  0  0  0  0  0  0  0  0  0  0
  149.3213  141.5663  156.8329 C   0  0  0  0  0  0  0  0  0  0  0  0
  148.0612  141.4550  156.2570 N   0  0  0  0  0  0  0  0  0  0  0  0
  147.2739  142.0892  157.0817 C   0  0  0  0  0  0  0  0  0  0  0  0
  147.8913  142.6164  158.1935 N   0  0  0  0  0  0  0  0  0  0  0  0
  147.2586  143.3688  159.2637 C   0  0  0  0  0  0  0  0  0  0  0  0
  145.7439  143.5971  159.0528 C   0  0  2  0  0  0  0  0  0  0  0  0
  145.6374  144.4691  157.9457 O   0  0  0  0  0  0  0  0  0  0  0  0
  145.0017  144.2664  160.2331 C   0  0  2  0  0  0  0  0  0  0  0  0
  145.1706  143.6050  161.6028 C   0  0  0  0  0  0  0  0  0  0  0  0
  143.9304  144.0345  162.3675 C   0  0  0  0  0  0  0  0  0  0  0  0
  142.9546  144.4615  161.2697 C   0  0  0  0  0  0  0  0  0  0  0  0
  143.6001  144.1240  160.0499 O   0  0  0  0  0  0  0  0  0  0  0  0
  152.1293  139.6298  155.1645 C   0  0  0  0  0  0  0  0  0  0  0  0
  151.3121  136.8501  157.1626 H   0  0  0  0  0  0  0  0  0  0  0  0
  150.7805  138.4262  157.6869 H   0  0  0  0  0  0  0  0  0  0  0  0
  150.8689  136.9505  154.4144 H   0  0  0  0  0  0  0  0  0  0  0  0
  149.7735  138.8813  154.1808 H   0  0  0  0  0  0  0  0  0  0  0  0
  149.2864  138.9983  155.9164 H   0  0  0  0  0  0  0  0  0  0  0  0
  152.2952  142.3751  158.9929 H   0  0  0  0  0  0  0  0  0  0  0  0
  146.2124  142.1841  156.9032 H   0  0  0  0  0  0  0  0  0  0  0  0
  147.4380  142.8664  160.2149 H   0  0  0  0  0  0  0  0  0  0  0  0
  147.7749  144.3283  159.3209 H   0  0  0  0  0  0  0  0  0  0  0  0
  145.2583  142.6567  158.7896 H   0  0  0  0  0  0  0  0  0  0  0  0
  146.4416  144.9601  157.8718 H   0  0  0  0  0  0  0  0  0  0  0  0
  145.2579  145.3257  160.3045 H   0  0  0  0  0  0  0  0  0  0  0  0
  145.1738  142.5188  161.5009 H   0  0  0  0  0  0  0  0  0  0  0  0
  146.0886  143.9039  162.1077 H   0  0  0  0  0  0  0  0  0  0  0  0
  143.5359  143.2183  162.9737 H   0  0  0  0  0  0  0  0  0  0  0  0
  144.1470  144.8733  163.0303 H   0  0  0  0  0  0  0  0  0  0  0  0
  141.9896  143.9605  161.3496 H   0  0  0  0  0  0  0  0  0  0  0  0
  142.7843  145.5384  161.3031 H   0  0  0  0  0  0  0  0  0  0  0  0
  152.9332  139.9419  155.8309 H   0  0  0  0  0  0  0  0  0  0  0  0
  152.4748  139.5854  154.1306 H   0  0  0  0  0  0  0  0  0  0  0  0
  1  2  3  0  0  0  0
  2  3  1  0  0  0  0
  3  4  1  0  0  0  0
  3 26  1  0  0  0  0
  3 27  1  0  0  0  0
  4 25  1  0  0  0  0
  4  5  1  0  0  0  0
  4  6  1  0  0  0  0
  5 28  1  0  0  0  0
  6  7  1  0  0  0  0
  6 29  1  0  0  0  0
  6 30  1  0  0  0  0
  7  8  1  0  0  0  0
  7 25  1  0  0  0  0
  8 13  1  0  0  0  0
  8  9  2  0  0  0  0
  9 10  1  0  0  0  0
 10 11  2  0  0  0  0
 10 31  1  0  0  0  0
 11 12  1  0  0  0  0
 12 16  1  0  0  0  0
 12 13  2  0  0  0  0
 13 14  1  0  0  0  0
 14 15  2  0  0  0  0
 15 16  1  0  0  0  0
 15 32  1  0  0  0  0
 16 17  1  0  0  0  0
 17 18  1  0  0  0  0
 17 33  1  0  0  0  0
 17 34  1  0  0  0  0
 18 19  1  0  0  0  0
 18 20  1  0  0  0  0
 18 35  1  0  0  0  0
 19 36  1  0  0  0  0
 20 24  1  0  0  0  0
 20 21  1  0  0  0  0
 20 37  1  0  0  0  0
 21 22  1  0  0  0  0
 21 38  1  0  0  0  0
 21 39  1  0  0  0  0
 22 23  1  0  0  0  0
 22 40  1  0  0  0  0
 22 41  1  0  0  0  0
 23 24  1  0  0  0  0
 23 42  1  0  0  0  0
 23 43  1  0  0  0  0
 25 44  1  0  0  0  0
 25 45  1  0  0  0  0
M  END
> <s_m_source_file>
AV-unprocessed.smi

> <i_m_source_file_index>
195

> <i_lp_mmshare_version>
43012

> <i_f3d_flags>
0

> <s_epik_input>
TiNDW0NIMl1DMShbT0hdKVtDSDJdTihbQ0gyXTEpYyhuW2NIXW4yKWMoYzIzKW5bY0hdbjNbQ0gyXVtDQEhdKFtPSF0pW0NAQEhdNFtDSDJdW0NIMl1bQ0gyXU80

> <s_epik_cmdline>
J2VwaWtfcHl0aG9uJywgJy1waCcsICc3LjAnLCAnLXRuJywgJzgnLCAnLW1hJywgJzIwMCcsICctbWV0YWxfYmluZGluZycsICctaW1hZScsICc8aW5maWxlLm1hZT4nLCAnLW9tYWUnLCAnPG91dGZpbGUubWFlPic=

> <r_lp_tautomer_probability>
1

> <r_epik_Ionization_Penalty>
0.00307146

> <r_epik_Ionization_Penalty_Charging>
0

> <r_epik_Ionization_Penalty_Neutral>
0.00307146

> <r_epik_State_Penalty>
0.0020279

> <r_epik_Charging_Adjusted_Penalty>
0.0020279

> <i_epik_Tot_Q>
0

> <i_epik_Tot_abs_Q>
0

> <r_epik_Metal_State_Penalty>
-0

> <b_epik_Metal_Only>
0

> <s_lp_Force_Field>
OPLS_2005

> <r_lp_Energy>
46.5325

> <b_lp_Chiralities_Consistent>
1

> <s_lp_Variant>
AV-unprocessed.smi:195-1

> <Gold.Version>
5.8.1

> <Gold.Id.Protein>
6NUR|6NUR_protein|mol2

> <Gold.PLP.Fitness>
41.5363

> <Gold.PLP.PLP>
-34.2899

> <Gold.PLP.part.hbond>
-4.2729

> <Gold.PLP.part.metal>
0.0000

> <Gold.PLP.part.buried>
-4.4874

> <Gold.PLP.part.nonpolar>
-25.6763

> <Gold.PLP.part.repulsive>
0.2783

> <Gold.PLP.ligand.clash>
0.0000

> <Gold.PLP.ligand.torsion>
1.1044

> <Gold.PLP.Chemscore.Hbond>
3.0000

> <Gold.PLP.Chemscore.CHOScore>
0.0000

> <Gold.PLP.Chemscore.Metal>
0.0000

> <Gold.Chemscore.Hbonds>
donor molecule, donor type, donor heavy atom, donor atom, acceptor molecule, acceptor atom, score
      L1  H    19    36       P1  8029  1.00
      P1  H  7997  8008       L1     1  0.94
      P1  H 10752 10763       L1     5  0.94

> <Gold.PLP.Chemscore.Internal.Correction>
0.4552

> <Gold.Rescore>
     Score         DG    S(hbond)    S(metal)    S(lipo)     H(rot)  DE(clash)    DE(int)     intcor
      9.92     -12.02       2.69        0.00      60.60       3.72       0.64       1.46       ----

> <Gold.Chemscore.Fitness>
9.9237

> <Gold.Chemscore.DG>
-12.0224

> <Gold.Chemscore.ZeroCoef>
-5.4800

> <Gold.Chemscore.Hbond>
2.6878

> <Gold.Chemscore.Metal>
0.0000

> <Gold.Chemscore.Lipo>
60.6046

> <Gold.Chemscore.Internal_Hbond>
0.0000

> <Gold.Chemscore.DEClash>
0.6417

> <Gold.Chemscore.DEInternal>
1.4570

> <Gold.Chemscore.Rot>
3.7210

> <Gold.Chemscore.Internal.Correction>
   9.000000E+99

> <Gold.Chemscore.Hbonds>
donor molecule, donor type, donor heavy atom, donor atom, acceptor molecule, acceptor atom, score
      L1  H    19    36       P1  8029  0.60
      P1  H  7997  8008       L1     1  0.53
      P1  H 10752 10763       L1     5  0.39

> <Gold.Chemscore.Hbond.Weighted>
-8.9773

> <Gold.Chemscore.Metal.Weighted>
-0.0000

> <Gold.Chemscore.Lipo.Weighted>
-7.0907

> <Gold.Chemscore.Internal_Hbond.Weighted>
0.0000

> <Gold.Chemscore.DEClash.Weighted>
0.6417

> <Gold.Chemscore.DEInternal.Weighted>
1.4570

> <Gold.Chemscore.Rot.Weighted>
9.5256

> <Gold.Chemscore.Internal.Correction.Weighted>
   9.000000E+99

> <Gold.Protein.RotatedTorsions>
[ 6907 6896 6895 6894 ] final   20.70 input  -60.11 | X-H torsion
[ 7974 7965 7964 7962 ] final   -9.69 input  175.53 | X-H torsion
[ 8008 7997 7996 7995 ] final  -88.47 input   59.86 | X-H torsion
[ 10167 10162 10161 10158 ] final  152.15 input  -65.29 | X-H torsion
[ 10718 10713 10712 10709 ] final  -46.61 input   66.30 | X-H torsion
[ 10763 10752 10751 10750 ] final   56.79 input  -60.55 | X-H torsion
[ 11005 11000 10999 10996 ] final  154.15 input  -57.11 | X-H torsion

> <Gold.Protein.ActiveResidues>
 VAL166  LYS551  ARG553  GLY616  TRP617  ASP618  TYR619  PRO620  LYS621  CYS622 
 ASP623  PHE694  ASN695  SER759  ASP760  ASP761  ALA762  ILE779  LEU786  VAL792 
 PHE793  MET794  SER795  GLU796  ALA797  LYS798  CYS799  TRP800  GLU811  SER814 

> <Gold.Protein.RotatedAtoms>
  151.9005  135.0380  160.0505 H   0  0  0  0  0  0  0  0  0  0  0  0  # atno 6907 bound_to 6896
  152.2362  133.5094  159.5252 H   0  0  0  0  0  0  0  0  0  0  0  0  # atno 6908 bound_to 6896
  150.7040  134.1066  159.4027 H   0  0  0  0  0  0  0  0  0  0  0  0  # atno 6909 bound_to 6896
  146.2244  140.2653  142.8354 H   0  0  0  0  0  0  0  0  0  0  0  0  # atno 7974 bound_to 7965
  154.6752  140.0553  157.0208 H   0  0  0  0  0  0  0  0  0  0  0  0  # atno 8008 bound_to 7997
  155.1031  140.3231  155.4523 H   0  0  0  0  0  0  0  0  0  0  0  0  # atno 8009 bound_to 7997
  156.2673  140.2027  156.6157 H   0  0  0  0  0  0  0  0  0  0  0  0  # atno 8010 bound_to 7997
  139.4835  144.5382  151.7609 H   0  0  0  0  0  0  0  0  0  0  0  0  # atno 10167 bound_to 10162
  156.2166  130.4163  149.9046 H   0  0  0  0  0  0  0  0  0  0  0  0  # atno 10718 bound_to 10713
  152.9838  135.5664  154.5286 H   0  0  0  0  0  0  0  0  0  0  0  0  # atno 10763 bound_to 10752
  154.4761  135.2787  155.1608 H   0  0  0  0  0  0  0  0  0  0  0  0  # atno 10764 bound_to 10752
  154.3136  135.6283  153.5529 H   0  0  0  0  0  0  0  0  0  0  0  0  # atno 10765 bound_to 10752
  140.1463  134.8705  157.2397 H   0  0  0  0  0  0  0  0  0  0  0  0  # atno 11005 bound_to 11000
  144.9308  140.7973  143.5690 LP  0  0  0  0  0  0  0  0  0  0  0  0  # atno 17320 bound_to 7965
  145.2597  139.1997  143.4899 LP  0  0  0  0  0  0  0  0  0  0  0  0  # atno 17321 bound_to 7965
  140.4918  144.1299  150.5952 LP  0  0  0  0  0  0  0  0  0  0  0  0  # atno 17342 bound_to 10162
  140.4163  143.2633  151.9771 LP  0  0  0  0  0  0  0  0  0  0  0  0  # atno 17343 bound_to 10162
  156.6706  130.8819  151.3561 LP  0  0  0  0  0  0  0  0  0  0  0  0  # atno 17370 bound_to 10713
  157.7066  130.9392  150.0952 LP  0  0  0  0  0  0  0  0  0  0  0  0  # atno 17371 bound_to 10713
  140.2660  134.3516  155.7390 LP  0  0  0  0  0  0  0  0  0  0  0  0  # atno 17394 bound_to 11000
  141.2193  133.7396  156.9151 LP  0  0  0  0  0  0  0  0  0  0  0  0  # atno 17395 bound_to 11000

$$$$
