#       Name:                AV-unprocessed.smi:224
#       Creating user name   scv26
#       Creation time:       Thu Mar 26 20:18:04 2020


#       File generated by GOLD software.
#

@<TRIPOS>MOLECULE
AV-unprocessed.smi:224
    66    69     1
SMALL
NO_CHARGES


@<TRIPOS>ATOM
      1 ****        -3.7082   4.9355   3.1978 C.3            1 S1                 0.0000
      2 ****        -2.3096   4.3058   3.2241 C.3            1 S1                 0.0000
      3 ****        -2.0652   3.8293   4.5319 O.3            1 S1                 0.0000
      4 ****        -2.1782   3.1355   2.2333 C.3            1 S1                 0.0000
      5 ****        -0.7684   2.6627   2.1379 N.4            1 S1                 1.0000
      6 ****        -0.0282   3.4131   1.0842 C.3            1 S1                 0.0000
      7 ****         1.4384   2.9662   0.9610 C.3            1 S1                 0.0000
      8 ****         1.5348   1.5185   0.8074 N.3            1 S1                 0.0000
      9 ****         1.4533   0.9661  -0.4338 C.ar           1 S1                 0.0000
     10 ****         0.9397   1.6907  -1.4639 N.ar           1 S1                 0.0000
     11 ****         0.8255   1.1543  -2.6820 C.ar           1 S1                 0.0000
     12 ****         1.1585  -0.0717  -3.0866 N.ar           1 S1                 0.0000
     13 ****         1.6909  -0.8014  -2.0655 C.ar           1 S1                 0.0000
     14 ****         1.8809  -0.3622  -0.7242 C.ar           1 S1                 0.0000
     15 ****         2.4738  -1.3754   0.0211 N.2            1 S1                 0.0000
     16 ****         2.6072  -2.3607  -0.8239 C.2            1 S1                 0.0000
     17 ****         2.1484  -2.1070  -2.0962 N.pl3          1 S1                 0.0000
     18 ****         2.1533  -3.0235  -3.2256 C.3            1 S1                 0.0000
     19 ****         0.8835  -3.9036  -3.3012 C.3            1 S1                 0.0000
     20 ****        -0.2515  -3.0687  -3.4539 O.3            1 S1                 0.0000
     21 ****         0.6679  -4.7924  -2.0788 C.3            1 S1                 0.0000
     22 ****        -0.0087  -6.0222  -2.6673 C.3            1 S1                 0.0000
     23 ****         0.6849  -6.1953  -3.8907 O.3            1 S1                 0.0000
     24 ****         0.9077  -4.9123  -4.4669 C.3            1 S1                 0.0000
     25 ****         0.8791   0.7890   1.8856 C.3            1 S1                 0.0000
     26 ****        -0.6106   1.1779   2.0253 C.3            1 S1                 0.0000
     27 ****        -1.1827   0.4259   3.2455 C.3            1 S1                 0.0000
     28 ****        -3.9357   5.3420   2.2119 H              1 S1                 0.0000
     29 ****        -3.7846   5.7532   3.9155 H              1 S1                 0.0000
     30 ****        -4.4801   4.2046   3.4416 H              1 S1                 0.0000
     31 ****        -1.5737   5.0776   2.9979 H              1 S1                 0.0000
     32 ****        -2.7529   3.2254   4.7688 H              1 S1                 0.0000
     33 ****        -2.8654   2.3478   2.5322 H              1 S1                 0.0000
     34 ****        -2.5270   3.4414   1.2457 H              1 S1                 0.0000
     35 ****        -0.5338   3.2761   0.1276 H              1 S1                 0.0000
     36 ****        -0.0604   4.4812   1.2991 H              1 S1                 0.0000
     37 ****         1.9330   3.4811   0.1363 H              1 S1                 0.0000
     38 ****         1.9835   3.2489   1.8625 H              1 S1                 0.0000
     39 ****         0.4021   1.7975  -3.4394 H              1 S1                 0.0000
     40 ****         3.0401  -3.3082  -0.5375 H              1 S1                 0.0000
     41 ****         2.2662  -2.4432  -4.1424 H              1 S1                 0.0000
     42 ****         3.0423  -3.6510  -3.1499 H              1 S1                 0.0000
     43 ****        -1.0175  -3.6161  -3.5340 H              1 S1                 0.0000
     44 ****         1.6277  -5.0924  -1.6568 H              1 S1                 0.0000
     45 ****         0.0890  -4.3194  -1.2844 H              1 S1                 0.0000
     46 ****         0.0766  -6.9000  -2.0265 H              1 S1                 0.0000
     47 ****        -1.0657  -5.8354  -2.8630 H              1 S1                 0.0000
     48 ****         0.1303  -4.7058  -5.2044 H              1 S1                 0.0000
     49 ****         1.8626  -4.9177  -4.9933 H              1 S1                 0.0000
     50 ****         0.9639  -0.2883   1.7544 H              1 S1                 0.0000
     51 ****         1.4080   1.0179   2.8117 H              1 S1                 0.0000
     52 ****        -1.1392   0.8489   1.1289 H              1 S1                 0.0000
     53 ****        -0.9313  -0.6340   3.1973 H              1 S1                 0.0000
     54 ****        -2.2681   0.4739   3.3105 H              1 S1                 0.0000
     55 ****        -0.7728   0.8155   4.1782 H              1 S1                 0.0000
     56 ****        -0.3347   2.9057   3.0175 H              1 S1                 0.0000
     57 ****        -2.0558   4.5966   5.1731 LP             1 S1                 0.0000
     58 ****        -1.1821   3.3609   4.5596 LP             1 S1                 0.0000
     59 ****         2.5174   1.3719   0.9217 LP             1 S1                 0.0000
     60 ****         0.6449   2.6334  -1.3080 LP             1 S1                 0.0000
     61 ****         1.0339  -0.4120  -4.0186 LP             1 S1                 0.0000
     62 ****         2.7379  -1.3539   0.9853 LP             1 S1                 0.0000
     63 ****        -0.1499  -2.5082  -4.2758 LP             1 S1                 0.0000
     64 ****        -0.3434  -2.4747  -2.6547 LP             1 S1                 0.0000
     65 ****         0.1373  -6.7545  -4.5131 LP             1 S1                 0.0000
     66 ****         1.5613  -6.6461  -3.7212 LP             1 S1                 0.0000
@<TRIPOS>BOND
    1    1    2 1     
    2    1   28 1     
    3    1   29 1     
    4    1   30 1     
    5    2    3 1     
    6    2    4 1     
    7    2   31 1     
    8    3   32 1     
    9    4    5 1     
   10    4   33 1     
   11    4   34 1     
   12    5   26 1     
   13    5    6 1     
   14    5   56 1     
   15    6    7 1     
   16    6   35 1     
   17    6   36 1     
   18    7    8 1     
   19    7   37 1     
   20    7   38 1     
   21    8    9 1     
   22    8   25 1     
   23    9   14 ar    
   24    9   10 ar    
   25   10   11 ar    
   26   11   12 ar    
   27   11   39 1     
   28   12   13 ar    
   29   13   17 1     
   30   13   14 ar    
   31   14   15 1     
   32   15   16 2     
   33   16   17 1     
   34   16   40 1     
   35   17   18 1     
   36   18   19 1     
   37   18   41 1     
   38   18   42 1     
   39   19   24 1     
   40   19   20 1     
   41   19   21 1     
   42   20   43 1     
   43   21   22 1     
   44   21   44 1     
   45   21   45 1     
   46   22   23 1     
   47   22   46 1     
   48   22   47 1     
   49   23   24 1     
   50   24   48 1     
   51   24   49 1     
   52   25   26 1     
   53   25   50 1     
   54   25   51 1     
   55   26   27 1     
   56   26   52 1     
   57   27   53 1     
   58   27   54 1     
   59   27   55 1     
   60    3   57 1     
   61    3   58 1     
   62    8   59 1     
   63   10   60 1     
   64   12   61 1     
   65   15   62 1     
   66   20   63 1     
   67   20   64 1     
   68   23   65 1     
   69   23   66 1     
@<TRIPOS>SUBSTRUCTURE
      1 S1             1
@<TRIPOS>SET
LONE_PAIRS      STATIC     ATOMS    <user>   **** ""
10 57 58 59 60 61 62 63 64 65 66
DONOR_HYDROGENS      STATIC     ATOMS    <user>   **** ""
3 32 56 43
ATOM$BLUE        STATIC     ATOMS    COLORGROUP SYSTEM
10 57 58 59 60 61 62 63 64 65 66
ATOM$RED        STATIC     ATOMS    COLORGROUP SYSTEM
3 32 56 43
