AV-unprocessed.smi:2862|AV-procd|sdf|11009|dock1
  -GOLD-   2272015463D 1   1.00000     0.00000
 Structure written by MMmdl.
 52 54  0  0  0  0  0  0  0  0  1 V2000
  143.4576  135.9020  153.4712 C   0  0  0  0  0  0  0  0  0  0  0  0
  143.3143  137.4306  153.5699 C   0  0  1  0  0  0  0  0  0  0  0  0
  144.4813  138.1073  153.0061 N   0  0  0  0  0  0  0  0  0  0  0  0
  145.7761  137.8909  153.3040 C   0  0  0  0  0  0  0  0  0  0  0  0
  146.1451  137.0530  154.1255 O   0  0  0  0  0  0  0  0  0  0  0  0
  146.8394  138.7368  152.5810 C   0  0  0  0  0  0  0  0  0  0  0  0
  147.4609  139.7932  153.4018 N   0  0  0  0  0  0  0  0  0  0  0  0
  146.8146  141.0453  153.4172 C   0  0  0  0  0  0  0  0  0  0  0  0
  147.2812  142.0810  154.1308 C   0  0  0  0  0  0  0  0  0  0  0  0
  148.4848  141.8930  154.9024 C   0  0  0  0  0  0  0  0  0  0  0  0
  149.0976  140.6872  154.9223 C   0  0  0  0  0  0  0  0  0  0  0  0
  150.3555  140.4594  155.6461 C   0  0  0  0  0  0  0  0  0  0  0  0
  151.3251  139.9023  155.1271 O   0  0  0  0  0  0  0  0  0  0  0  0
  150.4033  140.9357  156.9242 N   0  0  0  0  0  0  0  0  0  0  0  0
  149.2036  141.2074  157.7346 C   0  0  0  0  0  0  0  0  0  0  0  0
  151.6655  141.0623  157.6860 C   0  0  2  0  0  0  0  0  0  0  0  0
  152.2149  139.6881  158.1190 C   0  0  0  0  0  0  0  0  0  0  0  0
  151.6054  142.0276  158.8629 C   0  0  0  0  0  0  0  0  0  0  0  0
  152.1731  143.4228  158.7605 C   0  0  0  0  0  0  0  0  0  0  0  0
  152.8525  142.3910  159.6326 C   0  0  0  0  0  0  0  0  0  0  0  0
  148.6001  139.5449  154.1216 C   0  0  0  0  0  0  0  0  0  0  0  0
  149.1312  138.4310  154.0991 O   0  0  0  0  0  0  0  0  0  0  0  0
  141.9756  137.9076  153.0276 C   0  0  0  0  0  0  0  0  0  0  0  0
  141.1051  138.8504  153.8227 C   0  0  0  0  0  0  0  0  0  0  0  0
  140.6773  137.4137  153.6192 C   0  0  0  0  0  0  0  0  0  0  0  0
  142.6568  135.4007  154.0155 H   0  0  0  0  0  0  0  0  0  0  0  0
  144.4034  135.5666  153.8980 H   0  0  0  0  0  0  0  0  0  0  0  0
  143.4163  135.5570  152.4379 H   0  0  0  0  0  0  0  0  0  0  0  0
  143.3344  137.6799  154.6314 H   0  0  0  0  0  0  0  0  0  0  0  0
  144.2852  138.8182  152.3166 H   0  0  0  0  0  0  0  0  0  0  0  0
  147.6043  138.0662  152.1851 H   0  0  0  0  0  0  0  0  0  0  0  0
  146.3726  139.1746  151.6977 H   0  0  0  0  0  0  0  0  0  0  0  0
  145.9162  141.1061  152.8200 H   0  0  0  0  0  0  0  0  0  0  0  0
  146.7668  143.0306  154.1306 H   0  0  0  0  0  0  0  0  0  0  0  0
  148.8935  142.7296  155.4509 H   0  0  0  0  0  0  0  0  0  0  0  0
  148.3327  140.6371  157.4088 H   0  0  0  0  0  0  0  0  0  0  0  0
  148.9544  142.2682  157.7007 H   0  0  0  0  0  0  0  0  0  0  0  0
  149.3540  140.9363  158.7800 H   0  0  0  0  0  0  0  0  0  0  0  0
  152.4256  141.4547  157.0081 H   0  0  0  0  0  0  0  0  0  0  0  0
  153.2236  139.7856  158.5213 H   0  0  0  0  0  0  0  0  0  0  0  0
  152.2672  139.0019  157.2731 H   0  0  0  0  0  0  0  0  0  0  0  0
  151.6064  139.2205  158.8925 H   0  0  0  0  0  0  0  0  0  0  0  0
  150.7089  141.9285  159.4713 H   0  0  0  0  0  0  0  0  0  0  0  0
  152.6722  143.7031  157.8353 H   0  0  0  0  0  0  0  0  0  0  0  0
  151.6276  144.2229  159.2567 H   0  0  0  0  0  0  0  0  0  0  0  0
  152.7610  142.5033  160.7110 H   0  0  0  0  0  0  0  0  0  0  0  0
  153.8011  141.9872  159.2847 H   0  0  0  0  0  0  0  0  0  0  0  0
  141.9638  138.0504  151.9487 H   0  0  0  0  0  0  0  0  0  0  0  0
  141.4442  139.1377  154.8160 H   0  0  0  0  0  0  0  0  0  0  0  0
  140.5674  139.6199  153.2724 H   0  0  0  0  0  0  0  0  0  0  0  0
  139.8520  137.2271  152.9349 H   0  0  0  0  0  0  0  0  0  0  0  0
  140.7312  136.7475  154.4780 H   0  0  0  0  0  0  0  0  0  0  0  0
  1  2  1  0  0  0  0
  1 26  1  0  0  0  0
  1 27  1  0  0  0  0
  1 28  1  0  0  0  0
  2  3  1  0  0  0  0
  2 23  1  0  0  0  0
  2 29  1  0  0  0  0
  3  4  1  0  0  0  0
  3 30  1  0  0  0  0
  4  5  2  0  0  0  0
  4  6  1  0  0  0  0
  6  7  1  0  0  0  0
  6 31  1  0  0  0  0
  6 32  1  0  0  0  0
  7 21  1  0  0  0  0
  7  8  1  0  0  0  0
  8  9  2  0  0  0  0
  8 33  1  0  0  0  0
  9 10  1  0  0  0  0
  9 34  1  0  0  0  0
 10 11  2  0  0  0  0
 10 35  1  0  0  0  0
 11 12  1  0  0  0  0
 11 21  1  0  0  0  0
 12 13  2  0  0  0  0
 12 14  1  0  0  0  0
 14 15  1  0  0  0  0
 14 16  1  0  0  0  0
 15 36  1  0  0  0  0
 15 37  1  0  0  0  0
 15 38  1  0  0  0  0
 16 17  1  0  0  0  0
 16 18  1  0  0  0  0
 16 39  1  0  0  0  0
 17 40  1  0  0  0  0
 17 41  1  0  0  0  0
 17 42  1  0  0  0  0
 18 20  1  0  0  0  0
 18 19  1  0  0  0  0
 18 43  1  0  0  0  0
 19 20  1  0  0  0  0
 19 44  1  0  0  0  0
 19 45  1  0  0  0  0
 20 46  1  0  0  0  0
 20 47  1  0  0  0  0
 21 22  2  0  0  0  0
 23 25  1  0  0  0  0
 23 24  1  0  0  0  0
 23 48  1  0  0  0  0
 24 25  1  0  0  0  0
 24 49  1  0  0  0  0
 24 50  1  0  0  0  0
 25 51  1  0  0  0  0
 25 52  1  0  0  0  0
M  END
> <s_m_source_file>
AV-unprocessed.smi

> <i_m_source_file_index>
2862

> <i_lp_mmshare_version>
43012

> <i_f3d_flags>
0

> <s_epik_input>
W0NIMl0xW0NIMl1bQ0hdMVtDQEhdKFtDSDNdKVtOSF1DKD1PKVtDSDJdbjJbY0hdW2NIXVtjSF1jKGMyPU8pQyg9TylOKFtDSDNdKVtDQEhdKFtDSDNdKVtDSF0zW0NIMl1bQ0gyXTM=

> <s_epik_cmdline>
J2VwaWtfcHl0aG9uJywgJy1waCcsICc3LjAnLCAnLXRuJywgJzgnLCAnLW1hJywgJzIwMCcsICctbWV0YWxfYmluZGluZycsICctaW1hZScsICc8aW5maWxlLm1hZT4nLCAnLW9tYWUnLCAnPG91dGZpbGUubWFlPic=

> <r_lp_tautomer_probability>
1

> <r_epik_Ionization_Penalty>
4.00841e-08

> <r_epik_Ionization_Penalty_Charging>
2.07773e-08

> <r_epik_Ionization_Penalty_Neutral>
1.93069e-08

> <r_epik_State_Penalty>
-0

> <r_epik_Charging_Adjusted_Penalty>
2.07773e-08

> <i_epik_Tot_Q>
0

> <i_epik_Tot_abs_Q>
0

> <r_epik_Metal_State_Penalty>
-0

> <b_epik_Metal_Only>
0

> <s_lp_Force_Field>
OPLS_2005

> <r_lp_Energy>
60.0482

> <b_lp_Chiralities_Consistent>
1

> <s_lp_Variant>
AV-unprocessed.smi:2862-2

> <Gold.Version>
5.8.1

> <Gold.Id.Protein>
6NUR|6NUR_protein|mol2

> <Gold.PLP.Fitness>
52.4116

> <Gold.PLP.PLP>
-46.2198

> <Gold.PLP.part.hbond>
-2.0000

> <Gold.PLP.part.metal>
0.0000

> <Gold.PLP.part.buried>
-3.6364

> <Gold.PLP.part.nonpolar>
-41.6917

> <Gold.PLP.part.repulsive>
0.3602

> <Gold.PLP.ligand.clash>
0.0000

> <Gold.PLP.ligand.torsion>
3.3231

> <Gold.PLP.Chemscore.Hbond>
1.7040

> <Gold.PLP.Chemscore.CHOScore>
0.9090

> <Gold.PLP.Chemscore.Metal>
0.0000

> <Gold.Chemscore.Hbonds>
donor molecule, donor type, donor heavy atom, donor atom, acceptor molecule, acceptor atom, score
      L1  H     3    30       P1 10175  0.66
      P1  H  7989  7998       L1    13  1.00
      L1  C     8    33       P1 10175  0.86

> <Gold.PLP.Chemscore.Internal.Correction>
4.9990

> <Gold.Rescore>
     Score         DG    S(hbond)    S(metal)    S(lipo)     H(rot)  DE(clash)    DE(int)     intcor
     12.51     -18.57       1.86        0.00      96.81       1.73       1.29       4.78       ----

> <Gold.Chemscore.Fitness>
12.5053

> <Gold.Chemscore.DG>
-18.5700

> <Gold.Chemscore.ZeroCoef>
-5.4800

> <Gold.Chemscore.Hbond>
1.8576

> <Gold.Chemscore.Metal>
0.0000

> <Gold.Chemscore.Lipo>
96.8099

> <Gold.Chemscore.Internal_Hbond>
0.0000

> <Gold.Chemscore.DEClash>
1.2873

> <Gold.Chemscore.DEInternal>
4.7773

> <Gold.Chemscore.Rot>
1.7348

> <Gold.Chemscore.Internal.Correction>
   9.000000E+99

> <Gold.Chemscore.Hbonds>
donor molecule, donor type, donor heavy atom, donor atom, acceptor molecule, acceptor atom, score
      L1  H     3    30       P1 10175  0.66
      P1  H  7989  7998       L1    13  0.50

> <Gold.Chemscore.Hbond.Weighted>
-6.2043

> <Gold.Chemscore.Metal.Weighted>
-0.0000

> <Gold.Chemscore.Lipo.Weighted>
-11.3268

> <Gold.Chemscore.Internal_Hbond.Weighted>
0.0000

> <Gold.Chemscore.DEClash.Weighted>
1.2873

> <Gold.Chemscore.DEInternal.Weighted>
4.7773

> <Gold.Chemscore.Rot.Weighted>
4.4412

> <Gold.Chemscore.Internal.Correction.Weighted>
   9.000000E+99

> <Gold.Protein.RotatedTorsions>
[ 6907 6896 6895 6894 ] final  -50.66 input  -60.11 | X-H torsion
[ 7974 7965 7964 7962 ] final   88.10 input  175.53 | X-H torsion
[ 8008 7997 7996 7995 ] final  135.01 input   59.86 | X-H torsion
[ 10167 10162 10161 10158 ] final  -28.58 input  -65.29 | X-H torsion
[ 10718 10713 10712 10709 ] final   88.99 input   66.30 | X-H torsion
[ 10763 10752 10751 10750 ] final   97.59 input  -60.55 | X-H torsion
[ 11005 11000 10999 10996 ] final   45.76 input  -57.11 | X-H torsion

> <Gold.Protein.ActiveResidues>
 VAL166  LYS551  ARG553  GLY616  TRP617  ASP618  TYR619  PRO620  LYS621  CYS622 
 ASP623  PHE694  ASN695  SER759  ASP760  ASP761  ALA762  ILE779  LEU786  VAL792 
 PHE793  MET794  SER795  GLU796  ALA797  LYS798  CYS799  TRP800  GLU811  SER814 

> <Gold.Protein.RotatedAtoms>
  150.8686  134.8054  159.7136 H   0  0  0  0  0  0  0  0  0  0  0  0  # atno 6907 bound_to 6896
  152.4698  134.4984  159.9727 H   0  0  0  0  0  0  0  0  0  0  0  0  # atno 6908 bound_to 6896
  151.5076  133.3453  159.2915 H   0  0  0  0  0  0  0  0  0  0  0  0  # atno 6909 bound_to 6896
  145.5501  139.2295  143.2517 H   0  0  0  0  0  0  0  0  0  0  0  0  # atno 7974 bound_to 7965
  156.3001  140.2481  156.3511 H   0  0  0  0  0  0  0  0  0  0  0  0  # atno 8008 bound_to 7997
  154.8964  140.0407  157.1888 H   0  0  0  0  0  0  0  0  0  0  0  0  # atno 8009 bound_to 7997
  154.8545  140.2911  155.5582 H   0  0  0  0  0  0  0  0  0  0  0  0  # atno 8010 bound_to 7997
  140.7268  143.3998  151.1285 H   0  0  0  0  0  0  0  0  0  0  0  0  # atno 10167 bound_to 10162
  157.6952  131.0316  150.3358 H   0  0  0  0  0  0  0  0  0  0  0  0  # atno 10718 bound_to 10713
  153.2788  135.4178  155.1059 H   0  0  0  0  0  0  0  0  0  0  0  0  # atno 10763 bound_to 10752
  154.8482  135.3490  154.6141 H   0  0  0  0  0  0  0  0  0  0  0  0  # atno 10764 bound_to 10752
  153.6561  135.7050  153.5250 H   0  0  0  0  0  0  0  0  0  0  0  0  # atno 10765 bound_to 10752
  140.1431  134.4558  155.8435 H   0  0  0  0  0  0  0  0  0  0  0  0  # atno 11005 bound_to 11000
  146.1922  140.6324  142.9140 LP  0  0  0  0  0  0  0  0  0  0  0  0  # atno 17320 bound_to 7965
  144.7533  140.5246  143.6786 LP  0  0  0  0  0  0  0  0  0  0  0  0  # atno 17321 bound_to 7965
  139.7616  143.8627  152.3101 LP  0  0  0  0  0  0  0  0  0  0  0  0  # atno 17342 bound_to 10162
  139.8515  144.7162  150.9209 LP  0  0  0  0  0  0  0  0  0  0  0  0  # atno 17343 bound_to 10162
  156.3825  130.3883  149.7091 LP  0  0  0  0  0  0  0  0  0  0  0  0  # atno 17370 bound_to 10713
  156.4468  130.7887  151.2909 LP  0  0  0  0  0  0  0  0  0  0  0  0  # atno 17371 bound_to 10713
  141.2189  133.6841  156.7283 LP  0  0  0  0  0  0  0  0  0  0  0  0  # atno 17394 bound_to 11000
  140.2698  134.8401  157.3836 LP  0  0  0  0  0  0  0  0  0  0  0  0  # atno 17395 bound_to 11000

$$$$
