#       Name:                AV-unprocessed.smi:2865
#       Creating user name   scv26
#       Creation time:       Fri Mar 27 15:47:56 2020


#       File generated by GOLD software.
#

@<TRIPOS>MOLECULE
AV-unprocessed.smi:2865
    44    47     1
SMALL
NO_CHARGES


@<TRIPOS>ATOM
      1 ****        -0.6168   2.4332   0.7802 O.2            1 S1                 0.0000
      2 ****        -0.9364   1.2485   0.7171 C.2            1 S1                 0.0000
      3 ****        -0.0704   0.2241   0.5932 N.am           1 S1                 0.0000
      4 ****         1.3497   0.2545   0.5855 C.ar           1 S1                 0.0000
      5 ****         2.1483   1.3439   1.0133 C.ar           1 S1                 0.0000
      6 ****         3.4976   1.2833   0.9967 N.ar           1 S1                 0.0000
      7 ****         4.0491   0.1508   0.5522 C.ar           1 S1                 0.0000
      8 ****         5.5443   0.0754   0.5768 C.3            1 S1                 0.0000
      9 ****         6.3870   1.1174  -0.1300 C.3            1 S1                 0.0000
     10 ****         6.3228  -0.2831  -0.6726 C.3            1 S1                 0.0000
     11 ****         3.4005  -0.9434   0.1446 N.ar           1 S1                 0.0000
     12 ****         2.0514  -0.8923   0.1582 C.ar           1 S1                 0.0000
     13 ****        -2.2277   0.8753   0.7445 N.am           1 S1                 0.0000
     14 ****        -3.4101   1.7313   0.8688 C.3            1 S1                 0.0000
     15 ****        -4.7018   0.9656   0.5674 C.3            1 S1                 0.0000
     16 ****        -5.4975   1.1554   1.8659 C.3            1 S1                 0.0000
     17 ****        -4.9215   0.3214   3.0186 C.3            1 S1                 0.0000
     18 ****        -3.6494   1.0959   3.3592 C.3            1 S1                 0.0000
     19 ****        -3.6768   2.2191   2.3091 C.3            1 S1                 0.0000
     20 ****        -5.0728   2.4542   2.2418 O.3            1 S1                 0.0000
     21 ****        -0.4831  -0.6892   0.4721 H              1 S1                 0.0000
     22 ****         1.7315   2.2631   1.3932 H              1 S1                 0.0000
     23 ****         5.9054  -0.3085   1.5290 H              1 S1                 0.0000
     24 ****         5.8708   1.8952  -0.6895 H              1 S1                 0.0000
     25 ****         7.3106   1.4266   0.3547 H              1 S1                 0.0000
     26 ****         7.2034  -0.9107  -0.5519 H              1 S1                 0.0000
     27 ****         5.7633  -0.4372  -1.5933 H              1 S1                 0.0000
     28 ****         1.5285  -1.7778  -0.1727 H              1 S1                 0.0000
     29 ****        -2.4110  -0.1143   0.6641 H              1 S1                 0.0000
     30 ****        -3.3384   2.5826   0.1892 H              1 S1                 0.0000
     31 ****        -5.2241   1.4222  -0.2741 H              1 S1                 0.0000
     32 ****        -4.5458  -0.0886   0.3333 H              1 S1                 0.0000
     33 ****        -6.5757   1.0532   1.7413 H              1 S1                 0.0000
     34 ****        -5.6018   0.3106   3.8707 H              1 S1                 0.0000
     35 ****        -4.7233  -0.7100   2.7246 H              1 S1                 0.0000
     36 ****        -3.7206   1.5140   4.3640 H              1 S1                 0.0000
     37 ****        -2.7495   0.4821   3.3168 H              1 S1                 0.0000
     38 ****        -3.0947   3.0966   2.5917 H              1 S1                 0.0000
     39 ****         0.3478   2.6937   0.7398 LP             1 S1                 0.0000
     40 ****        -1.3213   3.1370   0.8720 LP             1 S1                 0.0000
     41 ****         4.0587   2.0521   1.3035 LP             1 S1                 0.0000
     42 ****         3.8907  -1.7614  -0.1563 LP             1 S1                 0.0000
     43 ****        -5.4496   2.7309   3.1258 LP             1 S1                 0.0000
     44 ****        -5.3049   3.1393   1.5514 LP             1 S1                 0.0000
@<TRIPOS>BOND
    1    1    2 2     
    2    2    3 am    
    3    2   13 am    
    4    3    4 1     
    5    3   21 1     
    6    4   12 ar    
    7    4    5 ar    
    8    5    6 ar    
    9    5   22 1     
   10    6    7 ar    
   11    7    8 1     
   12    7   11 ar    
   13    8   10 1     
   14    8    9 1     
   15    8   23 1     
   16    9   10 1     
   17    9   24 1     
   18    9   25 1     
   19   10   26 1     
   20   10   27 1     
   21   11   12 ar    
   22   12   28 1     
   23   13   14 1     
   24   13   29 1     
   25   14   19 1     
   26   14   15 1     
   27   14   30 1     
   28   15   16 1     
   29   15   31 1     
   30   15   32 1     
   31   16   20 1     
   32   16   17 1     
   33   16   33 1     
   34   17   18 1     
   35   17   34 1     
   36   17   35 1     
   37   18   19 1     
   38   18   36 1     
   39   18   37 1     
   40   19   20 1     
   41   19   38 1     
   42    1   39 1     
   43    1   40 1     
   44    6   41 1     
   45   11   42 1     
   46   20   43 1     
   47   20   44 1     
@<TRIPOS>SUBSTRUCTURE
      1 S1             1
@<TRIPOS>SET
LONE_PAIRS      STATIC     ATOMS    <user>   **** ""
6 39 40 41 42 43 44
DONOR_HYDROGENS      STATIC     ATOMS    <user>   **** ""
2 21 29
ATOM$BLUE        STATIC     ATOMS    COLORGROUP SYSTEM
6 39 40 41 42 43 44
ATOM$RED        STATIC     ATOMS    COLORGROUP SYSTEM
2 21 29
