AV-unprocessed.smi:3303|AV-procd|sdf|12677|dock7
  -GOLD-   2272019 13D 1   1.00000     0.00000
 Structure written by MMmdl.
 44 45  0  0  0  0  0  0  0  0  2 V2000
  149.1201  140.1117  154.2049 C   0  0  0  0  0  0  0  0  0  0  0  0
  147.8875  140.7282  154.8864 C   0  0  2  0  0  0  0  0  0  0  0  0
  147.3400  141.9415  154.1108 C   0  0  0  0  0  0  0  0  0  0  0  0
  146.0922  142.4297  154.7053 N   0  0  0  0  0  0  0  0  0  0  0  0
  145.6033  143.5121  153.8548 C   0  0  0  0  0  0  0  0  0  0  0  0
  146.3071  142.8742  156.0940 C   0  0  1  0  0  0  0  0  0  0  0  0
  145.0106  143.4094  156.7351 C   0  0  0  0  0  0  0  0  0  0  0  0
  146.8483  141.6987  156.9414 C   0  0  0  0  0  0  0  0  0  0  0  0
  148.1349  141.0930  156.3624 C   0  0  2  0  0  0  0  0  0  0  0  0
  149.2656  142.0386  156.5168 N   0  3  0  0  0  0  0  0  0  0  0  0
  149.7861  142.1673  157.8924 C   0  0  0  0  0  0  0  0  0  0  0  0
  151.2771  142.5297  157.8844 C   0  0  0  0  0  0  0  0  0  0  0  0
  151.8265  142.7279  159.2841 C   0  0  0  0  0  0  0  0  0  0  0  0
  152.8657  141.9085  159.7743 C   0  0  0  0  0  0  0  0  0  0  0  0
  153.3350  142.1322  161.0834 C   0  0  0  0  0  0  0  0  0  0  0  0
  152.7497  143.1602  161.8473 C   0  0  0  0  0  0  0  0  0  0  0  0
  151.7154  143.9213  161.2666 C   0  0  0  0  0  0  0  0  0  0  0  0
  151.2568  143.7138  160.0130 N   0  0  0  0  0  0  0  0  0  0  0  0
  149.9420  140.8243  154.1326 H   0  0  0  0  0  0  0  0  0  0  0  0
  148.8818  139.7831  153.1929 H   0  0  0  0  0  0  0  0  0  0  0  0
  149.4789  139.2419  154.7558 H   0  0  0  0  0  0  0  0  0  0  0  0
  147.1119  139.9600  154.8692 H   0  0  0  0  0  0  0  0  0  0  0  0
  148.0808  142.7420  154.0768 H   0  0  0  0  0  0  0  0  0  0  0  0
  147.1501  141.6433  153.0786 H   0  0  0  0  0  0  0  0  0  0  0  0
  144.6078  143.8371  154.1544 H   0  0  0  0  0  0  0  0  0  0  0  0
  145.5217  143.1812  152.8187 H   0  0  0  0  0  0  0  0  0  0  0  0
  146.2722  144.3735  153.8840 H   0  0  0  0  0  0  0  0  0  0  0  0
  147.0453  143.6778  156.0939 H   0  0  0  0  0  0  0  0  0  0  0  0
  145.1560  143.6069  157.7974 H   0  0  0  0  0  0  0  0  0  0  0  0
  144.1943  142.6919  156.6437 H   0  0  0  0  0  0  0  0  0  0  0  0
  144.6873  144.3497  156.2893 H   0  0  0  0  0  0  0  0  0  0  0  0
  147.0260  142.0240  157.9675 H   0  0  0  0  0  0  0  0  0  0  0  0
  146.0858  140.9202  157.0026 H   0  0  0  0  0  0  0  0  0  0  0  0
  148.3573  140.1781  156.9145 H   0  0  0  0  0  0  0  0  0  0  0  0
  150.0176  141.7288  155.9182 H   0  0  0  0  0  0  0  0  0  0  0  0
  149.2146  142.9328  158.4195 H   0  0  0  0  0  0  0  0  0  0  0  0
  149.6370  141.2261  158.4234 H   0  0  0  0  0  0  0  0  0  0  0  0
  151.8485  141.7477  157.3824 H   0  0  0  0  0  0  0  0  0  0  0  0
  151.4375  143.4437  157.3104 H   0  0  0  0  0  0  0  0  0  0  0  0
  153.2951  141.1268  159.1649 H   0  0  0  0  0  0  0  0  0  0  0  0
  154.1299  141.5270  161.4938 H   0  0  0  0  0  0  0  0  0  0  0  0
  153.0852  143.3614  162.8541 H   0  0  0  0  0  0  0  0  0  0  0  0
  151.2438  144.7173  161.8237 H   0  0  0  0  0  0  0  0  0  0  0  0
  148.9625  142.9497  156.2037 H   0  0  0  0  0  0  0  0  0  0  0  0
  1  2  1  0  0  0  0
  1 19  1  0  0  0  0
  1 20  1  0  0  0  0
  1 21  1  0  0  0  0
  2  9  1  0  0  0  0
  2  3  1  0  0  0  0
  2 22  1  0  0  0  0
  3  4  1  0  0  0  0
  3 23  1  0  0  0  0
  3 24  1  0  0  0  0
  4  5  1  0  0  0  0
  4  6  1  0  0  0  0
  5 25  1  0  0  0  0
  5 26  1  0  0  0  0
  5 27  1  0  0  0  0
  6  7  1  0  0  0  0
  6  8  1  0  0  0  0
  6 28  1  0  0  0  0
  7 29  1  0  0  0  0
  7 30  1  0  0  0  0
  7 31  1  0  0  0  0
  8  9  1  0  0  0  0
  8 32  1  0  0  0  0
  8 33  1  0  0  0  0
  9 10  1  0  0  0  0
  9 34  1  0  0  0  0
 10 11  1  0  0  0  0
 10 35  1  0  0  0  0
 10 44  1  0  0  0  0
 11 12  1  0  0  0  0
 11 36  1  0  0  0  0
 11 37  1  0  0  0  0
 12 13  1  0  0  0  0
 12 38  1  0  0  0  0
 12 39  1  0  0  0  0
 13 18  1  0  0  0  0
 13 14  2  0  0  0  0
 14 15  1  0  0  0  0
 14 40  1  0  0  0  0
 15 16  2  0  0  0  0
 15 41  1  0  0  0  0
 16 17  1  0  0  0  0
 16 42  1  0  0  0  0
 17 18  2  0  0  0  0
 17 43  1  0  0  0  0
M  CHG  1  10   1
M  END
> <s_m_source_file>
AV-unprocessed.smi

> <i_m_source_file_index>
3303

> <i_lp_mmshare_version>
43012

> <i_f3d_flags>
0

> <s_epik_input>
W0NIM11bQ0BASF0xW0NIMl1OKFtDSDNdKVtDQEBIXShbQ0gzXSlbQ0gyXVtDQEhdMVtOSF1bQ0gyXVtDSDJdYzJbY0hdW2NIXVtjSF1bY0hdbjI=

> <s_epik_cmdline>
J2VwaWtfcHl0aG9uJywgJy1waCcsICc3LjAnLCAnLXRuJywgJzgnLCAnLW1hJywgJzIwMCcsICctbWV0YWxfYmluZGluZycsICctaW1hZScsICc8aW5maWxlLm1hZT4nLCAnLW9tYWUnLCAnPG91dGZpbGUubWFlPic=

> <r_epik_Ionization_Penalty>
1.37325

> <r_epik_Ionization_Penalty_Charging>
0.000251572

> <r_epik_Ionization_Penalty_Neutral>
1.373

> <r_epik_State_Penalty>
1.46343

> <r_epik_Charging_Adjusted_Penalty>
1.46368

> <i_epik_Tot_Q>
1

> <i_epik_Tot_abs_Q>
1

> <r_epik_Metal_State_Penalty>
1.46331

> <b_epik_Metal_Only>
0

> <s_lp_Force_Field>
OPLS_2005

> <r_lp_Energy>
25.9316

> <b_lp_Chiralities_Consistent>
1

> <s_lp_Variant>
AV-unprocessed.smi:3303-21

> <Gold.Version>
5.8.1

> <Gold.Id.Protein>
6NUR|6NUR_protein|mol2

> <Gold.PLP.Fitness>
43.0653

> <Gold.PLP.PLP>
-37.6233

> <Gold.PLP.part.hbond>
-1.0000

> <Gold.PLP.part.metal>
0.0000

> <Gold.PLP.part.buried>
-4.6744

> <Gold.PLP.part.nonpolar>
-31.3296

> <Gold.PLP.part.repulsive>
0.2744

> <Gold.PLP.ligand.clash>
0.0000

> <Gold.PLP.ligand.torsion>
0.2809

> <Gold.PLP.Chemscore.Hbond>
2.0000

> <Gold.PLP.Chemscore.CHOScore>
0.0000

> <Gold.PLP.Chemscore.Metal>
0.0000

> <Gold.Chemscore.Hbonds>
donor molecule, donor type, donor heavy atom, donor atom, acceptor molecule, acceptor atom, score
      L1  H    10    44       P1  8028  2.00

> <Gold.PLP.Chemscore.Internal.Correction>
0.0037

> <Gold.Rescore>
     Score         DG    S(hbond)    S(metal)    S(lipo)     H(rot)  DE(clash)    DE(int)     intcor
     17.55     -18.10       1.00        0.00     108.46       1.33       0.28       0.27       ----

> <Gold.Chemscore.Fitness>
17.5522

> <Gold.Chemscore.DG>
-18.0984

> <Gold.Chemscore.ZeroCoef>
-5.4800

> <Gold.Chemscore.Hbond>
0.9977

> <Gold.Chemscore.Metal>
0.0000

> <Gold.Chemscore.Lipo>
108.4632

> <Gold.Chemscore.Internal_Hbond>
0.0000

> <Gold.Chemscore.DEClash>
0.2783

> <Gold.Chemscore.DEInternal>
0.2678

> <Gold.Chemscore.Rot>
1.3298

> <Gold.Chemscore.Internal.Correction>
   9.000000E+99

> <Gold.Chemscore.Hbonds>
donor molecule, donor type, donor heavy atom, donor atom, acceptor molecule, acceptor atom, score
      L1  H    10    44       P1  8028  1.00

> <Gold.Chemscore.Hbond.Weighted>
-3.3325

> <Gold.Chemscore.Metal.Weighted>
-0.0000

> <Gold.Chemscore.Lipo.Weighted>
-12.6902

> <Gold.Chemscore.Internal_Hbond.Weighted>
0.0000

> <Gold.Chemscore.DEClash.Weighted>
0.2783

> <Gold.Chemscore.DEInternal.Weighted>
0.2678

> <Gold.Chemscore.Rot.Weighted>
3.4043

> <Gold.Chemscore.Internal.Correction.Weighted>
   9.000000E+99

> <Gold.Protein.RotatedTorsions>
[ 6907 6896 6895 6894 ] final  152.85 input  -60.11 | X-H torsion
[ 7974 7965 7964 7962 ] final  -59.48 input  175.53 | X-H torsion
[ 8008 7997 7996 7995 ] final -178.51 input   59.86 | X-H torsion
[ 10167 10162 10161 10158 ] final  -88.36 input  -65.29 | X-H torsion
[ 10718 10713 10712 10709 ] final   11.10 input   66.30 | X-H torsion
[ 10763 10752 10751 10750 ] final -175.10 input  -60.55 | X-H torsion
[ 11005 11000 10999 10996 ] final -177.18 input  -57.11 | X-H torsion

> <Gold.Protein.ActiveResidues>
 VAL166  LYS551  ARG553  GLY616  TRP617  ASP618  TYR619  PRO620  LYS621  CYS622 
 ASP623  PHE694  ASN695  SER759  ASP760  ASP761  ALA762  ILE779  LEU786  VAL792 
 PHE793  MET794  SER795  GLU796  ALA797  LYS798  CYS799  TRP800  GLU811  SER814 

> <Gold.Protein.RotatedAtoms>
  152.0809  133.4152  159.4500 H   0  0  0  0  0  0  0  0  0  0  0  0  # atno 6907 bound_to 6896
  150.6862  134.2983  159.4705 H   0  0  0  0  0  0  0  0  0  0  0  0  # atno 6908 bound_to 6896
  152.0824  134.9461  160.0624 H   0  0  0  0  0  0  0  0  0  0  0  0  # atno 6909 bound_to 6896
  145.8270  140.8504  143.0103 H   0  0  0  0  0  0  0  0  0  0  0  0  # atno 7974 bound_to 7965
  156.0197  140.1258  157.0370 H   0  0  0  0  0  0  0  0  0  0  0  0  # atno 8008 bound_to 7997
  154.4307  140.1071  156.6016 H   0  0  0  0  0  0  0  0  0  0  0  0  # atno 8009 bound_to 7997
  155.5962  140.3470  155.4583 H   0  0  0  0  0  0  0  0  0  0  0  0  # atno 8010 bound_to 7997
  140.3754  143.2774  151.9449 H   0  0  0  0  0  0  0  0  0  0  0  0  # atno 10167 bound_to 10162
  156.9906  130.6041  149.5685 H   0  0  0  0  0  0  0  0  0  0  0  0  # atno 10718 bound_to 10713
  154.5884  135.2842  155.0661 H   0  0  0  0  0  0  0  0  0  0  0  0  # atno 10763 bound_to 10752
  154.1971  135.6431  153.5080 H   0  0  0  0  0  0  0  0  0  0  0  0  # atno 10764 bound_to 10752
  153.0112  135.5460  154.6561 H   0  0  0  0  0  0  0  0  0  0  0  0  # atno 10765 bound_to 10752
  140.4438  134.6407  157.4770 H   0  0  0  0  0  0  0  0  0  0  0  0  # atno 11005 bound_to 11000
  144.6743  140.0617  143.7476 LP  0  0  0  0  0  0  0  0  0  0  0  0  # atno 17320 bound_to 7965
  145.9612  139.2802  143.1154 LP  0  0  0  0  0  0  0  0  0  0  0  0  # atno 17321 bound_to 7965
  139.4800  144.5868  151.7840 LP  0  0  0  0  0  0  0  0  0  0  0  0  # atno 17342 bound_to 10162
  140.4991  144.1196  150.5967 LP  0  0  0  0  0  0  0  0  0  0  0  0  # atno 17343 bound_to 10162
  156.0208  130.5303  150.8271 LP  0  0  0  0  0  0  0  0  0  0  0  0  # atno 17370 bound_to 10713
  157.5461  131.0942  150.9760 LP  0  0  0  0  0  0  0  0  0  0  0  0  # atno 17371 bound_to 10713
  140.0052  134.6774  155.9466 LP  0  0  0  0  0  0  0  0  0  0  0  0  # atno 17394 bound_to 11000
  141.1694  133.6537  156.4597 LP  0  0  0  0  0  0  0  0  0  0  0  0  # atno 17395 bound_to 11000

$$$$
