#       Name:                AV-unprocessed.smi:35
#       Creating user name   scv26
#       Creation time:       Thu Mar 26 16:01:32 2020


#       File generated by GOLD software.
#

@<TRIPOS>MOLECULE
AV-unprocessed.smi:35
    41    42     1
SMALL
NO_CHARGES


@<TRIPOS>ATOM
      1 ****         1.2843   4.5444  -1.3978 O.2            1 S1                 0.0000
      2 ****         0.7406   3.5240  -0.9812 C.2            1 S1                 0.0000
      3 ****        -0.1665   2.8288  -1.7842 N.am           1 S1                 0.0000
      4 ****        -0.8362   1.6574  -1.4254 C.2            1 S1                 0.0000
      5 ****        -1.6510   1.1605  -2.2015 O.2            1 S1                 0.0000
      6 ****        -0.5410   1.0987  -0.1591 N.am           1 S1                 0.0000
      7 ****        -1.2802  -0.1556   0.2831 C.3            1 S1                 0.0000
      8 ****        -0.7673  -0.5885   1.5129 O.3            1 S1                 0.0000
      9 ****         0.0709  -1.7335   1.3630 C.3            1 S1                 0.0000
     10 ****         1.5342  -1.3172   1.0837 C.3            1 S1                 0.0000
     11 ****         2.1346  -0.8430   2.2701 O.3            1 S1                 0.0000
     12 ****        -0.6291  -2.4651   0.2130 C.3            1 S1                 0.0000
     13 ****         0.2140  -3.3765  -0.4647 O.3            1 S1                 0.0000
     14 ****        -1.0930  -1.3378  -0.7003 C.3            1 S1                 0.0000
     15 ****        -2.3072  -1.7090  -1.3227 O.3            1 S1                 0.0000
     16 ****         0.3071   1.7960   0.6966 C.2            1 S1                 0.0000
     17 ****         0.9409   2.9368   0.3377 C.2            1 S1                 0.0000
     18 ****         2.1215   3.7593   1.6995 Br             1 S1                 0.0000
     19 ****        -0.3654   3.2147  -2.6959 H              1 S1                 0.0000
     20 ****        -2.3152   0.1671   0.4115 H              1 S1                 0.0000
     21 ****         0.0352  -2.3427   2.2672 H              1 S1                 0.0000
     22 ****         2.1226  -2.1786   0.7685 H              1 S1                 0.0000
     23 ****         1.6169  -0.5771   0.2893 H              1 S1                 0.0000
     24 ****         3.0372  -0.6312   2.0863 H              1 S1                 0.0000
     25 ****        -1.4885  -3.0035   0.6170 H              1 S1                 0.0000
     26 ****        -0.2811  -3.7753  -1.1644 H              1 S1                 0.0000
     27 ****        -0.3257  -1.1011  -1.4393 H              1 S1                 0.0000
     28 ****        -2.5981  -0.9874  -1.8599 H              1 S1                 0.0000
     29 ****         0.4865   1.4354   1.6980 H              1 S1                 0.0000
     30 ****         1.9247   5.0436  -0.8142 LP             1 S1                 0.0000
     31 ****         1.0862   4.8755  -2.3204 LP             1 S1                 0.0000
     32 ****        -1.8307   1.5954  -3.0839 LP             1 S1                 0.0000
     33 ****        -2.1338   0.3216  -1.9501 LP             1 S1                 0.0000
     34 ****        -1.5290  -0.8217   2.1174 LP             1 S1                 0.0000
     35 ****        -0.2335   0.1526   1.9200 LP             1 S1                 0.0000
     36 ****         2.0912  -1.5501   2.9758 LP             1 S1                 0.0000
     37 ****         1.6543  -0.0253   2.5875 LP             1 S1                 0.0000
     38 ****         0.5297  -4.0814   0.1704 LP             1 S1                 0.0000
     39 ****         1.0023  -2.8910  -0.8425 LP             1 S1                 0.0000
     40 ****        -2.9960  -1.9115  -0.6266 LP             1 S1                 0.0000
     41 ****        -2.1617  -2.5177  -1.8927 LP             1 S1                 0.0000
@<TRIPOS>BOND
    1    1    2 2     
    2    2   17 1     
    3    2    3 1     
    4    3   19 1     
    5    3    4 1     
    6    4    5 2     
    7    4    6 1     
    8    6    7 1     
    9    6   16 1     
   10    7   14 1     
   11    7    8 1     
   12    7   20 1     
   13    8    9 1     
   14    9   10 1     
   15    9   12 1     
   16    9   21 1     
   17   10   11 1     
   18   10   22 1     
   19   10   23 1     
   20   11   24 1     
   21   12   13 1     
   22   12   14 1     
   23   12   25 1     
   24   13   26 1     
   25   14   15 1     
   26   14   27 1     
   27   15   28 1     
   28   16   17 2     
   29   16   29 1     
   30   17   18 1     
   31    1   30 1     
   32    1   31 1     
   33    5   32 1     
   34    5   33 1     
   35    8   34 1     
   36    8   35 1     
   37   11   36 1     
   38   11   37 1     
   39   13   38 1     
   40   13   39 1     
   41   15   40 1     
   42   15   41 1     
@<TRIPOS>SUBSTRUCTURE
      1 S1             1
@<TRIPOS>SET
LONE_PAIRS      STATIC     ATOMS    <user>   **** ""
12 30 31 32 33 34 35 36 37 38 39 40 41
DONOR_HYDROGENS      STATIC     ATOMS    <user>   **** ""
4 19 24 26 28
ATOM$BLUE        STATIC     ATOMS    COLORGROUP SYSTEM
12 30 31 32 33 34 35 36 37 38 39 40 41
ATOM$RED        STATIC     ATOMS    COLORGROUP SYSTEM
4 19 24 26 28
