AV-unprocessed.smi:3104|AV-procd|sdf|11815|dock4
  -GOLD-   2272017183D 1   1.00000     0.00000
 Structure written by MMmdl.
 37 38  0  0  0  0  0  0  0  0  2 V2000
  153.2873  142.8726  162.8387 C   0  0  0  0  0  0  0  0  0  0  0  0
  153.0574  142.5109  161.3994 C   0  0  0  0  0  0  0  0  0  0  0  0
  153.5224  141.3607  160.7011 C   0  0  0  0  0  0  0  0  0  0  0  0
  153.1431  141.3407  159.4340 N   0  0  0  0  0  0  0  0  0  0  0  0
  152.4253  142.4749  159.2757 N   0  0  0  0  0  0  0  0  0  0  0  0
  151.8359  142.7949  157.9813 C   0  0  2  0  0  0  0  0  0  0  0  0
  151.4271  144.2799  157.9428 C   0  0  0  0  0  0  0  0  0  0  0  0
  150.6694  141.8357  157.6190 C   0  0  2  0  0  0  0  0  0  0  0  0
  151.1118  140.3662  157.4985 C   0  0  0  0  0  0  0  0  0  0  0  0
  150.0346  142.2481  156.3468 N   0  3  0  0  0  0  0  0  0  0  0  0
  148.9282  141.3803  155.8960 C   0  0  0  0  0  0  0  0  0  0  0  0
  148.6307  141.5967  154.4273 C   0  0  0  0  0  0  0  0  0  0  0  0
  147.3639  142.2934  153.9860 C   0  0  0  0  0  0  0  0  0  0  0  0
  147.5284  140.8120  153.7536 C   0  0  0  0  0  0  0  0  0  0  0  0
  152.3568  143.1977  160.4487 C   0  0  0  0  0  0  0  0  0  0  0  0
  153.8463  142.0999  163.3671 H   0  0  0  0  0  0  0  0  0  0  0  0
  152.3478  143.0112  163.3739 H   0  0  0  0  0  0  0  0  0  0  0  0
  153.8530  143.7995  162.9347 H   0  0  0  0  0  0  0  0  0  0  0  0
  154.1214  140.5437  161.0757 H   0  0  0  0  0  0  0  0  0  0  0  0
  152.6248  142.6554  157.2404 H   0  0  0  0  0  0  0  0  0  0  0  0
  151.1266  144.5873  156.9412 H   0  0  0  0  0  0  0  0  0  0  0  0
  152.2578  144.9217  158.2385 H   0  0  0  0  0  0  0  0  0  0  0  0
  150.5945  144.4839  158.6169 H   0  0  0  0  0  0  0  0  0  0  0  0
  149.9249  141.8779  158.4163 H   0  0  0  0  0  0  0  0  0  0  0  0
  151.4895  139.9768  158.4441 H   0  0  0  0  0  0  0  0  0  0  0  0
  151.8979  140.2483  156.7520 H   0  0  0  0  0  0  0  0  0  0  0  0
  150.2763  139.7299  157.2048 H   0  0  0  0  0  0  0  0  0  0  0  0
  149.6863  143.1902  156.4543 H   0  0  0  0  0  0  0  0  0  0  0  0
  149.2035  140.3362  156.0503 H   0  0  0  0  0  0  0  0  0  0  0  0
  148.0303  141.5726  156.4845 H   0  0  0  0  0  0  0  0  0  0  0  0
  149.5159  141.7682  153.8174 H   0  0  0  0  0  0  0  0  0  0  0  0
  146.6603  142.6048  154.7557 H   0  0  0  0  0  0  0  0  0  0  0  0
  147.4265  142.9483  153.1192 H   0  0  0  0  0  0  0  0  0  0  0  0
  147.6995  140.4798  152.7317 H   0  0  0  0  0  0  0  0  0  0  0  0
  146.9340  140.1392  154.3689 H   0  0  0  0  0  0  0  0  0  0  0  0
  151.8212  144.1337  160.5104 H   0  0  0  0  0  0  0  0  0  0  0  0
  150.7418  142.2493  155.6260 H   0  0  0  0  0  0  0  0  0  0  0  0
  1  2  1  0  0  0  0
  1 16  1  0  0  0  0
  1 17  1  0  0  0  0
  1 18  1  0  0  0  0
  2 15  2  0  0  0  0
  2  3  1  0  0  0  0
  3  4  2  0  0  0  0
  3 19  1  0  0  0  0
  4  5  1  0  0  0  0
  5  6  1  0  0  0  0
  5 15  1  0  0  0  0
  6  7  1  0  0  0  0
  6  8  1  0  0  0  0
  6 20  1  0  0  0  0
  7 21  1  0  0  0  0
  7 22  1  0  0  0  0
  7 23  1  0  0  0  0
  8  9  1  0  0  0  0
  8 10  1  0  0  0  0
  8 24  1  0  0  0  0
  9 25  1  0  0  0  0
  9 26  1  0  0  0  0
  9 27  1  0  0  0  0
 10 11  1  0  0  0  0
 10 28  1  0  0  0  0
 10 37  1  0  0  0  0
 11 12  1  0  0  0  0
 11 29  1  0  0  0  0
 11 30  1  0  0  0  0
 12 14  1  0  0  0  0
 12 13  1  0  0  0  0
 12 31  1  0  0  0  0
 13 14  1  0  0  0  0
 13 32  1  0  0  0  0
 13 33  1  0  0  0  0
 14 34  1  0  0  0  0
 14 35  1  0  0  0  0
 15 36  1  0  0  0  0
M  CHG  1  10   1
M  END
> <s_m_source_file>
AV-unprocessed.smi

> <i_m_source_file_index>
3104

> <i_lp_mmshare_version>
43012

> <i_f3d_flags>
0

> <s_epik_input>
W0NIM11jMVtjSF1ubihbY0hdMSlbQ0BIXShbQ0gzXSlbQ0BIXShbQ0gzXSlbTkhdW0NIMl1bQ0hdMltDSDJdW0NIMl0y

> <s_epik_cmdline>
J2VwaWtfcHl0aG9uJywgJy1waCcsICc3LjAnLCAnLXRuJywgJzgnLCAnLW1hJywgJzIwMCcsICctbWV0YWxfYmluZGluZycsICctaW1hZScsICc8aW5maWxlLm1hZT4nLCAnLW9tYWUnLCAnPG91dGZpbGUubWFlPic=

> <r_lp_tautomer_probability>
1

> <r_epik_Ionization_Penalty>
0.00120445

> <r_epik_Ionization_Penalty_Charging>
0.00118273

> <r_epik_Ionization_Penalty_Neutral>
2.17265e-05

> <r_epik_State_Penalty>
-0

> <r_epik_Charging_Adjusted_Penalty>
0.00118273

> <i_epik_Tot_Q>
1

> <i_epik_Tot_abs_Q>
1

> <r_epik_Metal_State_Penalty>
-0

> <b_epik_Metal_Only>
0

> <s_lp_Force_Field>
OPLS_2005

> <r_lp_Energy>
21.3992

> <b_lp_Chiralities_Consistent>
1

> <s_lp_Variant>
AV-unprocessed.smi:3104-1

> <Gold.Version>
5.8.1

> <Gold.Id.Protein>
6NUR|6NUR_protein|mol2

> <Gold.PLP.Fitness>
46.1875

> <Gold.PLP.PLP>
-41.1138

> <Gold.PLP.part.hbond>
-1.0000

> <Gold.PLP.part.metal>
0.0000

> <Gold.PLP.part.buried>
-5.2583

> <Gold.PLP.part.nonpolar>
-34.1668

> <Gold.PLP.part.repulsive>
0.0808

> <Gold.PLP.ligand.clash>
0.0000

> <Gold.PLP.ligand.torsion>
0.7614

> <Gold.PLP.Chemscore.Hbond>
1.9840

> <Gold.PLP.Chemscore.CHOScore>
0.0000

> <Gold.PLP.Chemscore.Metal>
0.0000

> <Gold.Chemscore.Hbonds>
donor molecule, donor type, donor heavy atom, donor atom, acceptor molecule, acceptor atom, score
      L1  H    10    28       P1  8028  1.95

> <Gold.PLP.Chemscore.Internal.Correction>
0.6445

> <Gold.Rescore>
     Score         DG    S(hbond)    S(metal)    S(lipo)     H(rot)  DE(clash)    DE(int)     intcor
     16.58     -17.77       0.98        0.00     109.82       1.49       0.08       1.11       ----

> <Gold.Chemscore.Fitness>
16.5794

> <Gold.Chemscore.DG>
-17.7660

> <Gold.Chemscore.ZeroCoef>
-5.4800

> <Gold.Chemscore.Hbond>
0.9754

> <Gold.Chemscore.Metal>
0.0000

> <Gold.Chemscore.Lipo>
109.8164

> <Gold.Chemscore.Internal_Hbond>
0.0000

> <Gold.Chemscore.DEClash>
0.0801

> <Gold.Chemscore.DEInternal>
1.1066

> <Gold.Chemscore.Rot>
1.4923

> <Gold.Chemscore.Internal.Correction>
   9.000000E+99

> <Gold.Chemscore.Hbonds>
donor molecule, donor type, donor heavy atom, donor atom, acceptor molecule, acceptor atom, score
      L1  H    10    28       P1  8028  0.93

> <Gold.Chemscore.Hbond.Weighted>
-3.2579

> <Gold.Chemscore.Metal.Weighted>
-0.0000

> <Gold.Chemscore.Lipo.Weighted>
-12.8485

> <Gold.Chemscore.Internal_Hbond.Weighted>
0.0000

> <Gold.Chemscore.DEClash.Weighted>
0.0801

> <Gold.Chemscore.DEInternal.Weighted>
1.1066

> <Gold.Chemscore.Rot.Weighted>
3.8204

> <Gold.Chemscore.Internal.Correction.Weighted>
   9.000000E+99

> <Gold.Protein.RotatedTorsions>
[ 6907 6896 6895 6894 ] final  114.00 input  -60.11 | X-H torsion
[ 7974 7965 7964 7962 ] final  -24.01 input  175.53 | X-H torsion
[ 8008 7997 7996 7995 ] final  -32.76 input   59.86 | X-H torsion
[ 10167 10162 10161 10158 ] final  -17.55 input  -65.29 | X-H torsion
[ 10718 10713 10712 10709 ] final  171.12 input   66.30 | X-H torsion
[ 10763 10752 10751 10750 ] final   52.46 input  -60.55 | X-H torsion
[ 11005 11000 10999 10996 ] final    0.92 input  -57.11 | X-H torsion

> <Gold.Protein.ActiveResidues>
 VAL166  LYS551  ARG553  GLY616  TRP617  ASP618  TYR619  PRO620  LYS621  CYS622 
 ASP623  PHE694  ASN695  SER759  ASP760  ASP761  ALA762  ILE779  LEU786  VAL792 
 PHE793  MET794  SER795  GLU796  ALA797  LYS798  CYS799  TRP800  GLU811  SER814 

> <Gold.Protein.RotatedAtoms>
  152.4828  133.8296  159.7096 H   0  0  0  0  0  0  0  0  0  0  0  0  # atno 6907 bound_to 6896
  150.8890  133.7259  159.2916 H   0  0  0  0  0  0  0  0  0  0  0  0  # atno 6908 bound_to 6896
  151.4738  135.1051  159.9811 H   0  0  0  0  0  0  0  0  0  0  0  0  # atno 6909 bound_to 6896
  146.1581  140.4694  142.8583 H   0  0  0  0  0  0  0  0  0  0  0  0  # atno 7974 bound_to 7965
  154.4169  140.1729  156.1779 H   0  0  0  0  0  0  0  0  0  0  0  0  # atno 8008 bound_to 7997
  155.9706  140.3386  155.6548 H   0  0  0  0  0  0  0  0  0  0  0  0  # atno 8009 bound_to 7997
  155.6630  140.0703  157.2538 H   0  0  0  0  0  0  0  0  0  0  0  0  # atno 8010 bound_to 7997
  140.7248  143.5005  150.9876 H   0  0  0  0  0  0  0  0  0  0  0  0  # atno 10167 bound_to 10162
  156.9982  131.0168  151.2838 H   0  0  0  0  0  0  0  0  0  0  0  0  # atno 10718 bound_to 10713
  152.9789  135.5812  154.4582 H   0  0  0  0  0  0  0  0  0  0  0  0  # atno 10763 bound_to 10752
  154.4162  135.2771  155.2007 H   0  0  0  0  0  0  0  0  0  0  0  0  # atno 10764 bound_to 10752
  154.3776  135.6154  153.5827 H   0  0  0  0  0  0  0  0  0  0  0  0  # atno 10765 bound_to 10752
  140.6212  133.9659  155.8226 H   0  0  0  0  0  0  0  0  0  0  0  0  # atno 11005 bound_to 11000
  144.7990  140.6177  143.6491 LP  0  0  0  0  0  0  0  0  0  0  0  0  # atno 17320 bound_to 7965
  145.4658  139.1508  143.3841 LP  0  0  0  0  0  0  0  0  0  0  0  0  # atno 17321 bound_to 7965
  139.8714  143.7188  152.3166 LP  0  0  0  0  0  0  0  0  0  0  0  0  # atno 17342 bound_to 10162
  139.7438  144.7552  151.0611 LP  0  0  0  0  0  0  0  0  0  0  0  0  # atno 17343 bound_to 10162
  157.5410  130.8120  149.8028 LP  0  0  0  0  0  0  0  0  0  0  0  0  # atno 17370 bound_to 10713
  156.0181  130.3806  150.2046 LP  0  0  0  0  0  0  0  0  0  0  0  0  # atno 17371 bound_to 10713
  141.0741  134.0162  157.3484 LP  0  0  0  0  0  0  0  0  0  0  0  0  # atno 17394 bound_to 11000
  139.9152  135.0196  156.7854 LP  0  0  0  0  0  0  0  0  0  0  0  0  # atno 17395 bound_to 11000

$$$$
