AV-unprocessed.smi:2193|AV-procd|sdf|8899|dock6
  -GOLD-   2272012113D 1   1.00000     0.00000
 Structure written by MMmdl.
 40 42  0  0  0  0  0  0  0  0  1 V2000
  150.4511  139.8478  154.0425 O   0  0  0  0  0  0  0  0  0  0  0  0
  149.6966  140.6665  154.9134 C   0  0  0  0  0  0  0  0  0  0  0  0
  150.4333  141.0798  156.1566 C   0  0  0  0  0  0  0  0  0  0  0  0
  150.7903  142.3420  156.4073 N   0  0  0  0  0  0  0  0  0  0  0  0
  151.4139  142.2466  157.6355 C   0  0  0  0  0  0  0  0  0  0  0  0
  152.0113  143.2419  158.4419 C   0  0  0  0  0  0  0  0  0  0  0  0
  152.5943  142.9027  159.6804 C   0  0  0  0  0  0  0  0  0  0  0  0
  152.5888  141.5660  160.1289 C   0  0  0  0  0  0  0  0  0  0  0  0
  151.9988  140.5590  159.3409 C   0  0  0  0  0  0  0  0  0  0  0  0
  151.4177  140.9030  158.1054 C   0  0  0  0  0  0  0  0  0  0  0  0
  150.7704  140.1755  157.1106 N   0  0  0  0  0  0  0  0  0  0  0  0
  150.5140  138.7409  157.1172 C   0  0  0  0  0  0  0  0  0  0  0  0
  149.2441  138.3623  157.9075 C   0  0  1  0  0  0  0  0  0  0  0  0
  148.2251  137.9450  157.0206 O   0  0  0  0  0  0  0  0  0  0  0  0
  149.4961  137.2353  158.9195 C   0  0  0  0  0  0  0  0  0  0  0  0
  148.6034  137.3881  160.0150 O   0  0  0  0  0  0  0  0  0  0  0  0
  148.0825  136.2519  160.5959 C   0  0  0  0  0  0  0  0  0  0  0  0
  147.9718  135.1086  159.7775 C   0  0  0  0  0  0  0  0  0  0  0  0
  147.4540  133.9030  160.2891 C   0  0  0  0  0  0  0  0  0  0  0  0
  147.0401  133.8290  161.6317 C   0  0  0  0  0  0  0  0  0  0  0  0
  146.5440  132.6704  162.1263 F   0  0  0  0  0  0  0  0  0  0  0  0
  147.1435  134.9621  162.4595 C   0  0  0  0  0  0  0  0  0  0  0  0
  147.6607  136.1682  161.9475 C   0  0  0  0  0  0  0  0  0  0  0  0
  149.9682  139.7398  153.2377 H   0  0  0  0  0  0  0  0  0  0  0  0
  149.3897  141.5593  154.3683 H   0  0  0  0  0  0  0  0  0  0  0  0
  148.7926  140.1256  155.1916 H   0  0  0  0  0  0  0  0  0  0  0  0
  152.0209  144.2684  158.1065 H   0  0  0  0  0  0  0  0  0  0  0  0
  153.0480  143.6715  160.2887 H   0  0  0  0  0  0  0  0  0  0  0  0
  153.0382  141.3142  161.0782 H   0  0  0  0  0  0  0  0  0  0  0  0
  151.9946  139.5346  159.6818 H   0  0  0  0  0  0  0  0  0  0  0  0
  150.4316  138.3996  156.0846 H   0  0  0  0  0  0  0  0  0  0  0  0
  151.3850  138.2312  157.5295 H   0  0  0  0  0  0  0  0  0  0  0  0
  148.8684  139.2349  158.4420 H   0  0  0  0  0  0  0  0  0  0  0  0
  147.4410  138.4370  157.2099 H   0  0  0  0  0  0  0  0  0  0  0  0
  149.3199  136.2702  158.4408 H   0  0  0  0  0  0  0  0  0  0  0  0
  150.5329  137.2606  159.2599 H   0  0  0  0  0  0  0  0  0  0  0  0
  148.2873  135.1559  158.7454 H   0  0  0  0  0  0  0  0  0  0  0  0
  147.3753  133.0351  159.6513 H   0  0  0  0  0  0  0  0  0  0  0  0
  146.8263  134.9069  163.4904 H   0  0  0  0  0  0  0  0  0  0  0  0
  147.7251  137.0145  162.6140 H   0  0  0  0  0  0  0  0  0  0  0  0
  1  2  1  0  0  0  0
  1 24  1  0  0  0  0
  2  3  1  0  0  0  0
  2 25  1  0  0  0  0
  2 26  1  0  0  0  0
  3 11  1  0  0  0  0
  3  4  2  0  0  0  0
  4  5  1  0  0  0  0
  5 10  2  0  0  0  0
  5  6  1  0  0  0  0
  6  7  2  0  0  0  0
  6 27  1  0  0  0  0
  7  8  1  0  0  0  0
  7 28  1  0  0  0  0
  8  9  2  0  0  0  0
  8 29  1  0  0  0  0
  9 10  1  0  0  0  0
  9 30  1  0  0  0  0
 10 11  1  0  0  0  0
 11 12  1  0  0  0  0
 12 13  1  0  0  0  0
 12 31  1  0  0  0  0
 12 32  1  0  0  0  0
 13 14  1  0  0  0  0
 13 15  1  0  0  0  0
 13 33  1  0  0  0  0
 14 34  1  0  0  0  0
 15 16  1  0  0  0  0
 15 35  1  0  0  0  0
 15 36  1  0  0  0  0
 16 17  1  0  0  0  0
 17 23  1  0  0  0  0
 17 18  2  0  0  0  0
 18 19  1  0  0  0  0
 18 37  1  0  0  0  0
 19 20  2  0  0  0  0
 19 38  1  0  0  0  0
 20 21  1  0  0  0  0
 20 22  1  0  0  0  0
 22 23  2  0  0  0  0
 22 39  1  0  0  0  0
 23 40  1  0  0  0  0
M  END
> <s_m_source_file>
AV-unprocessed.smi

> <i_m_source_file_index>
2193

> <i_lp_mmshare_version>
43012

> <i_f3d_flags>
0

> <s_epik_input>
W2NIXTFbY0hdW2NIXVtjSF1jKGMxMiluKGMobjIpW0NIMl1bT0hdKVtDSDJdW0NASF0oW09IXSlbQ0gyXU9jM1tjSF1bY0hdYyhGKVtjSF1bY0hdMw==

> <s_epik_cmdline>
J2VwaWtfcHl0aG9uJywgJy1waCcsICc3LjAnLCAnLXRuJywgJzgnLCAnLW1hJywgJzIwMCcsICctbWV0YWxfYmluZGluZycsICctaW1hZScsICc8aW5maWxlLm1hZT4nLCAnLW9tYWUnLCAnPG91dGZpbGUubWFlPic=

> <r_lp_tautomer_probability>
1

> <r_epik_Ionization_Penalty>
0.0549747

> <r_epik_Ionization_Penalty_Charging>
0

> <r_epik_Ionization_Penalty_Neutral>
0.0549747

> <r_epik_State_Penalty>
0.0472568

> <r_epik_Charging_Adjusted_Penalty>
0.0472568

> <i_epik_Tot_Q>
0

> <i_epik_Tot_abs_Q>
0

> <r_epik_Metal_State_Penalty>
4.91905e-05

> <b_epik_Metal_Only>
0

> <s_lp_Force_Field>
OPLS_2005

> <r_lp_Energy>
14.6926

> <b_lp_Chiralities_Consistent>
1

> <s_lp_Variant>
AV-unprocessed.smi:2193-2

> <Gold.Version>
5.8.1

> <Gold.Id.Protein>
6NUR|6NUR_protein|mol2

> <Gold.PLP.Fitness>
49.7464

> <Gold.PLP.PLP>
-47.3012

> <Gold.PLP.part.hbond>
-4.0000

> <Gold.PLP.part.metal>
0.0000

> <Gold.PLP.part.buried>
-5.0276

> <Gold.PLP.part.nonpolar>
-39.1032

> <Gold.PLP.part.repulsive>
0.4465

> <Gold.PLP.ligand.clash>
0.0000

> <Gold.PLP.ligand.torsion>
2.0450

> <Gold.PLP.Chemscore.Hbond>
2.1367

> <Gold.PLP.Chemscore.CHOScore>
0.0000

> <Gold.PLP.Chemscore.Metal>
0.0000

> <Gold.Chemscore.Hbonds>
donor molecule, donor type, donor heavy atom, donor atom, acceptor molecule, acceptor atom, score
      L1  H     1    24       P1  7957  0.76
      P1  H  6931  6943       L1    16  0.25
      P1  H  6934  6947       L1    16  0.11
      P1  H  7989  7998       L1     1  0.90

> <Gold.PLP.Chemscore.Internal.Correction>
0.1251

> <Gold.Rescore>
     Score         DG    S(hbond)    S(metal)    S(lipo)     H(rot)  DE(clash)    DE(int)     intcor
     13.35     -15.78       1.52        0.00     115.26       3.22       0.25       2.19       ----

> <Gold.Chemscore.Fitness>
13.3465

> <Gold.Chemscore.DG>
-15.7836

> <Gold.Chemscore.ZeroCoef>
-5.4800

> <Gold.Chemscore.Hbond>
1.5152

> <Gold.Chemscore.Metal>
0.0000

> <Gold.Chemscore.Lipo>
115.2575

> <Gold.Chemscore.Internal_Hbond>
0.0000

> <Gold.Chemscore.DEClash>
0.2470

> <Gold.Chemscore.DEInternal>
2.1901

> <Gold.Chemscore.Rot>
3.2196

> <Gold.Chemscore.Internal.Correction>
   9.000000E+99

> <Gold.Chemscore.Hbonds>
donor molecule, donor type, donor heavy atom, donor atom, acceptor molecule, acceptor atom, score
      L1  H     1    24       P1  7957  0.75
      P1  H  6931  6943       L1    16  0.02
      P1  H  6934  6947       L1    16  0.04
      P1  H  7989  7998       L1     1  0.08

> <Gold.Chemscore.Hbond.Weighted>
-5.0607

> <Gold.Chemscore.Metal.Weighted>
-0.0000

> <Gold.Chemscore.Lipo.Weighted>
-13.4851

> <Gold.Chemscore.Internal_Hbond.Weighted>
0.0000

> <Gold.Chemscore.DEClash.Weighted>
0.2470

> <Gold.Chemscore.DEInternal.Weighted>
2.1901

> <Gold.Chemscore.Rot.Weighted>
8.2422

> <Gold.Chemscore.Internal.Correction.Weighted>
   9.000000E+99

> <Gold.Protein.RotatedTorsions>
[ 6907 6896 6895 6894 ] final   62.06 input  -60.11 | X-H torsion
[ 7974 7965 7964 7962 ] final -172.82 input  175.53 | X-H torsion
[ 8008 7997 7996 7995 ] final  -62.29 input   59.86 | X-H torsion
[ 10167 10162 10161 10158 ] final  102.99 input  -65.29 | X-H torsion
[ 10718 10713 10712 10709 ] final  102.97 input   66.30 | X-H torsion
[ 10763 10752 10751 10750 ] final -163.85 input  -60.55 | X-H torsion
[ 11005 11000 10999 10996 ] final  -48.61 input  -57.11 | X-H torsion

> <Gold.Protein.ActiveResidues>
 VAL166  LYS551  ARG553  GLY616  TRP617  ASP618  TYR619  PRO620  LYS621  CYS622 
 ASP623  PHE694  ASN695  SER759  ASP760  ASP761  ALA762  ILE779  LEU786  VAL792 
 PHE793  MET794  SER795  GLU796  ALA797  LYS798  CYS799  TRP800  GLU811  SER814 

> <Gold.Protein.RotatedAtoms>
  152.4141  134.6073  160.0015 H   0  0  0  0  0  0  0  0  0  0  0  0  # atno 6907 bound_to 6896
  151.6242  133.3331  159.3102 H   0  0  0  0  0  0  0  0  0  0  0  0  # atno 6908 bound_to 6896
  150.8030  134.7176  159.6684 H   0  0  0  0  0  0  0  0  0  0  0  0  # atno 6909 bound_to 6896
  144.7143  140.1714  143.6367 H   0  0  0  0  0  0  0  0  0  0  0  0  # atno 7974 bound_to 7965
  154.4492  140.0999  156.6564 H   0  0  0  0  0  0  0  0  0  0  0  0  # atno 8008 bound_to 7997
  155.5341  140.3482  155.4414 H   0  0  0  0  0  0  0  0  0  0  0  0  # atno 8009 bound_to 7997
  156.0643  140.1334  156.9893 H   0  0  0  0  0  0  0  0  0  0  0  0  # atno 8010 bound_to 7997
  139.7302  144.7038  151.0734 H   0  0  0  0  0  0  0  0  0  0  0  0  # atno 10167 bound_to 10162
  157.6786  131.0767  150.5485 H   0  0  0  0  0  0  0  0  0  0  0  0  # atno 10718 bound_to 10713
  154.7083  135.3001  154.9236 H   0  0  0  0  0  0  0  0  0  0  0  0  # atno 10763 bound_to 10752
  154.0145  135.6690  153.4772 H   0  0  0  0  0  0  0  0  0  0  0  0  # atno 10764 bound_to 10752
  153.0735  135.5048  154.8267 H   0  0  0  0  0  0  0  0  0  0  0  0  # atno 10765 bound_to 10752
  141.0711  133.6679  156.3466 H   0  0  0  0  0  0  0  0  0  0  0  0  # atno 11005 bound_to 11000
  145.8940  139.2392  143.1533 LP  0  0  0  0  0  0  0  0  0  0  0  0  # atno 17320 bound_to 7965
  145.9876  140.8630  143.0083 LP  0  0  0  0  0  0  0  0  0  0  0  0  # atno 17321 bound_to 7965
  140.7770  143.5053  150.9720 LP  0  0  0  0  0  0  0  0  0  0  0  0  # atno 17342 bound_to 10162
  139.8741  143.7155  152.3163 LP  0  0  0  0  0  0  0  0  0  0  0  0  # atno 17343 bound_to 10162
  156.5790  130.4299  149.5985 LP  0  0  0  0  0  0  0  0  0  0  0  0  # atno 17370 bound_to 10713
  156.2677  130.6999  151.1787 LP  0  0  0  0  0  0  0  0  0  0  0  0  # atno 17371 bound_to 10713
  140.5672  134.5876  157.5448 LP  0  0  0  0  0  0  0  0  0  0  0  0  # atno 17394 bound_to 11000
  139.9524  134.7593  156.0418 LP  0  0  0  0  0  0  0  0  0  0  0  0  # atno 17395 bound_to 11000

$$$$
