#       Name:                AV-unprocessed.smi:3202
#       Creating user name   scv26
#       Creation time:       Fri Mar 27 18:08:13 2020


#       File generated by GOLD software.
#

@<TRIPOS>MOLECULE
AV-unprocessed.smi:3202
    44    45     1
SMALL
NO_CHARGES


@<TRIPOS>ATOM
      1 ****        -6.1332  -0.5076   1.3737 C.3            1 S1                 0.0000
      2 ****        -4.7680  -1.0535   1.0748 C.2            1 S1                 0.0000
      3 ****        -3.5072  -0.4047   1.2244 C.2            1 S1                 0.0000
      4 ****        -2.5965  -1.3368   0.8130 C.2            1 S1                 0.0000
      5 ****        -1.1058  -1.2811   0.7179 C.3            1 S1                 0.0000
      6 ****        -0.5821  -0.5903  -0.5566 C.3            1 S1                 0.0000
      7 ****        -1.0360  -1.2932  -1.8460 C.3            1 S1                 0.0000
      8 ****         0.8966  -0.5315  -0.5233 N.4            1 S1                 1.0000
      9 ****         1.4808   0.8282  -0.4618 C.3            1 S1                 0.0000
     10 ****         1.2088   1.5531   0.8638 C.3            1 S1                 0.0000
     11 ****         2.3509   2.5665   1.0158 C.3            1 S1                 0.0000
     12 ****         3.3538   2.2597  -0.1069 C.3            1 S1                 0.0000
     13 ****         3.0162   0.8477  -0.6192 C.3            1 S1                 0.0000
     14 ****         3.7243  -0.2110   0.2579 C.3            1 S1                 0.0000
     15 ****         3.4441   0.6688  -2.0878 C.3            1 S1                 0.0000
     16 ****        -3.3226  -2.4501   0.4543 N.pl3          1 S1                 0.0000
     17 ****        -4.6493  -2.2872   0.6077 N.2            1 S1                 0.0000
     18 ****        -2.9336  -3.3154   0.1068 H              1 S1                 0.0000
     19 ****        -6.0700   0.4532   1.8850 H              1 S1                 0.0000
     20 ****        -6.6980  -1.1863   2.0134 H              1 S1                 0.0000
     21 ****        -6.7045  -0.3588   0.4571 H              1 S1                 0.0000
     22 ****        -3.3047   0.5950   1.5794 H              1 S1                 0.0000
     23 ****        -0.7016  -2.2928   0.7770 H              1 S1                 0.0000
     24 ****        -0.7226  -0.7591   1.5954 H              1 S1                 0.0000
     25 ****        -0.9826   0.4244  -0.5800 H              1 S1                 0.0000
     26 ****        -2.1218  -1.2878  -1.9442 H              1 S1                 0.0000
     27 ****        -0.7042  -2.3317  -1.8717 H              1 S1                 0.0000
     28 ****        -0.6316  -0.7929  -2.7265 H              1 S1                 0.0000
     29 ****         1.2276  -1.0618   0.2699 H              1 S1                 0.0000
     30 ****         1.0479   1.4214  -1.2701 H              1 S1                 0.0000
     31 ****         0.2306   2.0349   0.8736 H              1 S1                 0.0000
     32 ****         1.2337   0.8505   1.6979 H              1 S1                 0.0000
     33 ****         1.9885   3.5924   0.9416 H              1 S1                 0.0000
     34 ****         2.8210   2.4571   1.9938 H              1 S1                 0.0000
     35 ****         3.2111   2.9883  -0.9066 H              1 S1                 0.0000
     36 ****         4.3886   2.3554   0.2244 H              1 S1                 0.0000
     37 ****         4.8079  -0.1001   0.2053 H              1 S1                 0.0000
     38 ****         3.4919  -1.2252  -0.0678 H              1 S1                 0.0000
     39 ****         3.4437  -0.1299   1.3081 H              1 S1                 0.0000
     40 ****         4.5243   0.7709  -2.1982 H              1 S1                 0.0000
     41 ****         2.9776   1.4105  -2.7370 H              1 S1                 0.0000
     42 ****         3.1664  -0.3168  -2.4631 H              1 S1                 0.0000
     43 ****         1.2393  -0.9732  -1.3645 H              1 S1                 0.0000
     44 ****        -5.3771  -2.9451   0.4139 LP             1 S1                 0.0000
@<TRIPOS>BOND
    1    1   19 1     
    2    1   20 1     
    3    1   21 1     
    4    1    2 1     
    5    2   17 2     
    6    2    3 1     
    7    3    4 2     
    8    3   22 1     
    9    4   16 1     
   10    4    5 1     
   11    5    6 1     
   12    5   23 1     
   13    5   24 1     
   14    6    7 1     
   15    6    8 1     
   16    6   25 1     
   17    7   26 1     
   18    7   27 1     
   19    7   28 1     
   20    8    9 1     
   21    8   29 1     
   22    8   43 1     
   23    9   13 1     
   24    9   10 1     
   25    9   30 1     
   26   10   11 1     
   27   10   31 1     
   28   10   32 1     
   29   11   12 1     
   30   11   33 1     
   31   11   34 1     
   32   12   13 1     
   33   12   35 1     
   34   12   36 1     
   35   13   14 1     
   36   13   15 1     
   37   14   37 1     
   38   14   38 1     
   39   14   39 1     
   40   15   40 1     
   41   15   41 1     
   42   15   42 1     
   43   16   17 1     
   44   16   18 1     
   45   17   44 1     
@<TRIPOS>SUBSTRUCTURE
      1 S1             1
@<TRIPOS>SET
LONE_PAIRS      STATIC     ATOMS    <user>   **** ""
1 44
DONOR_HYDROGENS      STATIC     ATOMS    <user>   **** ""
3 29 43 18
ATOM$BLUE        STATIC     ATOMS    COLORGROUP SYSTEM
1 44
ATOM$RED        STATIC     ATOMS    COLORGROUP SYSTEM
3 29 43 18
