#       Name:                AV-unprocessed.smi:1253
#       Creating user name   scv26
#       Creation time:       Fri Mar 27 04:38:25 2020


#       File generated by GOLD software.
#

@<TRIPOS>MOLECULE
AV-unprocessed.smi:1253
    34    35     1
SMALL
NO_CHARGES


@<TRIPOS>ATOM
      1 ****        -5.1881  -0.6429  -0.4965 C.3            1 S1                 0.0000
      2 ****        -3.8486   0.0230  -0.6076 C.2            1 S1                 0.0000
      3 ****        -2.5607  -0.5622  -0.4336 C.2            1 S1                 0.0000
      4 ****        -1.7183   0.4940  -0.6503 C.2            1 S1                 0.0000
      5 ****        -0.3595   0.5261  -0.6153 N.am           1 S1                 0.0000
      6 ****         0.4986  -0.4768  -0.3586 C.2            1 S1                 0.0000
      7 ****         0.1834  -1.6395  -0.1039 O.2            1 S1                 0.0000
      8 ****         1.7689  -0.0519  -0.4128 N.am           1 S1                 0.0000
      9 ****         2.9395  -0.8862  -0.1736 C.3            1 S1                 0.0000
     10 ****         3.2139  -1.2003   1.2850 C.3            1 S1                 0.0000
     11 ****         4.1102  -0.3144   2.1182 C.3            1 S1                 0.0000
     12 ****         4.5737  -1.6948   1.7180 C.3            1 S1                 0.0000
     13 ****        -2.4707   1.6129  -0.9304 N.pl3          1 S1                 0.0000
     14 ****        -2.0361   2.9641  -1.2261 C.3            1 S1                 0.0000
     15 ****        -3.7882   1.3167  -0.9031 N.2            1 S1                 0.0000
     16 ****        -5.0862  -1.6837  -0.1885 H              1 S1                 0.0000
     17 ****        -5.7130  -0.6296  -1.4520 H              1 S1                 0.0000
     18 ****        -5.8173  -0.1404   0.2384 H              1 S1                 0.0000
     19 ****        -2.3196  -1.5860  -0.1908 H              1 S1                 0.0000
     20 ****         0.0539   1.4266  -0.8072 H              1 S1                 0.0000
     21 ****         1.9393   0.9193  -0.6294 H              1 S1                 0.0000
     22 ****         2.8353  -1.8258  -0.7187 H              1 S1                 0.0000
     23 ****         3.8067  -0.3820  -0.6012 H              1 S1                 0.0000
     24 ****         2.3702  -1.6530   1.8030 H              1 S1                 0.0000
     25 ****         4.5820   0.5353   1.6285 H              1 S1                 0.0000
     26 ****         3.8329  -0.1581   3.1587 H              1 S1                 0.0000
     27 ****         4.6067  -2.4587   2.4921 H              1 S1                 0.0000
     28 ****         5.3543  -1.7622   0.9628 H              1 S1                 0.0000
     29 ****        -1.3799   2.9555  -2.0969 H              1 S1                 0.0000
     30 ****        -1.4910   3.3676  -0.3724 H              1 S1                 0.0000
     31 ****        -2.8925   3.6068  -1.4353 H              1 S1                 0.0000
     32 ****        -0.7813  -1.9013  -0.0758 LP             1 S1                 0.0000
     33 ****         0.8921  -2.3219   0.0749 LP             1 S1                 0.0000
     34 ****        -4.5539   1.9380  -1.0696 LP             1 S1                 0.0000
@<TRIPOS>BOND
    1    1    2 1     
    2    1   16 1     
    3    1   17 1     
    4    1   18 1     
    5    2   15 2     
    6    2    3 1     
    7    3    4 2     
    8    3   19 1     
    9    4    5 1     
   10    4   13 1     
   11    5    6 am    
   12    5   20 1     
   13    6    7 2     
   14    6    8 am    
   15    8    9 1     
   16    8   21 1     
   17    9   10 1     
   18    9   22 1     
   19    9   23 1     
   20   10   12 1     
   21   10   11 1     
   22   10   24 1     
   23   11   12 1     
   24   11   25 1     
   25   11   26 1     
   26   12   27 1     
   27   12   28 1     
   28   13   14 1     
   29   13   15 1     
   30   14   29 1     
   31   14   30 1     
   32   14   31 1     
   33    7   32 1     
   34    7   33 1     
   35   15   34 1     
@<TRIPOS>SUBSTRUCTURE
      1 S1             1
@<TRIPOS>SET
LONE_PAIRS      STATIC     ATOMS    <user>   **** ""
3 32 33 34
DONOR_HYDROGENS      STATIC     ATOMS    <user>   **** ""
2 20 21
ATOM$BLUE        STATIC     ATOMS    COLORGROUP SYSTEM
3 32 33 34
ATOM$RED        STATIC     ATOMS    COLORGROUP SYSTEM
2 20 21
