AV-unprocessed.smi:21|AV-procd|sdf|162|dock5
  -GOLD-   2262015403D 1   1.00000     0.00000
 Structure written by MMmdl.
 61 64  0  0  0  0  0  0  0  0  1 V2000
  152.8875  143.1500  162.1925 C   0  0  0  0  0  0  0  0  0  0  0  0
  152.0264  142.5928  161.2124 O   0  0  0  0  0  0  0  0  0  0  0  0
  152.6741  142.3284  159.9763 C   0  0  2  0  0  0  0  0  0  0  0  0
  151.6871  142.0431  158.8288 C   0  0  0  0  0  0  0  0  0  0  0  0
  152.0105  140.6076  158.3855 C   0  0  1  0  0  0  0  0  0  0  0  0
  151.7284  140.3435  156.8896 C   0  0  0  0  0  0  0  0  0  0  0  0
  151.9782  138.9581  156.4912 N   0  0  0  0  0  0  0  0  0  0  0  0
  152.7586  138.7257  155.2765 C   0  0  0  0  0  0  0  0  0  0  0  0
  151.2402  137.9313  157.0096 C   0  0  0  0  0  0  0  0  0  0  0  0
  150.8228  138.0293  158.3018 N   0  0  0  0  0  0  0  0  0  0  0  0
  150.1092  137.0567  158.8729 C   0  0  0  0  0  0  0  0  0  0  0  0
  149.6975  135.9064  158.3425 N   0  0  0  0  0  0  0  0  0  0  0  0
  150.0956  135.7945  157.0442 C   0  0  0  0  0  0  0  0  0  0  0  0
  150.8611  136.7449  156.3050 C   0  0  0  0  0  0  0  0  0  0  0  0
  151.0596  136.2629  155.0144 N   0  0  0  0  0  0  0  0  0  0  0  0
  150.4638  135.1037  154.9961 C   0  0  0  0  0  0  0  0  0  0  0  0
  149.8403  134.7526  156.1698 N   0  0  0  0  0  0  0  0  0  0  0  0
  149.1064  133.5270  156.4302 C   0  0  0  0  0  0  0  0  0  0  0  0
  148.9639  132.5857  155.2051 C   0  0  2  0  0  0  0  0  0  0  0  0
  150.3480  131.9912  154.8557 C   0  0  0  0  0  0  0  0  0  0  0  0
  150.9473  131.3695  155.9747 O   0  0  0  0  0  0  0  0  0  0  0  0
  148.2628  133.2338  153.9747 C   0  0  1  0  0  0  0  0  0  0  0  0
  147.9774  132.2764  152.8276 C   0  0  0  0  0  0  0  0  0  0  0  0
  146.9230  133.0319  152.0333 C   0  0  0  0  0  0  0  0  0  0  0  0
  146.1059  133.6319  153.0254 O   0  0  0  0  0  0  0  0  0  0  0  0
  146.8541  133.7989  154.2264 C   0  0  0  0  0  0  0  0  0  0  0  0
  153.3928  140.3976  158.7837 N   0  0  0  0  0  0  0  0  0  0  0  0
  153.7860  138.9954  158.8281 C   0  0  0  0  0  0  0  0  0  0  0  0
  153.4777  141.0298  160.0852 C   0  0  0  0  0  0  0  0  0  0  0  0
  153.3458  143.1448  159.7044 H   0  0  0  0  0  0  0  0  0  0  0  0
  151.3860  139.9421  158.9837 H   0  0  0  0  0  0  0  0  0  0  0  0
  152.3282  143.3234  163.1117 H   0  0  0  0  0  0  0  0  0  0  0  0
  153.3036  144.1047  161.8698 H   0  0  0  0  0  0  0  0  0  0  0  0
  153.7098  142.4719  162.4245 H   0  0  0  0  0  0  0  0  0  0  0  0
  150.6436  142.1307  159.1332 H   0  0  0  0  0  0  0  0  0  0  0  0
  151.8566  142.7526  158.0179 H   0  0  0  0  0  0  0  0  0  0  0  0
  150.6876  140.5916  156.6791 H   0  0  0  0  0  0  0  0  0  0  0  0
  152.3005  141.0120  156.2497 H   0  0  0  0  0  0  0  0  0  0  0  0
  153.4516  137.8952  155.4160 H   0  0  0  0  0  0  0  0  0  0  0  0
  153.3490  139.6024  155.0097 H   0  0  0  0  0  0  0  0  0  0  0  0
  152.1043  138.4956  154.4349 H   0  0  0  0  0  0  0  0  0  0  0  0
  149.8282  137.2254  159.9021 H   0  0  0  0  0  0  0  0  0  0  0  0
  150.4504  134.4776  154.1157 H   0  0  0  0  0  0  0  0  0  0  0  0
  149.5939  133.0026  157.2528 H   0  0  0  0  0  0  0  0  0  0  0  0
  148.1195  133.8151  156.7941 H   0  0  0  0  0  0  0  0  0  0  0  0
  148.3513  131.7378  155.5136 H   0  0  0  0  0  0  0  0  0  0  0  0
  150.2543  131.2539  154.0578 H   0  0  0  0  0  0  0  0  0  0  0  0
  151.0224  132.7593  154.4771 H   0  0  0  0  0  0  0  0  0  0  0  0
  150.5029  130.5517  156.1386 H   0  0  0  0  0  0  0  0  0  0  0  0
  148.8912  134.0377  153.5876 H   0  0  0  0  0  0  0  0  0  0  0  0
  148.8595  132.0457  152.2296 H   0  0  0  0  0  0  0  0  0  0  0  0
  147.5605  131.3403  153.2023 H   0  0  0  0  0  0  0  0  0  0  0  0
  147.3847  133.8153  151.4306 H   0  0  0  0  0  0  0  0  0  0  0  0
  146.3456  132.3850  151.3727 H   0  0  0  0  0  0  0  0  0  0  0  0
  146.3407  133.2549  155.0197 H   0  0  0  0  0  0  0  0  0  0  0  0
  146.8805  134.8527  154.5014 H   0  0  0  0  0  0  0  0  0  0  0  0
  154.8124  138.8971  159.1828 H   0  0  0  0  0  0  0  0  0  0  0  0
  153.7361  138.5427  157.8382 H   0  0  0  0  0  0  0  0  0  0  0  0
  153.1406  138.4237  159.4963 H   0  0  0  0  0  0  0  0  0  0  0  0
  154.5123  141.2055  160.3816 H   0  0  0  0  0  0  0  0  0  0  0  0
  153.0231  140.3842  160.8390 H   0  0  0  0  0  0  0  0  0  0  0  0
  1  2  1  0  0  0  0
  1 32  1  0  0  0  0
  1 33  1  0  0  0  0
  1 34  1  0  0  0  0
  2  3  1  0  0  0  0
  3 30  1  0  0  0  0
  3 29  1  0  0  0  0
  3  4  1  0  0  0  0
  4  5  1  0  0  0  0
  4 35  1  0  0  0  0
  4 36  1  0  0  0  0
  5 31  1  0  0  0  0
  5  6  1  0  0  0  0
  5 27  1  0  0  0  0
  6  7  1  0  0  0  0
  6 37  1  0  0  0  0
  6 38  1  0  0  0  0
  7  8  1  0  0  0  0
  7  9  1  0  0  0  0
  8 39  1  0  0  0  0
  8 40  1  0  0  0  0
  8 41  1  0  0  0  0
  9 14  1  0  0  0  0
  9 10  2  0  0  0  0
 10 11  1  0  0  0  0
 11 12  2  0  0  0  0
 11 42  1  0  0  0  0
 12 13  1  0  0  0  0
 13 17  1  0  0  0  0
 13 14  2  0  0  0  0
 14 15  1  0  0  0  0
 15 16  2  0  0  0  0
 16 17  1  0  0  0  0
 16 43  1  0  0  0  0
 17 18  1  0  0  0  0
 18 19  1  0  0  0  0
 18 44  1  0  0  0  0
 18 45  1  0  0  0  0
 19 20  1  0  0  0  0
 19 22  1  0  0  0  0
 19 46  1  0  0  0  0
 20 21  1  0  0  0  0
 20 47  1  0  0  0  0
 20 48  1  0  0  0  0
 21 49  1  0  0  0  0
 22 26  1  0  0  0  0
 22 23  1  0  0  0  0
 22 50  1  0  0  0  0
 23 24  1  0  0  0  0
 23 51  1  0  0  0  0
 23 52  1  0  0  0  0
 24 25  1  0  0  0  0
 24 53  1  0  0  0  0
 24 54  1  0  0  0  0
 25 26  1  0  0  0  0
 26 55  1  0  0  0  0
 26 56  1  0  0  0  0
 27 28  1  0  0  0  0
 27 29  1  0  0  0  0
 28 57  1  0  0  0  0
 28 58  1  0  0  0  0
 28 59  1  0  0  0  0
 29 60  1  0  0  0  0
 29 61  1  0  0  0  0
M  END
> <s_m_source_file>
AV-unprocessed.smi

> <i_m_source_file_index>
21

> <i_lp_mmshare_version>
43012

> <i_f3d_flags>
0

> <s_epik_input>
W0NIM11PW0NASF0xW0NIMl1bQ0BIXShOKFtDSDNdKVtDSDJdMSlbQ0gyXU4oW0NIM10pYyhuW2NIXW4yKWMoYzIzKW5bY0hdbjNbQ0gyXVtDQEhdKFtDSDJdW09IXSlbQ0BASF00W0NIMl1bQ0gyXU9bQ0gyXTQ=

> <s_epik_cmdline>
J2VwaWtfcHl0aG9uJywgJy1waCcsICc3LjAnLCAnLXRuJywgJzgnLCAnLW1hJywgJzIwMCcsICctbWV0YWxfYmluZGluZycsICctaW1hZScsICc8aW5maWxlLm1hZT4nLCAnLW9tYWUnLCAnPG91dGZpbGUubWFlPic=

> <r_lp_tautomer_probability>
1

> <r_epik_Ionization_Penalty>
2.17574

> <r_epik_Ionization_Penalty_Charging>
0

> <r_epik_Ionization_Penalty_Neutral>
2.17574

> <r_epik_State_Penalty>
2.31336

> <r_epik_Charging_Adjusted_Penalty>
2.31336

> <i_epik_Tot_Q>
0

> <i_epik_Tot_abs_Q>
0

> <r_epik_Metal_State_Penalty>
2.31025

> <b_epik_Metal_Only>
0

> <s_lp_Force_Field>
OPLS_2005

> <r_lp_Energy>
68.3176

> <b_lp_Chiralities_Consistent>
1

> <s_lp_Variant>
AV-unprocessed.smi:21-42

> <Gold.Version>
5.8.1

> <Gold.Id.Protein>
6NUR|6NUR_protein|mol2

> <Gold.PLP.Fitness>
48.9672

> <Gold.PLP.PLP>
-43.6221

> <Gold.PLP.part.hbond>
-3.8822

> <Gold.PLP.part.metal>
0.0000

> <Gold.PLP.part.buried>
-5.0426

> <Gold.PLP.part.nonpolar>
-36.0044

> <Gold.PLP.part.repulsive>
0.3130

> <Gold.PLP.ligand.clash>
0.0000

> <Gold.PLP.ligand.torsion>
0.5797

> <Gold.PLP.Chemscore.Hbond>
1.9338

> <Gold.PLP.Chemscore.CHOScore>
0.0000

> <Gold.PLP.Chemscore.Metal>
0.0000

> <Gold.Chemscore.Hbonds>
donor molecule, donor type, donor heavy atom, donor atom, acceptor molecule, acceptor atom, score
      P1  H  6896  6908       L1    12  0.69
      P1  H  6933  6945       L1     2  0.07
      P1  H 10752 10765       L1    15  0.84

> <Gold.PLP.Chemscore.Internal.Correction>
0.7030

> <Gold.Rescore>
     Score         DG    S(hbond)    S(metal)    S(lipo)     H(rot)  DE(clash)    DE(int)     intcor
      8.34     -13.16       1.07        0.00     100.76       3.00       0.16       4.65       ----

> <Gold.Chemscore.Fitness>
8.3446

> <Gold.Chemscore.DG>
-13.1557

> <Gold.Chemscore.ZeroCoef>
-5.4800

> <Gold.Chemscore.Hbond>
1.0704

> <Gold.Chemscore.Metal>
0.0000

> <Gold.Chemscore.Lipo>
100.7578

> <Gold.Chemscore.Internal_Hbond>
0.0000

> <Gold.Chemscore.DEClash>
0.1625

> <Gold.Chemscore.DEInternal>
4.6486

> <Gold.Chemscore.Rot>
3.0031

> <Gold.Chemscore.Internal.Correction>
   9.000000E+99

> <Gold.Chemscore.Hbonds>
donor molecule, donor type, donor heavy atom, donor atom, acceptor molecule, acceptor atom, score
      P1  H  6896  6908       L1    12  0.24
      P1  H  6933  6945       L1     2  0.07
      P1  H 10752 10765       L1    15  0.13

> <Gold.Chemscore.Hbond.Weighted>
-3.5750

> <Gold.Chemscore.Metal.Weighted>
-0.0000

> <Gold.Chemscore.Lipo.Weighted>
-11.7887

> <Gold.Chemscore.Internal_Hbond.Weighted>
0.0000

> <Gold.Chemscore.DEClash.Weighted>
0.1625

> <Gold.Chemscore.DEInternal.Weighted>
4.6486

> <Gold.Chemscore.Rot.Weighted>
7.6880

> <Gold.Chemscore.Internal.Correction.Weighted>
   9.000000E+99

> <Gold.Protein.RotatedTorsions>
[ 6907 6896 6895 6894 ] final  155.06 input  -60.11 | X-H torsion
[ 7974 7965 7964 7962 ] final  161.75 input  175.53 | X-H torsion
[ 8008 7997 7996 7995 ] final   23.53 input   59.86 | X-H torsion
[ 10167 10162 10161 10158 ] final -133.03 input  -65.29 | X-H torsion
[ 10718 10713 10712 10709 ] final  -42.02 input   66.30 | X-H torsion
[ 10763 10752 10751 10750 ] final  176.25 input  -60.55 | X-H torsion
[ 11005 11000 10999 10996 ] final -158.06 input  -57.11 | X-H torsion

> <Gold.Protein.ActiveResidues>
 VAL166  LYS551  ARG553  GLY616  TRP617  ASP618  TYR619  PRO620  LYS621  CYS622 
 ASP623  PHE694  ASN695  SER759  ASP760  ASP761  ALA762  ILE779  LEU786  VAL792 
 PHE793  MET794  SER795  GLU796  ALA797  LYS798  CYS799  TRP800  GLU811  SER814 

> <Gold.Protein.RotatedAtoms>
  152.0496  133.4013  159.4371 H   0  0  0  0  0  0  0  0  0  0  0  0  # atno 6907 bound_to 6896
  150.6871  134.3323  159.4841 H   0  0  0  0  0  0  0  0  0  0  0  0  # atno 6908 bound_to 6896
  152.1131  134.9260  160.0616 H   0  0  0  0  0  0  0  0  0  0  0  0  # atno 6909 bound_to 6896
  144.7670  139.7943  143.6311 H   0  0  0  0  0  0  0  0  0  0  0  0  # atno 7974 bound_to 7965
  154.9824  140.3103  155.4941 H   0  0  0  0  0  0  0  0  0  0  0  0  # atno 8008 bound_to 7997
  156.2951  140.2264  156.4864 H   0  0  0  0  0  0  0  0  0  0  0  0  # atno 8009 bound_to 7997
  154.7777  140.0448  157.1090 H   0  0  0  0  0  0  0  0  0  0  0  0  # atno 8010 bound_to 7997
  139.9025  143.6591  152.2592 H   0  0  0  0  0  0  0  0  0  0  0  0  # atno 10167 bound_to 10162
  156.2641  130.4200  149.8509 H   0  0  0  0  0  0  0  0  0  0  0  0  # atno 10718 bound_to 10713
  154.4786  135.2774  155.1588 H   0  0  0  0  0  0  0  0  0  0  0  0  # atno 10763 bound_to 10752
  154.3308  135.6190  153.5554 H   0  0  0  0  0  0  0  0  0  0  0  0  # atno 10764 bound_to 10752
  152.9872  135.5765  154.5181 H   0  0  0  0  0  0  0  0  0  0  0  0  # atno 10765 bound_to 10752
  140.6578  134.4382  157.5235 H   0  0  0  0  0  0  0  0  0  0  0  0  # atno 11005 bound_to 11000
  146.1786  139.4967  142.9881 LP  0  0  0  0  0  0  0  0  0  0  0  0  # atno 17320 bound_to 7965
  145.6440  141.0278  143.1796 LP  0  0  0  0  0  0  0  0  0  0  0  0  # atno 17321 bound_to 7965
  139.7013  144.7634  151.1268 LP  0  0  0  0  0  0  0  0  0  0  0  0  # atno 17342 bound_to 10162
  140.7704  143.5454  150.9265 LP  0  0  0  0  0  0  0  0  0  0  0  0  # atno 17343 bound_to 10162
  156.6014  130.8548  151.3433 LP  0  0  0  0  0  0  0  0  0  0  0  0  # atno 17370 bound_to 10713
  157.7261  130.9625  150.1642 LP  0  0  0  0  0  0  0  0  0  0  0  0  # atno 17371 bound_to 10713
  139.9023  134.8527  156.1844 LP  0  0  0  0  0  0  0  0  0  0  0  0  # atno 17394 bound_to 11000
  141.0488  133.6899  156.1733 LP  0  0  0  0  0  0  0  0  0  0  0  0  # atno 17395 bound_to 11000

$$$$
