AV-unprocessed.smi:2895|AV-procd|sdf|11135|dock7
  -GOLD-   2272016 13D 1   1.00000     0.00000
 Structure written by MMmdl.
 54 57  0  0  0  0  0  0  0  0  3 V2000
  149.3204  134.9669  154.7354 O   0  0  0  0  0  0  0  0  0  0  0  0
  148.5892  134.2049  155.3689 C   0  0  0  0  0  0  0  0  0  0  0  0
  147.8265  133.2820  154.7580 N   0  0  0  0  0  0  0  0  0  0  0  0
  147.7629  133.0593  153.3177 C   0  0  0  0  0  0  0  0  0  0  0  0
  146.7775  131.9353  152.9546 C   0  0  0  0  0  0  0  0  0  0  0  0
  145.6407  132.4286  152.0798 C   0  0  0  0  0  0  0  0  0  0  0  0
  144.8651  133.5405  152.4761 C   0  0  0  0  0  0  0  0  0  0  0  0
  143.8150  133.9790  151.6435 C   0  0  0  0  0  0  0  0  0  0  0  0
  143.5619  133.3338  150.4836 N   0  3  0  0  0  0  0  0  0  0  0  0
  144.2791  132.2668  150.0681 C   0  0  0  0  0  0  0  0  0  0  0  0
  145.3430  131.7851  150.8581 C   0  0  0  0  0  0  0  0  0  0  0  0
  148.5092  134.2069  156.7245 N   0  0  0  0  0  0  0  0  0  0  0  0
  147.7166  133.2849  157.5542 C   0  0  0  0  0  0  0  0  0  0  0  0
  146.5726  134.0684  158.2275 C   0  0  0  0  0  0  0  0  0  0  0  0
  147.0783  135.2179  159.0319 N   0  3  0  0  0  0  0  0  0  0  0  0
  147.6470  134.8411  160.3620 C   0  0  1  0  0  0  0  0  0  0  0  0
  148.0416  136.0506  161.2455 C   0  0  0  0  0  0  0  0  0  0  0  0
  147.3697  135.7365  162.5953 C   0  0  1  0  0  0  0  0  0  0  0  0
  145.8602  136.0057  162.4717 C   0  0  0  0  0  0  0  0  0  0  0  0
  145.3891  134.8535  161.5667 C   0  0  0  0  0  0  0  0  0  0  0  0
  146.6904  134.0647  161.3029 C   0  0  2  0  0  0  0  0  0  0  0  0
  147.4112  134.2142  162.6387 C   0  0  0  0  0  0  0  0  0  0  0  0
  147.9830  136.0855  158.2240 C   0  0  0  0  0  0  0  0  0  0  0  0
  149.1020  135.2778  157.5345 C   0  0  0  0  0  0  0  0  0  0  0  0
  147.2615  132.6777  155.3369 H   0  0  0  0  0  0  0  0  0  0  0  0
  147.4922  133.9874  152.8111 H   0  0  0  0  0  0  0  0  0  0  0  0
  148.7646  132.7988  152.9744 H   0  0  0  0  0  0  0  0  0  0  0  0
  147.3034  131.1291  152.4417 H   0  0  0  0  0  0  0  0  0  0  0  0
  146.3514  131.4969  153.8580 H   0  0  0  0  0  0  0  0  0  0  0  0
  145.0723  134.0525  153.4048 H   0  0  0  0  0  0  0  0  0  0  0  0
  143.1747  134.8194  151.8689 H   0  0  0  0  0  0  0  0  0  0  0  0
  143.9827  131.8337  149.1238 H   0  0  0  0  0  0  0  0  0  0  0  0
  145.9197  130.9329  150.5283 H   0  0  0  0  0  0  0  0  0  0  0  0
  147.2954  132.4430  157.0053 H   0  0  0  0  0  0  0  0  0  0  0  0
  148.3663  132.8384  158.3080 H   0  0  0  0  0  0  0  0  0  0  0  0
  145.9167  134.4688  157.4533 H   0  0  0  0  0  0  0  0  0  0  0  0
  145.9452  133.4034  158.8185 H   0  0  0  0  0  0  0  0  0  0  0  0
  148.5314  134.2234  160.1998 H   0  0  0  0  0  0  0  0  0  0  0  0
  149.1258  136.1077  161.3504 H   0  0  0  0  0  0  0  0  0  0  0  0
  147.6963  137.0079  160.8533 H   0  0  0  0  0  0  0  0  0  0  0  0
  147.8346  136.2379  163.4448 H   0  0  0  0  0  0  0  0  0  0  0  0
  145.3750  135.9506  163.4474 H   0  0  0  0  0  0  0  0  0  0  0  0
  145.6439  136.9867  162.0468 H   0  0  0  0  0  0  0  0  0  0  0  0
  144.6631  134.2321  162.0926 H   0  0  0  0  0  0  0  0  0  0  0  0
  144.9141  135.2101  160.6528 H   0  0  0  0  0  0  0  0  0  0  0  0
  146.5255  133.0276  161.0099 H   0  0  0  0  0  0  0  0  0  0  0  0
  148.4243  133.8079  162.6361 H   0  0  0  0  0  0  0  0  0  0  0  0
  146.8588  133.7899  163.4793 H   0  0  0  0  0  0  0  0  0  0  0  0
  147.3798  136.5785  157.4604 H   0  0  0  0  0  0  0  0  0  0  0  0
  148.4127  136.8869  158.8236 H   0  0  0  0  0  0  0  0  0  0  0  0
  149.7700  134.8364  158.2747 H   0  0  0  0  0  0  0  0  0  0  0  0
  149.7273  135.9543  156.9506 H   0  0  0  0  0  0  0  0  0  0  0  0
  146.2678  135.7802  159.2501 H   0  0  0  0  0  0  0  0  0  0  0  0
  142.7960  133.6661  149.8968 H   0  0  0  0  0  0  0  0  0  0  0  0
  1  2  2  0  0  0  0
  2  3  1  0  0  0  0
  2 12  1  0  0  0  0
  3  4  1  0  0  0  0
  3 25  1  0  0  0  0
  4  5  1  0  0  0  0
  4 26  1  0  0  0  0
  4 27  1  0  0  0  0
  5  6  1  0  0  0  0
  5 28  1  0  0  0  0
  5 29  1  0  0  0  0
  6 11  1  0  0  0  0
  6  7  2  0  0  0  0
  7  8  1  0  0  0  0
  7 30  1  0  0  0  0
  8  9  2  0  0  0  0
  8 31  1  0  0  0  0
  9 10  1  0  0  0  0
  9 54  1  0  0  0  0
 10 11  2  0  0  0  0
 10 32  1  0  0  0  0
 11 33  1  0  0  0  0
 12 24  1  0  0  0  0
 12 13  1  0  0  0  0
 13 14  1  0  0  0  0
 13 34  1  0  0  0  0
 13 35  1  0  0  0  0
 14 15  1  0  0  0  0
 14 36  1  0  0  0  0
 14 37  1  0  0  0  0
 15 16  1  0  0  0  0
 15 23  1  0  0  0  0
 15 53  1  0  0  0  0
 16 21  1  0  0  0  0
 16 17  1  0  0  0  0
 16 38  1  0  0  0  0
 17 18  1  0  0  0  0
 17 39  1  0  0  0  0
 17 40  1  0  0  0  0
 18 22  1  0  0  0  0
 18 19  1  0  0  0  0
 18 41  1  0  0  0  0
 19 20  1  0  0  0  0
 19 42  1  0  0  0  0
 19 43  1  0  0  0  0
 20 21  1  0  0  0  0
 20 44  1  0  0  0  0
 20 45  1  0  0  0  0
 21 22  1  0  0  0  0
 21 46  1  0  0  0  0
 22 47  1  0  0  0  0
 22 48  1  0  0  0  0
 23 24  1  0  0  0  0
 23 49  1  0  0  0  0
 23 50  1  0  0  0  0
 24 51  1  0  0  0  0
 24 52  1  0  0  0  0
M  CHG  1   9   1
M  CHG  1  15   1
M  END
> <s_m_source_file>
AV-unprocessed.smi

> <i_m_source_file_index>
2895

> <i_lp_mmshare_version>
43012

> <i_f3d_flags>
0

> <s_epik_input>
W0NIMl0xW0NIMl1bQ0BASF0oW0NIMl0yKVtDQEBIXShbQ0gyXVtDQEhdMTIpTihbQ0gyXVtDSDJdMylbQ0gyXVtDSDJdTjNDKD1PKVtOSF1bQ0gyXVtDSDJdYzRbY0hdW2NIXW5bY0hdW2NIXTQ=

> <s_epik_cmdline>
J2VwaWtfcHl0aG9uJywgJy1waCcsICc3LjAnLCAnLXRuJywgJzgnLCAnLW1hJywgJzIwMCcsICctbWV0YWxfYmluZGluZycsICctaW1hZScsICc8aW5maWxlLm1hZT4nLCAnLW9tYWUnLCAnPG91dGZpbGUubWFlPic=

> <r_epik_Ionization_Penalty>
1.44916

> <r_epik_Ionization_Penalty_Charging>
1.44913

> <r_epik_Ionization_Penalty_Neutral>
2.64641e-05

> <r_epik_State_Penalty>
1.53218

> <r_epik_Charging_Adjusted_Penalty>
2.98131

> <i_epik_Tot_Q>
2

> <i_epik_Tot_abs_Q>
2

> <r_epik_Metal_State_Penalty>
1.58241

> <b_epik_Metal_Only>
0

> <s_lp_Force_Field>
OPLS_2005

> <r_lp_Energy>
107.439

> <b_lp_Chiralities_Consistent>
1

> <s_lp_Variant>
AV-unprocessed.smi:2895-8

> <Gold.Version>
5.8.1

> <Gold.Id.Protein>
6NUR|6NUR_protein|mol2

> <Gold.PLP.Fitness>
41.6493

> <Gold.PLP.PLP>
-36.5011

> <Gold.PLP.part.hbond>
-1.0000

> <Gold.PLP.part.metal>
0.0000

> <Gold.PLP.part.buried>
-6.9049

> <Gold.PLP.part.nonpolar>
-29.8737

> <Gold.PLP.part.repulsive>
0.3879

> <Gold.PLP.ligand.clash>
0.0000

> <Gold.PLP.ligand.torsion>
0.4735

> <Gold.PLP.Chemscore.Hbond>
2.0000

> <Gold.PLP.Chemscore.CHOScore>
0.0000

> <Gold.PLP.Chemscore.Metal>
0.0000

> <Gold.Chemscore.Hbonds>
donor molecule, donor type, donor heavy atom, donor atom, acceptor molecule, acceptor atom, score
      L1  H     9    54       P1 10186  2.00

> <Gold.PLP.Chemscore.Internal.Correction>
0.0952

> <Gold.Rescore>
     Score         DG    S(hbond)    S(metal)    S(lipo)     H(rot)  DE(clash)    DE(int)     intcor
     17.08     -17.54       0.99        0.00     106.61       1.46       0.03       0.43       ----

> <Gold.Chemscore.Fitness>
17.0763

> <Gold.Chemscore.DG>
-17.5367

> <Gold.Chemscore.ZeroCoef>
-5.4800

> <Gold.Chemscore.Hbond>
0.9922

> <Gold.Chemscore.Metal>
0.0000

> <Gold.Chemscore.Lipo>
106.6103

> <Gold.Chemscore.Internal_Hbond>
0.0000

> <Gold.Chemscore.DEClash>
0.0263

> <Gold.Chemscore.DEInternal>
0.4340

> <Gold.Chemscore.Rot>
1.4572

> <Gold.Chemscore.Internal.Correction>
   9.000000E+99

> <Gold.Chemscore.Hbonds>
donor molecule, donor type, donor heavy atom, donor atom, acceptor molecule, acceptor atom, score
      L1  H     9    54       P1 10186  0.96

> <Gold.Chemscore.Hbond.Weighted>
-3.3138

> <Gold.Chemscore.Metal.Weighted>
-0.0000

> <Gold.Chemscore.Lipo.Weighted>
-12.4734

> <Gold.Chemscore.Internal_Hbond.Weighted>
0.0000

> <Gold.Chemscore.DEClash.Weighted>
0.0263

> <Gold.Chemscore.DEInternal.Weighted>
0.4340

> <Gold.Chemscore.Rot.Weighted>
3.7305

> <Gold.Chemscore.Internal.Correction.Weighted>
   9.000000E+99

> <Gold.Protein.RotatedTorsions>
[ 6907 6896 6895 6894 ] final -153.53 input  -60.11 | X-H torsion
[ 7974 7965 7964 7962 ] final  -54.34 input  175.53 | X-H torsion
[ 8008 7997 7996 7995 ] final  -23.86 input   59.86 | X-H torsion
[ 10167 10162 10161 10158 ] final -132.60 input  -65.29 | X-H torsion
[ 10718 10713 10712 10709 ] final  151.16 input   66.30 | X-H torsion
[ 10763 10752 10751 10750 ] final -157.00 input  -60.55 | X-H torsion
[ 11005 11000 10999 10996 ] final -148.43 input  -57.11 | X-H torsion

> <Gold.Protein.ActiveResidues>
 VAL166  LYS551  ARG553  GLY616  TRP617  ASP618  TYR619  PRO620  LYS621  CYS622 
 ASP623  PHE694  ASN695  SER759  ASP760  ASP761  ALA762  ILE779  LEU786  VAL792 
 PHE793  MET794  SER795  GLU796  ALA797  LYS798  CYS799  TRP800  GLU811  SER814 

> <Gold.Protein.RotatedAtoms>
  151.2440  133.4385  159.2608 H   0  0  0  0  0  0  0  0  0  0  0  0  # atno 6907 bound_to 6896
  151.0679  134.9779  159.8304 H   0  0  0  0  0  0  0  0  0  0  0  0  # atno 6908 bound_to 6896
  152.5408  134.2386  159.8906 H   0  0  0  0  0  0  0  0  0  0  0  0  # atno 6909 bound_to 6896
  145.8866  140.8103  142.9813 H   0  0  0  0  0  0  0  0  0  0  0  0  # atno 7974 bound_to 7965
  154.4561  140.1969  156.0376 H   0  0  0  0  0  0  0  0  0  0  0  0  # atno 8008 bound_to 7997
  156.0748  140.3279  155.7593 H   0  0  0  0  0  0  0  0  0  0  0  0  # atno 8009 bound_to 7997
  155.5205  140.0569  157.2898 H   0  0  0  0  0  0  0  0  0  0  0  0  # atno 8010 bound_to 7997
  139.9068  143.6541  152.2583 H   0  0  0  0  0  0  0  0  0  0  0  0  # atno 10167 bound_to 10162
  157.2743  131.0823  151.1577 H   0  0  0  0  0  0  0  0  0  0  0  0  # atno 10718 bound_to 10713
  154.7670  135.3134  154.8266 H   0  0  0  0  0  0  0  0  0  0  0  0  # atno 10763 bound_to 10752
  153.9012  135.6815  153.4759 H   0  0  0  0  0  0  0  0  0  0  0  0  # atno 10764 bound_to 10752
  153.1277  135.4794  154.9233 H   0  0  0  0  0  0  0  0  0  0  0  0  # atno 10765 bound_to 10752
  140.7613  134.3295  157.5101 H   0  0  0  0  0  0  0  0  0  0  0  0  # atno 11005 bound_to 11000
  144.6729  140.1465  143.7433 LP  0  0  0  0  0  0  0  0  0  0  0  0  # atno 17320 bound_to 7965
  145.8959  139.2402  143.1522 LP  0  0  0  0  0  0  0  0  0  0  0  0  # atno 17321 bound_to 7965
  139.6977  144.7639  151.1328 LP  0  0  0  0  0  0  0  0  0  0  0  0  # atno 17342 bound_to 10162
  140.7694  143.5501  150.9214 LP  0  0  0  0  0  0  0  0  0  0  0  0  # atno 17343 bound_to 10162
  157.3037  130.6855  149.6177 LP  0  0  0  0  0  0  0  0  0  0  0  0  # atno 17370 bound_to 10713
  155.9663  130.4384  150.5217 LP  0  0  0  0  0  0  0  0  0  0  0  0  # atno 17371 bound_to 10713
  139.8770  134.9203  156.3249 LP  0  0  0  0  0  0  0  0  0  0  0  0  # atno 17394 bound_to 11000
  140.9660  133.7357  156.0468 LP  0  0  0  0  0  0  0  0  0  0  0  0  # atno 17395 bound_to 11000

$$$$
