#       Name:                AV-unprocessed.smi:2683
#       Creating user name   scv26
#       Creation time:       Fri Mar 27 14:40:40 2020


#       File generated by GOLD software.
#

@<TRIPOS>MOLECULE
AV-unprocessed.smi:2683
    38    39     1
SMALL
NO_CHARGES


@<TRIPOS>ATOM
      1 ****        -2.5993  -1.7872   1.6229 C.3            1 S1                 0.0000
      2 ****        -2.0272  -0.9319   0.4843 C.3            1 S1                 0.0000
      3 ****        -2.4477  -1.4983  -0.8881 C.3            1 S1                 0.0000
      4 ****        -2.0443  -0.6518  -1.9962 N.pl3          1 S1                 0.0000
      5 ****        -2.6990   0.4418  -2.5227 C.2            1 S1                 0.0000
      6 ****        -1.9322   0.9187  -3.5469 C.2            1 S1                 0.0000
      7 ****        -0.8154   0.0372  -3.5732 C.2            1 S1                 0.0000
      8 ****        -0.8847  -0.9012  -2.6425 N.2            1 S1                 0.0000
      9 ****        -0.5532  -0.8720   0.6103 N.4            1 S1                 1.0000
     10 ****         0.0334   0.4764   0.4626 C.3            1 S1                 0.0000
     11 ****         1.5673   0.4243   0.5355 C.3            1 S1                 0.0000
     12 ****         2.1198   0.0396   1.9131 C.3            1 S1                 0.0000
     13 ****         3.5504   0.5931   1.9545 C.3            1 S1                 0.0000
     14 ****         3.6536   1.6161   0.8133 C.3            1 S1                 0.0000
     15 ****         2.2361   1.7716   0.2582 C.3            1 S1                 0.0000
     16 ****        -3.6880  -1.8251   1.5762 H              1 S1                 0.0000
     17 ****        -2.3278  -1.3783   2.5969 H              1 S1                 0.0000
     18 ****        -2.2290  -2.8121   1.5763 H              1 S1                 0.0000
     19 ****        -2.4407   0.0723   0.5948 H              1 S1                 0.0000
     20 ****        -2.0346  -2.4979  -1.0349 H              1 S1                 0.0000
     21 ****        -3.5325  -1.6047  -0.9305 H              1 S1                 0.0000
     22 ****        -3.6439   0.7868  -2.1285 H              1 S1                 0.0000
     23 ****        -2.1385   1.7669  -4.1830 H              1 S1                 0.0000
     24 ****         0.0378   0.0519  -4.2352 H              1 S1                 0.0000
     25 ****        -0.3016  -1.2132   1.5269 H              1 S1                 0.0000
     26 ****        -0.2688   0.8986  -0.4956 H              1 S1                 0.0000
     27 ****        -0.3636   1.1335   1.2376 H              1 S1                 0.0000
     28 ****         1.9377  -0.2905  -0.2019 H              1 S1                 0.0000
     29 ****         1.5291   0.5149   2.6977 H              1 S1                 0.0000
     30 ****         2.0886  -1.0366   2.0867 H              1 S1                 0.0000
     31 ****         3.7596   1.0517   2.9216 H              1 S1                 0.0000
     32 ****         4.2787  -0.2058   1.8098 H              1 S1                 0.0000
     33 ****         4.0667   2.5686   1.1466 H              1 S1                 0.0000
     34 ****         4.3128   1.2285   0.0356 H              1 S1                 0.0000
     35 ****         2.2299   2.0335  -0.8002 H              1 S1                 0.0000
     36 ****         1.7181   2.5649   0.7994 H              1 S1                 0.0000
     37 ****        -0.1470  -1.4855  -0.0822 H              1 S1                 0.0000
     38 ****        -0.2263  -1.6311  -2.4589 LP             1 S1                 0.0000
@<TRIPOS>BOND
    1    1    2 1     
    2    1   16 1     
    3    1   17 1     
    4    1   18 1     
    5    2    3 1     
    6    2    9 1     
    7    2   19 1     
    8    3    4 1     
    9    3   20 1     
   10    3   21 1     
   11    4    8 1     
   12    4    5 1     
   13    5    6 2     
   14    5   22 1     
   15    6    7 1     
   16    6   23 1     
   17    7    8 2     
   18    7   24 1     
   19    9   10 1     
   20    9   25 1     
   21    9   37 1     
   22   10   11 1     
   23   10   26 1     
   24   10   27 1     
   25   11   15 1     
   26   11   12 1     
   27   11   28 1     
   28   12   13 1     
   29   12   29 1     
   30   12   30 1     
   31   13   14 1     
   32   13   31 1     
   33   13   32 1     
   34   14   15 1     
   35   14   33 1     
   36   14   34 1     
   37   15   35 1     
   38   15   36 1     
   39    8   38 1     
@<TRIPOS>SUBSTRUCTURE
      1 S1             1
@<TRIPOS>SET
LONE_PAIRS      STATIC     ATOMS    <user>   **** ""
1 38
DONOR_HYDROGENS      STATIC     ATOMS    <user>   **** ""
2 25 37
ATOM$BLUE        STATIC     ATOMS    COLORGROUP SYSTEM
1 38
ATOM$RED        STATIC     ATOMS    COLORGROUP SYSTEM
2 25 37
