AV-unprocessed.smi:1754|AV-procd|sdf|7064|dock3
  -GOLD-   22720 8283D 1   1.00000     0.00000
 Structure written by MMmdl.
 45 46  0  0  0  0  0  0  0  0  2 V2000
  146.2173  130.4491  152.5147 C   0  0  0  0  0  0  0  0  0  0  0  0
  145.7559  131.8523  152.9394 C   0  0  0  0  0  0  0  0  0  0  0  0
  145.2842  132.6667  151.8171 N   0  0  0  0  0  0  0  0  0  0  0  0
  144.7395  131.9542  150.6617 C   0  0  0  0  0  0  0  0  0  0  0  0
  145.6023  132.1149  149.4007 C   0  0  0  0  0  0  0  0  0  0  0  0
  144.6896  133.9202  152.0871 C   0  0  0  0  0  0  0  0  0  0  0  0
  145.1061  135.1058  151.4370 C   0  0  0  0  0  0  0  0  0  0  0  0
  144.4746  136.3297  151.7370 C   0  0  0  0  0  0  0  0  0  0  0  0
  143.4232  136.3652  152.6763 C   0  0  0  0  0  0  0  0  0  0  0  0
  142.8322  137.6264  152.9566 N   0  0  0  0  0  0  0  0  0  0  0  0
  141.6795  137.8971  153.6002 C   0  0  0  0  0  0  0  0  0  0  0  0
  140.8892  137.0477  154.0050 O   0  0  0  0  0  0  0  0  0  0  0  0
  141.4229  139.2105  153.7416 N   0  0  0  0  0  0  0  0  0  0  0  0
  140.2694  139.8424  154.3852 C   0  0  2  0  0  0  0  0  0  0  0  0
  139.0096  139.7967  153.4948 C   0  0  0  0  0  0  0  0  0  0  0  0
  137.9750  140.7904  154.0391 C   0  0  0  0  0  0  0  0  0  0  0  0
  138.9241  142.1096  154.8882 S   0  0  0  0  0  0  0  0  0  0  0  0
  138.8867  143.3438  154.0894 O   0  0  0  0  0  0  0  0  0  0  0  0
  138.5531  142.1155  156.3114 O   0  0  0  0  0  0  0  0  0  0  0  0
  140.5627  141.3155  154.6950 C   0  0  0  0  0  0  0  0  0  0  0  0
  143.0478  135.1550  153.3066 C   0  0  0  0  0  0  0  0  0  0  0  0
  143.6823  134.0052  152.9905 N   0  3  0  0  0  0  0  0  0  0  0  0
  146.5129  129.8648  153.3861 H   0  0  0  0  0  0  0  0  0  0  0  0
  147.0712  130.4806  151.8385 H   0  0  0  0  0  0  0  0  0  0  0  0
  145.4141  129.9082  152.0135 H   0  0  0  0  0  0  0  0  0  0  0  0
  144.9466  131.7466  153.6627 H   0  0  0  0  0  0  0  0  0  0  0  0
  146.5590  132.3719  153.4632 H   0  0  0  0  0  0  0  0  0  0  0  0
  144.6047  130.8961  150.8831 H   0  0  0  0  0  0  0  0  0  0  0  0
  143.7380  132.3373  150.4630 H   0  0  0  0  0  0  0  0  0  0  0  0
  145.1545  131.5859  148.5591 H   0  0  0  0  0  0  0  0  0  0  0  0
  146.6044  131.7111  149.5485 H   0  0  0  0  0  0  0  0  0  0  0  0
  145.7014  133.1626  149.1155 H   0  0  0  0  0  0  0  0  0  0  0  0
  145.9150  135.0935  150.7221 H   0  0  0  0  0  0  0  0  0  0  0  0
  144.7989  137.2352  151.2451 H   0  0  0  0  0  0  0  0  0  0  0  0
  143.3332  138.4266  152.5993 H   0  0  0  0  0  0  0  0  0  0  0  0
  142.0803  139.8423  153.3072 H   0  0  0  0  0  0  0  0  0  0  0  0
  140.0492  139.3481  155.3331 H   0  0  0  0  0  0  0  0  0  0  0  0
  139.2791  140.0989  152.4818 H   0  0  0  0  0  0  0  0  0  0  0  0
  138.5933  138.7914  153.4236 H   0  0  0  0  0  0  0  0  0  0  0  0
  137.3518  141.2210  153.2553 H   0  0  0  0  0  0  0  0  0  0  0  0
  137.3271  140.3156  154.7761 H   0  0  0  0  0  0  0  0  0  0  0  0
  141.1587  141.4573  155.5967 H   0  0  0  0  0  0  0  0  0  0  0  0
  141.0699  141.8022  153.8610 H   0  0  0  0  0  0  0  0  0  0  0  0
  142.2787  135.0547  154.0572 H   0  0  0  0  0  0  0  0  0  0  0  0
  143.3857  133.1508  153.4624 H   0  0  0  0  0  0  0  0  0  0  0  0
  1  2  1  0  0  0  0
  1 23  1  0  0  0  0
  1 24  1  0  0  0  0
  1 25  1  0  0  0  0
  2  3  1  0  0  0  0
  2 26  1  0  0  0  0
  2 27  1  0  0  0  0
  3  4  1  0  0  0  0
  3  6  1  0  0  0  0
  4  5  1  0  0  0  0
  4 28  1  0  0  0  0
  4 29  1  0  0  0  0
  5 30  1  0  0  0  0
  5 31  1  0  0  0  0
  5 32  1  0  0  0  0
  6 22  1  0  0  0  0
  6  7  2  0  0  0  0
  7  8  1  0  0  0  0
  7 33  1  0  0  0  0
  8  9  2  0  0  0  0
  8 34  1  0  0  0  0
  9 10  1  0  0  0  0
  9 21  1  0  0  0  0
 10 11  1  0  0  0  0
 10 35  1  0  0  0  0
 11 12  2  0  0  0  0
 11 13  1  0  0  0  0
 13 14  1  0  0  0  0
 13 36  1  0  0  0  0
 14 20  1  0  0  0  0
 14 15  1  0  0  0  0
 14 37  1  0  0  0  0
 15 16  1  0  0  0  0
 15 38  1  0  0  0  0
 15 39  1  0  0  0  0
 16 17  1  0  0  0  0
 16 40  1  0  0  0  0
 16 41  1  0  0  0  0
 17 18  2  0  0  0  0
 17 19  2  0  0  0  0
 17 20  1  0  0  0  0
 20 42  1  0  0  0  0
 20 43  1  0  0  0  0
 21 22  2  0  0  0  0
 21 44  1  0  0  0  0
 22 45  1  0  0  0  0
M  CHG  1  22   1
M  END
> <s_m_source_file>
AV-unprocessed.smi

> <i_m_source_file_index>
1754

> <i_lp_mmshare_version>
43012

> <i_f3d_flags>
0

> <s_epik_input>
W0NIM11bQ0gyXU4oW0NIMl1bQ0gzXSljMVtjSF1bY0hdYyhbY0hdbjEpW05IXUMoPU8pW05IXVtDQEBIXShbQ0gyXTIpW0NIMl1bQ0gyXVMyKD1PKT1P

> <s_epik_cmdline>
J2VwaWtfcHl0aG9uJywgJy1waCcsICc3LjAnLCAnLXRuJywgJzgnLCAnLW1hJywgJzIwMCcsICctbWV0YWxfYmluZGluZycsICctaW1hZScsICc8aW5maWxlLm1hZT4nLCAnLW9tYWUnLCAnPG91dGZpbGUubWFlPic=

> <r_lp_tautomer_probability>
0.999994

> <r_epik_Ionization_Penalty>
0.271106

> <r_epik_Ionization_Penalty_Charging>
0.271085

> <r_epik_Ionization_Penalty_Neutral>
2.10634e-05

> <r_epik_State_Penalty>
0.017795

> <r_epik_Charging_Adjusted_Penalty>
0.28888

> <i_epik_Tot_Q>
1

> <i_epik_Tot_abs_Q>
1

> <r_epik_Metal_State_Penalty>
0.0544868

> <b_epik_Metal_Only>
0

> <s_lp_Force_Field>
OPLS_2005

> <r_lp_Energy>
28.7888

> <b_lp_Chiralities_Consistent>
1

> <s_lp_Variant>
AV-unprocessed.smi:1754-1

> <Gold.Version>
5.8.1

> <Gold.Id.Protein>
6NUR|6NUR_protein|mol2

> <Gold.PLP.Fitness>
48.1100

> <Gold.PLP.PLP>
-36.0529

> <Gold.PLP.part.hbond>
-4.0659

> <Gold.PLP.part.metal>
0.0000

> <Gold.PLP.part.buried>
-4.7919

> <Gold.PLP.part.nonpolar>
-27.2353

> <Gold.PLP.part.repulsive>
0.1668

> <Gold.PLP.ligand.clash>
0.0000

> <Gold.PLP.ligand.torsion>
1.8447

> <Gold.PLP.Chemscore.Hbond>
4.9575

> <Gold.PLP.Chemscore.CHOScore>
0.0000

> <Gold.PLP.Chemscore.Metal>
0.0000

> <Gold.Chemscore.Hbonds>
donor molecule, donor type, donor heavy atom, donor atom, acceptor molecule, acceptor atom, score
      L1  H    10    35       P1 10175  0.99
      L1  H    13    36       P1 10175  1.00
      L1  H    22    45       P1 10957  1.95
      P1  H 10162 10167       L1    18  0.99

> <Gold.PLP.Chemscore.Internal.Correction>
0.8740

> <Gold.Rescore>
     Score         DG    S(hbond)    S(metal)    S(lipo)     H(rot)  DE(clash)    DE(int)     intcor
     19.12     -22.12       3.64        0.00      69.13       1.41       0.03       2.97       ----

> <Gold.Chemscore.Fitness>
19.1190

> <Gold.Chemscore.DG>
-22.1207

> <Gold.Chemscore.ZeroCoef>
-5.4800

> <Gold.Chemscore.Hbond>
3.6392

> <Gold.Chemscore.Metal>
0.0000

> <Gold.Chemscore.Lipo>
69.1273

> <Gold.Chemscore.Internal_Hbond>
0.0000

> <Gold.Chemscore.DEClash>
0.0315

> <Gold.Chemscore.DEInternal>
2.9702

> <Gold.Chemscore.Rot>
1.4070

> <Gold.Chemscore.Internal.Correction>
   9.000000E+99

> <Gold.Chemscore.Hbonds>
donor molecule, donor type, donor heavy atom, donor atom, acceptor molecule, acceptor atom, score
      L1  H    10    35       P1 10175  0.89
      L1  H    13    36       P1 10175  0.74
      L1  H    22    45       P1 10957  0.85
      P1  H 10162 10167       L1    18  0.89

> <Gold.Chemscore.Hbond.Weighted>
-12.1548

> <Gold.Chemscore.Metal.Weighted>
-0.0000

> <Gold.Chemscore.Lipo.Weighted>
-8.0879

> <Gold.Chemscore.Internal_Hbond.Weighted>
0.0000

> <Gold.Chemscore.DEClash.Weighted>
0.0315

> <Gold.Chemscore.DEInternal.Weighted>
2.9702

> <Gold.Chemscore.Rot.Weighted>
3.6020

> <Gold.Chemscore.Internal.Correction.Weighted>
   9.000000E+99

> <Gold.Protein.RotatedTorsions>
[ 6907 6896 6895 6894 ] final   18.01 input  -60.11 | X-H torsion
[ 7974 7965 7964 7962 ] final   53.86 input  175.53 | X-H torsion
[ 8008 7997 7996 7995 ] final  -54.97 input   59.86 | X-H torsion
[ 10167 10162 10161 10158 ] final -136.08 input  -65.29 | X-H torsion
[ 10718 10713 10712 10709 ] final   11.28 input   66.30 | X-H torsion
[ 10763 10752 10751 10750 ] final  -64.72 input  -60.55 | X-H torsion
[ 11005 11000 10999 10996 ] final  -51.81 input  -57.11 | X-H torsion

> <Gold.Protein.ActiveResidues>
 VAL166  LYS551  ARG553  GLY616  TRP617  ASP618  TYR619  PRO620  LYS621  CYS622 
 ASP623  PHE694  ASN695  SER759  ASP760  ASP761  ALA762  ILE779  LEU786  VAL792 
 PHE793  MET794  SER795  GLU796  ALA797  LYS798  CYS799  TRP800  GLU811  SER814 

> <Gold.Protein.RotatedAtoms>
  151.8585  135.0532  160.0466 H   0  0  0  0  0  0  0  0  0  0  0  0  # atno 6907 bound_to 6896
  152.2681  133.5353  159.5431 H   0  0  0  0  0  0  0  0  0  0  0  0  # atno 6908 bound_to 6896
  150.7141  134.0652  159.3887 H   0  0  0  0  0  0  0  0  0  0  0  0  # atno 6909 bound_to 6896
  145.9668  139.4111  143.0214 H   0  0  0  0  0  0  0  0  0  0  0  0  # atno 7974 bound_to 7965
  154.4179  140.1164  156.5401 H   0  0  0  0  0  0  0  0  0  0  0  0  # atno 8008 bound_to 7997
  155.6516  140.3496  155.4731 H   0  0  0  0  0  0  0  0  0  0  0  0  # atno 8009 bound_to 7997
  155.9787  140.1156  157.0736 H   0  0  0  0  0  0  0  0  0  0  0  0  # atno 8010 bound_to 7997
  139.8714  143.6952  152.2639 H   0  0  0  0  0  0  0  0  0  0  0  0  # atno 10167 bound_to 10162
  156.9933  130.6051  149.5688 H   0  0  0  0  0  0  0  0  0  0  0  0  # atno 10718 bound_to 10713
  154.3343  135.6170  153.5566 H   0  0  0  0  0  0  0  0  0  0  0  0  # atno 10763 bound_to 10752
  152.9809  135.5754  154.4925 H   0  0  0  0  0  0  0  0  0  0  0  0  # atno 10764 bound_to 10752
  154.4618  135.2856  155.1684 H   0  0  0  0  0  0  0  0  0  0  0  0  # atno 10765 bound_to 10752
  141.0891  133.6636  156.3932 H   0  0  0  0  0  0  0  0  0  0  0  0  # atno 11005 bound_to 11000
  145.7962  140.9792  143.1023 LP  0  0  0  0  0  0  0  0  0  0  0  0  # atno 17320 bound_to 7965
  144.6827  139.9745  143.7482 LP  0  0  0  0  0  0  0  0  0  0  0  0  # atno 17321 bound_to 7965
  139.7280  144.7588  151.0847 LP  0  0  0  0  0  0  0  0  0  0  0  0  # atno 17342 bound_to 10162
  140.7760  143.5123  150.9637 LP  0  0  0  0  0  0  0  0  0  0  0  0  # atno 17343 bound_to 10162
  156.0199  130.5293  150.8244 LP  0  0  0  0  0  0  0  0  0  0  0  0  # atno 17370 bound_to 10713
  157.5443  131.0942  150.9784 LP  0  0  0  0  0  0  0  0  0  0  0  0  # atno 17371 bound_to 10713
  140.5294  134.6227  157.5345 LP  0  0  0  0  0  0  0  0  0  0  0  0  # atno 17394 bound_to 11000
  139.9714  134.7287  156.0035 LP  0  0  0  0  0  0  0  0  0  0  0  0  # atno 17395 bound_to 11000

$$$$
