#       Name:                AV-unprocessed.smi:2992
#       Creating user name   scv26
#       Creation time:       Fri Mar 27 16:32:31 2020


#       File generated by GOLD software.
#

@<TRIPOS>MOLECULE
AV-unprocessed.smi:2992
    52    53     1
SMALL
NO_CHARGES


@<TRIPOS>ATOM
      1 ****        -3.0034   3.4557  -1.8798 C.3            1 S1                 0.0000
      2 ****        -3.3326   2.7446  -0.5498 C.3            1 S1                 0.0000
      3 ****        -4.8231   2.9755  -0.2339 C.3            1 S1                 0.0000
      4 ****        -3.0977   1.2274  -0.7149 C.3            1 S1                 0.0000
      5 ****        -2.4963   3.3160   0.6314 C.3            1 S1                 0.0000
      6 ****        -0.9760   3.1530   0.5041 C.2            1 S1                 0.0000
      7 ****        -0.3314   3.9023  -0.2293 O.2            1 S1                 0.0000
      8 ****        -0.4195   2.1733   1.2330 N.am           1 S1                 0.0000
      9 ****         0.9884   1.7935   1.2104 C.3            1 S1                 0.0000
     10 ****         1.2621   0.6461   0.2534 C.ar           1 S1                 0.0000
     11 ****         1.0985   0.8084  -1.1369 C.ar           1 S1                 0.0000
     12 ****         1.3484  -0.2951  -1.9726 C.ar           1 S1                 0.0000
     13 ****         1.7408  -1.4999  -1.5091 N.ar           1 S1                 0.0000
     14 ****         1.9102  -1.6668  -0.1737 C.ar           1 S1                 0.0000
     15 ****         2.3232  -2.9331   0.2953 N.3            1 S1                 0.0000
     16 ****         3.4875  -2.9344   1.1780 C.3            1 S1                 0.0000
     17 ****         3.6427  -4.3057   1.8584 C.3            1 S1                 0.0000
     18 ****         3.6945  -5.3315   0.8726 O.3            1 S1                 0.0000
     19 ****         2.5000  -5.3824   0.1001 C.3            1 S1                 0.0000
     20 ****         2.3099  -4.0513  -0.6463 C.3            1 S1                 0.0000
     21 ****         1.6744  -0.6116   0.7404 C.ar           1 S1                 0.0000
     22 ****        -3.6694   3.1276  -2.6786 H              1 S1                 0.0000
     23 ****        -1.9860   3.2498  -2.2130 H              1 S1                 0.0000
     24 ****        -3.1100   4.5372  -1.7884 H              1 S1                 0.0000
     25 ****        -5.0459   4.0375  -0.1237 H              1 S1                 0.0000
     26 ****        -5.1150   2.4817   0.6937 H              1 S1                 0.0000
     27 ****        -5.4647   2.5878  -1.0261 H              1 S1                 0.0000
     28 ****        -3.7470   0.8086  -1.4845 H              1 S1                 0.0000
     29 ****        -3.3014   0.6910   0.2125 H              1 S1                 0.0000
     30 ****        -2.0713   1.0021  -1.0064 H              1 S1                 0.0000
     31 ****        -2.7043   4.3810   0.7439 H              1 S1                 0.0000
     32 ****        -2.8199   2.8555   1.5665 H              1 S1                 0.0000
     33 ****        -1.0281   1.6152   1.8139 H              1 S1                 0.0000
     34 ****         1.6221   2.6410   0.9442 H              1 S1                 0.0000
     35 ****         1.2763   1.5060   2.2220 H              1 S1                 0.0000
     36 ****         0.7846   1.7525  -1.5569 H              1 S1                 0.0000
     37 ****         1.2289  -0.2086  -3.0424 H              1 S1                 0.0000
     38 ****         4.3762  -2.7087   0.5872 H              1 S1                 0.0000
     39 ****         3.4147  -2.1658   1.9459 H              1 S1                 0.0000
     40 ****         4.5612  -4.3314   2.4449 H              1 S1                 0.0000
     41 ****         2.8189  -4.4919   2.5496 H              1 S1                 0.0000
     42 ****         2.5714  -6.2049  -0.6116 H              1 S1                 0.0000
     43 ****         1.6452  -5.5927   0.7450 H              1 S1                 0.0000
     44 ****         1.3660  -4.0753  -1.1923 H              1 S1                 0.0000
     45 ****         3.1080  -3.9169  -1.3776 H              1 S1                 0.0000
     46 ****         1.7875  -0.7617   1.8036 H              1 S1                 0.0000
     47 ****        -0.7984   4.6206  -0.7450 LP             1 S1                 0.0000
     48 ****         0.6594   3.7928  -0.3096 LP             1 S1                 0.0000
     49 ****         1.9043  -2.2581  -2.1404 LP             1 S1                 0.0000
     50 ****         1.5410  -3.1399   0.8829 LP             1 S1                 0.0000
     51 ****         3.8232  -6.2123   1.3283 LP             1 S1                 0.0000
     52 ****         4.4673  -5.1557   0.2627 LP             1 S1                 0.0000
@<TRIPOS>BOND
    1    1    2 1     
    2    1   22 1     
    3    1   23 1     
    4    1   24 1     
    5    2    3 1     
    6    2    4 1     
    7    2    5 1     
    8    3   25 1     
    9    3   26 1     
   10    3   27 1     
   11    4   28 1     
   12    4   29 1     
   13    4   30 1     
   14    5    6 1     
   15    5   31 1     
   16    5   32 1     
   17    6    7 2     
   18    6    8 am    
   19    8    9 1     
   20    8   33 1     
   21    9   10 1     
   22    9   34 1     
   23    9   35 1     
   24   10   21 ar    
   25   10   11 ar    
   26   11   12 ar    
   27   11   36 1     
   28   12   13 ar    
   29   12   37 1     
   30   13   14 ar    
   31   14   15 1     
   32   14   21 ar    
   33   15   20 1     
   34   15   16 1     
   35   16   17 1     
   36   16   38 1     
   37   16   39 1     
   38   17   18 1     
   39   17   40 1     
   40   17   41 1     
   41   18   19 1     
   42   19   20 1     
   43   19   42 1     
   44   19   43 1     
   45   20   44 1     
   46   20   45 1     
   47   21   46 1     
   48    7   47 1     
   49    7   48 1     
   50   13   49 1     
   51   15   50 1     
   52   18   51 1     
   53   18   52 1     
@<TRIPOS>SUBSTRUCTURE
      1 S1             1
@<TRIPOS>SET
LONE_PAIRS      STATIC     ATOMS    <user>   **** ""
6 47 48 49 50 51 52
DONOR_HYDROGENS      STATIC     ATOMS    <user>   **** ""
1 33
ATOM$BLUE        STATIC     ATOMS    COLORGROUP SYSTEM
6 47 48 49 50 51 52
ATOM$RED        STATIC     ATOMS    COLORGROUP SYSTEM
1 33
