AV-unprocessed.smi:1824|AV-procd|sdf|7402|dock7
  -GOLD-   22720 9 73D 1   1.00000     0.00000
 Structure written by MMmdl.
 45 47  0  0  0  0  0  0  0  0  2 V2000
  147.6324  143.4445  158.8116 C   0  0  0  0  0  0  0  0  0  0  0  0
  147.1844  142.7512  157.5206 C   0  0  1  0  0  0  0  0  0  0  0  0
  147.7973  141.3411  157.3793 C   0  0  0  0  0  0  0  0  0  0  0  0
  147.2576  140.6225  156.1965 N   0  3  2  0  0  0  0  0  0  0  0  0
  147.8495  141.0276  154.8923 C   0  0  0  0  0  0  0  0  0  0  0  0
  149.3695  140.7770  154.8344 C   0  0  1  0  0  0  0  0  0  0  0  0
  149.7718  140.7188  153.4788 O   0  0  0  0  0  0  0  0  0  0  0  0
  150.1647  141.8838  155.5533 C   0  0  0  0  0  0  0  0  0  0  0  0
  151.1150  141.3474  156.5111 N   0  0  0  0  0  0  0  0  0  0  0  0
  151.7895  140.1843  156.4269 C   0  0  0  0  0  0  0  0  0  0  0  0
  152.6113  139.8826  157.4280 N   0  0  0  0  0  0  0  0  0  0  0  0
  152.4556  140.9792  158.2582 C   0  0  0  0  0  0  0  0  0  0  0  0
  153.0554  141.2817  159.5014 C   0  0  0  0  0  0  0  0  0  0  0  0
  152.7403  142.4804  160.1747 C   0  0  0  0  0  0  0  0  0  0  0  0
  153.3262  142.7558  161.3639 F   0  0  0  0  0  0  0  0  0  0  0  0
  151.8203  143.3928  159.6162 C   0  0  0  0  0  0  0  0  0  0  0  0
  151.5234  144.5416  160.2686 F   0  0  0  0  0  0  0  0  0  0  0  0
  151.2078  143.1118  158.3799 C   0  0  0  0  0  0  0  0  0  0  0  0
  151.5267  141.9155  157.7116 C   0  0  0  0  0  0  0  0  0  0  0  0
  145.7745  140.6379  156.2112 C   0  0  0  0  0  0  0  0  0  0  0  0
  145.2300  142.0729  156.3589 C   0  0  1  0  0  0  0  0  0  0  0  0
  143.7011  142.1021  156.4637 C   0  0  0  0  0  0  0  0  0  0  0  0
  145.7648  142.6467  157.5465 O   0  0  0  0  0  0  0  0  0  0  0  0
  148.7162  143.5588  158.8408 H   0  0  0  0  0  0  0  0  0  0  0  0
  147.3315  142.8746  159.6913 H   0  0  0  0  0  0  0  0  0  0  0  0
  147.1912  144.4383  158.8929 H   0  0  0  0  0  0  0  0  0  0  0  0
  147.4808  143.3787  156.6793 H   0  0  0  0  0  0  0  0  0  0  0  0
  148.8845  141.3970  157.3437 H   0  0  0  0  0  0  0  0  0  0  0  0
  147.5542  140.7527  158.2654 H   0  0  0  0  0  0  0  0  0  0  0  0
  147.3786  140.4654  154.0846 H   0  0  0  0  0  0  0  0  0  0  0  0
  147.6314  142.0767  154.6925 H   0  0  0  0  0  0  0  0  0  0  0  0
  149.6116  139.8216  155.2993 H   0  0  0  0  0  0  0  0  0  0  0  0
  149.3700  139.9649  153.0740 H   0  0  0  0  0  0  0  0  0  0  0  0
  150.7039  142.5012  154.8332 H   0  0  0  0  0  0  0  0  0  0  0  0
  149.4858  142.5498  156.0875 H   0  0  0  0  0  0  0  0  0  0  0  0
  151.6667  139.5187  155.5850 H   0  0  0  0  0  0  0  0  0  0  0  0
  153.7607  140.5906  159.9388 H   0  0  0  0  0  0  0  0  0  0  0  0
  150.5033  143.8086  157.9510 H   0  0  0  0  0  0  0  0  0  0  0  0
  145.3774  140.1583  155.3158 H   0  0  0  0  0  0  0  0  0  0  0  0
  145.4375  140.0327  157.0540 H   0  0  0  0  0  0  0  0  0  0  0  0
  145.5274  142.6768  155.4999 H   0  0  0  0  0  0  0  0  0  0  0  0
  143.2384  141.6794  155.5715 H   0  0  0  0  0  0  0  0  0  0  0  0
  143.3373  143.1240  156.5734 H   0  0  0  0  0  0  0  0  0  0  0  0
  143.3519  141.5312  157.3247 H   0  0  0  0  0  0  0  0  0  0  0  0
  147.5211  139.6529  156.3049 H   0  0  0  0  0  0  0  0  0  0  0  0
  1  2  1  0  0  0  0
  1 24  1  0  0  0  0
  1 25  1  0  0  0  0
  1 26  1  0  0  0  0
  2 23  1  0  0  0  0
  2  3  1  0  0  0  0
  2 27  1  0  0  0  0
  3  4  1  0  0  0  0
  3 28  1  0  0  0  0
  3 29  1  0  0  0  0
  4  5  1  0  0  0  0
  4 20  1  0  0  0  0
  4 45  1  0  0  0  0
  5  6  1  0  0  0  0
  5 30  1  0  0  0  0
  5 31  1  0  0  0  0
  6  7  1  0  0  0  0
  6  8  1  0  0  0  0
  6 32  1  0  0  0  0
  7 33  1  0  0  0  0
  8  9  1  0  0  0  0
  8 34  1  0  0  0  0
  8 35  1  0  0  0  0
  9 19  1  0  0  0  0
  9 10  1  0  0  0  0
 10 11  2  0  0  0  0
 10 36  1  0  0  0  0
 11 12  1  0  0  0  0
 12 19  2  0  0  0  0
 12 13  1  0  0  0  0
 13 14  2  0  0  0  0
 13 37  1  0  0  0  0
 14 15  1  0  0  0  0
 14 16  1  0  0  0  0
 16 17  1  0  0  0  0
 16 18  2  0  0  0  0
 18 19  1  0  0  0  0
 18 38  1  0  0  0  0
 20 21  1  0  0  0  0
 20 39  1  0  0  0  0
 20 40  1  0  0  0  0
 21 22  1  0  0  0  0
 21 23  1  0  0  0  0
 21 41  1  0  0  0  0
 22 42  1  0  0  0  0
 22 43  1  0  0  0  0
 22 44  1  0  0  0  0
M  CHG  1   4   1
M  END
> <s_m_source_file>
AV-unprocessed.smi

> <i_m_source_file_index>
1824

> <i_lp_mmshare_version>
43012

> <i_f3d_flags>
0

> <s_epik_input>
W0NIM11bQ0BASF0xW0NIMl1OKFtDSDJdW0NASF0oTzEpW0NIM10pW0NIMl1bQ0BIXShbT0hdKVtDSDJdbihbY0hdbjIpYyhjMjMpW2NIXWMoRiljKEYpW2NIXTM=

> <s_epik_cmdline>
J2VwaWtfcHl0aG9uJywgJy1waCcsICc3LjAnLCAnLXRuJywgJzgnLCAnLW1hJywgJzIwMCcsICctbWV0YWxfYmluZGluZycsICctaW1hZScsICc8aW5maWxlLm1hZT4nLCAnLW9tYWUnLCAnPG91dGZpbGUubWFlPic=

> <r_epik_Ionization_Penalty>
0.61967

> <r_epik_Ionization_Penalty_Charging>
0.608065

> <r_epik_Ionization_Penalty_Neutral>
0.0116057

> <r_epik_State_Penalty>
0.664205

> <r_epik_Charging_Adjusted_Penalty>
1.27227

> <i_epik_Tot_Q>
1

> <i_epik_Tot_abs_Q>
1

> <r_epik_Metal_State_Penalty>
0.654947

> <b_epik_Metal_Only>
0

> <s_lp_Force_Field>
OPLS_2005

> <r_lp_Energy>
21.9473

> <b_lp_Chiralities_Consistent>
1

> <s_lp_Variant>
AV-unprocessed.smi:1824-10

> <Gold.Version>
5.8.1

> <Gold.Id.Protein>
6NUR|6NUR_protein|mol2

> <Gold.PLP.Fitness>
47.6783

> <Gold.PLP.PLP>
-42.1748

> <Gold.PLP.part.hbond>
-3.4605

> <Gold.PLP.part.metal>
0.0000

> <Gold.PLP.part.buried>
-4.0882

> <Gold.PLP.part.nonpolar>
-33.0722

> <Gold.PLP.part.repulsive>
0.0956

> <Gold.PLP.ligand.clash>
0.0000

> <Gold.PLP.ligand.torsion>
1.2935

> <Gold.PLP.Chemscore.Hbond>
2.6720

> <Gold.PLP.Chemscore.CHOScore>
0.0000

> <Gold.PLP.Chemscore.Metal>
0.0000

> <Gold.Chemscore.Hbonds>
donor molecule, donor type, donor heavy atom, donor atom, acceptor molecule, acceptor atom, score
      L1  H     7    33       P1  7957  0.19
      P1  H  7989  7998       L1     7  0.37
      P1  H  7997  8008       L1    11  1.00
      P1  H  8011  8017       L1     7  0.98

> <Gold.PLP.Chemscore.Internal.Correction>
0.0745

> <Gold.Rescore>
     Score         DG    S(hbond)    S(metal)    S(lipo)     H(rot)  DE(clash)    DE(int)     intcor
     13.88     -16.25       2.01        0.00      85.52       2.33       1.07       1.30       ----

> <Gold.Chemscore.Fitness>
13.8785

> <Gold.Chemscore.DG>
-16.2454

> <Gold.Chemscore.ZeroCoef>
-5.4800

> <Gold.Chemscore.Hbond>
2.0097

> <Gold.Chemscore.Metal>
0.0000

> <Gold.Chemscore.Lipo>
85.5165

> <Gold.Chemscore.Internal_Hbond>
0.0000

> <Gold.Chemscore.DEClash>
1.0689

> <Gold.Chemscore.DEInternal>
1.2980

> <Gold.Chemscore.Rot>
2.3251

> <Gold.Chemscore.Internal.Correction>
   9.000000E+99

> <Gold.Chemscore.Hbonds>
donor molecule, donor type, donor heavy atom, donor atom, acceptor molecule, acceptor atom, score
      L1  H     7    33       P1  7957  0.20
      P1  H  7989  7998       L1     7  0.22
      P1  H  7997  8008       L1    11  0.22
      P1  H  8011  8017       L1     7  0.80

> <Gold.Chemscore.Hbond.Weighted>
-6.7123

> <Gold.Chemscore.Metal.Weighted>
-0.0000

> <Gold.Chemscore.Lipo.Weighted>
-10.0054

> <Gold.Chemscore.Internal_Hbond.Weighted>
0.0000

> <Gold.Chemscore.DEClash.Weighted>
1.0689

> <Gold.Chemscore.DEInternal.Weighted>
1.2980

> <Gold.Chemscore.Rot.Weighted>
5.9523

> <Gold.Chemscore.Internal.Correction.Weighted>
   9.000000E+99

> <Gold.Protein.RotatedTorsions>
[ 6907 6896 6895 6894 ] final  177.16 input  -60.11 | X-H torsion
[ 7974 7965 7964 7962 ] final -150.84 input  175.53 | X-H torsion
[ 8008 7997 7996 7995 ] final  -60.18 input   59.86 | X-H torsion
[ 10167 10162 10161 10158 ] final   65.48 input  -65.29 | X-H torsion
[ 10718 10713 10712 10709 ] final   51.72 input   66.30 | X-H torsion
[ 10763 10752 10751 10750 ] final -175.67 input  -60.55 | X-H torsion
[ 11005 11000 10999 10996 ] final  109.81 input  -57.11 | X-H torsion

> <Gold.Protein.ActiveResidues>
 VAL166  LYS551  ARG553  GLY616  TRP617  ASP618  TYR619  PRO620  LYS621  CYS622 
 ASP623  PHE694  ASN695  SER759  ASP760  ASP761  ALA762  ILE779  LEU786  VAL792 
 PHE793  MET794  SER795  GLU796  ALA797  LYS798  CYS799  TRP800  GLU811  SER814 

> <Gold.Protein.RotatedAtoms>
  151.7085  133.3312  159.3284 H   0  0  0  0  0  0  0  0  0  0  0  0  # atno 6907 bound_to 6896
  150.7704  134.6553  159.6320 H   0  0  0  0  0  0  0  0  0  0  0  0  # atno 6908 bound_to 6896
  152.3726  134.6714  160.0222 H   0  0  0  0  0  0  0  0  0  0  0  0  # atno 6909 bound_to 6896
  144.7884  140.4878  143.5790 H   0  0  0  0  0  0  0  0  0  0  0  0  # atno 7974 bound_to 7965
  154.4386  140.1045  156.6233 H   0  0  0  0  0  0  0  0  0  0  0  0  # atno 8008 bound_to 7997
  155.5684  140.3489  155.4490 H   0  0  0  0  0  0  0  0  0  0  0  0  # atno 8009 bound_to 7997
  156.0408  140.1281  157.0147 H   0  0  0  0  0  0  0  0  0  0  0  0  # atno 8010 bound_to 7997
  140.1108  144.4820  150.6979 H   0  0  0  0  0  0  0  0  0  0  0  0  # atno 10167 bound_to 10162
  157.5008  130.8436  149.8314 H   0  0  0  0  0  0  0  0  0  0  0  0  # atno 10718 bound_to 10713
  154.5816  135.2837  155.0726 H   0  0  0  0  0  0  0  0  0  0  0  0  # atno 10763 bound_to 10752
  154.2060  135.6416  153.5105 H   0  0  0  0  0  0  0  0  0  0  0  0  # atno 10764 bound_to 10752
  153.0090  135.5480  154.6472 H   0  0  0  0  0  0  0  0  0  0  0  0  # atno 10765 bound_to 10752
  139.8869  134.9468  156.6183 H   0  0  0  0  0  0  0  0  0  0  0  0  # atno 11005 bound_to 11000
  145.5860  139.1492  143.3209 LP  0  0  0  0  0  0  0  0  0  0  0  0  # atno 17320 bound_to 7965
  146.2126  140.5987  142.9053 LP  0  0  0  0  0  0  0  0  0  0  0  0  # atno 17321 bound_to 7965
  140.6927  143.2385  151.5088 LP  0  0  0  0  0  0  0  0  0  0  0  0  # atno 17342 bound_to 10162
  139.5620  144.2133  152.1706 LP  0  0  0  0  0  0  0  0  0  0  0  0  # atno 17343 bound_to 10162
  156.0228  130.3790  150.1912 LP  0  0  0  0  0  0  0  0  0  0  0  0  # atno 17370 bound_to 10713
  157.0102  130.9948  151.3368 LP  0  0  0  0  0  0  0  0  0  0  0  0  # atno 17371 bound_to 10713
  140.7759  133.8700  155.8528 LP  0  0  0  0  0  0  0  0  0  0  0  0  # atno 17394 bound_to 11000
  140.9802  134.1415  157.4501 LP  0  0  0  0  0  0  0  0  0  0  0  0  # atno 17395 bound_to 11000

$$$$
