#       Name:                AV-unprocessed.smi:2590
#       Creating user name   scv26
#       Creation time:       Fri Mar 27 14:16:41 2020


#       File generated by GOLD software.
#

@<TRIPOS>MOLECULE
AV-unprocessed.smi:2590
    31    32     1
SMALL
NO_CHARGES


@<TRIPOS>ATOM
      1 ****        -1.0893  -1.8926   1.0127 N.pl3          1 S1                 0.0000
      2 ****         0.2836  -1.8586   1.2642 C.ar           1 S1                 0.0000
      3 ****         0.8952  -3.0612   1.3525 N.ar           1 S1                 0.0000
      4 ****         2.2168  -3.0584   1.6306 C.ar           1 S1                 0.0000
      5 ****         2.9289  -1.8581   1.8277 C.ar           1 S1                 0.0000
      6 ****         2.3256  -0.6532   1.7396 N.ar           1 S1                 0.0000
      7 ****         1.0038  -0.6450   1.4464 C.ar           1 S1                 0.0000
      8 ****         0.3513   0.7043   1.3441 C.2            1 S1                 0.0000
      9 ****         0.1571   1.3679   2.3622 O.2            1 S1                 0.0000
     10 ****         0.0260   1.1396   0.1099 N.am           1 S1                 0.0000
     11 ****        -0.5233   2.4416  -0.2760 C.3            1 S1                 0.0000
     12 ****        -1.6476   2.2620  -1.3059 C.3            1 S1                 0.0000
     13 ****        -1.1849   1.3572  -2.4512 C.3            1 S1                 0.0000
     14 ****        -0.5874   0.0650  -1.8793 C.3            1 S1                 0.0000
     15 ****         0.4819   0.3892  -0.9955 O.3            1 S1                 0.0000
     16 ****        -1.6369  -1.0465   0.9486 H              1 S1                 0.0000
     17 ****        -1.5872  -2.7682   0.9392 H              1 S1                 0.0000
     18 ****         2.7076  -4.0176   1.7014 H              1 S1                 0.0000
     19 ****         3.9844  -1.8650   2.0555 H              1 S1                 0.0000
     20 ****        -0.9002   2.9841   0.5922 H              1 S1                 0.0000
     21 ****         0.2814   3.0438  -0.6993 H              1 S1                 0.0000
     22 ****        -2.5145   1.8138  -0.8185 H              1 S1                 0.0000
     23 ****        -1.9708   3.2298  -1.6900 H              1 S1                 0.0000
     24 ****        -2.0175   1.1314  -3.1178 H              1 S1                 0.0000
     25 ****        -0.4323   1.8736  -3.0482 H              1 S1                 0.0000
     26 ****        -1.3497  -0.5176  -1.3616 H              1 S1                 0.0000
     27 ****        -0.2011  -0.5600  -2.6845 H              1 S1                 0.0000
     28 ****         0.3915  -3.9145   1.2180 LP             1 S1                 0.0000
     29 ****         2.8330   0.1962   1.8847 LP             1 S1                 0.0000
     30 ****         0.4333   1.0085   3.2536 LP             1 S1                 0.0000
     31 ****        -0.2770   2.2665   2.2981 LP             1 S1                 0.0000
@<TRIPOS>BOND
    1    1    2 1     
    2    1   16 1     
    3    1   17 1     
    4    2    7 ar    
    5    2    3 ar    
    6    3    4 ar    
    7    4    5 ar    
    8    4   18 1     
    9    5    6 ar    
   10    5   19 1     
   11    6    7 ar    
   12    7    8 1     
   13    8    9 2     
   14    8   10 am    
   15   10   15 1     
   16   10   11 1     
   17   11   12 1     
   18   11   20 1     
   19   11   21 1     
   20   12   13 1     
   21   12   22 1     
   22   12   23 1     
   23   13   14 1     
   24   13   24 1     
   25   13   25 1     
   26   14   15 1     
   27   14   26 1     
   28   14   27 1     
   29    3   28 1     
   30    6   29 1     
   31    9   30 1     
   32    9   31 1     
@<TRIPOS>SUBSTRUCTURE
      1 S1             1
@<TRIPOS>SET
LONE_PAIRS      STATIC     ATOMS    <user>   **** ""
4 28 29 30 31
DONOR_HYDROGENS      STATIC     ATOMS    <user>   **** ""
2 16 17
ATOM$BLUE        STATIC     ATOMS    COLORGROUP SYSTEM
4 28 29 30 31
ATOM$RED        STATIC     ATOMS    COLORGROUP SYSTEM
2 16 17
