AV-unprocessed.smi:608|AV-procd|sdf|3044|dock6
  -GOLD-   2262023563D 1   1.00000     0.00000
 Structure written by MMmdl.
 40 41  0  0  0  0  0  0  0  0  1 V2000
  151.6044  145.7442  160.4537 C   0  0  0  0  0  0  0  0  0  0  0  0
  152.1707  145.2883  159.1044 C   0  0  0  0  0  0  0  0  0  0  0  0
  151.7866  143.8898  158.7480 C   0  0  0  0  0  0  0  0  0  0  0  0
  150.5934  143.4568  158.2243 C   0  0  0  0  0  0  0  0  0  0  0  0
  150.5387  142.0782  158.0064 N   0  0  0  0  0  0  0  0  0  0  0  0
  151.6650  141.4598  158.3691 C   0  0  0  0  0  0  0  0  0  0  0  0
  151.8816  139.9902  158.2270 C   0  0  0  0  0  0  0  0  0  0  0  0
  151.4621  139.4604  156.8497 C   0  0  0  0  0  0  0  0  0  0  0  0
  150.2793  140.1647  156.3746 N   0  0  0  0  0  0  0  0  0  0  0  0
  149.8849  140.2226  155.0920 C   0  0  0  0  0  0  0  0  0  0  0  0
  150.5118  139.6631  154.1911 O   0  0  0  0  0  0  0  0  0  0  0  0
  148.7491  140.9368  154.8773 N   0  0  0  0  0  0  0  0  0  0  0  0
  148.0323  141.0467  153.5992 C   0  0  0  0  0  0  0  0  0  0  0  0
  146.9812  139.9255  153.5137 C   0  0  0  0  0  0  0  0  0  0  0  0
  145.7521  140.2869  154.2128 N   0  0  0  0  0  0  0  0  0  0  0  0
  145.6271  140.6267  155.5089 C   0  0  0  0  0  0  0  0  0  0  0  0
  144.5348  140.9451  155.9734 O   0  0  0  0  0  0  0  0  0  0  0  0
  146.8555  140.5963  156.4366 C   0  0  0  0  0  0  0  0  0  0  0  0
  147.9979  141.5335  155.9888 C   0  0  0  0  0  0  0  0  0  0  0  0
  152.8946  142.5610  158.9780 S   0  0  0  0  0  0  0  0  0  0  0  0
  151.8969  146.7714  160.6716 H   0  0  0  0  0  0  0  0  0  0  0  0
  151.9686  145.1160  161.2671 H   0  0  0  0  0  0  0  0  0  0  0  0
  150.5148  145.6998  160.4579 H   0  0  0  0  0  0  0  0  0  0  0  0
  151.8304  145.9699  158.3241 H   0  0  0  0  0  0  0  0  0  0  0  0
  153.2578  145.3708  159.1228 H   0  0  0  0  0  0  0  0  0  0  0  0
  149.7312  144.0591  157.9785 H   0  0  0  0  0  0  0  0  0  0  0  0
  152.9368  139.7793  158.4048 H   0  0  0  0  0  0  0  0  0  0  0  0
  151.3243  139.4771  159.0121 H   0  0  0  0  0  0  0  0  0  0  0  0
  152.2757  139.5905  156.1340 H   0  0  0  0  0  0  0  0  0  0  0  0
  151.2477  138.3920  156.9068 H   0  0  0  0  0  0  0  0  0  0  0  0
  149.7203  140.6423  157.0662 H   0  0  0  0  0  0  0  0  0  0  0  0
  147.5616  142.0260  153.4956 H   0  0  0  0  0  0  0  0  0  0  0  0
  148.7111  140.9832  152.7484 H   0  0  0  0  0  0  0  0  0  0  0  0
  146.7161  139.7635  152.4688 H   0  0  0  0  0  0  0  0  0  0  0  0
  147.3668  138.9742  153.8844 H   0  0  0  0  0  0  0  0  0  0  0  0
  144.9119  140.3061  153.6529 H   0  0  0  0  0  0  0  0  0  0  0  0
  146.5293  140.8975  157.4329 H   0  0  0  0  0  0  0  0  0  0  0  0
  147.2110  139.5700  156.5368 H   0  0  0  0  0  0  0  0  0  0  0  0
  148.6491  141.7439  156.8385 H   0  0  0  0  0  0  0  0  0  0  0  0
  147.6007  142.5075  155.6987 H   0  0  0  0  0  0  0  0  0  0  0  0
  1  2  1  0  0  0  0
  1 21  1  0  0  0  0
  1 22  1  0  0  0  0
  1 23  1  0  0  0  0
  2  3  1  0  0  0  0
  2 24  1  0  0  0  0
  2 25  1  0  0  0  0
  3 20  1  0  0  0  0
  3  4  2  0  0  0  0
  4  5  1  0  0  0  0
  4 26  1  0  0  0  0
  5  6  2  0  0  0  0
  6  7  1  0  0  0  0
  6 20  1  0  0  0  0
  7  8  1  0  0  0  0
  7 27  1  0  0  0  0
  7 28  1  0  0  0  0
  8  9  1  0  0  0  0
  8 29  1  0  0  0  0
  8 30  1  0  0  0  0
  9 10  1  0  0  0  0
  9 31  1  0  0  0  0
 10 11  2  0  0  0  0
 10 12  1  0  0  0  0
 12 19  1  0  0  0  0
 12 13  1  0  0  0  0
 13 14  1  0  0  0  0
 13 32  1  0  0  0  0
 13 33  1  0  0  0  0
 14 15  1  0  0  0  0
 14 34  1  0  0  0  0
 14 35  1  0  0  0  0
 15 16  1  0  0  0  0
 15 36  1  0  0  0  0
 16 17  2  0  0  0  0
 16 18  1  0  0  0  0
 18 19  1  0  0  0  0
 18 37  1  0  0  0  0
 18 38  1  0  0  0  0
 19 39  1  0  0  0  0
 19 40  1  0  0  0  0
M  END
> <s_m_source_file>
AV-unprocessed.smi

> <i_m_source_file_index>
608

> <i_lp_mmshare_version>
43012

> <i_f3d_flags>
0

> <s_epik_input>
W0NIM11bQ0gyXWMxW2NIXW5jKHMxKVtDSDJdW0NIMl1bTkhdQyg9TylOMltDSDJdW0NIMl1bTkhdQyg9TylbQ0gyXVtDSDJdMg==

> <s_epik_cmdline>
J2VwaWtfcHl0aG9uJywgJy1waCcsICc3LjAnLCAnLXRuJywgJzgnLCAnLW1hJywgJzIwMCcsICctbWV0YWxfYmluZGluZycsICctaW1hZScsICc8aW5maWxlLm1hZT4nLCAnLW9tYWUnLCAnPG91dGZpbGUubWFlPic=

> <r_epik_Ionization_Penalty>
0.000937608

> <r_epik_Ionization_Penalty_Charging>
0

> <r_epik_Ionization_Penalty_Neutral>
0.000937608

> <r_epik_State_Penalty>
0.000579253

> <r_epik_Charging_Adjusted_Penalty>
0.000579253

> <i_epik_Tot_Q>
0

> <i_epik_Tot_abs_Q>
0

> <r_epik_Metal_State_Penalty>
-0

> <b_epik_Metal_Only>
0

> <s_lp_Force_Field>
OPLS_2005

> <r_lp_Energy>
19.2261

> <b_lp_Chiralities_Consistent>
1

> <s_lp_Variant>
AV-unprocessed.smi:608-1

> <Gold.Version>
5.8.1

> <Gold.Id.Protein>
6NUR|6NUR_protein|mol2

> <Gold.PLP.Fitness>
40.9130

> <Gold.PLP.PLP>
-35.0348

> <Gold.PLP.part.hbond>
-2.0000

> <Gold.PLP.part.metal>
0.0000

> <Gold.PLP.part.buried>
-1.1749

> <Gold.PLP.part.nonpolar>
-32.3923

> <Gold.PLP.part.repulsive>
0.3985

> <Gold.PLP.ligand.clash>
2.2153

> <Gold.PLP.ligand.torsion>
0.6847

> <Gold.PLP.Chemscore.Hbond>
2.0000

> <Gold.PLP.Chemscore.CHOScore>
1.1348

> <Gold.PLP.Chemscore.Metal>
0.0000

> <Gold.Chemscore.Hbonds>
donor molecule, donor type, donor heavy atom, donor atom, acceptor molecule, acceptor atom, score
      L1  H    15    36       P1 10175  1.00
      P1  H  7989  7998       L1    11  1.00
      L1  C     4    26       P1  8028  0.86
      L1  C     4    26       P1  8029  0.24

> <Gold.PLP.Chemscore.Internal.Correction>
0.0584

> <Gold.Rescore>
     Score         DG    S(hbond)    S(metal)    S(lipo)     H(rot)  DE(clash)    DE(int)     intcor
     16.94     -18.09       1.70        0.00      94.56       1.61       0.56       0.59       ----

> <Gold.Chemscore.Fitness>
16.9407

> <Gold.Chemscore.DG>
-18.0912

> <Gold.Chemscore.ZeroCoef>
-5.4800

> <Gold.Chemscore.Hbond>
1.6991

> <Gold.Chemscore.Metal>
0.0000

> <Gold.Chemscore.Lipo>
94.5553

> <Gold.Chemscore.Internal_Hbond>
0.0000

> <Gold.Chemscore.DEClash>
0.5596

> <Gold.Chemscore.DEInternal>
0.5908

> <Gold.Chemscore.Rot>
1.6120

> <Gold.Chemscore.Internal.Correction>
   9.000000E+99

> <Gold.Chemscore.Hbonds>
donor molecule, donor type, donor heavy atom, donor atom, acceptor molecule, acceptor atom, score
      L1  H    15    36       P1 10175  1.00
      P1  H  7989  7998       L1    11  0.65

> <Gold.Chemscore.Hbond.Weighted>
-5.6749

> <Gold.Chemscore.Metal.Weighted>
-0.0000

> <Gold.Chemscore.Lipo.Weighted>
-11.0630

> <Gold.Chemscore.Internal_Hbond.Weighted>
0.0000

> <Gold.Chemscore.DEClash.Weighted>
0.5596

> <Gold.Chemscore.DEInternal.Weighted>
0.5908

> <Gold.Chemscore.Rot.Weighted>
4.1267

> <Gold.Chemscore.Internal.Correction.Weighted>
   9.000000E+99

> <Gold.Protein.RotatedTorsions>
[ 6907 6896 6895 6894 ] final  -80.18 input  -60.11 | X-H torsion
[ 7974 7965 7964 7962 ] final   47.24 input  175.53 | X-H torsion
[ 8008 7997 7996 7995 ] final   80.77 input   59.86 | X-H torsion
[ 10167 10162 10161 10158 ] final  112.95 input  -65.29 | X-H torsion
[ 10718 10713 10712 10709 ] final  127.07 input   66.30 | X-H torsion
[ 10763 10752 10751 10750 ] final -152.91 input  -60.55 | X-H torsion
[ 11005 11000 10999 10996 ] final   87.19 input  -57.11 | X-H torsion

> <Gold.Protein.ActiveResidues>
 VAL166  LYS551  ARG553  GLY616  TRP617  ASP618  TYR619  PRO620  LYS621  CYS622 
 ASP623  PHE694  ASN695  SER759  ASP760  ASP761  ALA762  ILE779  LEU786  VAL792 
 PHE793  MET794  SER795  GLU796  ALA797  LYS798  CYS799  TRP800  GLU811  SER814 

> <Gold.Protein.RotatedAtoms>
  150.6934  134.4009  159.5118 H   0  0  0  0  0  0  0  0  0  0  0  0  # atno 6907 bound_to 6896
  152.1783  134.8773  160.0538 H   0  0  0  0  0  0  0  0  0  0  0  0  # atno 6908 bound_to 6896
  151.9774  133.3711  159.4131 H   0  0  0  0  0  0  0  0  0  0  0  0  # atno 6909 bound_to 6896
  146.0316  139.4770  142.9834 H   0  0  0  0  0  0  0  0  0  0  0  0  # atno 7974 bound_to 7965
  155.8881  140.3440  155.5936 H   0  0  0  0  0  0  0  0  0  0  0  0  # atno 8008 bound_to 7997
  155.7642  140.0836  157.2159 H   0  0  0  0  0  0  0  0  0  0  0  0  # atno 8009 bound_to 7997
  154.4030  140.1530  156.2855 H   0  0  0  0  0  0  0  0  0  0  0  0  # atno 8010 bound_to 7997
  139.6497  144.7128  151.2072 H   0  0  0  0  0  0  0  0  0  0  0  0  # atno 10167 bound_to 10162
  157.5365  131.1097  150.8927 H   0  0  0  0  0  0  0  0  0  0  0  0  # atno 10718 bound_to 10713
  154.7963  135.3225  154.7659 H   0  0  0  0  0  0  0  0  0  0  0  0  # atno 10763 bound_to 10752
  153.8336  135.6877  153.4815 H   0  0  0  0  0  0  0  0  0  0  0  0  # atno 10764 bound_to 10752
  153.1656  135.4643  154.9774 H   0  0  0  0  0  0  0  0  0  0  0  0  # atno 10765 bound_to 10752
  139.8925  134.8406  156.2825 H   0  0  0  0  0  0  0  0  0  0  0  0  # atno 11005 bound_to 11000
  145.7032  141.0129  143.1493 LP  0  0  0  0  0  0  0  0  0  0  0  0  # atno 17320 bound_to 7965
  144.7033  139.8669  143.7438 LP  0  0  0  0  0  0  0  0  0  0  0  0  # atno 17321 bound_to 7965
  140.7532  143.6170  150.8550 LP  0  0  0  0  0  0  0  0  0  0  0  0  # atno 17342 bound_to 10162
  139.9817  143.5944  152.2940 LP  0  0  0  0  0  0  0  0  0  0  0  0  # atno 17343 bound_to 10162
  156.9493  130.5413  149.5282 LP  0  0  0  0  0  0  0  0  0  0  0  0  # atno 17370 bound_to 10713
  156.0463  130.5539  150.8887 LP  0  0  0  0  0  0  0  0  0  0  0  0  # atno 17371 bound_to 10713
  141.0029  133.7141  156.0989 LP  0  0  0  0  0  0  0  0  0  0  0  0  # atno 17394 bound_to 11000
  140.7473  134.4084  157.5546 LP  0  0  0  0  0  0  0  0  0  0  0  0  # atno 17395 bound_to 11000

$$$$
