#       Name:                AV-unprocessed.smi:2892
#       Creating user name   scv26
#       Creation time:       Fri Mar 27 15:59:24 2020


#       File generated by GOLD software.
#

@<TRIPOS>MOLECULE
AV-unprocessed.smi:2892
    49    49     1
SMALL
NO_CHARGES


@<TRIPOS>ATOM
      1 ****        -1.7908  -2.3268  -0.3551 C.3            1 S1                 0.0000
      2 ****        -1.8565  -0.8211  -0.0602 C.3            1 S1                 0.0000
      3 ****        -2.5107   0.0268  -1.1835 C.3            1 S1                 0.0000
      4 ****        -4.0069  -0.3363  -1.3282 C.3            1 S1                 0.0000
      5 ****        -2.2989   1.5542  -0.9455 C.3            1 S1                 0.0000
      6 ****        -0.8665   1.8446  -0.9096 N.am           1 S1                 0.0000
      7 ****        -0.2294   2.5922   0.0061 C.2            1 S1                 0.0000
      8 ****        -0.7991   3.1704   0.9313 O.2            1 S1                 0.0000
      9 ****         1.2908   2.6996  -0.1419 C.3            1 S1                 0.0000
     10 ****         1.9200   1.3301  -0.1584 C.2            1 S1                 0.0000
     11 ****         2.3752   0.5875  -1.2854 C.2            1 S1                 0.0000
     12 ****         2.8195  -0.5867  -0.7495 C.2            1 S1                 0.0000
     13 ****         2.6366  -0.5128   0.6151 N.pl3          1 S1                 0.0000
     14 ****         2.9346  -1.5229   1.6193 C.3            1 S1                 0.0000
     15 ****         1.6446  -2.0548   2.2639 C.3            1 S1                 0.0000
     16 ****         3.9266  -0.9944   2.6685 C.3            1 S1                 0.0000
     17 ****         2.0888   0.6682   0.9775 N.2            1 S1                 0.0000
     18 ****        -2.9101   2.3990  -2.0768 C.2            1 S1                 0.0000
     19 ****        -3.8228   3.1940  -1.7632 O.co2          1 S1                 0.0000
     20 ****        -2.4587   2.2366  -3.2332 O.co2          1 S1                -1.0000
     21 ****        -1.2369  -2.8458   0.4269 H              1 S1                 0.0000
     22 ****        -1.2860  -2.5213  -1.3015 H              1 S1                 0.0000
     23 ****        -2.7808  -2.7788  -0.3988 H              1 S1                 0.0000
     24 ****        -2.3820  -0.6551   0.8810 H              1 S1                 0.0000
     25 ****        -0.8315  -0.4941   0.1135 H              1 S1                 0.0000
     26 ****        -2.0178  -0.2383  -2.1205 H              1 S1                 0.0000
     27 ****        -4.5605  -0.0905  -0.4216 H              1 S1                 0.0000
     28 ****        -4.1496  -1.3974  -1.5269 H              1 S1                 0.0000
     29 ****        -4.4808   0.1895  -2.1567 H              1 S1                 0.0000
     30 ****        -2.7728   1.8325  -0.0021 H              1 S1                 0.0000
     31 ****        -0.3128   1.4313  -1.6456 H              1 S1                 0.0000
     32 ****         1.5168   3.2357  -1.0642 H              1 S1                 0.0000
     33 ****         1.6971   3.2982   0.6746 H              1 S1                 0.0000
     34 ****         2.3632   0.8695  -2.3277 H              1 S1                 0.0000
     35 ****         3.2425  -1.4608  -1.2225 H              1 S1                 0.0000
     36 ****         3.4141  -2.3557   1.1027 H              1 S1                 0.0000
     37 ****         1.8609  -2.8576   2.9690 H              1 S1                 0.0000
     38 ****         0.9665  -2.4530   1.5088 H              1 S1                 0.0000
     39 ****         1.1145  -1.2712   2.8065 H              1 S1                 0.0000
     40 ****         4.2077  -1.7803   3.3700 H              1 S1                 0.0000
     41 ****         3.5016  -0.1733   3.2468 H              1 S1                 0.0000
     42 ****         4.8403  -0.6327   2.1960 H              1 S1                 0.0000
     43 ****        -1.7914   3.0971   1.0313 LP             1 S1                 0.0000
     44 ****        -0.2697   3.7136   1.5830 LP             1 S1                 0.0000
     45 ****         1.8605   0.9758   1.9013 LP             1 S1                 0.0000
     46 ****        -4.2523   3.7637  -2.4639 LP             1 S1                 0.0000
     47 ****        -4.1232   3.2602  -0.8117 LP             1 S1                 0.0000
     48 ****        -2.8319   2.7667  -3.9946 LP             1 S1                 0.0000
     49 ****        -1.7250   1.5768  -3.3954 LP             1 S1                 0.0000
@<TRIPOS>BOND
    1    1    2 1     
    2    1   21 1     
    3    1   22 1     
    4    1   23 1     
    5    2    3 1     
    6    2   24 1     
    7    2   25 1     
    8    3    4 1     
    9    3    5 1     
   10    3   26 1     
   11    4   27 1     
   12    4   28 1     
   13    4   29 1     
   14    5    6 1     
   15    5   18 1     
   16    5   30 1     
   17    6    7 am    
   18    6   31 1     
   19    7    8 2     
   20    7    9 1     
   21    9   10 1     
   22    9   32 1     
   23    9   33 1     
   24   10   17 2     
   25   10   11 1     
   26   11   12 2     
   27   11   34 1     
   28   12   13 1     
   29   12   35 1     
   30   13   14 1     
   31   13   17 1     
   32   14   15 1     
   33   14   16 1     
   34   14   36 1     
   35   15   37 1     
   36   15   38 1     
   37   15   39 1     
   38   16   40 1     
   39   16   41 1     
   40   16   42 1     
   41   18   19 ar    
   42   18   20 ar    
   43    8   43 1     
   44    8   44 1     
   45   17   45 1     
   46   19   46 1     
   47   19   47 1     
   48   20   48 1     
   49   20   49 1     
@<TRIPOS>SUBSTRUCTURE
      1 S1             1
@<TRIPOS>SET
LONE_PAIRS      STATIC     ATOMS    <user>   **** ""
7 43 44 45 46 47 48 49
DONOR_HYDROGENS      STATIC     ATOMS    <user>   **** ""
1 31
ATOM$BLUE        STATIC     ATOMS    COLORGROUP SYSTEM
7 43 44 45 46 47 48 49
ATOM$RED        STATIC     ATOMS    COLORGROUP SYSTEM
1 31
