AV-unprocessed.smi:2797|AV-procd|sdf|10783|dock1
  -GOLD-   2272015213D 1   1.00000     0.00000
 Structure written by MMmdl.
 37 38  0  0  0  0  0  0  0  0  1 V2000
  143.9615  135.1381  153.9767 C   0  0  0  0  0  0  0  0  0  0  0  0
  145.1209  134.8443  153.2061 O   0  0  0  0  0  0  0  0  0  0  0  0
  145.1758  135.3745  151.8769 C   0  0  0  0  0  0  0  0  0  0  0  0
  145.3500  136.8991  151.8819 C   0  0  0  0  0  0  0  0  0  0  0  0
  146.7017  137.2725  152.2866 N   0  0  0  0  0  0  0  0  0  0  0  0
  147.0285  138.3324  153.0391 C   0  0  0  0  0  0  0  0  0  0  0  0
  146.2111  139.1565  153.4476 O   0  0  0  0  0  0  0  0  0  0  0  0
  148.3531  138.3743  153.2628 N   0  0  0  0  0  0  0  0  0  0  0  0
  149.1025  139.3229  154.0140 C   0  0  0  0  0  0  0  0  0  0  0  0
  148.6821  140.6580  154.2265 C   0  0  0  0  0  0  0  0  0  0  0  0
  149.4926  141.5072  155.0037 C   0  0  0  0  0  0  0  0  0  0  0  0
  150.6522  141.1139  155.5687 N   0  0  0  0  0  0  0  0  0  0  0  0
  151.0491  139.8363  155.3809 C   0  0  0  0  0  0  0  0  0  0  0  0
  152.3555  139.4502  156.0488 C   0  0  0  0  0  0  0  0  0  0  0  0
  150.3103  138.9011  154.6185 C   0  0  0  0  0  0  0  0  0  0  0  0
  150.8768  137.2754  154.4258 Cl  0  0  0  0  0  0  0  0  0  0  0  0
  146.2175  134.5342  151.1130 C   0  0  0  0  0  0  0  0  0  0  0  0
  145.0965  133.5864  150.6828 C   0  0  0  0  0  0  0  0  0  0  0  0
  144.1197  134.7327  150.9497 C   0  0  0  0  0  0  0  0  0  0  0  0
  144.0729  134.6885  154.9631 H   0  0  0  0  0  0  0  0  0  0  0  0
  143.0554  134.7256  153.5361 H   0  0  0  0  0  0  0  0  0  0  0  0
  143.8185  136.2066  154.1264 H   0  0  0  0  0  0  0  0  0  0  0  0
  145.2016  137.2897  150.8750 H   0  0  0  0  0  0  0  0  0  0  0  0
  144.5928  137.3926  152.4911 H   0  0  0  0  0  0  0  0  0  0  0  0
  147.4446  136.6562  151.9915 H   0  0  0  0  0  0  0  0  0  0  0  0
  148.9035  137.6739  152.7880 H   0  0  0  0  0  0  0  0  0  0  0  0
  147.7570  141.0419  153.8253 H   0  0  0  0  0  0  0  0  0  0  0  0
  149.1967  142.5304  155.1822 H   0  0  0  0  0  0  0  0  0  0  0  0
  153.0745  139.1054  155.3053 H   0  0  0  0  0  0  0  0  0  0  0  0
  152.1899  138.6473  156.7675 H   0  0  0  0  0  0  0  0  0  0  0  0
  152.7994  140.2931  156.5805 H   0  0  0  0  0  0  0  0  0  0  0  0
  146.6558  135.0692  150.2688 H   0  0  0  0  0  0  0  0  0  0  0  0
  146.9882  134.0776  151.7351 H   0  0  0  0  0  0  0  0  0  0  0  0
  145.1461  133.2589  149.6441 H   0  0  0  0  0  0  0  0  0  0  0  0
  144.9633  132.7484  151.3689 H   0  0  0  0  0  0  0  0  0  0  0  0
  143.1830  134.4241  151.4110 H   0  0  0  0  0  0  0  0  0  0  0  0
  143.9323  135.3292  150.0554 H   0  0  0  0  0  0  0  0  0  0  0  0
  1  2  1  0  0  0  0
  1 20  1  0  0  0  0
  1 21  1  0  0  0  0
  1 22  1  0  0  0  0
  2  3  1  0  0  0  0
  3 19  1  0  0  0  0
  3  4  1  0  0  0  0
  3 17  1  0  0  0  0
  4  5  1  0  0  0  0
  4 23  1  0  0  0  0
  4 24  1  0  0  0  0
  5  6  1  0  0  0  0
  5 25  1  0  0  0  0
  6  7  2  0  0  0  0
  6  8  1  0  0  0  0
  8  9  1  0  0  0  0
  8 26  1  0  0  0  0
  9 15  1  0  0  0  0
  9 10  2  0  0  0  0
 10 11  1  0  0  0  0
 10 27  1  0  0  0  0
 11 12  2  0  0  0  0
 11 28  1  0  0  0  0
 12 13  1  0  0  0  0
 13 14  1  0  0  0  0
 13 15  2  0  0  0  0
 14 29  1  0  0  0  0
 14 30  1  0  0  0  0
 14 31  1  0  0  0  0
 15 16  1  0  0  0  0
 17 18  1  0  0  0  0
 17 32  1  0  0  0  0
 17 33  1  0  0  0  0
 18 19  1  0  0  0  0
 18 34  1  0  0  0  0
 18 35  1  0  0  0  0
 19 36  1  0  0  0  0
 19 37  1  0  0  0  0
M  END
> <s_m_source_file>
AV-unprocessed.smi

> <i_m_source_file_index>
2797

> <i_lp_mmshare_version>
43012

> <i_f3d_flags>
0

> <s_epik_input>
W0NIMl0xW0NIMl1bQ0gyXUMxKE9bQ0gzXSlbQ0gyXVtOSF1DKD1PKVtOSF1jMltjSF1bY0hdbmMoW0NIM10pYzJDbA==

> <s_epik_cmdline>
J2VwaWtfcHl0aG9uJywgJy1waCcsICc3LjAnLCAnLXRuJywgJzgnLCAnLW1hJywgJzIwMCcsICctbWV0YWxfYmluZGluZycsICctaW1hZScsICc8aW5maWxlLm1hZT4nLCAnLW9tYWUnLCAnPG91dGZpbGUubWFlPic=

> <r_epik_Ionization_Penalty>
0.0099818

> <r_epik_Ionization_Penalty_Charging>
0

> <r_epik_Ionization_Penalty_Neutral>
0.0099818

> <r_epik_State_Penalty>
0.00758124

> <r_epik_Charging_Adjusted_Penalty>
0.00758124

> <i_epik_Tot_Q>
0

> <i_epik_Tot_abs_Q>
0

> <r_epik_Metal_State_Penalty>
0.00745574

> <b_epik_Metal_Only>
0

> <s_lp_Force_Field>
OPLS_2005

> <r_lp_Energy>
22.2651

> <b_lp_Chiralities_Consistent>
1

> <s_lp_Variant>
AV-unprocessed.smi:2797-1

> <Gold.Version>
5.8.1

> <Gold.Id.Protein>
6NUR|6NUR_protein|mol2

> <Gold.PLP.Fitness>
38.7158

> <Gold.PLP.PLP>
-30.7010

> <Gold.PLP.part.hbond>
-3.8376

> <Gold.PLP.part.metal>
0.0000

> <Gold.PLP.part.buried>
1.8282

> <Gold.PLP.part.nonpolar>
-30.4199

> <Gold.PLP.part.repulsive>
1.1923

> <Gold.PLP.ligand.clash>
0.0000

> <Gold.PLP.ligand.torsion>
0.6597

> <Gold.PLP.Chemscore.Hbond>
2.0000

> <Gold.PLP.Chemscore.CHOScore>
1.0000

> <Gold.PLP.Chemscore.Metal>
0.0000

> <Gold.Chemscore.Hbonds>
donor molecule, donor type, donor heavy atom, donor atom, acceptor molecule, acceptor atom, score
      L1  H     5    25       P1  7948  1.00
      L1  H     8    26       P1  7948  0.99
      L1  C    11    28       P1  8028  1.00

> <Gold.PLP.Chemscore.Internal.Correction>
0.3342

> <Gold.Rescore>
     Score         DG    S(hbond)    S(metal)    S(lipo)     H(rot)  DE(clash)    DE(int)     intcor
     15.74     -17.64       1.94        0.00      79.52       1.41       0.23       1.67       ----

> <Gold.Chemscore.Fitness>
15.7412

> <Gold.Chemscore.DG>
-17.6448

> <Gold.Chemscore.ZeroCoef>
-5.4800

> <Gold.Chemscore.Hbond>
1.9365

> <Gold.Chemscore.Metal>
0.0000

> <Gold.Chemscore.Lipo>
79.5243

> <Gold.Chemscore.Internal_Hbond>
0.0000

> <Gold.Chemscore.DEClash>
0.2288

> <Gold.Chemscore.DEInternal>
1.6749

> <Gold.Chemscore.Rot>
1.4092

> <Gold.Chemscore.Internal.Correction>
   9.000000E+99

> <Gold.Chemscore.Hbonds>
donor molecule, donor type, donor heavy atom, donor atom, acceptor molecule, acceptor atom, score
      L1  H     5    25       P1  7948  0.93
      L1  H     8    26       P1  7948  0.94

> <Gold.Chemscore.Hbond.Weighted>
-6.4680

> <Gold.Chemscore.Metal.Weighted>
-0.0000

> <Gold.Chemscore.Lipo.Weighted>
-9.3043

> <Gold.Chemscore.Internal_Hbond.Weighted>
0.0000

> <Gold.Chemscore.DEClash.Weighted>
0.2288

> <Gold.Chemscore.DEInternal.Weighted>
1.6749

> <Gold.Chemscore.Rot.Weighted>
3.6075

> <Gold.Chemscore.Internal.Correction.Weighted>
   9.000000E+99

> <Gold.Protein.RotatedTorsions>
[ 6907 6896 6895 6894 ] final   74.32 input  -60.11 | X-H torsion
[ 7974 7965 7964 7962 ] final  115.27 input  175.53 | X-H torsion
[ 8008 7997 7996 7995 ] final  -97.80 input   59.86 | X-H torsion
[ 10167 10162 10161 10158 ] final   91.02 input  -65.29 | X-H torsion
[ 10718 10713 10712 10709 ] final   93.73 input   66.30 | X-H torsion
[ 10763 10752 10751 10750 ] final   29.99 input  -60.55 | X-H torsion
[ 11005 11000 10999 10996 ] final  157.29 input  -57.11 | X-H torsion

> <Gold.Protein.ActiveResidues>
 VAL166  LYS551  ARG553  GLY616  TRP617  ASP618  TYR619  PRO620  LYS621  CYS622 
 ASP623  PHE694  ASN695  SER759  ASP760  ASP761  ALA762  ILE779  LEU786  VAL792 
 PHE793  MET794  SER795  GLU796  ALA797  LYS798  CYS799  TRP800  GLU811  SER814 

> <Gold.Protein.RotatedAtoms>
  152.4969  134.4290  159.9505 H   0  0  0  0  0  0  0  0  0  0  0  0  # atno 6907 bound_to 6896
  151.4267  133.3676  159.2771 H   0  0  0  0  0  0  0  0  0  0  0  0  # atno 6908 bound_to 6896
  150.9184  134.8624  159.7532 H   0  0  0  0  0  0  0  0  0  0  0  0  # atno 6909 bound_to 6896
  145.1941  139.2985  143.4353 H   0  0  0  0  0  0  0  0  0  0  0  0  # atno 7974 bound_to 7965
  154.7926  140.0460  157.1213 H   0  0  0  0  0  0  0  0  0  0  0  0  # atno 8008 bound_to 7997
  154.9572  140.3073  155.5027 H   0  0  0  0  0  0  0  0  0  0  0  0  # atno 8009 bound_to 7997
  156.2952  140.2277  156.4655 H   0  0  0  0  0  0  0  0  0  0  0  0  # atno 8010 bound_to 7997
  139.8415  144.6638  150.9277 H   0  0  0  0  0  0  0  0  0  0  0  0  # atno 10167 bound_to 10162
  157.6953  131.0488  150.4078 H   0  0  0  0  0  0  0  0  0  0  0  0  # atno 10718 bound_to 10713
  153.0397  135.6475  154.0976 H   0  0  0  0  0  0  0  0  0  0  0  0  # atno 10763 bound_to 10752
  154.0685  135.2882  155.3314 H   0  0  0  0  0  0  0  0  0  0  0  0  # atno 10764 bound_to 10752
  154.6610  135.5391  153.8083 H   0  0  0  0  0  0  0  0  0  0  0  0  # atno 10765 bound_to 10752
  140.1755  134.8513  157.2741 H   0  0  0  0  0  0  0  0  0  0  0  0  # atno 11005 bound_to 11000
  146.3430  140.2163  142.8591 LP  0  0  0  0  0  0  0  0  0  0  0  0  # atno 17320 bound_to 7965
  145.0012  140.8633  143.5280 LP  0  0  0  0  0  0  0  0  0  0  0  0  # atno 17321 bound_to 7965
  140.7797  143.3908  151.1313 LP  0  0  0  0  0  0  0  0  0  0  0  0  # atno 17342 bound_to 10162
  139.7554  143.8716  152.3087 LP  0  0  0  0  0  0  0  0  0  0  0  0  # atno 17343 bound_to 10162
  156.4465  130.4002  149.6663 LP  0  0  0  0  0  0  0  0  0  0  0  0  # atno 17370 bound_to 10713
  156.3828  130.7588  151.2582 LP  0  0  0  0  0  0  0  0  0  0  0  0  # atno 17371 bound_to 10713
  140.2327  134.3889  155.7514 LP  0  0  0  0  0  0  0  0  0  0  0  0  # atno 17394 bound_to 11000
  141.2220  133.7223  156.8666 LP  0  0  0  0  0  0  0  0  0  0  0  0  # atno 17395 bound_to 11000

$$$$
