#       Name:                AV-unprocessed.smi:2446
#       Creating user name   scv26
#       Creation time:       Fri Mar 27 13:27:41 2020


#       File generated by GOLD software.
#

@<TRIPOS>MOLECULE
AV-unprocessed.smi:2446
    42    43     1
SMALL
NO_CHARGES


@<TRIPOS>ATOM
      1 ****        -2.6833  -1.8031   0.6192 C.3            1 S1                 0.0000
      2 ****        -3.4592  -0.4973   0.6362 C.ar           1 S1                 0.0000
      3 ****        -4.8705  -0.5170   0.6313 C.ar           1 S1                 0.0000
      4 ****        -5.6322   0.5960   0.6494 N.ar           1 S1                 0.0000
      5 ****        -5.0027   1.7884   0.6788 C.ar           1 S1                 0.0000
      6 ****        -3.6008   1.9252   0.6852 C.ar           1 S1                 0.0000
      7 ****        -2.8017   0.7569   0.6503 C.ar           1 S1                 0.0000
      8 ****        -1.3788   0.7774   0.6686 N.am           1 S1                 0.0000
      9 ****        -0.5344   1.7642   0.3093 C.2            1 S1                 0.0000
     10 ****        -0.8785   2.8748  -0.0887 O.2            1 S1                 0.0000
     11 ****         0.7670   1.4350   0.4035 N.am           1 S1                 0.0000
     12 ****         1.9454   2.2539   0.0977 C.3            1 S1                 0.0000
     13 ****         3.1602   1.3478  -0.1787 C.3            1 S1                 0.0000
     14 ****         3.6725   0.6571   1.0964 C.3            1 S1                 0.0000
     15 ****         3.9843   1.6788   2.2007 C.3            1 S1                 0.0000
     16 ****         2.7614   2.5640   2.5200 C.3            1 S1                 0.0000
     17 ****         3.0607   3.5809   3.6406 C.3            1 S1                 0.0000
     18 ****         4.0276   4.4221   3.2729 F              1 S1                 0.0000
     19 ****         1.9636   4.2833   3.9234 F              1 S1                 0.0000
     20 ****         3.4424   2.9426   4.7469 F              1 S1                 0.0000
     21 ****         2.2565   3.2553   1.2333 C.3            1 S1                 0.0000
     22 ****        -3.3541  -2.6623   0.6460 H              1 S1                 0.0000
     23 ****        -2.0219  -1.8660   1.4838 H              1 S1                 0.0000
     24 ****        -2.0790  -1.8746  -0.2854 H              1 S1                 0.0000
     25 ****        -5.4077  -1.4539   0.6144 H              1 S1                 0.0000
     26 ****        -5.6360   2.6627   0.7051 H              1 S1                 0.0000
     27 ****        -3.1743   2.9151   0.7289 H              1 S1                 0.0000
     28 ****        -0.9425  -0.0995   0.9121 H              1 S1                 0.0000
     29 ****         0.9640   0.5013   0.7336 H              1 S1                 0.0000
     30 ****         1.7474   2.8133  -0.8182 H              1 S1                 0.0000
     31 ****         2.9112   0.6011  -0.9337 H              1 S1                 0.0000
     32 ****         3.9648   1.9496  -0.6032 H              1 S1                 0.0000
     33 ****         2.9293  -0.0553   1.4562 H              1 S1                 0.0000
     34 ****         4.5667   0.0767   0.8678 H              1 S1                 0.0000
     35 ****         4.3103   1.1514   3.0975 H              1 S1                 0.0000
     36 ****         4.8225   2.3037   1.8902 H              1 S1                 0.0000
     37 ****         1.9664   1.9111   2.8833 H              1 S1                 0.0000
     38 ****         3.0146   3.9572   0.8835 H              1 S1                 0.0000
     39 ****         1.3761   3.8583   1.4549 H              1 S1                 0.0000
     40 ****        -6.6305   0.5390   0.6413 LP             1 S1                 0.0000
     41 ****        -1.8499   3.0998  -0.1648 LP             1 S1                 0.0000
     42 ****        -0.1871   3.5536  -0.3363 LP             1 S1                 0.0000
@<TRIPOS>BOND
    1    1    2 1     
    2    1   22 1     
    3    1   23 1     
    4    1   24 1     
    5    2    7 ar    
    6    2    3 ar    
    7    3    4 ar    
    8    3   25 1     
    9    4    5 ar    
   10    5    6 ar    
   11    5   26 1     
   12    6    7 ar    
   13    6   27 1     
   14    7    8 1     
   15    8    9 am    
   16    8   28 1     
   17    9   10 2     
   18    9   11 am    
   19   11   12 1     
   20   11   29 1     
   21   12   21 1     
   22   12   13 1     
   23   12   30 1     
   24   13   14 1     
   25   13   31 1     
   26   13   32 1     
   27   14   15 1     
   28   14   33 1     
   29   14   34 1     
   30   15   16 1     
   31   15   35 1     
   32   15   36 1     
   33   16   17 1     
   34   16   21 1     
   35   16   37 1     
   36   17   18 1     
   37   17   19 1     
   38   17   20 1     
   39   21   38 1     
   40   21   39 1     
   41    4   40 1     
   42   10   41 1     
   43   10   42 1     
@<TRIPOS>SUBSTRUCTURE
      1 S1             1
@<TRIPOS>SET
LONE_PAIRS      STATIC     ATOMS    <user>   **** ""
3 40 41 42
DONOR_HYDROGENS      STATIC     ATOMS    <user>   **** ""
2 28 29
ATOM$BLUE        STATIC     ATOMS    COLORGROUP SYSTEM
3 40 41 42
ATOM$RED        STATIC     ATOMS    COLORGROUP SYSTEM
2 28 29
