AV-unprocessed.smi:740|AV-procd|sdf|3547|dock4
  -GOLD-   22720 0543D 1   1.00000     0.00000
 Structure written by MMmdl.
 44 46  0  0  0  0  0  0  0  0  1 V2000
  143.6288  145.9262  154.3152 C   0  0  0  0  0  0  0  0  0  0  0  0
  144.4894  144.6751  154.2937 C   0  0  0  0  0  0  0  0  0  0  0  0
  144.4498  143.7949  155.3984 C   0  0  0  0  0  0  0  0  0  0  0  0
  145.2320  142.6194  155.4166 C   0  0  0  0  0  0  0  0  0  0  0  0
  145.3445  141.6300  156.3784 N   0  0  0  0  0  0  0  0  0  0  0  0
  146.2219  140.8061  155.8131 C   0  0  0  0  0  0  0  0  0  0  0  0
  146.6936  141.1460  154.5983 N   0  0  0  0  0  0  0  0  0  0  0  0
  147.6491  140.4030  153.7960 C   0  0  0  0  0  0  0  0  0  0  0  0
  149.0016  140.2215  154.5115 C   0  0  1  0  0  0  0  0  0  0  0  0
  149.9604  139.7899  153.5650 O   0  0  0  0  0  0  0  0  0  0  0  0
  149.4911  141.5377  155.1503 C   0  0  0  0  0  0  0  0  0  0  0  0
  150.3456  141.2946  156.3180 N   0  0  0  0  0  0  0  0  0  0  0  0
  151.4172  140.4898  156.3093 C   0  0  0  0  0  0  0  0  0  0  0  0
  151.8293  139.8359  155.3515 O   0  0  0  0  0  0  0  0  0  0  0  0
  152.1030  140.4785  157.6682 C   0  0  0  0  0  0  0  0  0  0  0  0
  151.2462  141.4414  158.5040 C   0  0  1  0  0  0  0  0  0  0  0  0
  152.0303  142.6381  159.0676 C   0  0  0  0  0  0  0  0  0  0  0  0
  150.1736  141.8830  157.5100 C   0  0  0  0  0  0  0  0  0  0  0  0
  149.2836  142.6814  157.8033 O   0  0  0  0  0  0  0  0  0  0  0  0
  146.0637  142.3473  154.2911 C   0  0  0  0  0  0  0  0  0  0  0  0
  146.1123  143.2158  153.1863 C   0  0  0  0  0  0  0  0  0  0  0  0
  145.3225  144.3847  153.1835 C   0  0  0  0  0  0  0  0  0  0  0  0
  145.3788  145.3138  151.9839 C   0  0  0  0  0  0  0  0  0  0  0  0
  143.0798  146.0160  155.2530 H   0  0  0  0  0  0  0  0  0  0  0  0
  142.9024  145.9024  153.5026 H   0  0  0  0  0  0  0  0  0  0  0  0
  144.2458  146.8179  154.2031 H   0  0  0  0  0  0  0  0  0  0  0  0
  143.8145  144.0150  156.2437 H   0  0  0  0  0  0  0  0  0  0  0  0
  146.5403  139.9009  156.3096 H   0  0  0  0  0  0  0  0  0  0  0  0
  147.2160  139.4360  153.5370 H   0  0  0  0  0  0  0  0  0  0  0  0
  147.7908  140.9408  152.8576 H   0  0  0  0  0  0  0  0  0  0  0  0
  148.8929  139.4496  155.2748 H   0  0  0  0  0  0  0  0  0  0  0  0
  150.8223  139.9974  153.8924 H   0  0  0  0  0  0  0  0  0  0  0  0
  149.9941  142.1634  154.4106 H   0  0  0  0  0  0  0  0  0  0  0  0
  148.6311  142.1239  155.4796 H   0  0  0  0  0  0  0  0  0  0  0  0
  152.1051  139.4711  158.0855 H   0  0  0  0  0  0  0  0  0  0  0  0
  153.1355  140.8153  157.5690 H   0  0  0  0  0  0  0  0  0  0  0  0
  150.7638  140.9000  159.3187 H   0  0  0  0  0  0  0  0  0  0  0  0
  151.3822  143.2999  159.6431 H   0  0  0  0  0  0  0  0  0  0  0  0
  152.4885  143.2280  158.2726 H   0  0  0  0  0  0  0  0  0  0  0  0
  152.8268  142.3014  159.7314 H   0  0  0  0  0  0  0  0  0  0  0  0
  146.7496  142.9818  152.3465 H   0  0  0  0  0  0  0  0  0  0  0  0
  146.0511  144.9306  151.2157 H   0  0  0  0  0  0  0  0  0  0  0  0
  145.7371  146.2995  152.2810 H   0  0  0  0  0  0  0  0  0  0  0  0
  144.3900  145.4234  151.5381 H   0  0  0  0  0  0  0  0  0  0  0  0
  1  2  1  0  0  0  0
  1 24  1  0  0  0  0
  1 25  1  0  0  0  0
  1 26  1  0  0  0  0
  2 22  1  0  0  0  0
  2  3  2  0  0  0  0
  3  4  1  0  0  0  0
  3 27  1  0  0  0  0
  4 20  2  0  0  0  0
  4  5  1  0  0  0  0
  5  6  2  0  0  0  0
  6  7  1  0  0  0  0
  6 28  1  0  0  0  0
  7  8  1  0  0  0  0
  7 20  1  0  0  0  0
  8  9  1  0  0  0  0
  8 29  1  0  0  0  0
  8 30  1  0  0  0  0
  9 10  1  0  0  0  0
  9 11  1  0  0  0  0
  9 31  1  0  0  0  0
 10 32  1  0  0  0  0
 11 12  1  0  0  0  0
 11 33  1  0  0  0  0
 11 34  1  0  0  0  0
 12 18  1  0  0  0  0
 12 13  1  0  0  0  0
 13 14  2  0  0  0  0
 13 15  1  0  0  0  0
 15 16  1  0  0  0  0
 15 35  1  0  0  0  0
 15 36  1  0  0  0  0
 16 17  1  0  0  0  0
 16 18  1  0  0  0  0
 16 37  1  0  0  0  0
 17 38  1  0  0  0  0
 17 39  1  0  0  0  0
 17 40  1  0  0  0  0
 18 19  2  0  0  0  0
 20 21  1  0  0  0  0
 21 22  2  0  0  0  0
 21 41  1  0  0  0  0
 22 23  1  0  0  0  0
 23 42  1  0  0  0  0
 23 43  1  0  0  0  0
 23 44  1  0  0  0  0
M  END
> <s_m_source_file>
AV-unprocessed.smi

> <i_m_source_file_index>
740

> <i_lp_mmshare_version>
43012

> <i_f3d_flags>
0

> <s_epik_input>
W0NIM11jKFtjSF0xKWMoW0NIM10pW2NIXWMoYzEyKW4oW2NIXW4yKVtDSDJdW0NASF0oW09IXSlbQ0gyXU4zQyg9TylbQ0gyXVtDQEBIXShbQ0gzXSlDMz1P

> <s_epik_cmdline>
J2VwaWtfcHl0aG9uJywgJy1waCcsICc3LjAnLCAnLXRuJywgJzgnLCAnLW1hJywgJzIwMCcsICctbWV0YWxfYmluZGluZycsICctaW1hZScsICc8aW5maWxlLm1hZT4nLCAnLW9tYWUnLCAnPG91dGZpbGUubWFlPic=

> <r_lp_tautomer_probability>
1

> <r_epik_Ionization_Penalty>
0.104021

> <r_epik_Ionization_Penalty_Charging>
0

> <r_epik_Ionization_Penalty_Neutral>
0.104021

> <r_epik_State_Penalty>
0.0939354

> <r_epik_Charging_Adjusted_Penalty>
0.0939354

> <i_epik_Tot_Q>
0

> <i_epik_Tot_abs_Q>
0

> <r_epik_Metal_State_Penalty>
0.000101783

> <b_epik_Metal_Only>
0

> <s_lp_Force_Field>
OPLS_2005

> <r_lp_Energy>
16.7866

> <b_lp_Chiralities_Consistent>
1

> <s_lp_Variant>
AV-unprocessed.smi:740-2

> <Gold.Version>
5.8.1

> <Gold.Id.Protein>
6NUR|6NUR_protein|mol2

> <Gold.PLP.Fitness>
47.2663

> <Gold.PLP.PLP>
-45.4725

> <Gold.PLP.part.hbond>
-2.4730

> <Gold.PLP.part.metal>
0.0000

> <Gold.PLP.part.buried>
-5.7199

> <Gold.PLP.part.nonpolar>
-37.2270

> <Gold.PLP.part.repulsive>
1.1115

> <Gold.PLP.ligand.clash>
0.0000

> <Gold.PLP.ligand.torsion>
0.5072

> <Gold.PLP.Chemscore.Hbond>
0.9280

> <Gold.PLP.Chemscore.CHOScore>
0.0000

> <Gold.PLP.Chemscore.Metal>
0.0000

> <Gold.Chemscore.Hbonds>
donor molecule, donor type, donor heavy atom, donor atom, acceptor molecule, acceptor atom, score
      P1  H  7989  7998       L1    14  0.74

> <Gold.PLP.Chemscore.Internal.Correction>
0.0242

> <Gold.Rescore>
     Score         DG    S(hbond)    S(metal)    S(lipo)     H(rot)  DE(clash)    DE(int)     intcor
     11.24     -13.46       0.83        0.00      95.11       2.31       0.29       1.93       ----

> <Gold.Chemscore.Fitness>
11.2379

> <Gold.Chemscore.DG>
-13.4568

> <Gold.Chemscore.ZeroCoef>
-5.4800

> <Gold.Chemscore.Hbond>
0.8308

> <Gold.Chemscore.Metal>
0.0000

> <Gold.Chemscore.Lipo>
95.1064

> <Gold.Chemscore.Internal_Hbond>
0.0000

> <Gold.Chemscore.DEClash>
0.2885

> <Gold.Chemscore.DEInternal>
1.9304

> <Gold.Chemscore.Rot>
2.3147

> <Gold.Chemscore.Internal.Correction>
   9.000000E+99

> <Gold.Chemscore.Hbonds>
donor molecule, donor type, donor heavy atom, donor atom, acceptor molecule, acceptor atom, score
      P1  H  7989  7998       L1    14  0.60

> <Gold.Chemscore.Hbond.Weighted>
-2.7749

> <Gold.Chemscore.Metal.Weighted>
-0.0000

> <Gold.Chemscore.Lipo.Weighted>
-11.1275

> <Gold.Chemscore.Internal_Hbond.Weighted>
0.0000

> <Gold.Chemscore.DEClash.Weighted>
0.2885

> <Gold.Chemscore.DEInternal.Weighted>
1.9304

> <Gold.Chemscore.Rot.Weighted>
5.9256

> <Gold.Chemscore.Internal.Correction.Weighted>
   9.000000E+99

> <Gold.Protein.RotatedTorsions>
[ 6907 6896 6895 6894 ] final  123.20 input  -60.11 | X-H torsion
[ 7974 7965 7964 7962 ] final -179.51 input  175.53 | X-H torsion
[ 8008 7997 7996 7995 ] final -143.52 input   59.86 | X-H torsion
[ 10167 10162 10161 10158 ] final -142.23 input  -65.29 | X-H torsion
[ 10718 10713 10712 10709 ] final  143.43 input   66.30 | X-H torsion
[ 10763 10752 10751 10750 ] final  -42.64 input  -60.55 | X-H torsion
[ 11005 11000 10999 10996 ] final   78.20 input  -57.11 | X-H torsion

> <Gold.Protein.ActiveResidues>
 VAL166  LYS551  ARG553  GLY616  TRP617  ASP618  TYR619  PRO620  LYS621  CYS622 
 ASP623  PHE694  ASN695  SER759  ASP760  ASP761  ALA762  ILE779  LEU786  VAL792 
 PHE793  MET794  SER795  GLU796  ALA797  LYS798  CYS799  TRP800  GLU811  SER814 

> <Gold.Protein.RotatedAtoms>
  152.4181  133.7072  159.6457 H   0  0  0  0  0  0  0  0  0  0  0  0  # atno 6907 bound_to 6896
  150.8058  133.8502  159.3212 H   0  0  0  0  0  0  0  0  0  0  0  0  # atno 6908 bound_to 6896
  151.6226  135.1032  160.0156 H   0  0  0  0  0  0  0  0  0  0  0  0  # atno 6909 bound_to 6896
  144.7137  140.0707  143.6429 H   0  0  0  0  0  0  0  0  0  0  0  0  # atno 7974 bound_to 7965
  155.5120  140.0584  157.2922 H   0  0  0  0  0  0  0  0  0  0  0  0  # atno 8008 bound_to 7997
  154.4548  140.1967  156.0359 H   0  0  0  0  0  0  0  0  0  0  0  0  # atno 8009 bound_to 7997
  156.0778  140.3251  155.7659 H   0  0  0  0  0  0  0  0  0  0  0  0  # atno 8010 bound_to 7997
  139.8108  143.7705  152.2663 H   0  0  0  0  0  0  0  0  0  0  0  0  # atno 10167 bound_to 10162
  157.3690  131.0976  151.0845 H   0  0  0  0  0  0  0  0  0  0  0  0  # atno 10718 bound_to 10713
  153.9823  135.6715  153.4750 H   0  0  0  0  0  0  0  0  0  0  0  0  # atno 10763 bound_to 10752
  153.0742  135.4957  154.8367 H   0  0  0  0  0  0  0  0  0  0  0  0  # atno 10764 bound_to 10752
  154.7157  135.3106  154.9089 H   0  0  0  0  0  0  0  0  0  0  0  0  # atno 10765 bound_to 10752
  139.9222  134.7744  156.1619 H   0  0  0  0  0  0  0  0  0  0  0  0  # atno 11005 bound_to 11000
  145.9786  139.2924  143.1056 LP  0  0  0  0  0  0  0  0  0  0  0  0  # atno 17320 bound_to 7965
  145.9036  140.9226  143.0490 LP  0  0  0  0  0  0  0  0  0  0  0  0  # atno 17321 bound_to 7965
  139.7854  144.7430  151.0030 LP  0  0  0  0  0  0  0  0  0  0  0  0  # atno 17342 bound_to 10162
  140.7818  143.4498  151.0429 LP  0  0  0  0  0  0  0  0  0  0  0  0  # atno 17343 bound_to 10162
  157.1957  130.6372  149.5720 LP  0  0  0  0  0  0  0  0  0  0  0  0  # atno 17370 bound_to 10713
  155.9752  130.4707  150.6441 LP  0  0  0  0  0  0  0  0  0  0  0  0  # atno 17371 bound_to 10713
  141.0753  133.6778  156.2223 LP  0  0  0  0  0  0  0  0  0  0  0  0  # atno 17394 bound_to 11000
  140.6439  134.5137  157.5572 LP  0  0  0  0  0  0  0  0  0  0  0  0  # atno 17395 bound_to 11000

$$$$
