AV-unprocessed.smi:3042|AV-procd|sdf|11599|dock4
  -GOLD-   2272016573D 1   1.00000     0.00000
 Structure written by MMmdl.
 33 34  0  0  0  0  0  0  0  0  2 V2000
  148.3758  138.6979  152.8173 N   0  3  0  0  0  0  0  0  0  0  0  0
  148.7767  138.7587  154.2349 C   0  0  0  0  0  0  0  0  0  0  0  0
  149.4334  140.1155  154.5986 C   0  0  2  0  0  0  0  0  0  0  0  0
  150.2791  139.9295  155.8579 C   0  0  0  0  0  0  0  0  0  0  0  0
  149.6941  139.5574  157.0887 C   0  0  0  0  0  0  0  0  0  0  0  0
  150.5234  139.3914  158.2140 C   0  0  0  0  0  0  0  0  0  0  0  0
  151.9073  139.6082  158.0653 C   0  0  0  0  0  0  0  0  0  0  0  0
  152.4792  139.9646  156.8951 N   0  0  0  0  0  0  0  0  0  0  0  0
  151.6775  140.1232  155.8209 C   0  0  0  0  0  0  0  0  0  0  0  0
  148.4803  141.2352  154.7483 N   0  0  0  0  0  0  0  0  0  0  0  0
  147.8416  141.5856  153.4738 C   0  0  0  0  0  0  0  0  0  0  0  0
  146.8472  142.7507  153.6124 C   0  0  0  0  0  0  0  0  0  0  0  0
  145.8592  142.4186  154.5791 O   0  0  0  0  0  0  0  0  0  0  0  0
  146.4241  142.1297  155.8511 C   0  0  0  0  0  0  0  0  0  0  0  0
  147.4214  140.9643  155.7250 C   0  0  0  0  0  0  0  0  0  0  0  0
  148.5440  137.7691  152.4580 H   0  0  0  0  0  0  0  0  0  0  0  0
  148.9168  139.3672  152.2883 H   0  0  0  0  0  0  0  0  0  0  0  0
  147.8701  138.5846  154.8125 H   0  0  0  0  0  0  0  0  0  0  0  0
  149.4552  137.9312  154.4449 H   0  0  0  0  0  0  0  0  0  0  0  0
  150.1176  140.3674  153.7864 H   0  0  0  0  0  0  0  0  0  0  0  0
  148.6283  139.4010  157.1696 H   0  0  0  0  0  0  0  0  0  0  0  0
  150.1088  139.1062  159.1698 H   0  0  0  0  0  0  0  0  0  0  0  0
  152.5724  139.4908  158.9079 H   0  0  0  0  0  0  0  0  0  0  0  0
  152.1690  140.4080  154.9022 H   0  0  0  0  0  0  0  0  0  0  0  0
  148.5887  141.8675  152.7323 H   0  0  0  0  0  0  0  0  0  0  0  0
  147.3197  140.7158  153.0718 H   0  0  0  0  0  0  0  0  0  0  0  0
  147.3621  143.6677  153.9036 H   0  0  0  0  0  0  0  0  0  0  0  0
  146.3586  142.9462  152.6578 H   0  0  0  0  0  0  0  0  0  0  0  0
  146.9167  143.0184  156.2494 H   0  0  0  0  0  0  0  0  0  0  0  0
  145.6243  141.8701  156.5446 H   0  0  0  0  0  0  0  0  0  0  0  0
  146.8843  140.0561  155.4474 H   0  0  0  0  0  0  0  0  0  0  0  0
  147.8450  140.7944  156.7132 H   0  0  0  0  0  0  0  0  0  0  0  0
  147.3938  138.9186  152.7339 H   0  0  0  0  0  0  0  0  0  0  0  0
  1  2  1  0  0  0  0
  1 16  1  0  0  0  0
  1 17  1  0  0  0  0
  1 33  1  0  0  0  0
  2  3  1  0  0  0  0
  2 18  1  0  0  0  0
  2 19  1  0  0  0  0
  3  4  1  0  0  0  0
  3 10  1  0  0  0  0
  3 20  1  0  0  0  0
  4  9  1  0  0  0  0
  4  5  2  0  0  0  0
  5  6  1  0  0  0  0
  5 21  1  0  0  0  0
  6  7  2  0  0  0  0
  6 22  1  0  0  0  0
  7  8  1  0  0  0  0
  7 23  1  0  0  0  0
  8  9  2  0  0  0  0
  9 24  1  0  0  0  0
 10 15  1  0  0  0  0
 10 11  1  0  0  0  0
 11 12  1  0  0  0  0
 11 25  1  0  0  0  0
 11 26  1  0  0  0  0
 12 13  1  0  0  0  0
 12 27  1  0  0  0  0
 12 28  1  0  0  0  0
 13 14  1  0  0  0  0
 14 15  1  0  0  0  0
 14 29  1  0  0  0  0
 14 30  1  0  0  0  0
 15 31  1  0  0  0  0
 15 32  1  0  0  0  0
M  CHG  1   1   1
M  END
> <s_m_source_file>
AV-unprocessed.smi

> <i_m_source_file_index>
3042

> <i_lp_mmshare_version>
43012

> <i_f3d_flags>
0

> <s_epik_input>
W0NIMl0xW0NIMl1PW0NIMl1bQ0gyXU4xW0NASF0oW0NIMl1bTkgyXSljMltjSF1bY0hdW2NIXW5bY0hdMg==

> <s_epik_cmdline>
J2VwaWtfcHl0aG9uJywgJy1waCcsICc3LjAnLCAnLXRuJywgJzgnLCAnLW1hJywgJzIwMCcsICctbWV0YWxfYmluZGluZycsICctaW1hZScsICc8aW5maWxlLm1hZT4nLCAnLW9tYWUnLCAnPG91dGZpbGUubWFlPic=

> <r_epik_Ionization_Penalty>
0.0112597

> <r_epik_Ionization_Penalty_Charging>
0.00794922

> <r_epik_Ionization_Penalty_Neutral>
0.00331052

> <r_epik_State_Penalty>
0.00596555

> <r_epik_Charging_Adjusted_Penalty>
0.0139148

> <i_epik_Tot_Q>
1

> <i_epik_Tot_abs_Q>
1

> <r_epik_Metal_State_Penalty>
0.00603286

> <b_epik_Metal_Only>
0

> <s_lp_Force_Field>
OPLS_2005

> <r_lp_Energy>
28.2789

> <b_lp_Chiralities_Consistent>
1

> <s_lp_Variant>
AV-unprocessed.smi:3042-1

> <Gold.Version>
5.8.1

> <Gold.Id.Protein>
6NUR|6NUR_protein|mol2

> <Gold.PLP.Fitness>
35.5468

> <Gold.PLP.PLP>
-23.9882

> <Gold.PLP.part.hbond>
-3.0000

> <Gold.PLP.part.metal>
0.0000

> <Gold.PLP.part.buried>
-4.0271

> <Gold.PLP.part.nonpolar>
-17.0330

> <Gold.PLP.part.repulsive>
0.3544

> <Gold.PLP.ligand.clash>
0.0000

> <Gold.PLP.ligand.torsion>
0.2587

> <Gold.PLP.Chemscore.Hbond>
4.0000

> <Gold.PLP.Chemscore.CHOScore>
0.0000

> <Gold.PLP.Chemscore.Metal>
0.0000

> <Gold.Chemscore.Hbonds>
donor molecule, donor type, donor heavy atom, donor atom, acceptor molecule, acceptor atom, score
      L1  H     1    16       P1  7948  2.00
      L1  H     1    17       P1  7957  0.86
      P1  H  7997  8009       L1     8  1.00

> <Gold.PLP.Chemscore.Internal.Correction>
0.0761

> <Gold.Rescore>
     Score         DG    S(hbond)    S(metal)    S(lipo)     H(rot)  DE(clash)    DE(int)     intcor
     16.49     -17.91       2.96        0.00      54.35       1.48       0.02       1.40       ----

> <Gold.Chemscore.Fitness>
16.4884

> <Gold.Chemscore.DG>
-17.9096

> <Gold.Chemscore.ZeroCoef>
-5.4800

> <Gold.Chemscore.Hbond>
2.9553

> <Gold.Chemscore.Metal>
0.0000

> <Gold.Chemscore.Lipo>
54.3537

> <Gold.Chemscore.Internal_Hbond>
0.0000

> <Gold.Chemscore.DEClash>
0.0243

> <Gold.Chemscore.DEInternal>
1.3970

> <Gold.Chemscore.Rot>
1.4846

> <Gold.Chemscore.Internal.Correction>
   9.000000E+99

> <Gold.Chemscore.Hbonds>
donor molecule, donor type, donor heavy atom, donor atom, acceptor molecule, acceptor atom, score
      L1  H     1    16       P1  7948  1.00
      L1  H     1    17       P1  7957  0.84
      P1  H  7997  8009       L1     8  0.61

> <Gold.Chemscore.Hbond.Weighted>
-9.8708

> <Gold.Chemscore.Metal.Weighted>
-0.0000

> <Gold.Chemscore.Lipo.Weighted>
-6.3594

> <Gold.Chemscore.Internal_Hbond.Weighted>
0.0000

> <Gold.Chemscore.DEClash.Weighted>
0.0243

> <Gold.Chemscore.DEInternal.Weighted>
1.3970

> <Gold.Chemscore.Rot.Weighted>
3.8005

> <Gold.Chemscore.Internal.Correction.Weighted>
   9.000000E+99

> <Gold.Protein.RotatedTorsions>
[ 6907 6896 6895 6894 ] final  -35.27 input  -60.11 | X-H torsion
[ 7974 7965 7964 7962 ] final   52.49 input  175.53 | X-H torsion
[ 8008 7997 7996 7995 ] final -159.02 input   59.86 | X-H torsion
[ 10167 10162 10161 10158 ] final  -18.07 input  -65.29 | X-H torsion
[ 10718 10713 10712 10709 ] final  -62.44 input   66.30 | X-H torsion
[ 10763 10752 10751 10750 ] final   49.39 input  -60.55 | X-H torsion
[ 11005 11000 10999 10996 ] final   62.11 input  -57.11 | X-H torsion

> <Gold.Protein.ActiveResidues>
 VAL166  LYS551  ARG553  GLY616  TRP617  ASP618  TYR619  PRO620  LYS621  CYS622 
 ASP623  PHE694  ASN695  SER759  ASP760  ASP761  ALA762  ILE779  LEU786  VAL792 
 PHE793  MET794  SER795  GLU796  ALA797  LYS798  CYS799  TRP800  GLU811  SER814 

> <Gold.Protein.RotatedAtoms>
  151.0420  134.9614  159.8166 H   0  0  0  0  0  0  0  0  0  0  0  0  # atno 6907 bound_to 6896
  152.5366  134.2646  159.8958 H   0  0  0  0  0  0  0  0  0  0  0  0  # atno 6908 bound_to 6896
  151.2658  133.4236  159.2652 H   0  0  0  0  0  0  0  0  0  0  0  0  # atno 6909 bound_to 6896
  145.9808  139.4241  143.0133 H   0  0  0  0  0  0  0  0  0  0  0  0  # atno 7974 bound_to 7965
  155.7564  140.0833  157.2176 H   0  0  0  0  0  0  0  0  0  0  0  0  # atno 8008 bound_to 7997
  154.4007  140.1551  156.2838 H   0  0  0  0  0  0  0  0  0  0  0  0  # atno 8009 bound_to 7997
  155.8882  140.3417  155.5939 H   0  0  0  0  0  0  0  0  0  0  0  0  # atno 8010 bound_to 7997
  140.7254  143.4953  150.9939 H   0  0  0  0  0  0  0  0  0  0  0  0  # atno 10167 bound_to 10162
  156.0855  130.4209  150.1136 H   0  0  0  0  0  0  0  0  0  0  0  0  # atno 10718 bound_to 10713
  152.9787  135.5913  154.4082 H   0  0  0  0  0  0  0  0  0  0  0  0  # atno 10763 bound_to 10752
  154.3720  135.2767  155.2263 H   0  0  0  0  0  0  0  0  0  0  0  0  # atno 10764 bound_to 10752
  154.4214  135.6058  153.6067 H   0  0  0  0  0  0  0  0  0  0  0  0  # atno 10765 bound_to 10752
  140.0115  134.6290  155.9774 H   0  0  0  0  0  0  0  0  0  0  0  0  # atno 11005 bound_to 11000
  145.7772  140.9872  143.1118 LP  0  0  0  0  0  0  0  0  0  0  0  0  # atno 17320 bound_to 7965
  144.6861  139.9519  143.7478 LP  0  0  0  0  0  0  0  0  0  0  0  0  # atno 17321 bound_to 7965
  139.8660  143.7254  152.3170 LP  0  0  0  0  0  0  0  0  0  0  0  0  # atno 17342 bound_to 10162
  139.7486  144.7540  151.0542 LP  0  0  0  0  0  0  0  0  0  0  0  0  # atno 17343 bound_to 10162
  156.9158  130.9666  151.3556 LP  0  0  0  0  0  0  0  0  0  0  0  0  # atno 17370 bound_to 10713
  157.5987  130.8497  149.8769 LP  0  0  0  0  0  0  0  0  0  0  0  0  # atno 17371 bound_to 10713
  141.1714  133.6537  156.4665 LP  0  0  0  0  0  0  0  0  0  0  0  0  # atno 17394 bound_to 11000
  140.4547  134.6897  157.5056 LP  0  0  0  0  0  0  0  0  0  0  0  0  # atno 17395 bound_to 11000

$$$$
