AV-unprocessed.smi:72|AV-procd|sdf|675|dock9
  -GOLD-   2262016583D 1   1.00000     0.00000
 Structure written by MMmdl.
 29 30  0  0  0  0  0  0  0  0  1 V2000
  153.7539  138.8486  158.0107 N   0  0  0  0  0  0  0  0  0  0  0  0
  152.5473  139.2058  157.7484 C   0  0  0  0  0  0  0  0  0  0  0  0
  151.5888  139.5839  158.7010 N   0  0  0  0  0  0  0  0  0  0  0  0
  150.4055  139.9236  158.2918 C   0  0  0  0  0  0  0  0  0  0  0  0
  150.0427  139.9248  156.8832 N   0  0  0  0  0  0  0  0  0  0  0  0
  148.6511  140.3213  156.4362 C   0  0  2  0  0  0  0  0  0  0  0  0
  148.1846  139.3761  155.5204 O   0  0  0  0  0  0  0  0  0  0  0  0
  147.4589  140.0359  154.4886 C   0  0  2  0  0  0  0  0  0  0  0  0
  147.3579  139.1593  153.2275 C   0  0  0  0  0  0  0  0  0  0  0  0
  148.6283  138.6439  152.8905 O   0  0  0  0  0  0  0  0  0  0  0  0
  148.2193  141.3588  154.3163 C   0  0  2  0  0  0  0  0  0  0  0  0
  149.3532  141.1874  153.4818 O   0  0  0  0  0  0  0  0  0  0  0  0
  148.5984  141.7051  155.7534 C   0  0  2  0  0  0  0  0  0  0  0  0
  149.7756  142.4898  155.8501 O   0  0  0  0  0  0  0  0  0  0  0  0
  150.9941  139.5341  155.9093 C   0  0  0  0  0  0  0  0  0  0  0  0
  150.7352  139.4930  154.7069 O   0  0  0  0  0  0  0  0  0  0  0  0
  152.2122  139.1985  156.3874 N   0  0  0  0  0  0  0  0  0  0  0  0
  148.0129  140.2703  157.3196 H   0  0  0  0  0  0  0  0  0  0  0  0
  146.4602  140.2668  154.8651 H   0  0  0  0  0  0  0  0  0  0  0  0
  147.5877  142.1285  153.8716 H   0  0  0  0  0  0  0  0  0  0  0  0
  147.7787  142.2576  156.2145 H   0  0  0  0  0  0  0  0  0  0  0  0
  153.9246  138.8772  159.0053 H   0  0  0  0  0  0  0  0  0  0  0  0
  149.6097  140.2262  158.9736 H   0  0  0  0  0  0  0  0  0  0  0  0
  146.7017  138.3087  153.4139 H   0  0  0  0  0  0  0  0  0  0  0  0
  146.9402  139.7157  152.3875 H   0  0  0  0  0  0  0  0  0  0  0  0
  148.5098  137.8108  152.4602 H   0  0  0  0  0  0  0  0  0  0  0  0
  149.1877  140.4608  152.9005 H   0  0  0  0  0  0  0  0  0  0  0  0
  149.5870  143.3508  155.5088 H   0  0  0  0  0  0  0  0  0  0  0  0
  152.9132  138.9191  155.7171 H   0  0  0  0  0  0  0  0  0  0  0  0
  1  2  2  0  0  0  0
  1 22  1  0  0  0  0
  2 17  1  0  0  0  0
  2  3  1  0  0  0  0
  3  4  2  0  0  0  0
  4  5  1  0  0  0  0
  4 23  1  0  0  0  0
  5  6  1  0  0  0  0
  5 15  1  0  0  0  0
  6 18  1  0  0  0  0
  6 13  1  0  0  0  0
  6  7  1  0  0  0  0
  7  8  1  0  0  0  0
  8 19  1  0  0  0  0
  8  9  1  0  0  0  0
  8 11  1  0  0  0  0
  9 10  1  0  0  0  0
  9 24  1  0  0  0  0
  9 25  1  0  0  0  0
 10 26  1  0  0  0  0
 11 20  1  0  0  0  0
 11 12  1  0  0  0  0
 11 13  1  0  0  0  0
 12 27  1  0  0  0  0
 13 21  1  0  0  0  0
 13 14  1  0  0  0  0
 14 28  1  0  0  0  0
 15 16  2  0  0  0  0
 15 17  1  0  0  0  0
 17 29  1  0  0  0  0
M  END
> <s_m_source_file>
AV-unprocessed.smi

> <i_m_source_file_index>
72

> <i_lp_mmshare_version>
43012

> <i_f3d_flags>
0

> <s_epik_input>
W05IMl1jMW5bY0hdbihjKD1PKW4xKVtDQEBIXTJPW0NASF0oW0NIMl1bT0hdKVtDQEBIXShbT0hdKVtDQEhdMltPSF0=

> <s_epik_cmdline>
J2VwaWtfcHl0aG9uJywgJy1waCcsICc3LjAnLCAnLXRuJywgJzgnLCAnLW1hJywgJzIwMCcsICctbWV0YWxfYmluZGluZycsICctaW1hZScsICc8aW5maWxlLm1hZT4nLCAnLW9tYWUnLCAnPG91dGZpbGUubWFlPic=

> <r_lp_tautomer_probability>
7.17554e-07

> <r_epik_Ionization_Penalty>
0.0066451

> <r_epik_Ionization_Penalty_Charging>
0.00663793

> <r_epik_Ionization_Penalty_Neutral>
7.17052e-06

> <r_epik_State_Penalty>
0.419231

> <r_epik_Charging_Adjusted_Penalty>
0.425868

> <i_epik_Tot_Q>
0

> <i_epik_Tot_abs_Q>
0

> <r_epik_Metal_State_Penalty>
1.44144

> <b_epik_Metal_Only>
0

> <s_epik_Chemistry_Notes>
This compound contains an acetal/aminal-like group ( X-CH(R)-Y where X, Y are N, S, or O) that may be acid/base labile, releasing an aldehyde.

> <s_lp_Force_Field>
OPLS_2005

> <r_lp_Energy>
49.9877

> <b_lp_Chiralities_Consistent>
1

> <s_lp_Variant>
AV-unprocessed.smi:72-13

> <Gold.Version>
5.8.1

> <Gold.Id.Protein>
6NUR|6NUR_protein|mol2

> <Gold.PLP.Fitness>
38.1036

> <Gold.PLP.PLP>
-21.6491

> <Gold.PLP.part.hbond>
-7.2589

> <Gold.PLP.part.metal>
0.0000

> <Gold.PLP.part.buried>
-2.6005

> <Gold.PLP.part.nonpolar>
-11.5604

> <Gold.PLP.part.repulsive>
0.2540

> <Gold.PLP.ligand.clash>
0.0000

> <Gold.PLP.ligand.torsion>
0.3560

> <Gold.PLP.Chemscore.Hbond>
5.7200

> <Gold.PLP.Chemscore.CHOScore>
0.0000

> <Gold.PLP.Chemscore.Metal>
0.0000

> <Gold.Chemscore.Hbonds>
donor molecule, donor type, donor heavy atom, donor atom, acceptor molecule, acceptor atom, score
      L1  H    10    26       P1  7948  1.00
      L1  H    12    27       P1  7957  0.70
      L1  H    14    28       P1  8028  1.00
      P1  H  7989  7998       L1    16  0.98
      P1  H  7997  8010       L1     1  1.00
      P1  H  8011  8017       L1    12  1.00

> <Gold.PLP.Chemscore.Internal.Correction>
0.0065

> <Gold.Rescore>
     Score         DG    S(hbond)    S(metal)    S(lipo)     H(rot)  DE(clash)    DE(int)     intcor
      9.04     -13.83       4.79        0.00      23.38       4.06       0.20       4.59       ----

> <Gold.Chemscore.Fitness>
9.0402

> <Gold.Chemscore.DG>
-13.8306

> <Gold.Chemscore.ZeroCoef>
-5.4800

> <Gold.Chemscore.Hbond>
4.7932

> <Gold.Chemscore.Metal>
0.0000

> <Gold.Chemscore.Lipo>
23.3757

> <Gold.Chemscore.Internal_Hbond>
0.0000

> <Gold.Chemscore.DEClash>
0.1996

> <Gold.Chemscore.DEInternal>
4.5907

> <Gold.Chemscore.Rot>
4.0600

> <Gold.Chemscore.Internal.Correction>
   9.000000E+99

> <Gold.Chemscore.Hbonds>
donor molecule, donor type, donor heavy atom, donor atom, acceptor molecule, acceptor atom, score
      L1  H    10    26       P1  7948  0.99
      L1  H    12    27       P1  7957  0.70
      L1  H    14    28       P1  8028  0.89
      P1  H  7989  7998       L1    16  0.88
      P1  H  7997  8010       L1     1  0.43
      P1  H  8011  8017       L1    12  0.24

> <Gold.Chemscore.Hbond.Weighted>
-16.0092

> <Gold.Chemscore.Metal.Weighted>
-0.0000

> <Gold.Chemscore.Lipo.Weighted>
-2.7350

> <Gold.Chemscore.Internal_Hbond.Weighted>
0.0000

> <Gold.Chemscore.DEClash.Weighted>
0.1996

> <Gold.Chemscore.DEInternal.Weighted>
4.5907

> <Gold.Chemscore.Rot.Weighted>
10.3936

> <Gold.Chemscore.Internal.Correction.Weighted>
   9.000000E+99

> <Gold.Protein.RotatedTorsions>
[ 6907 6896 6895 6894 ] final  134.21 input  -60.11 | X-H torsion
[ 7974 7965 7964 7962 ] final -106.71 input  175.53 | X-H torsion
[ 8008 7997 7996 7995 ] final   10.79 input   59.86 | X-H torsion
[ 10167 10162 10161 10158 ] final   99.75 input  -65.29 | X-H torsion
[ 10718 10713 10712 10709 ] final  -97.86 input   66.30 | X-H torsion
[ 10763 10752 10751 10750 ] final   18.27 input  -60.55 | X-H torsion
[ 11005 11000 10999 10996 ] final  -48.29 input  -57.11 | X-H torsion

> <Gold.Protein.ActiveResidues>
 VAL166  LYS551  ARG553  GLY616  TRP617  ASP618  TYR619  PRO620  LYS621  CYS622 
 ASP623  PHE694  ASN695  SER759  ASP760  ASP761  ALA762  ILE779  LEU786  VAL792 
 PHE793  MET794  SER795  GLU796  ALA797  LYS798  CYS799  TRP800  GLU811  SER814 

> <Gold.Protein.RotatedAtoms>
  152.3137  133.5779  159.5697 H   0  0  0  0  0  0  0  0  0  0  0  0  # atno 6907 bound_to 6896
  150.7335  134.0115  159.3680 H   0  0  0  0  0  0  0  0  0  0  0  0  # atno 6908 bound_to 6896
  151.8005  135.0710  160.0450 H   0  0  0  0  0  0  0  0  0  0  0  0  # atno 6909 bound_to 6896
  145.2145  140.9109  143.3295 H   0  0  0  0  0  0  0  0  0  0  0  0  # atno 7974 bound_to 7965
  154.7982  140.2847  155.5941 H   0  0  0  0  0  0  0  0  0  0  0  0  # atno 8008 bound_to 7997
  156.2973  140.2591  156.2773 H   0  0  0  0  0  0  0  0  0  0  0  0  # atno 8009 bound_to 7997
  154.9589  140.0378  157.2170 H   0  0  0  0  0  0  0  0  0  0  0  0  # atno 8010 bound_to 7997
  139.7589  144.6960  151.0321 H   0  0  0  0  0  0  0  0  0  0  0  0  # atno 10167 bound_to 10162
  156.0093  130.5213  150.6438 H   0  0  0  0  0  0  0  0  0  0  0  0  # atno 10718 bound_to 10713
  153.1264  135.6730  153.9250 H   0  0  0  0  0  0  0  0  0  0  0  0  # atno 10763 bound_to 10752
  153.8750  135.3065  155.3444 H   0  0  0  0  0  0  0  0  0  0  0  0  # atno 10764 bound_to 10752
  154.7668  135.4960  153.9651 H   0  0  0  0  0  0  0  0  0  0  0  0  # atno 10765 bound_to 10752
  141.0692  133.6684  156.3420 H   0  0  0  0  0  0  0  0  0  0  0  0  # atno 11005 bound_to 11000
  144.9824  139.3770  143.6255 LP  0  0  0  0  0  0  0  0  0  0  0  0  # atno 17320 bound_to 7965
  146.3390  139.8971  142.8800 LP  0  0  0  0  0  0  0  0  0  0  0  0  # atno 17321 bound_to 7965
  140.7805  143.4720  151.0133 LP  0  0  0  0  0  0  0  0  0  0  0  0  # atno 17342 bound_to 10162
  139.8406  143.7568  152.3180 LP  0  0  0  0  0  0  0  0  0  0  0  0  # atno 17343 bound_to 10162
  157.4213  131.0837  151.1128 LP  0  0  0  0  0  0  0  0  0  0  0  0  # atno 17370 bound_to 10713
  157.1730  130.6275  149.5646 LP  0  0  0  0  0  0  0  0  0  0  0  0  # atno 17371 bound_to 10713
  140.5709  134.5841  157.5457 LP  0  0  0  0  0  0  0  0  0  0  0  0  # atno 17394 bound_to 11000
  139.9506  134.7623  156.0457 LP  0  0  0  0  0  0  0  0  0  0  0  0  # atno 17395 bound_to 11000

$$$$
