AV-unprocessed.smi:1|AV-procd|sdf|12|dock10
  -GOLD-   2262015103D 1   1.00000     0.00000
 Structure written by MMmdl.
 57 62  0  0  0  0  0  0  0  0  1 V2000
  152.7242  139.7666  157.7389 O   0  0  0  0  0  0  0  0  0  0  0  0
  151.8098  140.5145  158.0957 C   0  0  0  0  0  0  0  0  0  0  0  0
  150.4958  140.5587  157.6481 N   0  0  0  0  0  0  0  0  0  0  0  0
  149.7763  139.4776  157.6304 C   0  0  0  0  0  0  0  0  0  0  0  0
  150.0511  138.1527  157.9916 N   0  0  0  0  0  0  0  0  0  0  0  0
  149.1529  137.0776  157.9194 C   0  0  0  0  0  0  0  0  0  0  0  0
  147.9190  137.1629  157.5001 N   0  0  0  0  0  0  0  0  0  0  0  0
  147.5916  138.4577  157.1236 C   0  0  0  0  0  0  0  0  0  0  0  0
  148.3823  139.5874  157.1476 C   0  0  0  0  0  0  0  0  0  0  0  0
  147.6806  140.6937  156.6827 N   0  0  0  0  0  0  0  0  0  0  0  0
  146.4876  140.1808  156.3959 C   0  0  0  0  0  0  0  0  0  0  0  0
  146.3493  138.8631  156.6345 N   0  0  0  0  0  0  0  0  0  0  0  0
  145.1130  138.0566  156.3835 C   0  0  1  0  0  0  0  0  0  0  0  0
  144.6297  138.3418  155.1039 O   0  0  0  0  0  0  0  0  0  0  0  0
  144.6545  137.1774  154.2820 C   0  0  2  0  0  0  0  0  0  0  0  0
  143.5132  137.2014  153.2587 C   0  0  0  0  0  0  0  0  0  0  0  0
  143.6608  136.0999  152.3784 O   0  0  0  0  0  0  0  0  0  0  0  0
  144.8684  135.8073  151.8595 C   0  0  0  0  0  0  0  0  0  0  0  0
  145.8078  136.6047  151.8259 O   0  0  0  0  0  0  0  0  0  0  0  0
  144.9498  134.4150  151.3307 C   0  0  0  0  0  0  0  0  0  0  0  0
  143.7913  133.6034  151.3349 C   0  0  0  0  0  0  0  0  0  0  0  0
  143.8363  132.2864  150.8378 C   0  0  0  0  0  0  0  0  0  0  0  0
  145.0406  131.7648  150.3303 C   0  0  0  0  0  0  0  0  0  0  0  0
  146.2000  132.5619  150.3212 C   0  0  0  0  0  0  0  0  0  0  0  0
  146.1572  133.8792  150.8182 C   0  0  0  0  0  0  0  0  0  0  0  0
  144.5930  136.0166  155.2733 C   0  0  2  0  0  0  0  0  0  0  0  0
  143.2625  135.7693  155.6975 O   0  0  0  0  0  0  0  0  0  0  0  0
  143.2750  135.5133  157.3480 S   0  0  0  0  0  0  0  0  0  0  0  0
  142.3592  136.4809  157.9710 O   0  0  0  0  0  0  0  0  0  0  0  0
  143.1850  134.0657  157.5920 O   0  0  0  0  0  0  0  0  0  0  0  0
  144.8446  135.9988  157.6574 O   0  0  0  0  0  0  0  0  0  0  0  0
  145.3880  136.5478  156.4694 C   0  0  2  0  0  0  0  0  0  0  0  0
  152.1153  141.5469  159.1315 C   0  0  0  0  0  0  0  0  0  0  0  0
  151.4168  142.7729  159.1362 C   0  0  0  0  0  0  0  0  0  0  0  0
  151.7012  143.7437  160.1165 C   0  0  0  0  0  0  0  0  0  0  0  0
  152.6819  143.4911  161.0951 C   0  0  0  0  0  0  0  0  0  0  0  0
  153.3785  142.2672  161.0944 C   0  0  0  0  0  0  0  0  0  0  0  0
  153.0955  141.2953  160.1147 C   0  0  0  0  0  0  0  0  0  0  0  0
  149.5716  136.1264  158.2510 H   0  0  0  0  0  0  0  0  0  0  0  0
  145.6860  140.7862  155.9990 H   0  0  0  0  0  0  0  0  0  0  0  0
  144.3914  138.4065  157.1232 H   0  0  0  0  0  0  0  0  0  0  0  0
  145.6094  137.1335  153.7592 H   0  0  0  0  0  0  0  0  0  0  0  0
  142.5537  137.1208  153.7717 H   0  0  0  0  0  0  0  0  0  0  0  0
  143.5139  138.1399  152.7024 H   0  0  0  0  0  0  0  0  0  0  0  0
  142.8550  133.9824  151.7185 H   0  0  0  0  0  0  0  0  0  0  0  0
  142.9450  131.6766  150.8453 H   0  0  0  0  0  0  0  0  0  0  0  0
  145.0740  130.7553  149.9480 H   0  0  0  0  0  0  0  0  0  0  0  0
  147.1249  132.1630  149.9312 H   0  0  0  0  0  0  0  0  0  0  0  0
  147.0651  134.4640  150.7953 H   0  0  0  0  0  0  0  0  0  0  0  0
  145.0146  135.0968  154.8664 H   0  0  0  0  0  0  0  0  0  0  0  0
  146.4520  136.3323  156.3702 H   0  0  0  0  0  0  0  0  0  0  0  0
  150.6623  142.9735  158.3894 H   0  0  0  0  0  0  0  0  0  0  0  0
  151.1665  144.6821  160.1182 H   0  0  0  0  0  0  0  0  0  0  0  0
  152.8990  144.2359  161.8464 H   0  0  0  0  0  0  0  0  0  0  0  0
  154.1300  142.0734  161.8454 H   0  0  0  0  0  0  0  0  0  0  0  0
  153.6327  140.3578  160.1216 H   0  0  0  0  0  0  0  0  0  0  0  0
  150.9803  137.9560  158.3356 H   0  0  0  0  0  0  0  0  0  0  0  0
  1  2  2  0  0  0  0
  2  3  1  0  0  0  0
  2 33  1  0  0  0  0
  3  4  2  0  0  0  0
  4  9  1  0  0  0  0
  4  5  1  0  0  0  0
  5  6  1  0  0  0  0
  5 57  1  0  0  0  0
  6  7  2  0  0  0  0
  6 39  1  0  0  0  0
  7  8  1  0  0  0  0
  8 12  1  0  0  0  0
  8  9  2  0  0  0  0
  9 10  1  0  0  0  0
 10 11  2  0  0  0  0
 11 12  1  0  0  0  0
 11 40  1  0  0  0  0
 12 13  1  0  0  0  0
 13 32  1  0  0  0  0
 13 14  1  0  0  0  0
 13 41  1  0  0  0  0
 14 15  1  0  0  0  0
 15 16  1  0  0  0  0
 15 26  1  0  0  0  0
 15 42  1  0  0  0  0
 16 17  1  0  0  0  0
 16 43  1  0  0  0  0
 16 44  1  0  0  0  0
 17 18  1  0  0  0  0
 18 19  2  0  0  0  0
 18 20  1  0  0  0  0
 20 25  1  0  0  0  0
 20 21  2  0  0  0  0
 21 22  1  0  0  0  0
 21 45  1  0  0  0  0
 22 23  2  0  0  0  0
 22 46  1  0  0  0  0
 23 24  1  0  0  0  0
 23 47  1  0  0  0  0
 24 25  2  0  0  0  0
 24 48  1  0  0  0  0
 25 49  1  0  0  0  0
 26 32  1  0  0  0  0
 26 27  1  0  0  0  0
 26 50  1  0  0  0  0
 27 28  1  0  0  0  0
 28 29  2  0  0  0  0
 28 30  2  0  0  0  0
 28 31  1  0  0  0  0
 31 32  1  0  0  0  0
 32 51  1  0  0  0  0
 33 38  1  0  0  0  0
 33 34  2  0  0  0  0
 34 35  1  0  0  0  0
 34 52  1  0  0  0  0
 35 36  2  0  0  0  0
 35 53  1  0  0  0  0
 36 37  1  0  0  0  0
 36 54  1  0  0  0  0
 37 38  2  0  0  0  0
 37 55  1  0  0  0  0
 38 56  1  0  0  0  0
M  END
> <s_m_source_file>
AV-unprocessed.smi

> <i_m_source_file_index>
1

> <i_lp_mmshare_version>
43012

> <i_f3d_flags>
0

> <s_epik_input>
W2NIXTFbY0hdW2NIXVtjSF1bY0hdYzFDKD1PKVtOSF1jKG5bY0hdbjIpYyhjMjMpbltjSF1uM1tDQEBIXShbQ0BIXShbQ0BIXTQ1KU9TKE81KSg9Tyk9TylPW0NASF00W0NIMl1PQyg9TyljNltjSF1bY0hdW2NIXVtjSF1bY0hdNg==

> <s_epik_cmdline>
J2VwaWtfcHl0aG9uJywgJy1waCcsICc3LjAnLCAnLXRuJywgJzgnLCAnLW1hJywgJzIwMCcsICctbWV0YWxfYmluZGluZycsICctaW1hZScsICc8aW5maWxlLm1hZT4nLCAnLW9tYWUnLCAnPG91dGZpbGUubWFlPic=

> <r_epik_Ionization_Penalty>
0.122545

> <r_epik_Ionization_Penalty_Charging>
0.122545

> <r_epik_Ionization_Penalty_Neutral>
7.8935e-16

> <r_epik_State_Penalty>
2.69178

> <r_epik_Charging_Adjusted_Penalty>
2.81433

> <i_epik_Tot_Q>
0

> <i_epik_Tot_abs_Q>
0

> <r_epik_Metal_State_Penalty>
3.02665

> <b_epik_Metal_Only>
0

> <s_epik_Chemistry_Notes>
This compound has an ester and may undergo hydrolysis at high or low pH. This compound contains an acetal/aminal-like group ( X-CH(R)-Y where X, Y are N, S, or O) that may be acid/base labile, releasing an aldehyde.

> <s_lp_Force_Field>
OPLS_2005

> <r_lp_Energy>
62.4663

> <b_lp_Chiralities_Consistent>
1

> <s_lp_Variant>
AV-unprocessed.smi:1-12

> <Gold.Version>
5.8.1

> <Gold.Id.Protein>
6NUR|6NUR_protein|mol2

> <Gold.PLP.Fitness>
49.6016

> <Gold.PLP.PLP>
-46.2570

> <Gold.PLP.part.hbond>
-2.0852

> <Gold.PLP.part.metal>
0.0000

> <Gold.PLP.part.buried>
-8.4469

> <Gold.PLP.part.nonpolar>
-36.8135

> <Gold.PLP.part.repulsive>
0.7258

> <Gold.PLP.ligand.clash>
0.0000

> <Gold.PLP.ligand.torsion>
1.4354

> <Gold.PLP.Chemscore.Hbond>
1.9913

> <Gold.PLP.Chemscore.CHOScore>
0.0000

> <Gold.PLP.Chemscore.Metal>
0.0000

> <Gold.Chemscore.Hbonds>
donor molecule, donor type, donor heavy atom, donor atom, acceptor molecule, acceptor atom, score
      P1  H  7997  8009       L1     1  1.00
      P1  H 11000 11005       L1    30  0.80

> <Gold.PLP.Chemscore.Internal.Correction>
0.2416

> <Gold.Rescore>
     Score         DG    S(hbond)    S(metal)    S(lipo)     H(rot)  DE(clash)    DE(int)     intcor
     15.45     -19.32       1.64        0.00     118.04       2.13       0.08       3.78       ----

> <Gold.Chemscore.Fitness>
15.4503

> <Gold.Chemscore.DG>
-19.3153

> <Gold.Chemscore.ZeroCoef>
-5.4800

> <Gold.Chemscore.Hbond>
1.6423

> <Gold.Chemscore.Metal>
0.0000

> <Gold.Chemscore.Lipo>
118.0445

> <Gold.Chemscore.Internal_Hbond>
0.0000

> <Gold.Chemscore.DEClash>
0.0824

> <Gold.Chemscore.DEInternal>
3.7826

> <Gold.Chemscore.Rot>
2.1333

> <Gold.Chemscore.Internal.Correction>
   9.000000E+99

> <Gold.Chemscore.Hbonds>
donor molecule, donor type, donor heavy atom, donor atom, acceptor molecule, acceptor atom, score
      P1  H  7997  8009       L1     1  0.97
      P1  H 11000 11005       L1    30  0.15

> <Gold.Chemscore.Hbond.Weighted>
-5.4854

> <Gold.Chemscore.Metal.Weighted>
-0.0000

> <Gold.Chemscore.Lipo.Weighted>
-13.8112

> <Gold.Chemscore.Internal_Hbond.Weighted>
0.0000

> <Gold.Chemscore.DEClash.Weighted>
0.0824

> <Gold.Chemscore.DEInternal.Weighted>
3.7826

> <Gold.Chemscore.Rot.Weighted>
5.4614

> <Gold.Chemscore.Internal.Correction.Weighted>
   9.000000E+99

> <Gold.Protein.RotatedTorsions>
[ 6907 6896 6895 6894 ] final -174.26 input  -60.11 | X-H torsion
[ 7974 7965 7964 7962 ] final   36.30 input  175.53 | X-H torsion
[ 8008 7997 7996 7995 ] final  161.39 input   59.86 | X-H torsion
[ 10167 10162 10161 10158 ] final -148.92 input  -65.29 | X-H torsion
[ 10718 10713 10712 10709 ] final -101.46 input   66.30 | X-H torsion
[ 10763 10752 10751 10750 ] final   48.70 input  -60.55 | X-H torsion
[ 11005 11000 10999 10996 ] final  -90.30 input  -57.11 | X-H torsion

> <Gold.Protein.ActiveResidues>
 VAL166  LYS551  ARG553  GLY616  TRP617  ASP618  TYR619  PRO620  LYS621  CYS622 
 ASP623  PHE694  ASN695  SER759  ASP760  ASP761  ALA762  ILE779  LEU786  VAL792 
 PHE793  MET794  SER795  GLU796  ALA797  LYS798  CYS799  TRP800  GLU811  SER814 

> <Gold.Protein.RotatedAtoms>
  151.5694  133.3392  159.2986 H   0  0  0  0  0  0  0  0  0  0  0  0  # atno 6907 bound_to 6896
  150.8376  134.7658  159.6917 H   0  0  0  0  0  0  0  0  0  0  0  0  # atno 6908 bound_to 6896
  152.4450  134.5521  159.9921 H   0  0  0  0  0  0  0  0  0  0  0  0  # atno 6909 bound_to 6896
  146.1221  139.6035  142.9282 H   0  0  0  0  0  0  0  0  0  0  0  0  # atno 7974 bound_to 7965
  156.2106  140.1778  156.7703 H   0  0  0  0  0  0  0  0  0  0  0  0  # atno 8008 bound_to 7997
  154.5717  140.0681  156.9004 H   0  0  0  0  0  0  0  0  0  0  0  0  # atno 8009 bound_to 7997
  155.2660  140.3339  155.4271 H   0  0  0  0  0  0  0  0  0  0  0  0  # atno 8010 bound_to 7997
  139.7488  143.8550  152.2581 H   0  0  0  0  0  0  0  0  0  0  0  0  # atno 10167 bound_to 10162
  156.0195  130.5375  150.6967 H   0  0  0  0  0  0  0  0  0  0  0  0  # atno 10718 bound_to 10713
  152.9790  135.5935  154.3969 H   0  0  0  0  0  0  0  0  0  0  0  0  # atno 10763 bound_to 10752
  154.3618  135.2767  155.2317 H   0  0  0  0  0  0  0  0  0  0  0  0  # atno 10764 bound_to 10752
  154.4311  135.6036  153.6124 H   0  0  0  0  0  0  0  0  0  0  0  0  # atno 10765 bound_to 10752
  141.1568  133.7683  156.9718 H   0  0  0  0  0  0  0  0  0  0  0  0  # atno 11005 bound_to 11000
  145.5443  141.0418  143.2313 LP  0  0  0  0  0  0  0  0  0  0  0  0  # atno 17320 bound_to 7965
  144.7607  139.6963  143.7235 LP  0  0  0  0  0  0  0  0  0  0  0  0  # atno 17321 bound_to 7965
  139.8522  144.7159  150.9200 LP  0  0  0  0  0  0  0  0  0  0  0  0  # atno 17342 bound_to 10162
  140.7795  143.3890  151.1344 LP  0  0  0  0  0  0  0  0  0  0  0  0  # atno 17343 bound_to 10162
  157.4636  131.0886  151.0719 LP  0  0  0  0  0  0  0  0  0  0  0  0  # atno 17370 bound_to 10713
  157.1200  130.6057  149.5502 LP  0  0  0  0  0  0  0  0  0  0  0  0  # atno 17371 bound_to 10713
  140.1124  134.9468  157.2085 LP  0  0  0  0  0  0  0  0  0  0  0  0  # atno 17394 bound_to 11000
  140.3176  134.2953  155.7253 LP  0  0  0  0  0  0  0  0  0  0  0  0  # atno 17395 bound_to 11000

$$$$
