AV-unprocessed.smi:2753|AV-procd|sdf|10614|dock5
  -GOLD-   2272015 63D 1   1.00000     0.00000
 Structure written by MMmdl.
 27 28  0  0  0  0  0  0  0  0  3 V2000
  152.7728  138.4219  154.6234 F   0  0  0  0  0  0  0  0  0  0  0  0
  151.6010  138.5433  155.2468 C   0  0  0  0  0  0  0  0  0  0  0  0
  150.7137  139.0633  154.3988 F   0  0  0  0  0  0  0  0  0  0  0  0
  151.1805  137.3355  155.6227 F   0  0  0  0  0  0  0  0  0  0  0  0
  151.7496  139.4408  156.4594 C   0  0  0  0  0  0  0  0  0  0  0  0
  152.5456  139.0037  157.5591 C   0  0  0  0  0  0  0  0  0  0  0  0
  152.4807  139.9951  158.4546 N   0  5  0  0  0  0  0  0  0  0  0  0
  151.7088  140.9934  157.9756 C   0  0  0  0  0  0  0  0  0  0  0  0
  151.3943  142.2833  158.7049 C   0  0  1  0  0  0  0  0  0  0  0  0
  152.6662  143.0766  159.0553 C   0  0  0  0  0  0  0  0  0  0  0  0
  152.2999  144.3848  159.7729 C   0  0  0  0  0  0  0  0  0  0  0  0
  151.2858  145.1978  158.9503 C   0  0  0  0  0  0  0  0  0  0  0  0
  150.0792  144.3919  158.6614 N   0  3  0  0  0  0  0  0  0  0  0  0
  150.3806  143.1435  157.9281 C   0  0  0  0  0  0  0  0  0  0  0  0
  151.2551  140.6590  156.7530 N   0  0  0  0  0  0  0  0  0  0  0  0
  153.1188  138.1050  157.7504 H   0  0  0  0  0  0  0  0  0  0  0  0
  150.9226  141.9947  159.6457 H   0  0  0  0  0  0  0  0  0  0  0  0
  153.3259  142.4760  159.6826 H   0  0  0  0  0  0  0  0  0  0  0  0
  153.2227  143.3048  158.1450 H   0  0  0  0  0  0  0  0  0  0  0  0
  151.8797  144.1593  160.7539 H   0  0  0  0  0  0  0  0  0  0  0  0
  153.1984  144.9766  159.9497 H   0  0  0  0  0  0  0  0  0  0  0  0
  150.9919  146.0964  159.4932 H   0  0  0  0  0  0  0  0  0  0  0  0
  151.7335  145.5240  158.0104 H   0  0  0  0  0  0  0  0  0  0  0  0
  149.6381  144.1485  159.5368 H   0  0  0  0  0  0  0  0  0  0  0  0
  150.7714  143.3963  156.9413 H   0  0  0  0  0  0  0  0  0  0  0  0
  149.4536  142.5910  157.7725 H   0  0  0  0  0  0  0  0  0  0  0  0
  149.4362  144.9450  158.1132 H   0  0  0  0  0  0  0  0  0  0  0  0
  1  2  1  0  0  0  0
  2  3  1  0  0  0  0
  2  4  1  0  0  0  0
  2  5  1  0  0  0  0
  5 15  1  0  0  0  0
  5  6  2  0  0  0  0
  6  7  1  0  0  0  0
  6 16  1  0  0  0  0
  7  8  1  0  0  0  0
  8  9  1  0  0  0  0
  8 15  2  0  0  0  0
  9 14  1  0  0  0  0
  9 10  1  0  0  0  0
  9 17  1  0  0  0  0
 10 11  1  0  0  0  0
 10 18  1  0  0  0  0
 10 19  1  0  0  0  0
 11 12  1  0  0  0  0
 11 20  1  0  0  0  0
 11 21  1  0  0  0  0
 12 13  1  0  0  0  0
 12 22  1  0  0  0  0
 12 23  1  0  0  0  0
 13 14  1  0  0  0  0
 13 24  1  0  0  0  0
 13 27  1  0  0  0  0
 14 25  1  0  0  0  0
 14 26  1  0  0  0  0
M  CHG  1   7  -1
M  CHG  1  13   1
M  END
> <s_m_source_file>
AV-unprocessed.smi

> <i_m_source_file_index>
2753

> <i_lp_mmshare_version>
43012

> <i_f3d_flags>
0

> <s_epik_input>
RkMoRikoRiljMVtjSF1bbkhdYyhuMSlbQ0BASF0yW0NIMl1bQ0gyXVtDSDJdW05IXVtDSDJdMg==

> <s_epik_cmdline>
J2VwaWtfcHl0aG9uJywgJy1waCcsICc3LjAnLCAnLXRuJywgJzgnLCAnLW1hJywgJzIwMCcsICctbWV0YWxfYmluZGluZycsICctaW1hZScsICc8aW5maWxlLm1hZT4nLCAnLW9tYWUnLCAnPG91dGZpbGUubWFlPic=

> <r_lp_tautomer_probability>
0.5

> <r_epik_Ionization_Penalty>
6.42345

> <r_epik_Ionization_Penalty_Charging>
5.19935

> <r_epik_Ionization_Penalty_Neutral>
1.22411

> <r_epik_State_Penalty>
5.30226

> <r_epik_Charging_Adjusted_Penalty>
10.5016

> <i_epik_Tot_Q>
0

> <i_epik_Tot_abs_Q>
2

> <r_epik_Metal_State_Penalty>
1.35744

> <b_epik_Metal_Only>
1

> <s_lp_Force_Field>
OPLS_2005

> <r_lp_Energy>
18.3827

> <b_lp_Chiralities_Consistent>
1

> <s_lp_Variant>
AV-unprocessed.smi:2753-6

> <Gold.Version>
5.8.1

> <Gold.Id.Protein>
6NUR|6NUR_protein|mol2

> <Gold.PLP.Fitness>
37.8868

> <Gold.PLP.PLP>
-32.1453

> <Gold.PLP.part.hbond>
-1.4076

> <Gold.PLP.part.metal>
0.0000

> <Gold.PLP.part.buried>
-3.3203

> <Gold.PLP.part.nonpolar>
-28.0895

> <Gold.PLP.part.repulsive>
0.1380

> <Gold.PLP.ligand.clash>
0.0000

> <Gold.PLP.ligand.torsion>
0.1501

> <Gold.PLP.Chemscore.Hbond>
2.0000

> <Gold.PLP.Chemscore.CHOScore>
0.0000

> <Gold.PLP.Chemscore.Metal>
0.0000

> <Gold.Chemscore.Hbonds>
donor molecule, donor type, donor heavy atom, donor atom, acceptor molecule, acceptor atom, score
      L1  H    13    27       P1  8029  2.00

> <Gold.PLP.Chemscore.Internal.Correction>
0.0416

> <Gold.Rescore>
     Score         DG    S(hbond)    S(metal)    S(lipo)     H(rot)  DE(clash)    DE(int)     intcor
     13.52     -13.80       0.73        0.00      72.15       1.00       0.18       0.10       ----

> <Gold.Chemscore.Fitness>
13.5208

> <Gold.Chemscore.DG>
-13.8036

> <Gold.Chemscore.ZeroCoef>
-5.4800

> <Gold.Chemscore.Hbond>
0.7313

> <Gold.Chemscore.Metal>
0.0000

> <Gold.Chemscore.Lipo>
72.1469

> <Gold.Chemscore.Internal_Hbond>
0.0000

> <Gold.Chemscore.DEClash>
0.1832

> <Gold.Chemscore.DEInternal>
0.0996

> <Gold.Chemscore.Rot>
1.0000

> <Gold.Chemscore.Internal.Correction>
   9.000000E+99

> <Gold.Chemscore.Hbonds>
donor molecule, donor type, donor heavy atom, donor atom, acceptor molecule, acceptor atom, score
      L1  H    13    27       P1  8029  0.24

> <Gold.Chemscore.Hbond.Weighted>
-2.4424

> <Gold.Chemscore.Metal.Weighted>
-0.0000

> <Gold.Chemscore.Lipo.Weighted>
-8.4412

> <Gold.Chemscore.Internal_Hbond.Weighted>
0.0000

> <Gold.Chemscore.DEClash.Weighted>
0.1832

> <Gold.Chemscore.DEInternal.Weighted>
0.0996

> <Gold.Chemscore.Rot.Weighted>
2.5600

> <Gold.Chemscore.Internal.Correction.Weighted>
   9.000000E+99

> <Gold.Protein.RotatedTorsions>
[ 6907 6896 6895 6894 ] final   62.62 input  -60.11 | X-H torsion
[ 7974 7965 7964 7962 ] final  138.33 input  175.53 | X-H torsion
[ 8008 7997 7996 7995 ] final  150.79 input   59.86 | X-H torsion
[ 10167 10162 10161 10158 ] final  -85.51 input  -65.29 | X-H torsion
[ 10718 10713 10712 10709 ] final  113.67 input   66.30 | X-H torsion
[ 10763 10752 10751 10750 ] final   30.08 input  -60.55 | X-H torsion
[ 11005 11000 10999 10996 ] final  170.18 input  -57.11 | X-H torsion

> <Gold.Protein.ActiveResidues>
 VAL166  LYS551  ARG553  GLY616  TRP617  ASP618  TYR619  PRO620  LYS621  CYS622 
 ASP623  PHE694  ASN695  SER759  ASP760  ASP761  ALA762  ILE779  LEU786  VAL792 
 PHE793  MET794  SER795  GLU796  ALA797  LYS798  CYS799  TRP800  GLU811  SER814 

> <Gold.Protein.RotatedAtoms>
  152.4186  134.5995  159.9996 H   0  0  0  0  0  0  0  0  0  0  0  0  # atno 6907 bound_to 6896
  151.6152  133.3338  159.3084 H   0  0  0  0  0  0  0  0  0  0  0  0  # atno 6908 bound_to 6896
  150.8075  134.7247  159.6723 H   0  0  0  0  0  0  0  0  0  0  0  0  # atno 6909 bound_to 6896
  144.9383  139.4962  143.5584 H   0  0  0  0  0  0  0  0  0  0  0  0  # atno 7974 bound_to 7965
  156.2701  140.2065  156.6074 H   0  0  0  0  0  0  0  0  0  0  0  0  # atno 8008 bound_to 7997
  154.6859  140.0535  157.0337 H   0  0  0  0  0  0  0  0  0  0  0  0  # atno 8009 bound_to 7997
  155.0935  140.3199  155.4570 H   0  0  0  0  0  0  0  0  0  0  0  0  # atno 8010 bound_to 7997
  140.4030  143.2654  151.9117 H   0  0  0  0  0  0  0  0  0  0  0  0  # atno 10167 bound_to 10162
  157.6325  131.0987  150.7074 H   0  0  0  0  0  0  0  0  0  0  0  0  # atno 10718 bound_to 10713
  153.0392  135.6473  154.0989 H   0  0  0  0  0  0  0  0  0  0  0  0  # atno 10763 bound_to 10752
  154.0699  135.2881  155.3311 H   0  0  0  0  0  0  0  0  0  0  0  0  # atno 10764 bound_to 10752
  154.6601  135.5394  153.8072 H   0  0  0  0  0  0  0  0  0  0  0  0  # atno 10765 bound_to 10752
  140.3056  134.7559  157.3951 H   0  0  0  0  0  0  0  0  0  0  0  0  # atno 11005 bound_to 11000
  146.3275  139.8383  142.8895 LP  0  0  0  0  0  0  0  0  0  0  0  0  # atno 17320 bound_to 7965
  145.3032  141.0200  143.3597 LP  0  0  0  0  0  0  0  0  0  0  0  0  # atno 17321 bound_to 7965
  139.4784  144.5614  151.8233 LP  0  0  0  0  0  0  0  0  0  0  0  0  # atno 17342 bound_to 10162
  140.4719  144.1574  150.5919 LP  0  0  0  0  0  0  0  0  0  0  0  0  # atno 17343 bound_to 10162
  156.7411  130.4739  149.5477 LP  0  0  0  0  0  0  0  0  0  0  0  0  # atno 17370 bound_to 10713
  156.1539  130.6328  151.0631 LP  0  0  0  0  0  0  0  0  0  0  0  0  # atno 17371 bound_to 10713
  140.1070  134.5396  155.8300 LP  0  0  0  0  0  0  0  0  0  0  0  0  # atno 17394 bound_to 11000
  141.2119  133.6712  156.6617 LP  0  0  0  0  0  0  0  0  0  0  0  0  # atno 17395 bound_to 11000

$$$$
