AV-unprocessed.smi:2061|AV-procd|sdf|8377|dock2
  -GOLD-   2272011 53D 1   1.00000     0.00000
 Structure written by MMmdl.
 44 45  0  0  0  0  0  0  0  0  2 V2000
  145.6796  134.0546  162.7296 C   0  0  0  0  0  0  0  0  0  0  0  0
  146.4533  134.9280  161.8022 C   0  0  0  0  0  0  0  0  0  0  0  0
  146.8976  136.2163  161.8953 C   0  0  0  0  0  0  0  0  0  0  0  0
  147.5670  136.4195  160.6574 C   0  0  0  0  0  0  0  0  0  0  0  0
  148.1641  137.5532  160.2591 N   0  5  0  0  0  0  0  0  0  0  0  0
  149.2162  137.5096  159.4095 C   0  0  0  0  0  0  0  0  0  0  0  0
  149.9541  136.5421  159.2099 O   0  0  0  0  0  0  0  0  0  0  0  0
  149.4290  138.6646  158.7615 N   0  0  0  0  0  0  0  0  0  0  0  0
  150.4884  138.9409  157.7928 C   0  0  0  0  0  0  0  0  0  0  0  0
  150.5674  140.4422  157.3944 C   0  0  1  0  0  0  0  0  0  0  0  0
  149.1344  140.9678  157.1223 C   0  0  0  0  0  0  0  0  0  0  0  0
  151.3050  141.2727  158.3773 N   0  0  0  0  0  0  0  0  0  0  0  0
  151.3717  142.6832  157.9837 C   0  0  0  0  0  0  0  0  0  0  0  0
  152.1214  143.5578  159.0049 C   0  0  2  0  0  0  0  0  0  0  0  0
  152.2542  145.0088  158.5305 C   0  0  0  0  0  0  0  0  0  0  0  0
  153.4318  143.0400  159.2060 O   0  0  0  0  0  0  0  0  0  0  0  0
  153.4766  141.6691  159.5941 C   0  0  1  0  0  0  0  0  0  0  0  0
  153.0470  141.4718  161.0581 C   0  0  0  0  0  0  0  0  0  0  0  0
  152.6770  140.8021  158.6011 C   0  0  0  0  0  0  0  0  0  0  0  0
  147.5203  135.3534  159.8764 N   0  0  0  0  0  0  0  0  0  0  0  0
  146.8119  134.3906  160.6053 O   0  0  0  0  0  0  0  0  0  0  0  0
  144.6423  134.3835  162.7916 H   0  0  0  0  0  0  0  0  0  0  0  0
  146.1048  134.0844  163.7328 H   0  0  0  0  0  0  0  0  0  0  0  0
  145.6868  133.0182  162.3913 H   0  0  0  0  0  0  0  0  0  0  0  0
  146.7676  136.9039  162.7173 H   0  0  0  0  0  0  0  0  0  0  0  0
  148.7951  139.4237  158.9635 H   0  0  0  0  0  0  0  0  0  0  0  0
  151.4614  138.5941  158.1447 H   0  0  0  0  0  0  0  0  0  0  0  0
  150.2341  138.3175  156.9383 H   0  0  0  0  0  0  0  0  0  0  0  0
  151.1060  140.4891  156.4466 H   0  0  0  0  0  0  0  0  0  0  0  0
  148.5868  140.3378  156.4228 H   0  0  0  0  0  0  0  0  0  0  0  0
  149.1311  141.9555  156.6648 H   0  0  0  0  0  0  0  0  0  0  0  0
  148.5517  141.0171  158.0426 H   0  0  0  0  0  0  0  0  0  0  0  0
  151.8476  142.7701  157.0056 H   0  0  0  0  0  0  0  0  0  0  0  0
  150.3722  143.1024  157.8875 H   0  0  0  0  0  0  0  0  0  0  0  0
  151.5803  143.5571  159.9515 H   0  0  0  0  0  0  0  0  0  0  0  0
  151.2748  145.4632  158.3779 H   0  0  0  0  0  0  0  0  0  0  0  0
  152.8011  145.0680  157.5892 H   0  0  0  0  0  0  0  0  0  0  0  0
  152.7890  145.6117  159.2649 H   0  0  0  0  0  0  0  0  0  0  0  0
  154.5230  141.3695  159.5293 H   0  0  0  0  0  0  0  0  0  0  0  0
  153.2041  140.4394  161.3713 H   0  0  0  0  0  0  0  0  0  0  0  0
  151.9923  141.6992  161.2110 H   0  0  0  0  0  0  0  0  0  0  0  0
  153.6279  142.1107  161.7236 H   0  0  0  0  0  0  0  0  0  0  0  0
  152.6826  139.7866  158.9916 H   0  0  0  0  0  0  0  0  0  0  0  0
  153.2084  140.7742  157.6486 H   0  0  0  0  0  0  0  0  0  0  0  0
  1  2  1  0  0  0  0
  1 22  1  0  0  0  0
  1 23  1  0  0  0  0
  1 24  1  0  0  0  0
  2 21  1  0  0  0  0
  2  3  2  0  0  0  0
  3  4  1  0  0  0  0
  3 25  1  0  0  0  0
  4  5  1  0  0  0  0
  4 20  2  0  0  0  0
  5  6  1  0  0  0  0
  6  7  2  0  0  0  0
  6  8  1  0  0  0  0
  8  9  1  0  0  0  0
  8 26  1  0  0  0  0
  9 10  1  0  0  0  0
  9 27  1  0  0  0  0
  9 28  1  0  0  0  0
 10 11  1  0  0  0  0
 10 12  1  0  0  0  0
 10 29  1  0  0  0  0
 11 30  1  0  0  0  0
 11 31  1  0  0  0  0
 11 32  1  0  0  0  0
 12 19  1  0  0  0  0
 12 13  1  0  0  0  0
 13 14  1  0  0  0  0
 13 33  1  0  0  0  0
 13 34  1  0  0  0  0
 14 15  1  0  0  0  0
 14 16  1  0  0  0  0
 14 35  1  0  0  0  0
 15 36  1  0  0  0  0
 15 37  1  0  0  0  0
 15 38  1  0  0  0  0
 16 17  1  0  0  0  0
 17 18  1  0  0  0  0
 17 19  1  0  0  0  0
 17 39  1  0  0  0  0
 18 40  1  0  0  0  0
 18 41  1  0  0  0  0
 18 42  1  0  0  0  0
 19 43  1  0  0  0  0
 19 44  1  0  0  0  0
 20 21  1  0  0  0  0
M  CHG  1   5  -1
M  END
> <s_m_source_file>
AV-unprocessed.smi

> <i_m_source_file_index>
2061

> <i_lp_mmshare_version>
43012

> <i_f3d_flags>
0

> <s_epik_input>
W0NIM11jMVtjSF1jKG5vMSlbTkhdQyg9TylbTkhdW0NIMl1bQ0BIXShbQ0gzXSlOMltDSDJdW0NAQEhdKFtDSDNdKU9bQ0BASF0oW0NIM10pW0NIMl0y

> <s_epik_cmdline>
J2VwaWtfcHl0aG9uJywgJy1waCcsICc3LjAnLCAnLXRuJywgJzgnLCAnLW1hJywgJzIwMCcsICctbWV0YWxfYmluZGluZycsICctaW1hZScsICc8aW5maWxlLm1hZT4nLCAnLW9tYWUnLCAnPG91dGZpbGUubWFlPic=

> <r_epik_Ionization_Penalty>
6.88367

> <r_epik_Ionization_Penalty_Charging>
6.57198

> <r_epik_Ionization_Penalty_Neutral>
0.311681

> <r_epik_State_Penalty>
6.77619

> <r_epik_Charging_Adjusted_Penalty>
13.3482

> <i_epik_Tot_Q>
-1

> <i_epik_Tot_abs_Q>
1

> <r_epik_Metal_State_Penalty>
2.70524

> <b_epik_Metal_Only>
1

> <s_lp_Force_Field>
OPLS_2005

> <r_lp_Energy>
24.2039

> <b_lp_Chiralities_Consistent>
1

> <s_lp_Variant>
AV-unprocessed.smi:2061-18

> <Gold.Version>
5.8.1

> <Gold.Id.Protein>
6NUR|6NUR_protein|mol2

> <Gold.PLP.Fitness>
45.4281

> <Gold.PLP.PLP>
-38.0979

> <Gold.PLP.part.hbond>
-3.0000

> <Gold.PLP.part.metal>
0.0000

> <Gold.PLP.part.buried>
-5.0798

> <Gold.PLP.part.nonpolar>
-31.0761

> <Gold.PLP.part.repulsive>
0.2128

> <Gold.PLP.ligand.clash>
0.0000

> <Gold.PLP.ligand.torsion>
0.4844

> <Gold.PLP.Chemscore.Hbond>
2.7169

> <Gold.PLP.Chemscore.CHOScore>
0.0000

> <Gold.PLP.Chemscore.Metal>
0.0000

> <Gold.Chemscore.Hbonds>
donor molecule, donor type, donor heavy atom, donor atom, acceptor molecule, acceptor atom, score
      P1  H  6896  6908       L1     7  1.00
      P1  H  6931  6943       L1     5  1.02
      P1  H  6934  6947       L1     5  1.15

> <Gold.PLP.Chemscore.Internal.Correction>
0.1483

> <Gold.Rescore>
     Score         DG    S(hbond)    S(metal)    S(lipo)     H(rot)  DE(clash)    DE(int)     intcor
     16.56     -17.71       1.35        0.00      99.15       1.52       0.01       1.13       ----

> <Gold.Chemscore.Fitness>
16.5615

> <Gold.Chemscore.DG>
-17.7070

> <Gold.Chemscore.ZeroCoef>
-5.4800

> <Gold.Chemscore.Hbond>
1.3520

> <Gold.Chemscore.Metal>
0.0000

> <Gold.Chemscore.Lipo>
99.1460

> <Gold.Chemscore.Internal_Hbond>
0.0000

> <Gold.Chemscore.DEClash>
0.0141

> <Gold.Chemscore.DEInternal>
1.1314

> <Gold.Chemscore.Rot>
1.5190

> <Gold.Chemscore.Internal.Correction>
   9.000000E+99

> <Gold.Chemscore.Hbonds>
donor molecule, donor type, donor heavy atom, donor atom, acceptor molecule, acceptor atom, score
      P1  H  6896  6908       L1     7  0.99
      P1  H  6931  6943       L1     5  0.07
      P1  H  6934  6947       L1     5  0.43

> <Gold.Chemscore.Hbond.Weighted>
-4.5156

> <Gold.Chemscore.Metal.Weighted>
-0.0000

> <Gold.Chemscore.Lipo.Weighted>
-11.6001

> <Gold.Chemscore.Internal_Hbond.Weighted>
0.0000

> <Gold.Chemscore.DEClash.Weighted>
0.0141

> <Gold.Chemscore.DEInternal.Weighted>
1.1314

> <Gold.Chemscore.Rot.Weighted>
3.8886

> <Gold.Chemscore.Internal.Correction.Weighted>
   9.000000E+99

> <Gold.Protein.RotatedTorsions>
[ 6907 6896 6895 6894 ] final -164.81 input  -60.11 | X-H torsion
[ 7974 7965 7964 7962 ] final -172.99 input  175.53 | X-H torsion
[ 8008 7997 7996 7995 ] final -125.74 input   59.86 | X-H torsion
[ 10167 10162 10161 10158 ] final  -90.00 input  -65.29 | X-H torsion
[ 10718 10713 10712 10709 ] final   75.57 input   66.30 | X-H torsion
[ 10763 10752 10751 10750 ] final  -46.84 input  -60.55 | X-H torsion
[ 11005 11000 10999 10996 ] final  170.15 input  -57.11 | X-H torsion

> <Gold.Protein.ActiveResidues>
 VAL166  LYS551  ARG553  GLY616  TRP617  ASP618  TYR619  PRO620  LYS621  CYS622 
 ASP623  PHE694  ASN695  SER759  ASP760  ASP761  ALA762  ILE779  LEU786  VAL792 
 PHE793  MET794  SER795  GLU796  ALA797  LYS798  CYS799  TRP800  GLU811  SER814 

> <Gold.Protein.RotatedAtoms>
  151.4178  133.3707  159.2751 H   0  0  0  0  0  0  0  0  0  0  0  0  # atno 6907 bound_to 6896
  150.9316  134.8732  159.7565 H   0  0  0  0  0  0  0  0  0  0  0  0  # atno 6908 bound_to 6896
  152.5030  134.4123  159.9505 H   0  0  0  0  0  0  0  0  0  0  0  0  # atno 6909 bound_to 6896
  144.7141  140.1690  143.6369 H   0  0  0  0  0  0  0  0  0  0  0  0  # atno 7974 bound_to 7965
  155.2183  140.0421  157.2944 H   0  0  0  0  0  0  0  0  0  0  0  0  # atno 8008 bound_to 7997
  154.5966  140.2441  155.7819 H   0  0  0  0  0  0  0  0  0  0  0  0  # atno 8009 bound_to 7997
  156.2294  140.2943  156.0159 H   0  0  0  0  0  0  0  0  0  0  0  0  # atno 8010 bound_to 7997
  140.3592  143.2851  151.9635 H   0  0  0  0  0  0  0  0  0  0  0  0  # atno 10167 bound_to 10162
  157.6639  130.9733  150.1373 H   0  0  0  0  0  0  0  0  0  0  0  0  # atno 10718 bound_to 10713
  154.0517  135.6630  153.4801 H   0  0  0  0  0  0  0  0  0  0  0  0  # atno 10763 bound_to 10752
  153.0461  135.5113  154.7745 H   0  0  0  0  0  0  0  0  0  0  0  0  # atno 10764 bound_to 10752
  154.6753  135.3036  154.9653 H   0  0  0  0  0  0  0  0  0  0  0  0  # atno 10765 bound_to 10752
  140.3053  134.7562  157.3948 H   0  0  0  0  0  0  0  0  0  0  0  0  # atno 11005 bound_to 11000
  145.8961  139.2403  143.1521 LP  0  0  0  0  0  0  0  0  0  0  0  0  # atno 17320 bound_to 7965
  145.9856  140.8646  143.0092 LP  0  0  0  0  0  0  0  0  0  0  0  0  # atno 17321 bound_to 7965
  139.4816  144.6008  151.7609 LP  0  0  0  0  0  0  0  0  0  0  0  0  # atno 17342 bound_to 10162
  140.5144  144.0976  150.6004 LP  0  0  0  0  0  0  0  0  0  0  0  0  # atno 17343 bound_to 10162
  156.2205  130.3673  149.8562 LP  0  0  0  0  0  0  0  0  0  0  0  0  # atno 17370 bound_to 10713
  156.6416  130.8707  151.3515 LP  0  0  0  0  0  0  0  0  0  0  0  0  # atno 17371 bound_to 10713
  140.1073  134.5392  155.8298 LP  0  0  0  0  0  0  0  0  0  0  0  0  # atno 17394 bound_to 11000
  141.2120  133.6713  156.6623 LP  0  0  0  0  0  0  0  0  0  0  0  0  # atno 17395 bound_to 11000

$$$$
