#       Name:                AV-unprocessed.smi:1182
#       Creating user name   scv26
#       Creation time:       Fri Mar 27 03:56:08 2020


#       File generated by GOLD software.
#

@<TRIPOS>MOLECULE
AV-unprocessed.smi:1182
    42    43     1
SMALL
NO_CHARGES


@<TRIPOS>ATOM
      1 ****        -0.2293   1.6953   1.0965 O.2            1 S1                 0.0000
      2 ****        -0.8080   0.6176   1.2374 C.2            1 S1                 0.0000
      3 ****        -0.1706  -0.5567   1.3519 N.am           1 S1                 0.0000
      4 ****         1.2790  -0.7479   1.3413 C.3            1 S1                 0.0000
      5 ****         1.8172  -1.2811  -0.0099 C.3            1 S1                 0.0000
      6 ****         1.3550  -2.6145  -0.1362 O.3            1 S1                 0.0000
      7 ****         1.3360  -0.4547  -1.2301 C.3            1 S1                 0.0000
      8 ****         1.9845  -0.8989  -2.5536 C.3            1 S1                 0.0000
      9 ****         3.5164  -0.8946  -2.4601 C.3            1 S1                 0.0000
     10 ****         3.9952  -1.7734  -1.2971 C.3            1 S1                 0.0000
     11 ****         3.3637  -1.3282   0.0340 C.3            1 S1                 0.0000
     12 ****        -2.1413   0.4517   1.2905 N.am           1 S1                 0.0000
     13 ****        -3.1547   1.4441   1.2131 C.ar           1 S1                 0.0000
     14 ****        -4.4780   0.9568   1.3081 C.ar           1 S1                 0.0000
     15 ****        -5.5560   1.8610   1.2445 C.ar           1 S1                 0.0000
     16 ****        -5.2828   3.2314   1.0868 C.ar           1 S1                 0.0000
     17 ****        -3.9372   3.6332   0.9998 C.ar           1 S1                 0.0000
     18 ****        -2.9026   2.7683   1.0607 N.ar           1 S1                 0.0000
     19 ****        -0.7299  -1.3907   1.4535 H              1 S1                 0.0000
     20 ****         1.7780   0.1899   1.5916 H              1 S1                 0.0000
     21 ****         1.5351  -1.4376   2.1466 H              1 S1                 0.0000
     22 ****         1.6961  -2.9728  -0.9414 H              1 S1                 0.0000
     23 ****         0.2519  -0.5116  -1.3324 H              1 S1                 0.0000
     24 ****         1.5696   0.5975  -1.0617 H              1 S1                 0.0000
     25 ****         1.6369  -1.8984  -2.8177 H              1 S1                 0.0000
     26 ****         1.6618  -0.2405  -3.3604 H              1 S1                 0.0000
     27 ****         3.9481  -1.2485  -3.3968 H              1 S1                 0.0000
     28 ****         3.8731   0.1267  -2.3203 H              1 S1                 0.0000
     29 ****         3.7457  -2.8160  -1.4973 H              1 S1                 0.0000
     30 ****         5.0820  -1.7283  -1.2229 H              1 S1                 0.0000
     31 ****         3.7450  -0.3361   0.2800 H              1 S1                 0.0000
     32 ****         3.6998  -1.9858   0.8368 H              1 S1                 0.0000
     33 ****        -2.4694  -0.4955   1.4053 H              1 S1                 0.0000
     34 ****        -4.6704  -0.0995   1.4290 H              1 S1                 0.0000
     35 ****        -6.5742   1.5080   1.3160 H              1 S1                 0.0000
     36 ****        -6.0825   3.9553   1.0343 H              1 S1                 0.0000
     37 ****        -3.6841   4.6760   0.8786 H              1 S1                 0.0000
     38 ****         0.7697   1.7256   1.0623 LP             1 S1                 0.0000
     39 ****        -0.7582   2.5401   1.0163 LP             1 S1                 0.0000
     40 ****         0.3553  -2.6249  -0.1585 LP             1 S1                 0.0000
     41 ****         1.6768  -3.1585   0.6388 LP             1 S1                 0.0000
     42 ****        -1.9615   3.0997   0.9943 LP             1 S1                 0.0000
@<TRIPOS>BOND
    1    1    2 2     
    2    2    3 am    
    3    2   12 am    
    4    3    4 1     
    5    3   19 1     
    6    4    5 1     
    7    4   20 1     
    8    4   21 1     
    9    5   11 1     
   10    5    6 1     
   11    5    7 1     
   12    6   22 1     
   13    7    8 1     
   14    7   23 1     
   15    7   24 1     
   16    8    9 1     
   17    8   25 1     
   18    8   26 1     
   19    9   10 1     
   20    9   27 1     
   21    9   28 1     
   22   10   11 1     
   23   10   29 1     
   24   10   30 1     
   25   11   31 1     
   26   11   32 1     
   27   12   13 1     
   28   12   33 1     
   29   13   18 ar    
   30   13   14 ar    
   31   14   15 ar    
   32   14   34 1     
   33   15   16 ar    
   34   15   35 1     
   35   16   17 ar    
   36   16   36 1     
   37   17   18 ar    
   38   17   37 1     
   39    1   38 1     
   40    1   39 1     
   41    6   40 1     
   42    6   41 1     
   43   18   42 1     
@<TRIPOS>SUBSTRUCTURE
      1 S1             1
@<TRIPOS>SET
LONE_PAIRS      STATIC     ATOMS    <user>   **** ""
5 38 39 40 41 42
DONOR_HYDROGENS      STATIC     ATOMS    <user>   **** ""
3 19 22 33
ATOM$BLUE        STATIC     ATOMS    COLORGROUP SYSTEM
5 38 39 40 41 42
ATOM$RED        STATIC     ATOMS    COLORGROUP SYSTEM
3 19 22 33
