AV-unprocessed.smi:3244|AV-procd|sdf|12401|dock6
  -GOLD-   2272018273D 1   1.00000     0.00000
 Structure written by MMmdl.
 40 41  0  0  0  0  0  0  0  0  1 V2000
  152.8746  142.7357  162.0674 C   0  0  0  0  0  0  0  0  0  0  0  0
  153.0918  142.7903  160.5465 C   0  0  0  0  0  0  0  0  0  0  0  0
  151.8269  142.9409  159.8062 N   0  0  0  0  0  0  0  0  0  0  0  0
  151.4710  142.0263  158.8668 C   0  0  0  0  0  0  0  0  0  0  0  0
  152.0957  140.9775  158.7014 O   0  0  0  0  0  0  0  0  0  0  0  0
  150.2515  142.2730  157.9632 C   0  0  0  0  0  0  0  0  0  0  0  0
  150.6174  142.5002  156.5553 N   0  0  0  0  0  0  0  0  0  0  0  0
  150.4255  141.3366  155.6940 C   0  0  1  0  0  0  0  0  0  0  0  0
  151.5673  140.3483  155.9855 C   0  0  0  0  0  0  0  0  0  0  0  0
  149.0178  140.7125  155.8766 C   0  0  0  0  0  0  0  0  0  0  0  0
  147.9585  141.4283  155.1828 N   0  0  0  0  0  0  0  0  0  0  0  0
  147.7921  141.6086  153.8253 C   0  0  0  0  0  0  0  0  0  0  0  0
  146.6581  142.3481  153.6484 C   0  0  0  0  0  0  0  0  0  0  0  0
  146.1955  142.5796  154.9738 C   0  0  0  0  0  0  0  0  0  0  0  0
  146.9780  142.0317  155.8882 N   0  0  0  0  0  0  0  0  0  0  0  0
  151.1522  144.1982  160.0042 C   0  0  0  0  0  0  0  0  0  0  0  0
  150.9543  145.1563  158.8425 C   0  0  0  0  0  0  0  0  0  0  0  0
  151.9311  145.4986  159.9330 C   0  0  0  0  0  0  0  0  0  0  0  0
  153.8177  142.5608  162.5852 H   0  0  0  0  0  0  0  0  0  0  0  0
  152.1933  141.9285  162.3381 H   0  0  0  0  0  0  0  0  0  0  0  0
  152.4610  143.6683  162.4509 H   0  0  0  0  0  0  0  0  0  0  0  0
  153.7686  143.6094  160.2977 H   0  0  0  0  0  0  0  0  0  0  0  0
  153.6193  141.8855  160.2475 H   0  0  0  0  0  0  0  0  0  0  0  0
  149.5708  141.4249  158.0569 H   0  0  0  0  0  0  0  0  0  0  0  0
  149.6823  143.1266  158.3262 H   0  0  0  0  0  0  0  0  0  0  0  0
  150.1205  143.2918  156.1733 H   0  0  0  0  0  0  0  0  0  0  0  0
  150.5344  141.6565  154.6565 H   0  0  0  0  0  0  0  0  0  0  0  0
  151.4676  139.4481  155.3787 H   0  0  0  0  0  0  0  0  0  0  0  0
  151.5856  140.0433  157.0325 H   0  0  0  0  0  0  0  0  0  0  0  0
  152.5375  140.7906  155.7565 H   0  0  0  0  0  0  0  0  0  0  0  0
  148.9974  139.6678  155.5649 H   0  0  0  0  0  0  0  0  0  0  0  0
  148.7680  140.7066  156.9383 H   0  0  0  0  0  0  0  0  0  0  0  0
  148.4857  141.1974  153.1065 H   0  0  0  0  0  0  0  0  0  0  0  0
  146.2254  142.6751  152.7145 H   0  0  0  0  0  0  0  0  0  0  0  0
  145.3226  143.1271  155.2971 H   0  0  0  0  0  0  0  0  0  0  0  0
  150.3359  144.1710  160.7239 H   0  0  0  0  0  0  0  0  0  0  0  0
  151.3810  144.9076  157.8730 H   0  0  0  0  0  0  0  0  0  0  0  0
  150.0219  145.7164  158.8093 H   0  0  0  0  0  0  0  0  0  0  0  0
  151.6541  146.2860  160.6309 H   0  0  0  0  0  0  0  0  0  0  0  0
  152.9867  145.4583  159.6715 H   0  0  0  0  0  0  0  0  0  0  0  0
  1  2  1  0  0  0  0
  1 19  1  0  0  0  0
  1 20  1  0  0  0  0
  1 21  1  0  0  0  0
  2  3  1  0  0  0  0
  2 22  1  0  0  0  0
  2 23  1  0  0  0  0
  3  4  1  0  0  0  0
  3 16  1  0  0  0  0
  4  5  2  0  0  0  0
  4  6  1  0  0  0  0
  6  7  1  0  0  0  0
  6 24  1  0  0  0  0
  6 25  1  0  0  0  0
  7  8  1  0  0  0  0
  7 26  1  0  0  0  0
  8  9  1  0  0  0  0
  8 10  1  0  0  0  0
  8 27  1  0  0  0  0
  9 28  1  0  0  0  0
  9 29  1  0  0  0  0
  9 30  1  0  0  0  0
 10 11  1  0  0  0  0
 10 31  1  0  0  0  0
 10 32  1  0  0  0  0
 11 15  1  0  0  0  0
 11 12  1  0  0  0  0
 12 13  2  0  0  0  0
 12 33  1  0  0  0  0
 13 14  1  0  0  0  0
 13 34  1  0  0  0  0
 14 15  2  0  0  0  0
 14 35  1  0  0  0  0
 16 18  1  0  0  0  0
 16 17  1  0  0  0  0
 16 36  1  0  0  0  0
 17 18  1  0  0  0  0
 17 37  1  0  0  0  0
 17 38  1  0  0  0  0
 18 39  1  0  0  0  0
 18 40  1  0  0  0  0
M  END
> <s_m_source_file>
AV-unprocessed.smi

> <i_m_source_file_index>
3244

> <i_lp_mmshare_version>
43012

> <i_f3d_flags>
0

> <s_epik_input>
W0NIMl0xW0NIMl1bQ0hdMU4oW0NIMl1bQ0gzXSlDKD1PKVtDSDJdW05IXVtDQEhdKFtDSDNdKVtDSDJdbjJbY0hdW2NIXVtjSF1uMg==

> <s_epik_cmdline>
J2VwaWtfcHl0aG9uJywgJy1waCcsICc3LjAnLCAnLXRuJywgJzgnLCAnLW1hJywgJzIwMCcsICctbWV0YWxfYmluZGluZycsICctaW1hZScsICc8aW5maWxlLm1hZT4nLCAnLW9tYWUnLCAnPG91dGZpbGUubWFlPic=

> <r_lp_tautomer_probability>
1

> <r_epik_Ionization_Penalty>
1.02506

> <r_epik_Ionization_Penalty_Charging>
0

> <r_epik_Ionization_Penalty_Neutral>
1.02506

> <r_epik_State_Penalty>
1.07563

> <r_epik_Charging_Adjusted_Penalty>
1.07563

> <i_epik_Tot_Q>
0

> <i_epik_Tot_abs_Q>
0

> <r_epik_Metal_State_Penalty>
1.07558

> <b_epik_Metal_Only>
0

> <s_lp_Force_Field>
OPLS_2005

> <r_lp_Energy>
38.4793

> <b_lp_Chiralities_Consistent>
1

> <s_lp_Variant>
AV-unprocessed.smi:3244-4

> <Gold.Version>
5.8.1

> <Gold.Id.Protein>
6NUR|6NUR_protein|mol2

> <Gold.PLP.Fitness>
50.0889

> <Gold.PLP.PLP>
-45.2597

> <Gold.PLP.part.hbond>
-1.0000

> <Gold.PLP.part.metal>
0.0000

> <Gold.PLP.part.buried>
-7.5454

> <Gold.PLP.part.nonpolar>
-36.7373

> <Gold.PLP.part.repulsive>
0.1369

> <Gold.PLP.ligand.clash>
0.0000

> <Gold.PLP.ligand.torsion>
0.7973

> <Gold.PLP.Chemscore.Hbond>
1.0000

> <Gold.PLP.Chemscore.CHOScore>
1.0000

> <Gold.PLP.Chemscore.Metal>
0.0000

> <Gold.Chemscore.Hbonds>
donor molecule, donor type, donor heavy atom, donor atom, acceptor molecule, acceptor atom, score
      L1  H     7    26       P1  8028  1.00
      L1  C    12    33       P1  7957  1.00

> <Gold.PLP.Chemscore.Internal.Correction>
0.4238

> <Gold.Rescore>
     Score         DG    S(hbond)    S(metal)    S(lipo)     H(rot)  DE(clash)    DE(int)     intcor
     13.51     -15.65       0.99        0.00     101.36       1.95       0.00       2.14       ----

> <Gold.Chemscore.Fitness>
13.5087

> <Gold.Chemscore.DG>
-15.6459

> <Gold.Chemscore.ZeroCoef>
-5.4800

> <Gold.Chemscore.Hbond>
0.9915

> <Gold.Chemscore.Metal>
0.0000

> <Gold.Chemscore.Lipo>
101.3599

> <Gold.Chemscore.Internal_Hbond>
0.0000

> <Gold.Chemscore.DEClash>
0.0009

> <Gold.Chemscore.DEInternal>
2.1363

> <Gold.Chemscore.Rot>
1.9550

> <Gold.Chemscore.Internal.Correction>
   9.000000E+99

> <Gold.Chemscore.Hbonds>
donor molecule, donor type, donor heavy atom, donor atom, acceptor molecule, acceptor atom, score
      L1  H     7    26       P1  8028  0.99

> <Gold.Chemscore.Hbond.Weighted>
-3.3115

> <Gold.Chemscore.Metal.Weighted>
-0.0000

> <Gold.Chemscore.Lipo.Weighted>
-11.8591

> <Gold.Chemscore.Internal_Hbond.Weighted>
0.0000

> <Gold.Chemscore.DEClash.Weighted>
0.0009

> <Gold.Chemscore.DEInternal.Weighted>
2.1363

> <Gold.Chemscore.Rot.Weighted>
5.0047

> <Gold.Chemscore.Internal.Correction.Weighted>
   9.000000E+99

> <Gold.Protein.RotatedTorsions>
[ 6907 6896 6895 6894 ] final -148.18 input  -60.11 | X-H torsion
[ 7974 7965 7964 7962 ] final  -28.64 input  175.53 | X-H torsion
[ 8008 7997 7996 7995 ] final  -58.39 input   59.86 | X-H torsion
[ 10167 10162 10161 10158 ] final  -90.45 input  -65.29 | X-H torsion
[ 10718 10713 10712 10709 ] final   86.74 input   66.30 | X-H torsion
[ 10763 10752 10751 10750 ] final  119.44 input  -60.55 | X-H torsion
[ 11005 11000 10999 10996 ] final -137.18 input  -57.11 | X-H torsion

> <Gold.Protein.ActiveResidues>
 VAL166  LYS551  ARG553  GLY616  TRP617  ASP618  TYR619  PRO620  LYS621  CYS622 
 ASP623  PHE694  ASN695  SER759  ASP760  ASP761  ALA762  ILE779  LEU786  VAL792 
 PHE793  MET794  SER795  GLU796  ALA797  LYS798  CYS799  TRP800  GLU811  SER814 

> <Gold.Protein.RotatedAtoms>
  151.1662  133.4813  159.2593 H   0  0  0  0  0  0  0  0  0  0  0  0  # atno 6907 bound_to 6896
  151.1403  135.0176  159.8632 H   0  0  0  0  0  0  0  0  0  0  0  0  # atno 6908 bound_to 6896
  152.5462  134.1556  159.8590 H   0  0  0  0  0  0  0  0  0  0  0  0  # atno 6909 bound_to 6896
  146.1273  140.5309  142.8709 H   0  0  0  0  0  0  0  0  0  0  0  0  # atno 7974 bound_to 7965
  154.4307  140.1085  156.5949 H   0  0  0  0  0  0  0  0  0  0  0  0  # atno 8008 bound_to 7997
  155.5973  140.3493  155.4565 H   0  0  0  0  0  0  0  0  0  0  0  0  # atno 8009 bound_to 7997
  156.0200  140.1237  157.0356 H   0  0  0  0  0  0  0  0  0  0  0  0  # atno 8010 bound_to 7997
  140.3548  143.2872  151.9684 H   0  0  0  0  0  0  0  0  0  0  0  0  # atno 10167 bound_to 10162
  157.6932  131.0228  150.3019 H   0  0  0  0  0  0  0  0  0  0  0  0  # atno 10718 bound_to 10713
  153.5831  135.3480  155.2882 H   0  0  0  0  0  0  0  0  0  0  0  0  # atno 10763 bound_to 10752
  154.8664  135.4187  154.2598 H   0  0  0  0  0  0  0  0  0  0  0  0  # atno 10764 bound_to 10752
  153.3389  135.7048  153.6954 H   0  0  0  0  0  0  0  0  0  0  0  0  # atno 10765 bound_to 10752
  140.8735  134.2021  157.4636 H   0  0  0  0  0  0  0  0  0  0  0  0  # atno 11005 bound_to 11000
  144.7655  140.5521  143.6706 LP  0  0  0  0  0  0  0  0  0  0  0  0  # atno 17320 bound_to 7965
  145.5337  139.1475  143.3485 LP  0  0  0  0  0  0  0  0  0  0  0  0  # atno 17321 bound_to 7965
  139.4821  144.6044  151.7547 LP  0  0  0  0  0  0  0  0  0  0  0  0  # atno 17342 bound_to 10162
  140.5184  144.0917  150.6015 LP  0  0  0  0  0  0  0  0  0  0  0  0  # atno 17343 bound_to 10162
  156.3533  130.3834  149.7311 LP  0  0  0  0  0  0  0  0  0  0  0  0  # atno 17370 bound_to 10713
  156.4781  130.8028  151.3043 LP  0  0  0  0  0  0  0  0  0  0  0  0  # atno 17371 bound_to 10713
  139.8714  134.9785  156.5000 LP  0  0  0  0  0  0  0  0  0  0  0  0  # atno 17394 bound_to 11000
  140.8545  133.8107  155.9202 LP  0  0  0  0  0  0  0  0  0  0  0  0  # atno 17395 bound_to 11000

$$$$
