AV-unprocessed.smi:203|AV-procd|sdf|1593|dock6
  -GOLD-   2262019493D 1   1.00000     0.00000
 Structure written by MMmdl.
 57 61  0  0  0  0  0  0  0  0  1 V2000
  153.2644  136.8481  156.2773 O   0  0  0  0  0  0  0  0  0  0  0  0
  152.7388  137.5708  157.1208 C   0  0  0  0  0  0  0  0  0  0  0  0
  152.2793  138.9916  156.8387 C   0  0  0  0  0  0  0  0  0  0  0  0
  151.4435  139.3280  158.0874 C   0  0  2  0  0  0  0  0  0  0  0  0
  151.4139  140.8242  158.5298 C   0  0  1  0  0  0  0  0  0  0  0  0
  152.6711  141.2478  159.3356 C   0  0  0  0  0  0  0  0  0  0  0  0
  152.6110  142.7236  159.7521 C   0  0  0  0  0  0  0  0  0  0  0  0
  152.4135  143.6072  158.5168 C   0  0  0  0  0  0  0  0  0  0  0  0
  151.1606  143.1716  157.7469 C   0  0  0  0  0  0  0  0  0  0  0  0
  151.2137  141.7514  157.4003 N   0  0  0  0  0  0  0  0  0  0  0  0
  150.2209  141.4548  156.5310 C   0  0  0  0  0  0  0  0  0  0  0  0
  150.5811  140.8975  155.3488 N   0  0  0  0  0  0  0  0  0  0  0  0
  149.6465  140.5829  154.4469 C   0  0  0  0  0  0  0  0  0  0  0  0
  148.3238  140.7450  154.5235 N   0  0  0  0  0  0  0  0  0  0  0  0
  147.9615  141.3156  155.7084 C   0  0  0  0  0  0  0  0  0  0  0  0
  148.8377  141.7018  156.7604 C   0  0  0  0  0  0  0  0  0  0  0  0
  148.1089  142.2565  157.8058 N   0  0  0  0  0  0  0  0  0  0  0  0
  146.8720  142.2076  157.3920 C   0  0  0  0  0  0  0  0  0  0  0  0
  146.6940  141.6635  156.1407 N   0  0  0  0  0  0  0  0  0  0  0  0
  145.4361  141.5110  155.4331 C   0  0  0  0  0  0  0  0  0  0  0  0
  144.2633  142.2321  156.1310 C   0  0  2  0  0  0  0  0  0  0  0  0
  143.0683  141.7380  155.5602 O   0  0  0  0  0  0  0  0  0  0  0  0
  144.2918  143.7712  155.9938 C   0  0  1  0  0  0  0  0  0  0  0  0
  144.1998  144.2892  154.5578 C   0  0  0  0  0  0  0  0  0  0  0  0
  143.7057  145.7157  154.7334 C   0  0  0  0  0  0  0  0  0  0  0  0
  143.0615  145.7111  156.1225 C   0  0  0  0  0  0  0  0  0  0  0  0
  143.1310  144.3613  156.5606 O   0  0  0  0  0  0  0  0  0  0  0  0
  151.8914  138.3098  159.1552 C   0  0  0  0  0  0  0  0  0  0  0  0
  152.4893  137.2355  158.3864 N   0  0  0  0  0  0  0  0  0  0  0  0
  153.1549  139.6282  156.7243 H   0  0  0  0  0  0  0  0  0  0  0  0
  151.6902  139.0476  155.9227 H   0  0  0  0  0  0  0  0  0  0  0  0
  150.4217  139.0289  157.8495 H   0  0  0  0  0  0  0  0  0  0  0  0
  150.5602  140.9459  159.1970 H   0  0  0  0  0  0  0  0  0  0  0  0
  152.7845  140.6456  160.2349 H   0  0  0  0  0  0  0  0  0  0  0  0
  153.5742  141.0926  158.7464 H   0  0  0  0  0  0  0  0  0  0  0  0
  151.7896  142.8775  160.4531 H   0  0  0  0  0  0  0  0  0  0  0  0
  153.5262  143.0050  160.2737 H   0  0  0  0  0  0  0  0  0  0  0  0
  152.3267  144.6532  158.8121 H   0  0  0  0  0  0  0  0  0  0  0  0
  153.2873  143.5363  157.8679 H   0  0  0  0  0  0  0  0  0  0  0  0
  150.2722  143.3621  158.3512 H   0  0  0  0  0  0  0  0  0  0  0  0
  151.0638  143.7746  156.8425 H   0  0  0  0  0  0  0  0  0  0  0  0
  150.0108  140.1395  153.5321 H   0  0  0  0  0  0  0  0  0  0  0  0
  146.0505  142.5783  157.9876 H   0  0  0  0  0  0  0  0  0  0  0  0
  145.5622  141.8865  154.4166 H   0  0  0  0  0  0  0  0  0  0  0  0
  145.2252  140.4445  155.3449 H   0  0  0  0  0  0  0  0  0  0  0  0
  144.2533  141.9675  157.1890 H   0  0  0  0  0  0  0  0  0  0  0  0
  143.2894  141.2248  154.7982 H   0  0  0  0  0  0  0  0  0  0  0  0
  145.1795  144.1814  156.4798 H   0  0  0  0  0  0  0  0  0  0  0  0
  145.1485  144.2330  154.0236 H   0  0  0  0  0  0  0  0  0  0  0  0
  143.4619  143.7125  153.9982 H   0  0  0  0  0  0  0  0  0  0  0  0
  144.5357  146.4226  154.7043 H   0  0  0  0  0  0  0  0  0  0  0  0
  142.9989  145.9930  153.9510 H   0  0  0  0  0  0  0  0  0  0  0  0
  143.6223  146.3448  156.8111 H   0  0  0  0  0  0  0  0  0  0  0  0
  142.0275  146.0565  156.1053 H   0  0  0  0  0  0  0  0  0  0  0  0
  152.6442  138.6989  159.8375 H   0  0  0  0  0  0  0  0  0  0  0  0
  151.0519  137.9488  159.7504 H   0  0  0  0  0  0  0  0  0  0  0  0
  152.7127  136.3367  158.7885 H   0  0  0  0  0  0  0  0  0  0  0  0
  1  2  2  0  0  0  0
  2 29  1  0  0  0  0
  2  3  1  0  0  0  0
  3  4  1  0  0  0  0
  3 30  1  0  0  0  0
  3 31  1  0  0  0  0
  4  5  1  0  0  0  0
  4 28  1  0  0  0  0
  4 32  1  0  0  0  0
  5 10  1  0  0  0  0
  5  6  1  0  0  0  0
  5 33  1  0  0  0  0
  6  7  1  0  0  0  0
  6 34  1  0  0  0  0
  6 35  1  0  0  0  0
  7  8  1  0  0  0  0
  7 36  1  0  0  0  0
  7 37  1  0  0  0  0
  8  9  1  0  0  0  0
  8 38  1  0  0  0  0
  8 39  1  0  0  0  0
  9 10  1  0  0  0  0
  9 40  1  0  0  0  0
  9 41  1  0  0  0  0
 10 11  1  0  0  0  0
 11 16  1  0  0  0  0
 11 12  2  0  0  0  0
 12 13  1  0  0  0  0
 13 14  2  0  0  0  0
 13 42  1  0  0  0  0
 14 15  1  0  0  0  0
 15 19  1  0  0  0  0
 15 16  2  0  0  0  0
 16 17  1  0  0  0  0
 17 18  2  0  0  0  0
 18 19  1  0  0  0  0
 18 43  1  0  0  0  0
 19 20  1  0  0  0  0
 20 21  1  0  0  0  0
 20 44  1  0  0  0  0
 20 45  1  0  0  0  0
 21 22  1  0  0  0  0
 21 23  1  0  0  0  0
 21 46  1  0  0  0  0
 22 47  1  0  0  0  0
 23 27  1  0  0  0  0
 23 24  1  0  0  0  0
 23 48  1  0  0  0  0
 24 25  1  0  0  0  0
 24 49  1  0  0  0  0
 24 50  1  0  0  0  0
 25 26  1  0  0  0  0
 25 51  1  0  0  0  0
 25 52  1  0  0  0  0
 26 27  1  0  0  0  0
 26 53  1  0  0  0  0
 26 54  1  0  0  0  0
 28 29  1  0  0  0  0
 28 55  1  0  0  0  0
 28 56  1  0  0  0  0
 29 57  1  0  0  0  0
M  END
> <s_m_source_file>
AV-unprocessed.smi

> <i_m_source_file_index>
203

> <i_lp_mmshare_version>
43012

> <i_f3d_flags>
0

> <s_epik_input>
Tz1DMVtDSDJdW0NASF0oW0NIMl1bTkhdMSlbQ0BASF0yW0NIMl1bQ0gyXVtDSDJdW0NIMl1OMmMobltjSF1uMyljKGMzNCluW2NIXW40W0NIMl1bQ0BIXShbT0hdKVtDQEBIXTVbQ0gyXVtDSDJdW0NIMl1PNQ==

> <s_epik_cmdline>
J2VwaWtfcHl0aG9uJywgJy1waCcsICc3LjAnLCAnLXRuJywgJzgnLCAnLW1hJywgJzIwMCcsICctbWV0YWxfYmluZGluZycsICctaW1hZScsICc8aW5maWxlLm1hZT4nLCAnLW9tYWUnLCAnPG91dGZpbGUubWFlPic=

> <r_lp_tautomer_probability>
1

> <r_epik_Ionization_Penalty>
0.00175146

> <r_epik_Ionization_Penalty_Charging>
0

> <r_epik_Ionization_Penalty_Neutral>
0.00175146

> <r_epik_State_Penalty>
0.00109045

> <r_epik_Charging_Adjusted_Penalty>
0.00109045

> <i_epik_Tot_Q>
0

> <i_epik_Tot_abs_Q>
0

> <r_epik_Metal_State_Penalty>
-0

> <b_epik_Metal_Only>
0

> <s_lp_Force_Field>
OPLS_2005

> <r_lp_Energy>
55.5443

> <b_lp_Chiralities_Consistent>
1

> <s_lp_Variant>
AV-unprocessed.smi:203-12

> <Gold.Version>
5.8.1

> <Gold.Id.Protein>
6NUR|6NUR_protein|mol2

> <Gold.PLP.Fitness>
50.5354

> <Gold.PLP.PLP>
-42.8761

> <Gold.PLP.part.hbond>
-4.0000

> <Gold.PLP.part.metal>
0.0000

> <Gold.PLP.part.buried>
-2.6756

> <Gold.PLP.part.nonpolar>
-36.8059

> <Gold.PLP.part.repulsive>
0.6391

> <Gold.PLP.ligand.clash>
0.0000

> <Gold.PLP.ligand.torsion>
0.7022

> <Gold.PLP.Chemscore.Hbond>
1.9280

> <Gold.PLP.Chemscore.CHOScore>
1.0000

> <Gold.PLP.Chemscore.Metal>
0.0000

> <Gold.Chemscore.Hbonds>
donor molecule, donor type, donor heavy atom, donor atom, acceptor molecule, acceptor atom, score
      L1  H    22    47       P1 10175  0.03
      P1  H 10752 10763       L1     1  0.72
      L1  C    13    42       P1  7957  1.00

> <Gold.PLP.Chemscore.Internal.Correction>
0.2797

> <Gold.Rescore>
     Score         DG    S(hbond)    S(metal)    S(lipo)     H(rot)  DE(clash)    DE(int)     intcor
     13.64     -14.37       1.50        0.00      92.67       2.72       0.19       0.54       ----

> <Gold.Chemscore.Fitness>
13.6438

> <Gold.Chemscore.DG>
-14.3685

> <Gold.Chemscore.ZeroCoef>
-5.4800

> <Gold.Chemscore.Hbond>
1.4975

> <Gold.Chemscore.Metal>
0.0000

> <Gold.Chemscore.Lipo>
92.6720

> <Gold.Chemscore.Internal_Hbond>
0.0000

> <Gold.Chemscore.DEClash>
0.1868

> <Gold.Chemscore.DEInternal>
0.5379

> <Gold.Chemscore.Rot>
2.7171

> <Gold.Chemscore.Internal.Correction>
   9.000000E+99

> <Gold.Chemscore.Hbonds>
donor molecule, donor type, donor heavy atom, donor atom, acceptor molecule, acceptor atom, score
      L1  H    22    47       P1 10175  0.05
      P1  H 10752 10763       L1     1  0.72

> <Gold.Chemscore.Hbond.Weighted>
-5.0016

> <Gold.Chemscore.Metal.Weighted>
-0.0000

> <Gold.Chemscore.Lipo.Weighted>
-10.8426

> <Gold.Chemscore.Internal_Hbond.Weighted>
0.0000

> <Gold.Chemscore.DEClash.Weighted>
0.1868

> <Gold.Chemscore.DEInternal.Weighted>
0.5379

> <Gold.Chemscore.Rot.Weighted>
6.9557

> <Gold.Chemscore.Internal.Correction.Weighted>
   9.000000E+99

> <Gold.Protein.RotatedTorsions>
[ 6907 6896 6895 6894 ] final -127.49 input  -60.11 | X-H torsion
[ 7974 7965 7964 7962 ] final  105.43 input  175.53 | X-H torsion
[ 8008 7997 7996 7995 ] final -150.51 input   59.86 | X-H torsion
[ 10167 10162 10161 10158 ] final  120.40 input  -65.29 | X-H torsion
[ 10718 10713 10712 10709 ] final  177.15 input   66.30 | X-H torsion
[ 10763 10752 10751 10750 ] final  112.59 input  -60.55 | X-H torsion
[ 11005 11000 10999 10996 ] final -163.01 input  -57.11 | X-H torsion

> <Gold.Protein.ActiveResidues>
 VAL166  LYS551  ARG553  GLY616  TRP617  ASP618  TYR619  PRO620  LYS621  CYS622 
 ASP623  PHE694  ASN695  SER759  ASP760  ASP761  ALA762  ILE779  LEU786  VAL792 
 PHE793  MET794  SER795  GLU796  ALA797  LYS798  CYS799  TRP800  GLU811  SER814 

> <Gold.Protein.RotatedAtoms>
  150.9078  133.7036  159.2862 H   0  0  0  0  0  0  0  0  0  0  0  0  # atno 6907 bound_to 6896
  151.4532  135.1030  159.9713 H   0  0  0  0  0  0  0  0  0  0  0  0  # atno 6908 bound_to 6896
  152.4913  133.8459  159.7232 H   0  0  0  0  0  0  0  0  0  0  0  0  # atno 6909 bound_to 6896
  145.3198  139.2516  143.3718 H   0  0  0  0  0  0  0  0  0  0  0  0  # atno 7974 bound_to 7965
  155.6248  140.0685  157.2667 H   0  0  0  0  0  0  0  0  0  0  0  0  # atno 8008 bound_to 7997
  154.4220  140.1778  156.1458 H   0  0  0  0  0  0  0  0  0  0  0  0  # atno 8009 bound_to 7997
  155.9981  140.3339  155.6821 H   0  0  0  0  0  0  0  0  0  0  0  0  # atno 8010 bound_to 7997
  139.5985  144.7049  151.3120 H   0  0  0  0  0  0  0  0  0  0  0  0  # atno 10167 bound_to 10162
  156.9097  130.9905  151.3023 H   0  0  0  0  0  0  0  0  0  0  0  0  # atno 10718 bound_to 10713
  153.4801  135.3681  155.2437 H   0  0  0  0  0  0  0  0  0  0  0  0  # atno 10763 bound_to 10752
  154.8755  135.3952  154.3710 H   0  0  0  0  0  0  0  0  0  0  0  0  # atno 10764 bound_to 10752
  153.4312  135.7082  153.6294 H   0  0  0  0  0  0  0  0  0  0  0  0  # atno 10765 bound_to 10752
  140.6028  134.4929  157.5207 H   0  0  0  0  0  0  0  0  0  0  0  0  # atno 11005 bound_to 11000
  146.3086  140.3753  142.8678 LP  0  0  0  0  0  0  0  0  0  0  0  0  # atno 17320 bound_to 7965
  144.8948  140.7569  143.5904 LP  0  0  0  0  0  0  0  0  0  0  0  0  # atno 17321 bound_to 7965
  140.7231  143.7081  150.7791 LP  0  0  0  0  0  0  0  0  0  0  0  0  # atno 17342 bound_to 10162
  140.0652  143.5115  152.2607 LP  0  0  0  0  0  0  0  0  0  0  0  0  # atno 17343 bound_to 10162
  157.5975  130.8488  149.8752 LP  0  0  0  0  0  0  0  0  0  0  0  0  # atno 17370 bound_to 10713
  156.0542  130.3711  150.1130 LP  0  0  0  0  0  0  0  0  0  0  0  0  # atno 17371 bound_to 10713
  139.9225  134.8121  156.1168 LP  0  0  0  0  0  0  0  0  0  0  0  0  # atno 17394 bound_to 11000
  141.0860  133.6734  156.2438 LP  0  0  0  0  0  0  0  0  0  0  0  0  # atno 17395 bound_to 11000

$$$$
