AV-unprocessed.smi:653|AV-procd|sdf|3211|dock3
  -GOLD-   22720 0153D 1   1.00000     0.00000
 Structure written by MMmdl.
 45 46  0  0  0  0  0  0  0  0  2 V2000
  143.7168  132.7384  148.6938 C   0  0  0  0  0  0  0  0  0  0  0  0
  144.3761  133.2917  149.9395 C   0  0  0  0  0  0  0  0  0  0  0  0
  145.6809  132.9207  150.3295 C   0  0  0  0  0  0  0  0  0  0  0  0
  146.2356  133.4809  151.4989 C   0  0  0  0  0  0  0  0  0  0  0  0
  145.4763  134.4017  152.2546 C   0  0  0  0  0  0  0  0  0  0  0  0
  146.0473  135.0272  153.5148 C   0  0  0  0  0  0  0  0  0  0  0  0
  145.9764  136.5522  153.4318 C   0  0  0  0  0  0  0  0  0  0  0  0
  144.8827  137.1139  153.3822 O   0  0  0  0  0  0  0  0  0  0  0  0
  147.1475  137.2073  153.4134 N   0  0  0  0  0  0  0  0  0  0  0  0
  147.2950  138.6568  153.3402 C   0  0  0  0  0  0  0  0  0  0  0  0
  148.3072  139.1847  154.3755 C   0  0  1  0  0  0  0  0  0  0  0  0
  149.5983  138.3918  154.4468 C   0  0  0  0  0  0  0  0  0  0  0  0
  150.5281  139.3803  155.1393 C   0  0  0  0  0  0  0  0  0  0  0  0
  150.1353  140.6634  154.6644 O   0  0  0  0  0  0  0  0  0  0  0  0
  148.8403  140.5931  154.0684 C   0  0  2  0  0  0  0  0  0  0  0  0
  147.9498  141.7716  154.5253 C   0  0  0  0  0  0  0  0  0  0  0  0
  147.6899  141.7043  156.0383 C   0  0  0  0  0  0  0  0  0  0  0  0
  146.6213  141.8707  153.7527 C   0  0  0  0  0  0  0  0  0  0  0  0
  144.1756  134.7332  151.8166 C   0  0  0  0  0  0  0  0  0  0  0  0
  143.6804  134.1753  150.6902 N   0  3  0  0  0  0  0  0  0  0  0  0
  144.2565  131.8680  148.3195 H   0  0  0  0  0  0  0  0  0  0  0  0
  143.7004  133.4942  147.9082 H   0  0  0  0  0  0  0  0  0  0  0  0
  142.6903  132.4359  148.9034 H   0  0  0  0  0  0  0  0  0  0  0  0
  146.2521  132.2173  149.7412 H   0  0  0  0  0  0  0  0  0  0  0  0
  147.2342  133.2080  151.8081 H   0  0  0  0  0  0  0  0  0  0  0  0
  145.4854  134.6786  154.3826 H   0  0  0  0  0  0  0  0  0  0  0  0
  147.0811  134.7104  153.6613 H   0  0  0  0  0  0  0  0  0  0  0  0
  147.9981  136.6656  153.4606 H   0  0  0  0  0  0  0  0  0  0  0  0
  147.6209  138.9117  152.3314 H   0  0  0  0  0  0  0  0  0  0  0  0
  146.3249  139.1366  153.4790 H   0  0  0  0  0  0  0  0  0  0  0  0
  147.8523  139.1678  155.3655 H   0  0  0  0  0  0  0  0  0  0  0  0
  149.4982  137.4529  154.9923 H   0  0  0  0  0  0  0  0  0  0  0  0
  149.9685  138.1691  153.4449 H   0  0  0  0  0  0  0  0  0  0  0  0
  150.3785  139.3486  156.2192 H   0  0  0  0  0  0  0  0  0  0  0  0
  151.5802  139.1816  154.9350 H   0  0  0  0  0  0  0  0  0  0  0  0
  148.9974  140.6644  152.9909 H   0  0  0  0  0  0  0  0  0  0  0  0
  148.5031  142.6934  154.3425 H   0  0  0  0  0  0  0  0  0  0  0  0
  147.1327  140.8055  156.3051 H   0  0  0  0  0  0  0  0  0  0  0  0
  147.1134  142.5654  156.3773 H   0  0  0  0  0  0  0  0  0  0  0  0
  148.6244  141.6949  156.5997 H   0  0  0  0  0  0  0  0  0  0  0  0
  146.0257  140.9642  153.8666 H   0  0  0  0  0  0  0  0  0  0  0  0
  146.7776  142.0352  152.6874 H   0  0  0  0  0  0  0  0  0  0  0  0
  146.0213  142.7049  154.1172 H   0  0  0  0  0  0  0  0  0  0  0  0
  143.5232  135.4276  152.3262 H   0  0  0  0  0  0  0  0  0  0  0  0
  142.7393  134.4335  150.3923 H   0  0  0  0  0  0  0  0  0  0  0  0
  1  2  1  0  0  0  0
  1 21  1  0  0  0  0
  1 22  1  0  0  0  0
  1 23  1  0  0  0  0
  2 20  1  0  0  0  0
  2  3  2  0  0  0  0
  3  4  1  0  0  0  0
  3 24  1  0  0  0  0
  4  5  2  0  0  0  0
  4 25  1  0  0  0  0
  5  6  1  0  0  0  0
  5 19  1  0  0  0  0
  6  7  1  0  0  0  0
  6 26  1  0  0  0  0
  6 27  1  0  0  0  0
  7  8  2  0  0  0  0
  7  9  1  0  0  0  0
  9 10  1  0  0  0  0
  9 28  1  0  0  0  0
 10 11  1  0  0  0  0
 10 29  1  0  0  0  0
 10 30  1  0  0  0  0
 11 15  1  0  0  0  0
 11 12  1  0  0  0  0
 11 31  1  0  0  0  0
 12 13  1  0  0  0  0
 12 32  1  0  0  0  0
 12 33  1  0  0  0  0
 13 14  1  0  0  0  0
 13 34  1  0  0  0  0
 13 35  1  0  0  0  0
 14 15  1  0  0  0  0
 15 16  1  0  0  0  0
 15 36  1  0  0  0  0
 16 17  1  0  0  0  0
 16 18  1  0  0  0  0
 16 37  1  0  0  0  0
 17 38  1  0  0  0  0
 17 39  1  0  0  0  0
 17 40  1  0  0  0  0
 18 41  1  0  0  0  0
 18 42  1  0  0  0  0
 18 43  1  0  0  0  0
 19 20  2  0  0  0  0
 19 44  1  0  0  0  0
 20 45  1  0  0  0  0
M  CHG  1  20   1
M  END
> <s_m_source_file>
AV-unprocessed.smi

> <i_m_source_file_index>
653

> <i_lp_mmshare_version>
43012

> <i_f3d_flags>
0

> <s_epik_input>
W0NIM11jMVtjSF1bY0hdYyhbY0hdbjEpW0NIMl1DKD1PKVtOSF1bQ0gyXVtDQEBIXTJbQ0gyXVtDSDJdT1tDQEhdMltDSF0oW0NIM10pW0NIM10=

> <s_epik_cmdline>
J2VwaWtfcHl0aG9uJywgJy1waCcsICc3LjAnLCAnLXRuJywgJzgnLCAnLW1hJywgJzIwMCcsICctbWV0YWxfYmluZGluZycsICctaW1hZScsICc8aW5maWxlLm1hZT4nLCAnLW9tYWUnLCAnPG91dGZpbGUubWFlPic=

> <r_epik_Ionization_Penalty>
2.12486

> <r_epik_Ionization_Penalty_Charging>
2.12486

> <r_epik_Ionization_Penalty_Neutral>
9.0873e-08

> <r_epik_State_Penalty>
2.26279

> <r_epik_Charging_Adjusted_Penalty>
4.38765

> <i_epik_Tot_Q>
1

> <i_epik_Tot_abs_Q>
1

> <r_epik_Metal_State_Penalty>
2.27914

> <b_epik_Metal_Only>
0

> <s_lp_Force_Field>
OPLS_2005

> <r_lp_Energy>
26.1393

> <b_lp_Chiralities_Consistent>
1

> <s_lp_Variant>
AV-unprocessed.smi:653-8

> <Gold.Version>
5.8.1

> <Gold.Id.Protein>
6NUR|6NUR_protein|mol2

> <Gold.PLP.Fitness>
44.7597

> <Gold.PLP.PLP>
-36.1651

> <Gold.PLP.part.hbond>
-2.9783

> <Gold.PLP.part.metal>
0.0000

> <Gold.PLP.part.buried>
-3.2552

> <Gold.PLP.part.nonpolar>
-30.4111

> <Gold.PLP.part.repulsive>
0.2809

> <Gold.PLP.ligand.clash>
0.0000

> <Gold.PLP.ligand.torsion>
0.2956

> <Gold.PLP.Chemscore.Hbond>
3.0400

> <Gold.PLP.Chemscore.CHOScore>
0.0000

> <Gold.PLP.Chemscore.Metal>
0.0000

> <Gold.Chemscore.Hbonds>
donor molecule, donor type, donor heavy atom, donor atom, acceptor molecule, acceptor atom, score
      L1  H     9    28       P1  7948  0.42
      L1  H    20    45       P1 10186  2.00
      P1  H  7989  7998       L1    14  0.68

> <Gold.PLP.Chemscore.Internal.Correction>
0.0657

> <Gold.Rescore>
     Score         DG    S(hbond)    S(metal)    S(lipo)     H(rot)  DE(clash)    DE(int)     intcor
     16.21     -18.04       1.45        0.00     100.34       1.57       0.45       1.38       ----

> <Gold.Chemscore.Fitness>
16.2131

> <Gold.Chemscore.DG>
-18.0436

> <Gold.Chemscore.ZeroCoef>
-5.4800

> <Gold.Chemscore.Hbond>
1.4503

> <Gold.Chemscore.Metal>
0.0000

> <Gold.Chemscore.Lipo>
100.3360

> <Gold.Chemscore.Internal_Hbond>
0.0000

> <Gold.Chemscore.DEClash>
0.4459

> <Gold.Chemscore.DEInternal>
1.3846

> <Gold.Chemscore.Rot>
1.5701

> <Gold.Chemscore.Internal.Correction>
   9.000000E+99

> <Gold.Chemscore.Hbonds>
donor molecule, donor type, donor heavy atom, donor atom, acceptor molecule, acceptor atom, score
      L1  H     9    28       P1  7948  0.40
      L1  H    20    45       P1 10186  0.60
      P1  H  7989  7998       L1    14  0.09

> <Gold.Chemscore.Hbond.Weighted>
-4.8438

> <Gold.Chemscore.Metal.Weighted>
-0.0000

> <Gold.Chemscore.Lipo.Weighted>
-11.7393

> <Gold.Chemscore.Internal_Hbond.Weighted>
0.0000

> <Gold.Chemscore.DEClash.Weighted>
0.4459

> <Gold.Chemscore.DEInternal.Weighted>
1.3846

> <Gold.Chemscore.Rot.Weighted>
4.0196

> <Gold.Chemscore.Internal.Correction.Weighted>
   9.000000E+99

> <Gold.Protein.RotatedTorsions>
[ 6907 6896 6895 6894 ] final -101.11 input  -60.11 | X-H torsion
[ 7974 7965 7964 7962 ] final  103.81 input  175.53 | X-H torsion
[ 8008 7997 7996 7995 ] final  160.00 input   59.86 | X-H torsion
[ 10167 10162 10161 10158 ] final   88.22 input  -65.29 | X-H torsion
[ 10718 10713 10712 10709 ] final -159.24 input   66.30 | X-H torsion
[ 10763 10752 10751 10750 ] final  -46.11 input  -60.55 | X-H torsion
[ 11005 11000 10999 10996 ] final   63.80 input  -57.11 | X-H torsion

> <Gold.Protein.ActiveResidues>
 VAL166  LYS551  ARG553  GLY616  TRP617  ASP618  TYR619  PRO620  LYS621  CYS622 
 ASP623  PHE694  ASN695  SER759  ASP760  ASP761  ALA762  ILE779  LEU786  VAL792 
 PHE793  MET794  SER795  GLU796  ALA797  LYS798  CYS799  TRP800  GLU811  SER814 

> <Gold.Protein.RotatedAtoms>
  150.7141  134.0785  159.3889 H   0  0  0  0  0  0  0  0  0  0  0  0  # atno 6907 bound_to 6896
  151.8768  135.0466  160.0494 H   0  0  0  0  0  0  0  0  0  0  0  0  # atno 6908 bound_to 6896
  152.2599  133.5253  159.5412 H   0  0  0  0  0  0  0  0  0  0  0  0  # atno 6909 bound_to 6896
  145.3411  139.2462  143.3609 H   0  0  0  0  0  0  0  0  0  0  0  0  # atno 7974 bound_to 7965
  156.2202  140.1816  156.7496 H   0  0  0  0  0  0  0  0  0  0  0  0  # atno 8008 bound_to 7997
  154.5853  140.0659  156.9191 H   0  0  0  0  0  0  0  0  0  0  0  0  # atno 8009 bound_to 7997
  155.2431  140.3323  155.4292 H   0  0  0  0  0  0  0  0  0  0  0  0  # atno 8010 bound_to 7997
  139.8695  144.6500  150.8966 H   0  0  0  0  0  0  0  0  0  0  0  0  # atno 10167 bound_to 10162
  156.5653  130.8665  151.2822 H   0  0  0  0  0  0  0  0  0  0  0  0  # atno 10718 bound_to 10713
  154.0396  135.6646  153.4788 H   0  0  0  0  0  0  0  0  0  0  0  0  # atno 10763 bound_to 10752
  153.0507  135.5086  154.7855 H   0  0  0  0  0  0  0  0  0  0  0  0  # atno 10764 bound_to 10752
  154.6826  135.3047  154.9557 H   0  0  0  0  0  0  0  0  0  0  0  0  # atno 10765 bound_to 10752
  140.0000  134.6457  155.9946 H   0  0  0  0  0  0  0  0  0  0  0  0  # atno 11005 bound_to 11000
  146.3007  140.4008  142.8705 LP  0  0  0  0  0  0  0  0  0  0  0  0  # atno 17320 bound_to 7965
  144.8790  140.7375  143.5999 LP  0  0  0  0  0  0  0  0  0  0  0  0  # atno 17321 bound_to 7965
  140.7763  143.3676  151.1710 LP  0  0  0  0  0  0  0  0  0  0  0  0  # atno 17342 bound_to 10162
  139.7297  143.9092  152.3015 LP  0  0  0  0  0  0  0  0  0  0  0  0  # atno 17343 bound_to 10162
  157.7360  130.9771  150.2111 LP  0  0  0  0  0  0  0  0  0  0  0  0  # atno 17370 bound_to 10713
  156.2763  130.3728  149.7980 LP  0  0  0  0  0  0  0  0  0  0  0  0  # atno 17371 bound_to 10713
  141.1635  133.6538  156.4398 LP  0  0  0  0  0  0  0  0  0  0  0  0  # atno 17394 bound_to 11000
  140.4745  134.6722  157.5144 LP  0  0  0  0  0  0  0  0  0  0  0  0  # atno 17395 bound_to 11000

$$$$
