AV-unprocessed.smi:2017|AV-procd|sdf|8168|dock9
  -GOLD-   2272010413D 1   1.00000     0.00000
 Structure written by MMmdl.
 44 45  0  0  0  0  0  0  0  0  2 V2000
  146.8616  142.5314  156.2849 O   0  0  0  0  0  0  0  0  0  0  0  0
  146.9288  141.5412  155.5551 C   0  0  0  0  0  0  0  0  0  0  0  0
  146.0230  141.4120  154.3228 C   0  0  0  0  0  0  0  0  0  0  0  0
  145.3628  142.6765  153.9599 N   0  0  0  0  0  0  0  0  0  0  0  0
  145.7252  143.2781  152.7419 C   0  0  0  0  0  0  0  0  0  0  0  0
  145.1705  144.4329  152.3269 C   0  0  0  0  0  0  0  0  0  0  0  0
  144.1683  145.0619  153.1782 C   0  0  0  0  0  0  0  0  0  0  0  0
  143.6551  146.1196  152.8183 O   0  0  0  0  0  0  0  0  0  0  0  0
  143.8466  144.4366  154.3483 N   0  5  0  0  0  0  0  0  0  0  0  0
  144.4172  143.2606  154.7560 C   0  0  0  0  0  0  0  0  0  0  0  0
  144.1097  142.7115  155.8147 O   0  0  0  0  0  0  0  0  0  0  0  0
  147.7555  140.5110  155.7902 N   0  0  0  0  0  0  0  0  0  0  0  0
  148.6902  140.4248  156.9059 C   0  0  0  0  0  0  0  0  0  0  0  0
  149.9401  141.2885  156.6656 C   0  0  0  0  0  0  0  0  0  0  0  0
  150.4579  141.9513  157.9475 C   0  0  0  0  0  0  0  0  0  0  0  0
  151.5945  142.7450  157.6366 O   0  0  0  0  0  0  0  0  0  0  0  0
  152.1344  143.4616  158.7395 C   0  0  0  0  0  0  0  0  0  0  0  0
  152.3294  142.5354  159.9588 C   0  0  0  0  0  0  0  0  0  0  0  0
  152.7843  143.3269  161.1963 C   0  0  0  0  0  0  0  0  0  0  0  0
  151.8067  144.4670  161.5222 C   0  0  0  0  0  0  0  0  0  0  0  0
  151.6067  145.3900  160.3100 C   0  0  0  0  0  0  0  0  0  0  0  0
  151.1492  144.5947  159.0767 C   0  0  0  0  0  0  0  0  0  0  0  0
  146.6005  141.0347  153.4765 H   0  0  0  0  0  0  0  0  0  0  0  0
  145.2799  140.6405  154.5287 H   0  0  0  0  0  0  0  0  0  0  0  0
  146.4689  142.7444  152.1687 H   0  0  0  0  0  0  0  0  0  0  0  0
  145.4576  144.8807  151.3870 H   0  0  0  0  0  0  0  0  0  0  0  0
  147.7437  139.7367  155.1422 H   0  0  0  0  0  0  0  0  0  0  0  0
  148.1718  140.7599  157.8045 H   0  0  0  0  0  0  0  0  0  0  0  0
  148.9704  139.3845  157.0804 H   0  0  0  0  0  0  0  0  0  0  0  0
  150.7348  140.6688  156.2485 H   0  0  0  0  0  0  0  0  0  0  0  0
  149.7257  142.0555  155.9203 H   0  0  0  0  0  0  0  0  0  0  0  0
  149.6673  142.5510  158.3988 H   0  0  0  0  0  0  0  0  0  0  0  0
  150.7352  141.1810  158.6686 H   0  0  0  0  0  0  0  0  0  0  0  0
  153.0891  143.9109  158.4595 H   0  0  0  0  0  0  0  0  0  0  0  0
  151.3936  142.0207  160.1800 H   0  0  0  0  0  0  0  0  0  0  0  0
  153.0635  141.7602  159.7420 H   0  0  0  0  0  0  0  0  0  0  0  0
  152.8737  142.6583  162.0527 H   0  0  0  0  0  0  0  0  0  0  0  0
  153.7789  143.7383  161.0207 H   0  0  0  0  0  0  0  0  0  0  0  0
  150.8459  144.0489  161.8257 H   0  0  0  0  0  0  0  0  0  0  0  0
  152.1761  145.0426  162.3713 H   0  0  0  0  0  0  0  0  0  0  0  0
  150.8750  146.1626  160.5472 H   0  0  0  0  0  0  0  0  0  0  0  0
  152.5407  145.9068  160.0857 H   0  0  0  0  0  0  0  0  0  0  0  0
  151.0478  145.2648  158.2226 H   0  0  0  0  0  0  0  0  0  0  0  0
  150.1583  144.1773  159.2609 H   0  0  0  0  0  0  0  0  0  0  0  0
  1  2  2  0  0  0  0
  2  3  1  0  0  0  0
  2 12  1  0  0  0  0
  3  4  1  0  0  0  0
  3 23  1  0  0  0  0
  3 24  1  0  0  0  0
  4 10  1  0  0  0  0
  4  5  1  0  0  0  0
  5  6  2  0  0  0  0
  5 25  1  0  0  0  0
  6  7  1  0  0  0  0
  6 26  1  0  0  0  0
  7  8  2  0  0  0  0
  7  9  1  0  0  0  0
  9 10  1  0  0  0  0
 10 11  2  0  0  0  0
 12 13  1  0  0  0  0
 12 27  1  0  0  0  0
 13 14  1  0  0  0  0
 13 28  1  0  0  0  0
 13 29  1  0  0  0  0
 14 15  1  0  0  0  0
 14 30  1  0  0  0  0
 14 31  1  0  0  0  0
 15 16  1  0  0  0  0
 15 32  1  0  0  0  0
 15 33  1  0  0  0  0
 16 17  1  0  0  0  0
 17 22  1  0  0  0  0
 17 18  1  0  0  0  0
 17 34  1  0  0  0  0
 18 19  1  0  0  0  0
 18 35  1  0  0  0  0
 18 36  1  0  0  0  0
 19 20  1  0  0  0  0
 19 37  1  0  0  0  0
 19 38  1  0  0  0  0
 20 21  1  0  0  0  0
 20 39  1  0  0  0  0
 20 40  1  0  0  0  0
 21 22  1  0  0  0  0
 21 41  1  0  0  0  0
 21 42  1  0  0  0  0
 22 43  1  0  0  0  0
 22 44  1  0  0  0  0
M  CHG  1   9  -1
M  END
> <s_m_source_file>
AV-unprocessed.smi

> <i_m_source_file_index>
2017

> <i_lp_mmshare_version>
43012

> <i_f3d_flags>
0

> <s_epik_input>
Tz1jMVtuSF1jKD1PKVtjSF1bY0hdbjFbQ0gyXUMoPU8pW05IXVtDSDJdW0NIMl1bQ0gyXU9bQ0hdMltDSDJdW0NIMl1bQ0gyXVtDSDJdW0NIMl0y

> <s_epik_cmdline>
J2VwaWtfcHl0aG9uJywgJy1waCcsICc3LjAnLCAnLXRuJywgJzgnLCAnLW1hJywgJzIwMCcsICctbWV0YWxfYmluZGluZycsICctaW1hZScsICc8aW5maWxlLm1hZT4nLCAnLW9tYWUnLCAnPG91dGZpbGUubWFlPic=

> <r_lp_tautomer_probability>
0.999537

> <r_epik_Ionization_Penalty>
3.07707

> <r_epik_Ionization_Penalty_Charging>
2.73667e-08

> <r_epik_Ionization_Penalty_Neutral>
3.07707

> <r_epik_State_Penalty>
3.07611

> <r_epik_Charging_Adjusted_Penalty>
3.07611

> <i_epik_Tot_Q>
-1

> <i_epik_Tot_abs_Q>
1

> <r_epik_Metal_State_Penalty>
0.459703

> <b_epik_Metal_Only>
1

> <s_lp_Force_Field>
OPLS_2005

> <r_lp_Energy>
18.9634

> <b_lp_Chiralities_Consistent>
1

> <s_lp_Variant>
AV-unprocessed.smi:2017-2

> <Gold.Version>
5.8.1

> <Gold.Id.Protein>
6NUR|6NUR_protein|mol2

> <Gold.PLP.Fitness>
44.9200

> <Gold.PLP.PLP>
-46.1107

> <Gold.PLP.part.hbond>
-1.8531

> <Gold.PLP.part.metal>
0.0000

> <Gold.PLP.part.buried>
-5.8513

> <Gold.PLP.part.nonpolar>
-39.4571

> <Gold.PLP.part.repulsive>
1.4942

> <Gold.PLP.ligand.clash>
0.0000

> <Gold.PLP.ligand.torsion>
0.6279

> <Gold.PLP.Chemscore.Hbond>
0.0000

> <Gold.PLP.Chemscore.CHOScore>
0.0000

> <Gold.PLP.Chemscore.Metal>
0.0000

> <Gold.PLP.Chemscore.Internal.Correction>
0.0651

> <Gold.Rescore>
     Score         DG    S(hbond)    S(metal)    S(lipo)     H(rot)  DE(clash)    DE(int)     intcor
     10.01     -10.66       0.00        0.00     102.45       2.66       0.11       0.54       ----

> <Gold.Chemscore.Fitness>
10.0136

> <Gold.Chemscore.DG>
-10.6641

> <Gold.Chemscore.ZeroCoef>
-5.4800

> <Gold.Chemscore.Hbond>
0.0000

> <Gold.Chemscore.Metal>
0.0000

> <Gold.Chemscore.Lipo>
102.4487

> <Gold.Chemscore.Internal_Hbond>
0.0000

> <Gold.Chemscore.DEClash>
0.1135

> <Gold.Chemscore.DEInternal>
0.5370

> <Gold.Chemscore.Rot>
2.6572

> <Gold.Chemscore.Internal.Correction>
   9.000000E+99

> <Gold.Chemscore.Hbond.Weighted>
-0.0000

> <Gold.Chemscore.Metal.Weighted>
-0.0000

> <Gold.Chemscore.Lipo.Weighted>
-11.9865

> <Gold.Chemscore.Internal_Hbond.Weighted>
0.0000

> <Gold.Chemscore.DEClash.Weighted>
0.1135

> <Gold.Chemscore.DEInternal.Weighted>
0.5370

> <Gold.Chemscore.Rot.Weighted>
6.8024

> <Gold.Chemscore.Internal.Correction.Weighted>
   9.000000E+99

> <Gold.Protein.RotatedTorsions>
[ 6907 6896 6895 6894 ] final  132.07 input  -60.11 | X-H torsion
[ 7974 7965 7964 7962 ] final  -35.60 input  175.53 | X-H torsion
[ 8008 7997 7996 7995 ] final   26.52 input   59.86 | X-H torsion
[ 10167 10162 10161 10158 ] final   99.73 input  -65.29 | X-H torsion
[ 10718 10713 10712 10709 ] final -154.51 input   66.30 | X-H torsion
[ 10763 10752 10751 10750 ] final -140.92 input  -60.55 | X-H torsion
[ 11005 11000 10999 10996 ] final  124.12 input  -57.11 | X-H torsion

> <Gold.Protein.ActiveResidues>
 VAL166  LYS551  ARG553  GLY616  TRP617  ASP618  TYR619  PRO620  LYS621  CYS622 
 ASP623  PHE694  ASN695  SER759  ASP760  ASP761  ALA762  ILE779  LEU786  VAL792 
 PHE793  MET794  SER795  GLU796  ALA797  LYS798  CYS799  TRP800  GLU811  SER814 

> <Gold.Protein.RotatedAtoms>
  152.3362  133.6014  159.5843 H   0  0  0  0  0  0  0  0  0  0  0  0  # atno 6907 bound_to 6896
  150.7451  133.9793  159.3580 H   0  0  0  0  0  0  0  0  0  0  0  0  # atno 6908 bound_to 6896
  151.7662  135.0798  160.0404 H   0  0  0  0  0  0  0  0  0  0  0  0  # atno 6909 bound_to 6896
  146.0732  140.6179  142.8942 H   0  0  0  0  0  0  0  0  0  0  0  0  # atno 7974 bound_to 7965
  155.0286  140.3156  155.4766 H   0  0  0  0  0  0  0  0  0  0  0  0  # atno 8008 bound_to 7997
  156.2878  140.2184  156.5349 H   0  0  0  0  0  0  0  0  0  0  0  0  # atno 8009 bound_to 7997
  154.7390  140.0475  157.0782 H   0  0  0  0  0  0  0  0  0  0  0  0  # atno 8010 bound_to 7997
  139.7591  144.6960  151.0319 H   0  0  0  0  0  0  0  0  0  0  0  0  # atno 10167 bound_to 10162
  156.5002  130.8388  151.2606 H   0  0  0  0  0  0  0  0  0  0  0  0  # atno 10718 bound_to 10713
  154.8563  135.3539  154.5785 H   0  0  0  0  0  0  0  0  0  0  0  0  # atno 10763 bound_to 10752
  153.6396  135.6999  153.5251 H   0  0  0  0  0  0  0  0  0  0  0  0  # atno 10764 bound_to 10752
  153.2982  135.4214  155.1188 H   0  0  0  0  0  0  0  0  0  0  0  0  # atno 10765 bound_to 10752
  139.9344  134.9640  156.8361 H   0  0  0  0  0  0  0  0  0  0  0  0  # atno 11005 bound_to 11000
  144.7245  140.4480  143.6983 LP  0  0  0  0  0  0  0  0  0  0  0  0  # atno 17320 bound_to 7965
  145.6353  139.1542  143.2946 LP  0  0  0  0  0  0  0  0  0  0  0  0  # atno 17321 bound_to 7965
  140.7805  143.4718  151.0136 LP  0  0  0  0  0  0  0  0  0  0  0  0  # atno 17342 bound_to 10162
  139.8405  143.7571  152.3180 LP  0  0  0  0  0  0  0  0  0  0  0  0  # atno 17343 bound_to 10162
  157.7464  130.9984  150.2851 LP  0  0  0  0  0  0  0  0  0  0  0  0  # atno 17370 bound_to 10713
  156.3340  130.3805  149.7466 LP  0  0  0  0  0  0  0  0  0  0  0  0  # atno 17371 bound_to 10713
  140.6116  134.0077  155.7579 LP  0  0  0  0  0  0  0  0  0  0  0  0  # atno 17394 bound_to 11000
  141.0950  133.9858  157.3175 LP  0  0  0  0  0  0  0  0  0  0  0  0  # atno 17395 bound_to 11000

$$$$
