AV-unprocessed.smi:36|AV-procd|sdf|282|dock5
  -GOLD-   2262016 53D 1   1.00000     0.00000
 Structure written by MMmdl.
 64 67  0  0  0  0  0  0  0  0  1 V2000
  146.1739  132.7012  150.2248 C   0  0  0  0  0  0  0  0  0  0  0  0
  145.3615  132.7290  151.5307 C   0  0  0  0  0  0  0  0  0  0  0  0
  143.8680  132.5596  151.2039 C   0  0  0  0  0  0  0  0  0  0  0  0
  145.8200  131.5874  152.4535 C   0  0  0  0  0  0  0  0  0  0  0  0
  145.6596  134.4025  152.4153 Si  0  0  0  0  0  0  0  0  0  0  0  0
  145.3129  135.8431  151.2264 C   0  0  0  0  0  0  0  0  0  0  0  0
  144.5670  134.5687  153.9620 C   0  0  0  0  0  0  0  0  0  0  0  0
  147.2852  134.5124  152.8776 O   0  0  0  0  0  0  0  0  0  0  0  0
  147.9844  133.4955  153.5662 C   0  0  0  0  0  0  0  0  0  0  0  0
  149.0506  134.1321  154.4701 C   0  0  1  0  0  0  0  0  0  0  0  0
  148.4546  134.7942  155.5804 O   0  0  0  0  0  0  0  0  0  0  0  0
  149.3350  134.8049  156.6657 C   0  0  2  0  0  0  0  0  0  0  0  0
  149.7120  136.2202  156.9523 N   0  0  0  0  0  0  0  0  0  0  0  0
  149.5980  136.9273  158.1299 C   0  0  0  0  0  0  0  0  0  0  0  0
  150.0137  138.1650  158.0795 N   0  0  0  0  0  0  0  0  0  0  0  0
  150.4430  138.3230  156.7675 C   0  0  0  0  0  0  0  0  0  0  0  0
  151.0068  139.4027  156.0384 C   0  0  0  0  0  0  0  0  0  0  0  0
  151.2193  140.5956  156.6421 N   0  0  0  0  0  0  0  0  0  0  0  0
  151.7292  140.8448  157.9791 C   0  0  0  0  0  0  0  0  0  0  0  0
  152.0915  139.9323  158.7224 O   0  0  0  0  0  0  0  0  0  0  0  0
  151.8583  142.2859  158.3802 C   0  0  0  0  0  0  0  0  0  0  0  0
  151.4831  143.3062  157.4772 C   0  0  0  0  0  0  0  0  0  0  0  0
  151.6174  144.6616  157.8357 C   0  0  0  0  0  0  0  0  0  0  0  0
  152.1346  145.0090  159.0979 C   0  0  0  0  0  0  0  0  0  0  0  0
  152.5210  143.9999  159.9998 C   0  0  0  0  0  0  0  0  0  0  0  0
  152.3876  142.6439  159.6422 C   0  0  0  0  0  0  0  0  0  0  0  0
  151.3041  139.1851  154.7299 N   0  0  0  0  0  0  0  0  0  0  0  0
  151.0701  137.9922  154.1749 C   0  0  0  0  0  0  0  0  0  0  0  0
  150.5539  136.8972  154.7372 N   0  0  0  0  0  0  0  0  0  0  0  0
  150.2529  137.1092  156.0507 C   0  0  0  0  0  0  0  0  0  0  0  0
  150.5785  134.0010  156.2688 C   0  0  0  0  0  0  0  0  0  0  0  0
  150.0750  133.1800  155.0991 C   0  0  1  0  0  0  0  0  0  0  0  0
  149.4863  131.9734  155.5460 O   0  0  0  0  0  0  0  0  0  0  0  0
  146.0328  131.7613  149.6900 H   0  0  0  0  0  0  0  0  0  0  0  0
  147.2417  132.8094  150.4166 H   0  0  0  0  0  0  0  0  0  0  0  0
  145.8759  133.5082  149.5549 H   0  0  0  0  0  0  0  0  0  0  0  0
  143.4967  133.3825  150.5929 H   0  0  0  0  0  0  0  0  0  0  0  0
  143.2613  132.5152  152.1065 H   0  0  0  0  0  0  0  0  0  0  0  0
  143.6881  131.6365  150.6515 H   0  0  0  0  0  0  0  0  0  0  0  0
  145.6600  130.6136  151.9894 H   0  0  0  0  0  0  0  0  0  0  0  0
  145.2728  131.5967  153.3966 H   0  0  0  0  0  0  0  0  0  0  0  0
  146.8814  131.6678  152.6892 H   0  0  0  0  0  0  0  0  0  0  0  0
  144.2722  135.8569  150.9035 H   0  0  0  0  0  0  0  0  0  0  0  0
  145.9312  135.7826  150.3310 H   0  0  0  0  0  0  0  0  0  0  0  0
  145.5179  136.8046  151.6966 H   0  0  0  0  0  0  0  0  0  0  0  0
  143.5079  134.5167  153.7109 H   0  0  0  0  0  0  0  0  0  0  0  0
  144.7342  135.5198  154.4672 H   0  0  0  0  0  0  0  0  0  0  0  0
  144.7684  133.7789  154.6853 H   0  0  0  0  0  0  0  0  0  0  0  0
  147.2754  132.9315  154.1725 H   0  0  0  0  0  0  0  0  0  0  0  0
  148.4303  132.7893  152.8671 H   0  0  0  0  0  0  0  0  0  0  0  0
  149.5908  134.8896  153.8998 H   0  0  0  0  0  0  0  0  0  0  0  0
  148.8363  134.4409  157.5648 H   0  0  0  0  0  0  0  0  0  0  0  0
  149.1969  136.4947  159.0346 H   0  0  0  0  0  0  0  0  0  0  0  0
  150.9642  141.4133  156.1078 H   0  0  0  0  0  0  0  0  0  0  0  0
  151.0864  143.0567  156.5036 H   0  0  0  0  0  0  0  0  0  0  0  0
  151.3247  145.4348  157.1408 H   0  0  0  0  0  0  0  0  0  0  0  0
  152.2382  146.0483  159.3723 H   0  0  0  0  0  0  0  0  0  0  0  0
  152.9231  144.2661  160.9662 H   0  0  0  0  0  0  0  0  0  0  0  0
  152.6997  141.8868  160.3470 H   0  0  0  0  0  0  0  0  0  0  0  0
  151.3350  137.9029  153.1317 H   0  0  0  0  0  0  0  0  0  0  0  0
  151.3660  134.6789  155.9347 H   0  0  0  0  0  0  0  0  0  0  0  0
  150.9557  133.4120  157.1055 H   0  0  0  0  0  0  0  0  0  0  0  0
  150.8767  132.9332  154.4024 H   0  0  0  0  0  0  0  0  0  0  0  0
  149.3611  132.0302  156.4811 H   0  0  0  0  0  0  0  0  0  0  0  0
  1  2  1  0  0  0  0
  1 34  1  0  0  0  0
  1 35  1  0  0  0  0
  1 36  1  0  0  0  0
  2  3  1  0  0  0  0
  2  4  1  0  0  0  0
  2  5  1  0  0  0  0
  3 37  1  0  0  0  0
  3 38  1  0  0  0  0
  3 39  1  0  0  0  0
  4 40  1  0  0  0  0
  4 41  1  0  0  0  0
  4 42  1  0  0  0  0
  5  6  1  0  0  0  0
  5  7  1  0  0  0  0
  5  8  1  0  0  0  0
  6 43  1  0  0  0  0
  6 44  1  0  0  0  0
  6 45  1  0  0  0  0
  7 46  1  0  0  0  0
  7 47  1  0  0  0  0
  7 48  1  0  0  0  0
  8  9  1  0  0  0  0
  9 10  1  0  0  0  0
  9 49  1  0  0  0  0
  9 50  1  0  0  0  0
 10 32  1  0  0  0  0
 10 11  1  0  0  0  0
 10 51  1  0  0  0  0
 11 12  1  0  0  0  0
 12 13  1  0  0  0  0
 12 31  1  0  0  0  0
 12 52  1  0  0  0  0
 13 30  1  0  0  0  0
 13 14  1  0  0  0  0
 14 15  2  0  0  0  0
 14 53  1  0  0  0  0
 15 16  1  0  0  0  0
 16 30  2  0  0  0  0
 16 17  1  0  0  0  0
 17 18  1  0  0  0  0
 17 27  2  0  0  0  0
 18 19  1  0  0  0  0
 18 54  1  0  0  0  0
 19 20  2  0  0  0  0
 19 21  1  0  0  0  0
 21 26  1  0  0  0  0
 21 22  2  0  0  0  0
 22 23  1  0  0  0  0
 22 55  1  0  0  0  0
 23 24  2  0  0  0  0
 23 56  1  0  0  0  0
 24 25  1  0  0  0  0
 24 57  1  0  0  0  0
 25 26  2  0  0  0  0
 25 58  1  0  0  0  0
 26 59  1  0  0  0  0
 27 28  1  0  0  0  0
 28 29  2  0  0  0  0
 28 60  1  0  0  0  0
 29 30  1  0  0  0  0
 31 32  1  0  0  0  0
 31 61  1  0  0  0  0
 31 62  1  0  0  0  0
 32 33  1  0  0  0  0
 32 63  1  0  0  0  0
 33 64  1  0  0  0  0
M  END
> <s_m_source_file>
AV-unprocessed.smi

> <i_m_source_file_index>
36

> <i_lp_mmshare_version>
43012

> <i_f3d_flags>
0

> <s_epik_input>
W0NIM11DKFtDSDNdKShbQ0gzXSlbU2ldKFtDSDNdKShbQ0gzXSlPW0NIMl1bQ0BASF0xT1tDQEhdKFtDSDJdW0NASF0xW09IXSluKFtjSF1uMiljKGMyMyluW2NIXW5jM1tOSF1DKD1PKWM0W2NIXVtjSF1bY0hdW2NIXVtjSF00

> <s_epik_cmdline>
J2VwaWtfcHl0aG9uJywgJy1waCcsICc3LjAnLCAnLXRuJywgJzgnLCAnLW1hJywgJzIwMCcsICctbWV0YWxfYmluZGluZycsICctaW1hZScsICc8aW5maWxlLm1hZT4nLCAnLW9tYWUnLCAnPG91dGZpbGUubWFlPic=

> <r_lp_tautomer_probability>
1

> <r_epik_Ionization_Penalty>
0.00150433

> <r_epik_Ionization_Penalty_Charging>
0

> <r_epik_Ionization_Penalty_Neutral>
0.00150433

> <r_epik_State_Penalty>
0.00724046

> <r_epik_Charging_Adjusted_Penalty>
0.00724046

> <i_epik_Tot_Q>
0

> <i_epik_Tot_abs_Q>
0

> <r_epik_Metal_State_Penalty>
0.323355

> <b_epik_Metal_Only>
0

> <s_epik_Chemistry_Notes>
This compound contains an acetal/aminal-like group ( X-CH(R)-Y where X, Y are N, S, or O) that may be acid/base labile, releasing an aldehyde.

> <s_lp_Force_Field>
OPLS_2005

> <r_lp_Energy>
37.9666

> <b_lp_Chiralities_Consistent>
1

> <s_lp_Variant>
AV-unprocessed.smi:36-4

> <Gold.Version>
5.8.1

> <Gold.Id.Protein>
6NUR|6NUR_protein|mol2

> <Gold.PLP.Fitness>
57.9911

> <Gold.PLP.PLP>
-53.4830

> <Gold.PLP.part.hbond>
-1.0000

> <Gold.PLP.part.metal>
0.0000

> <Gold.PLP.part.buried>
-9.8005

> <Gold.PLP.part.nonpolar>
-45.8413

> <Gold.PLP.part.repulsive>
4.3493

> <Gold.PLP.ligand.clash>
0.0000

> <Gold.PLP.ligand.torsion>
0.7860

> <Gold.PLP.Chemscore.Hbond>
0.9913

> <Gold.PLP.Chemscore.CHOScore>
0.9987

> <Gold.PLP.Chemscore.Metal>
0.0000

> <Gold.Chemscore.Hbonds>
donor molecule, donor type, donor heavy atom, donor atom, acceptor molecule, acceptor atom, score
      P1  H  7989  7998       L1    27  0.81
      L1  C    28    60       P1  7949  1.00

> <Gold.PLP.Chemscore.Internal.Correction>
0.1106

> <Gold.Rescore>
     Score         DG    S(hbond)    S(metal)    S(lipo)     H(rot)  DE(clash)    DE(int)     intcor
     14.88     -17.26       0.93        0.00     133.48       2.70       1.57       0.82       ----

> <Gold.Chemscore.Fitness>
14.8775

> <Gold.Chemscore.DG>
-17.2650

> <Gold.Chemscore.ZeroCoef>
-5.4800

> <Gold.Chemscore.Hbond>
0.9253

> <Gold.Chemscore.Metal>
0.0000

> <Gold.Chemscore.Lipo>
133.4788

> <Gold.Chemscore.Internal_Hbond>
0.0000

> <Gold.Chemscore.DEClash>
1.5664

> <Gold.Chemscore.DEInternal>
0.8211

> <Gold.Chemscore.Rot>
2.7041

> <Gold.Chemscore.Internal.Correction>
   9.000000E+99

> <Gold.Chemscore.Hbonds>
donor molecule, donor type, donor heavy atom, donor atom, acceptor molecule, acceptor atom, score
      P1  H  7989  7998       L1    27  0.75

> <Gold.Chemscore.Hbond.Weighted>
-3.0905

> <Gold.Chemscore.Metal.Weighted>
-0.0000

> <Gold.Chemscore.Lipo.Weighted>
-15.6170

> <Gold.Chemscore.Internal_Hbond.Weighted>
0.0000

> <Gold.Chemscore.DEClash.Weighted>
1.5664

> <Gold.Chemscore.DEInternal.Weighted>
0.8211

> <Gold.Chemscore.Rot.Weighted>
6.9225

> <Gold.Chemscore.Internal.Correction.Weighted>
   9.000000E+99

> <Gold.Protein.RotatedTorsions>
[ 6907 6896 6895 6894 ] final  -58.84 input  -60.11 | X-H torsion
[ 7974 7965 7964 7962 ] final  -82.76 input  175.53 | X-H torsion
[ 8008 7997 7996 7995 ] final  -14.58 input   59.86 | X-H torsion
[ 10167 10162 10161 10158 ] final   19.80 input  -65.29 | X-H torsion
[ 10718 10713 10712 10709 ] final   92.43 input   66.30 | X-H torsion
[ 10763 10752 10751 10750 ] final  141.55 input  -60.55 | X-H torsion
[ 11005 11000 10999 10996 ] final -146.92 input  -57.11 | X-H torsion

> <Gold.Protein.ActiveResidues>
 VAL166  LYS551  ARG553  GLY616  TRP617  ASP618  TYR619  PRO620  LYS621  CYS622 
 ASP623  PHE694  ASN695  SER759  ASP760  ASP761  ALA762  ILE779  LEU786  VAL792 
 PHE793  MET794  SER795  GLU796  ALA797  LYS798  CYS799  TRP800  GLU811  SER814 

> <Gold.Protein.RotatedAtoms>
  150.7976  134.7046  159.6568 H   0  0  0  0  0  0  0  0  0  0  0  0  # atno 6907 bound_to 6896
  152.4089  134.6155  160.0047 H   0  0  0  0  0  0  0  0  0  0  0  0  # atno 6908 bound_to 6896
  151.6404  133.3289  159.3165 H   0  0  0  0  0  0  0  0  0  0  0  0  # atno 6909 bound_to 6896
  145.5290  140.9523  143.1613 H   0  0  0  0  0  0  0  0  0  0  0  0  # atno 7974 bound_to 7965
  154.5199  140.2219  155.8996 H   0  0  0  0  0  0  0  0  0  0  0  0  # atno 8008 bound_to 7997
  156.1650  140.3134  155.8837 H   0  0  0  0  0  0  0  0  0  0  0  0  # atno 8009 bound_to 7997
  155.3675  140.0464  157.3036 H   0  0  0  0  0  0  0  0  0  0  0  0  # atno 8010 bound_to 7997
  140.5552  143.9438  150.6604 H   0  0  0  0  0  0  0  0  0  0  0  0  # atno 10167 bound_to 10162
  157.6958  131.0443  150.3881 H   0  0  0  0  0  0  0  0  0  0  0  0  # atno 10718 bound_to 10713
  153.9411  135.2980  155.3442 H   0  0  0  0  0  0  0  0  0  0  0  0  # atno 10763 bound_to 10752
  154.7476  135.4995  153.9235 H   0  0  0  0  0  0  0  0  0  0  0  0  # atno 10764 bound_to 10752
  153.1042  135.6742  153.9724 H   0  0  0  0  0  0  0  0  0  0  0  0  # atno 10765 bound_to 10752
  140.7770  134.3123  157.5057 H   0  0  0  0  0  0  0  0  0  0  0  0  # atno 11005 bound_to 11000
  144.7636  139.6899  143.7224 LP  0  0  0  0  0  0  0  0  0  0  0  0  # atno 17320 bound_to 7965
  146.2056  139.5379  142.9714 LP  0  0  0  0  0  0  0  0  0  0  0  0  # atno 17321 bound_to 7965
  140.2874  143.3347  152.1094 LP  0  0  0  0  0  0  0  0  0  0  0  0  # atno 17342 bound_to 10162
  139.5045  144.6776  151.6090 LP  0  0  0  0  0  0  0  0  0  0  0  0  # atno 17343 bound_to 10162
  156.4287  130.3967  149.6775 LP  0  0  0  0  0  0  0  0  0  0  0  0  # atno 17370 bound_to 10713
  156.4000  130.7670  151.2677 LP  0  0  0  0  0  0  0  0  0  0  0  0  # atno 17371 bound_to 10713
  139.8747  134.9295  156.3479 LP  0  0  0  0  0  0  0  0  0  0  0  0  # atno 17394 bound_to 11000
  140.9519  133.7445  156.0283 LP  0  0  0  0  0  0  0  0  0  0  0  0  # atno 17395 bound_to 11000

$$$$
