AV-unprocessed.smi:2349|AV-procd|sdf|9372|dock1
  -GOLD-   2272012593D 1   1.00000     0.00000
 Structure written by MMmdl.
 53 54  0  0  0  0  0  0  0  0  2 V2000
  143.8726  132.0249  150.6298 C   0  0  0  0  0  0  0  0  0  0  0  0
  144.4524  133.3499  151.0765 C   0  0  0  0  0  0  0  0  0  0  0  0
  145.7927  133.4720  151.4980 C   0  0  0  0  0  0  0  0  0  0  0  0
  146.2850  134.7402  151.8687 C   0  0  0  0  0  0  0  0  0  0  0  0
  145.4277  135.8614  151.8142 C   0  0  0  0  0  0  0  0  0  0  0  0
  145.9504  137.2522  152.1406 C   0  0  0  0  0  0  0  0  0  0  0  0
  146.5395  137.3840  153.5617 C   0  0  0  0  0  0  0  0  0  0  0  0
  147.6742  138.3062  153.6048 N   0  0  0  0  0  0  0  0  0  0  0  0
  148.7348  138.1990  154.4257 C   0  0  0  0  0  0  0  0  0  0  0  0
  148.9100  137.2145  155.1454 O   0  0  0  0  0  0  0  0  0  0  0  0
  149.5525  139.2812  154.4438 N   0  0  0  0  0  0  0  0  0  0  0  0
  149.1439  140.6864  154.3009 C   0  0  0  0  0  0  0  0  0  0  0  0
  149.0936  141.3214  155.7025 C   0  0  0  0  0  0  0  0  0  0  0  0
  150.4421  141.1805  156.4498 C   0  0  0  0  0  0  0  0  0  0  0  0
  150.3066  141.6911  157.9041 C   0  0  0  0  0  0  0  0  0  0  0  0
  151.5514  141.4930  158.7916 C   0  0  0  0  0  0  0  0  0  0  0  0
  151.9188  140.3493  159.0654 O   0  0  0  0  0  0  0  0  0  0  0  0
  152.2078  142.5856  159.2473 N   0  0  0  0  0  0  0  0  0  0  0  0
  153.3540  142.4491  160.1493 C   0  0  0  0  0  0  0  0  0  0  0  0
  151.8646  143.9556  158.8566 C   0  0  0  0  0  0  0  0  0  0  0  0
  150.9700  139.7237  156.3700 C   0  0  0  0  0  0  0  0  0  0  0  0
  150.9335  139.1900  154.9264 C   0  0  0  0  0  0  0  0  0  0  0  0
  144.0876  135.6730  151.4114 C   0  0  0  0  0  0  0  0  0  0  0  0
  143.6571  134.4433  151.0540 N   0  3  0  0  0  0  0  0  0  0  0  0
  144.1983  131.2232  151.2931 H   0  0  0  0  0  0  0  0  0  0  0  0
  144.2089  131.7917  149.6188 H   0  0  0  0  0  0  0  0  0  0  0  0
  142.7821  132.0471  150.6332 H   0  0  0  0  0  0  0  0  0  0  0  0
  146.4412  132.6085  151.5243 H   0  0  0  0  0  0  0  0  0  0  0  0
  147.3162  134.8498  152.1713 H   0  0  0  0  0  0  0  0  0  0  0  0
  146.7038  137.5284  151.4021 H   0  0  0  0  0  0  0  0  0  0  0  0
  145.1374  137.9702  152.0242 H   0  0  0  0  0  0  0  0  0  0  0  0
  145.7594  137.7057  154.2532 H   0  0  0  0  0  0  0  0  0  0  0  0
  146.8675  136.4070  153.9173 H   0  0  0  0  0  0  0  0  0  0  0  0
  147.6061  139.1364  153.0341 H   0  0  0  0  0  0  0  0  0  0  0  0
  149.8708  141.2131  153.6809 H   0  0  0  0  0  0  0  0  0  0  0  0
  148.1888  140.8129  153.7904 H   0  0  0  0  0  0  0  0  0  0  0  0
  148.8227  142.3744  155.6187 H   0  0  0  0  0  0  0  0  0  0  0  0
  148.3006  140.8471  156.2806 H   0  0  0  0  0  0  0  0  0  0  0  0
  151.1569  141.8171  155.9252 H   0  0  0  0  0  0  0  0  0  0  0  0
  150.0805  142.7580  157.8943 H   0  0  0  0  0  0  0  0  0  0  0  0
  149.4493  141.1952  158.3571 H   0  0  0  0  0  0  0  0  0  0  0  0
  153.6061  143.3883  160.6424 H   0  0  0  0  0  0  0  0  0  0  0  0
  154.2319  142.1144  159.5957 H   0  0  0  0  0  0  0  0  0  0  0  0
  153.1531  141.7240  160.9394 H   0  0  0  0  0  0  0  0  0  0  0  0
  151.6909  144.0325  157.7825 H   0  0  0  0  0  0  0  0  0  0  0  0
  152.6614  144.6615  159.0922 H   0  0  0  0  0  0  0  0  0  0  0  0
  150.9656  144.2866  159.3768 H   0  0  0  0  0  0  0  0  0  0  0  0
  151.9900  139.6601  156.7482 H   0  0  0  0  0  0  0  0  0  0  0  0
  150.3664  139.0772  157.0089 H   0  0  0  0  0  0  0  0  0  0  0  0
  151.3276  138.1734  154.8910 H   0  0  0  0  0  0  0  0  0  0  0  0
  151.5902  139.7821  154.2875 H   0  0  0  0  0  0  0  0  0  0  0  0
  143.3617  136.4692  151.3307 H   0  0  0  0  0  0  0  0  0  0  0  0
  142.6903  134.3374  150.7454 H   0  0  0  0  0  0  0  0  0  0  0  0
  1  2  1  0  0  0  0
  1 25  1  0  0  0  0
  1 26  1  0  0  0  0
  1 27  1  0  0  0  0
  2 24  1  0  0  0  0
  2  3  2  0  0  0  0
  3  4  1  0  0  0  0
  3 28  1  0  0  0  0
  4  5  2  0  0  0  0
  4 29  1  0  0  0  0
  5  6  1  0  0  0  0
  5 23  1  0  0  0  0
  6  7  1  0  0  0  0
  6 30  1  0  0  0  0
  6 31  1  0  0  0  0
  7  8  1  0  0  0  0
  7 32  1  0  0  0  0
  7 33  1  0  0  0  0
  8  9  1  0  0  0  0
  8 34  1  0  0  0  0
  9 10  2  0  0  0  0
  9 11  1  0  0  0  0
 11 22  1  0  0  0  0
 11 12  1  0  0  0  0
 12 13  1  0  0  0  0
 12 35  1  0  0  0  0
 12 36  1  0  0  0  0
 13 14  1  0  0  0  0
 13 37  1  0  0  0  0
 13 38  1  0  0  0  0
 14 15  1  0  0  0  0
 14 21  1  0  0  0  0
 14 39  1  0  0  0  0
 15 16  1  0  0  0  0
 15 40  1  0  0  0  0
 15 41  1  0  0  0  0
 16 17  2  0  0  0  0
 16 18  1  0  0  0  0
 18 19  1  0  0  0  0
 18 20  1  0  0  0  0
 19 42  1  0  0  0  0
 19 43  1  0  0  0  0
 19 44  1  0  0  0  0
 20 45  1  0  0  0  0
 20 46  1  0  0  0  0
 20 47  1  0  0  0  0
 21 22  1  0  0  0  0
 21 48  1  0  0  0  0
 21 49  1  0  0  0  0
 22 50  1  0  0  0  0
 22 51  1  0  0  0  0
 23 24  2  0  0  0  0
 23 52  1  0  0  0  0
 24 53  1  0  0  0  0
M  CHG  1  24   1
M  END
> <s_m_source_file>
AV-unprocessed.smi

> <i_m_source_file_index>
2349

> <i_lp_mmshare_version>
43012

> <i_f3d_flags>
0

> <s_epik_input>
W0NIM11jMVtjSF1bY0hdYyhbY0hdbjEpW0NIMl1bQ0gyXVtOSF1DKD1PKU4yW0NIMl1bQ0gyXVtDSF0oW0NIMl1bQ0gyXTIpW0NIMl1DKD1PKU4oW0NIM10pW0NIM10=

> <s_epik_cmdline>
J2VwaWtfcHl0aG9uJywgJy1waCcsICc3LjAnLCAnLXRuJywgJzgnLCAnLW1hJywgJzIwMCcsICctbWV0YWxfYmluZGluZycsICctaW1hZScsICc8aW5maWxlLm1hZT4nLCAnLW9tYWUnLCAnPG91dGZpbGUubWFlPic=

> <r_epik_Ionization_Penalty>
1.41566

> <r_epik_Ionization_Penalty_Charging>
1.4156

> <r_epik_Ionization_Penalty_Neutral>
6.25151e-05

> <r_epik_State_Penalty>
1.49894

> <r_epik_Charging_Adjusted_Penalty>
2.91453

> <i_epik_Tot_Q>
1

> <i_epik_Tot_abs_Q>
1

> <r_epik_Metal_State_Penalty>
1.55152

> <b_epik_Metal_Only>
0

> <s_lp_Force_Field>
OPLS_2005

> <r_lp_Energy>
40.5866

> <b_lp_Chiralities_Consistent>
1

> <s_lp_Variant>
AV-unprocessed.smi:2349-2

> <Gold.Version>
5.8.1

> <Gold.Id.Protein>
6NUR|6NUR_protein|mol2

> <Gold.PLP.Fitness>
52.2025

> <Gold.PLP.PLP>
-47.6036

> <Gold.PLP.part.hbond>
-2.0000

> <Gold.PLP.part.metal>
0.0000

> <Gold.PLP.part.buried>
0.0939

> <Gold.PLP.part.nonpolar>
-45.6121

> <Gold.PLP.part.repulsive>
0.1518

> <Gold.PLP.ligand.clash>
0.0000

> <Gold.PLP.ligand.torsion>
0.8407

> <Gold.PLP.Chemscore.Hbond>
2.0000

> <Gold.PLP.Chemscore.CHOScore>
0.0000

> <Gold.PLP.Chemscore.Metal>
0.0000

> <Gold.Chemscore.Hbonds>
donor molecule, donor type, donor heavy atom, donor atom, acceptor molecule, acceptor atom, score
      L1  H    24    53       P1 10186  1.89

> <Gold.PLP.Chemscore.Internal.Correction>
0.2802

> <Gold.Rescore>
     Score         DG    S(hbond)    S(metal)    S(lipo)     H(rot)  DE(clash)    DE(int)     intcor
     13.47     -16.21       0.73        0.00     109.02       1.75       0.60       2.14       ----

> <Gold.Chemscore.Fitness>
13.4685

> <Gold.Chemscore.DG>
-16.2098

> <Gold.Chemscore.ZeroCoef>
-5.4800

> <Gold.Chemscore.Hbond>
0.7313

> <Gold.Chemscore.Metal>
0.0000

> <Gold.Chemscore.Lipo>
109.0214

> <Gold.Chemscore.Internal_Hbond>
0.0000

> <Gold.Chemscore.DEClash>
0.6008

> <Gold.Chemscore.DEInternal>
2.1405

> <Gold.Chemscore.Rot>
1.7454

> <Gold.Chemscore.Internal.Correction>
   9.000000E+99

> <Gold.Chemscore.Hbonds>
donor molecule, donor type, donor heavy atom, donor atom, acceptor molecule, acceptor atom, score
      L1  H    24    53       P1 10186  0.36

> <Gold.Chemscore.Hbond.Weighted>
-2.4424

> <Gold.Chemscore.Metal.Weighted>
-0.0000

> <Gold.Chemscore.Lipo.Weighted>
-12.7555

> <Gold.Chemscore.Internal_Hbond.Weighted>
0.0000

> <Gold.Chemscore.DEClash.Weighted>
0.6008

> <Gold.Chemscore.DEInternal.Weighted>
2.1405

> <Gold.Chemscore.Rot.Weighted>
4.4682

> <Gold.Chemscore.Internal.Correction.Weighted>
   9.000000E+99

> <Gold.Protein.RotatedTorsions>
[ 6907 6896 6895 6894 ] final  127.22 input  -60.11 | X-H torsion
[ 7974 7965 7964 7962 ] final  171.27 input  175.53 | X-H torsion
[ 8008 7997 7996 7995 ] final  -68.50 input   59.86 | X-H torsion
[ 10167 10162 10161 10158 ] final  143.44 input  -65.29 | X-H torsion
[ 10718 10713 10712 10709 ] final -172.56 input   66.30 | X-H torsion
[ 10763 10752 10751 10750 ] final  -80.53 input  -60.55 | X-H torsion
[ 11005 11000 10999 10996 ] final  -34.46 input  -57.11 | X-H torsion

> <Gold.Protein.ActiveResidues>
 VAL166  LYS551  ARG553  GLY616  TRP617  ASP618  TYR619  PRO620  LYS621  CYS622 
 ASP623  PHE694  ASN695  SER759  ASP760  ASP761  ALA762  ILE779  LEU786  VAL792 
 PHE793  MET794  SER795  GLU796  ALA797  LYS798  CYS799  TRP800  GLU811  SER814 

> <Gold.Protein.RotatedAtoms>
  152.3832  133.6575  159.6177 H   0  0  0  0  0  0  0  0  0  0  0  0  # atno 6907 bound_to 6896
  150.7758  133.9078  159.3369 H   0  0  0  0  0  0  0  0  0  0  0  0  # atno 6908 bound_to 6896
  151.6880  135.0952  160.0279 H   0  0  0  0  0  0  0  0  0  0  0  0  # atno 6909 bound_to 6896
  144.7299  139.9325  143.6425 H   0  0  0  0  0  0  0  0  0  0  0  0  # atno 7974 bound_to 7965
  154.4872  140.0872  156.7514 H   0  0  0  0  0  0  0  0  0  0  0  0  # atno 8008 bound_to 7997
  155.4320  140.3450  155.4263 H   0  0  0  0  0  0  0  0  0  0  0  0  # atno 8009 bound_to 7997
  156.1279  140.1492  156.9098 H   0  0  0  0  0  0  0  0  0  0  0  0  # atno 8010 bound_to 7997
  139.4969  144.6040  151.6419 H   0  0  0  0  0  0  0  0  0  0  0  0  # atno 10167 bound_to 10162
  156.7573  130.9400  151.3117 H   0  0  0  0  0  0  0  0  0  0  0  0  # atno 10718 bound_to 10713
  154.5523  135.5658  153.6933 H   0  0  0  0  0  0  0  0  0  0  0  0  # atno 10763 bound_to 10752
  152.9993  135.6254  154.2357 H   0  0  0  0  0  0  0  0  0  0  0  0  # atno 10764 bound_to 10752
  154.2292  135.2866  155.2876 H   0  0  0  0  0  0  0  0  0  0  0  0  # atno 10765 bound_to 10752
  140.9718  133.7105  156.1537 H   0  0  0  0  0  0  0  0  0  0  0  0  # atno 11005 bound_to 11000
  146.0847  139.3835  143.0443 LP  0  0  0  0  0  0  0  0  0  0  0  0  # atno 17320 bound_to 7965
  145.7793  140.9863  143.1107 LP  0  0  0  0  0  0  0  0  0  0  0  0  # atno 17321 bound_to 7965
  140.5697  144.0130  150.6210 LP  0  0  0  0  0  0  0  0  0  0  0  0  # atno 17342 bound_to 10162
  140.3244  143.3117  152.0752 LP  0  0  0  0  0  0  0  0  0  0  0  0  # atno 17343 bound_to 10162
  157.6750  130.9086  150.0129 LP  0  0  0  0  0  0  0  0  0  0  0  0  # atno 17370 bound_to 10713
  156.1362  130.3642  149.9654 LP  0  0  0  0  0  0  0  0  0  0  0  0  # atno 17371 bound_to 10713
  140.7317  134.4247  157.5565 LP  0  0  0  0  0  0  0  0  0  0  0  0  # atno 17394 bound_to 11000
  139.8915  134.8778  156.2316 LP  0  0  0  0  0  0  0  0  0  0  0  0  # atno 17395 bound_to 11000

$$$$
