AV-unprocessed.smi:1106|AV-procd|sdf|4780|dock3
  -GOLD-   22720 3323D 1   1.00000     0.00000
 Structure written by MMmdl.
 48 49  0  0  0  0  0  0  0  0  2 V2000
  152.7599  142.6649  158.9966 C   0  0  0  0  0  0  0  0  0  0  0  0
  151.5831  142.1066  158.1827 C   0  0  0  0  0  0  0  0  0  0  0  0
  151.7818  140.7406  157.7737 N   0  0  0  0  0  0  0  0  0  0  0  0
  152.2481  139.7807  158.6508 C   0  0  0  0  0  0  0  0  0  0  0  0
  152.4458  138.4940  158.2914 C   0  0  0  0  0  0  0  0  0  0  0  0
  152.9210  137.5206  159.2180 C   0  0  0  0  0  0  0  0  0  0  0  0
  153.3149  136.7469  159.9835 N   0  0  0  0  0  0  0  0  0  0  0  0
  152.1770  138.0404  156.9285 C   0  0  0  0  0  0  0  0  0  0  0  0
  152.3115  136.8728  156.5565 O   0  0  0  0  0  0  0  0  0  0  0  0
  151.7248  139.0564  156.0489 N   0  0  0  0  0  0  0  0  0  0  0  0
  151.4307  138.6768  154.6760 C   0  0  0  0  0  0  0  0  0  0  0  0
  149.9483  138.8787  154.2927 C   0  0  1  0  0  0  0  0  0  0  0  0
  149.7830  138.5298  152.9321 O   0  0  0  0  0  0  0  0  0  0  0  0
  149.0239  137.9558  155.1114 C   0  0  0  0  0  0  0  0  0  0  0  0
  147.9019  137.4227  154.2977 N   0  3  2  0  0  0  0  0  0  0  0  0
  146.9282  138.4697  153.8896 C   0  0  0  0  0  0  0  0  0  0  0  0
  145.8677  137.8988  152.9315 C   0  0  0  0  0  0  0  0  0  0  0  0
  145.1373  136.6819  153.5284 C   0  0  2  0  0  0  0  0  0  0  0  0
  144.1312  137.0691  154.6263 C   0  0  0  0  0  0  0  0  0  0  0  0
  146.1723  135.6480  154.0089 C   0  0  0  0  0  0  0  0  0  0  0  0
  147.2267  136.2685  154.9435 C   0  0  0  0  0  0  0  0  0  0  0  0
  151.5027  140.4016  156.4291 C   0  0  0  0  0  0  0  0  0  0  0  0
  151.0785  141.2413  155.6304 O   0  0  0  0  0  0  0  0  0  0  0  0
  152.5562  143.6867  159.3166 H   0  0  0  0  0  0  0  0  0  0  0  0
  153.6812  142.6797  158.4140 H   0  0  0  0  0  0  0  0  0  0  0  0
  152.9381  142.0664  159.8904 H   0  0  0  0  0  0  0  0  0  0  0  0
  150.6680  142.1116  158.7763 H   0  0  0  0  0  0  0  0  0  0  0  0
  151.3762  142.6938  157.2859 H   0  0  0  0  0  0  0  0  0  0  0  0
  152.4621  140.0701  159.6699 H   0  0  0  0  0  0  0  0  0  0  0  0
  152.1151  139.1987  154.0049 H   0  0  0  0  0  0  0  0  0  0  0  0
  151.7212  137.6286  154.5847 H   0  0  0  0  0  0  0  0  0  0  0  0
  149.6646  139.9216  154.4324 H   0  0  0  0  0  0  0  0  0  0  0  0
  149.4147  137.6600  152.8848 H   0  0  0  0  0  0  0  0  0  0  0  0
  149.6210  137.1362  155.5153 H   0  0  0  0  0  0  0  0  0  0  0  0
  148.6168  138.4837  155.9753 H   0  0  0  0  0  0  0  0  0  0  0  0
  146.4512  138.8925  154.7748 H   0  0  0  0  0  0  0  0  0  0  0  0
  147.4438  139.2921  153.3947 H   0  0  0  0  0  0  0  0  0  0  0  0
  145.1511  138.6749  152.6604 H   0  0  0  0  0  0  0  0  0  0  0  0
  146.3560  137.6019  152.0021 H   0  0  0  0  0  0  0  0  0  0  0  0
  144.5572  136.2210  152.7277 H   0  0  0  0  0  0  0  0  0  0  0  0
  144.6157  137.5344  155.4843 H   0  0  0  0  0  0  0  0  0  0  0  0
  143.5931  136.1924  154.9876 H   0  0  0  0  0  0  0  0  0  0  0  0
  143.3894  137.7718  154.2456 H   0  0  0  0  0  0  0  0  0  0  0  0
  145.6733  134.8155  154.5064 H   0  0  0  0  0  0  0  0  0  0  0  0
  146.6779  135.2214  153.1414 H   0  0  0  0  0  0  0  0  0  0  0  0
  147.9659  135.5071  155.1952 H   0  0  0  0  0  0  0  0  0  0  0  0
  146.7715  136.5868  155.8823 H   0  0  0  0  0  0  0  0  0  0  0  0
  148.3204  137.0607  153.4524 H   0  0  0  0  0  0  0  0  0  0  0  0
  1  2  1  0  0  0  0
  1 24  1  0  0  0  0
  1 25  1  0  0  0  0
  1 26  1  0  0  0  0
  2  3  1  0  0  0  0
  2 27  1  0  0  0  0
  2 28  1  0  0  0  0
  3 22  1  0  0  0  0
  3  4  1  0  0  0  0
  4  5  2  0  0  0  0
  4 29  1  0  0  0  0
  5  6  1  0  0  0  0
  5  8  1  0  0  0  0
  6  7  3  0  0  0  0
  8  9  2  0  0  0  0
  8 10  1  0  0  0  0
 10 11  1  0  0  0  0
 10 22  1  0  0  0  0
 11 12  1  0  0  0  0
 11 30  1  0  0  0  0
 11 31  1  0  0  0  0
 12 13  1  0  0  0  0
 12 14  1  0  0  0  0
 12 32  1  0  0  0  0
 13 33  1  0  0  0  0
 14 15  1  0  0  0  0
 14 34  1  0  0  0  0
 14 35  1  0  0  0  0
 15 21  1  0  0  0  0
 15 16  1  0  0  0  0
 15 48  1  0  0  0  0
 16 17  1  0  0  0  0
 16 36  1  0  0  0  0
 16 37  1  0  0  0  0
 17 18  1  0  0  0  0
 17 38  1  0  0  0  0
 17 39  1  0  0  0  0
 18 19  1  0  0  0  0
 18 20  1  0  0  0  0
 18 40  1  0  0  0  0
 19 41  1  0  0  0  0
 19 42  1  0  0  0  0
 19 43  1  0  0  0  0
 20 21  1  0  0  0  0
 20 44  1  0  0  0  0
 20 45  1  0  0  0  0
 21 46  1  0  0  0  0
 21 47  1  0  0  0  0
 22 23  2  0  0  0  0
M  CHG  1  15   1
M  END
> <s_m_source_file>
AV-unprocessed.smi

> <i_m_source_file_index>
1106

> <i_lp_mmshare_version>
43012

> <i_f3d_flags>
0

> <s_epik_input>
W0NIM11bQ0gyXW4xW2NIXWMoQyNOKWMoPU8pbihjMT1PKVtDSDJdW0NASF0oW09IXSlbQ0gyXU4yW0NIMl1bQ0gyXVtDSF0oW0NIM10pW0NIMl1bQ0gyXTI=

> <s_epik_cmdline>
J2VwaWtfcHl0aG9uJywgJy1waCcsICc3LjAnLCAnLXRuJywgJzgnLCAnLW1hJywgJzIwMCcsICctbWV0YWxfYmluZGluZycsICctaW1hZScsICc8aW5maWxlLm1hZT4nLCAnLW9tYWUnLCAnPG91dGZpbGUubWFlPic=

> <r_epik_Ionization_Penalty>
0.00136816

> <r_epik_Ionization_Penalty_Charging>
0.00136813

> <r_epik_Ionization_Penalty_Neutral>
3.19882e-08

> <r_epik_State_Penalty>
0.000910892

> <r_epik_Charging_Adjusted_Penalty>
0.00227902

> <i_epik_Tot_Q>
1

> <i_epik_Tot_abs_Q>
1

> <r_epik_Metal_State_Penalty>
-0

> <b_epik_Metal_Only>
0

> <s_lp_Force_Field>
OPLS_2005

> <r_lp_Energy>
30.5318

> <b_lp_Chiralities_Consistent>
1

> <s_lp_Variant>
AV-unprocessed.smi:1106-4

> <Gold.Version>
5.8.1

> <Gold.Id.Protein>
6NUR|6NUR_protein|mol2

> <Gold.PLP.Fitness>
44.2291

> <Gold.PLP.PLP>
-29.7135

> <Gold.PLP.part.hbond>
-6.3840

> <Gold.PLP.part.metal>
0.0000

> <Gold.PLP.part.buried>
-0.0630

> <Gold.PLP.part.nonpolar>
-22.3967

> <Gold.PLP.part.repulsive>
0.0395

> <Gold.PLP.ligand.clash>
0.0000

> <Gold.PLP.ligand.torsion>
0.7707

> <Gold.PLP.Chemscore.Hbond>
5.3088

> <Gold.PLP.Chemscore.CHOScore>
0.0000

> <Gold.PLP.Chemscore.Metal>
0.0000

> <Gold.Chemscore.Hbonds>
donor molecule, donor type, donor heavy atom, donor atom, acceptor molecule, acceptor atom, score
      L1  H    13    33       P1  7948  0.93
      L1  H    15    48       P1  7948  2.00
      P1  H  6896  6907       L1     7  0.65
      P1  H  7989  7998       L1    23  0.30
      P1  H 10752 10763       L1     9  0.57

> <Gold.PLP.Chemscore.Internal.Correction>
0.1306

> <Gold.Rescore>
     Score         DG    S(hbond)    S(metal)    S(lipo)     H(rot)  DE(clash)    DE(int)     intcor
     17.74     -20.24       4.17        0.00      61.43       2.48       0.57       1.92       ----

> <Gold.Chemscore.Fitness>
17.7449

> <Gold.Chemscore.DG>
-20.2368

> <Gold.Chemscore.ZeroCoef>
-5.4800

> <Gold.Chemscore.Hbond>
4.1701

> <Gold.Chemscore.Metal>
0.0000

> <Gold.Chemscore.Lipo>
61.4299

> <Gold.Chemscore.Internal_Hbond>
0.0000

> <Gold.Chemscore.DEClash>
0.5745

> <Gold.Chemscore.DEInternal>
1.9174

> <Gold.Chemscore.Rot>
2.4838

> <Gold.Chemscore.Internal.Correction>
   9.000000E+99

> <Gold.Chemscore.Hbonds>
donor molecule, donor type, donor heavy atom, donor atom, acceptor molecule, acceptor atom, score
      L1  H    13    33       P1  7948  0.80
      L1  H    15    48       P1  7948  1.00
      P1  H  6896  6907       L1     7  0.60
      P1  H  7989  7998       L1    23  0.27
      P1  H 10752 10763       L1     9  0.55

> <Gold.Chemscore.Hbond.Weighted>
-13.9280

> <Gold.Chemscore.Metal.Weighted>
-0.0000

> <Gold.Chemscore.Lipo.Weighted>
-7.1873

> <Gold.Chemscore.Internal_Hbond.Weighted>
0.0000

> <Gold.Chemscore.DEClash.Weighted>
0.5745

> <Gold.Chemscore.DEInternal.Weighted>
1.9174

> <Gold.Chemscore.Rot.Weighted>
6.3585

> <Gold.Chemscore.Internal.Correction.Weighted>
   9.000000E+99

> <Gold.Protein.RotatedTorsions>
[ 6907 6896 6895 6894 ] final   51.63 input  -60.11 | X-H torsion
[ 7974 7965 7964 7962 ] final -123.21 input  175.53 | X-H torsion
[ 8008 7997 7996 7995 ] final  125.89 input   59.86 | X-H torsion
[ 10167 10162 10161 10158 ] final  -90.97 input  -65.29 | X-H torsion
[ 10718 10713 10712 10709 ] final  -76.47 input   66.30 | X-H torsion
[ 10763 10752 10751 10750 ] final   99.30 input  -60.55 | X-H torsion
[ 11005 11000 10999 10996 ] final -130.53 input  -57.11 | X-H torsion

> <Gold.Protein.ActiveResidues>
 VAL166  LYS551  ARG553  GLY616  TRP617  ASP618  TYR619  PRO620  LYS621  CYS622 
 ASP623  PHE694  ASN695  SER759  ASP760  ASP761  ALA762  ILE779  LEU786  VAL792 
 PHE793  MET794  SER795  GLU796  ALA797  LYS798  CYS799  TRP800  GLU811  SER814 

> <Gold.Protein.RotatedAtoms>
  152.3147  134.7455  160.0327 H   0  0  0  0  0  0  0  0  0  0  0  0  # atno 6907 bound_to 6896
  151.7923  133.3355  159.3511 H   0  0  0  0  0  0  0  0  0  0  0  0  # atno 6908 bound_to 6896
  150.7338  134.5761  159.5959 H   0  0  0  0  0  0  0  0  0  0  0  0  # atno 6909 bound_to 6896
  145.0211  140.7989  143.4380 H   0  0  0  0  0  0  0  0  0  0  0  0  # atno 7974 bound_to 7965
  156.2848  140.2706  156.2022 H   0  0  0  0  0  0  0  0  0  0  0  0  # atno 8008 bound_to 7997
  155.0350  140.0386  157.2506 H   0  0  0  0  0  0  0  0  0  0  0  0  # atno 8009 bound_to 7997
  154.7323  140.2709  155.6451 H   0  0  0  0  0  0  0  0  0  0  0  0  # atno 8010 bound_to 7997
  140.3495  143.2898  151.9742 H   0  0  0  0  0  0  0  0  0  0  0  0  # atno 10167 bound_to 10162
  156.0174  130.4466  150.3199 H   0  0  0  0  0  0  0  0  0  0  0  0  # atno 10718 bound_to 10713
  153.2997  135.4118  155.1242 H   0  0  0  0  0  0  0  0  0  0  0  0  # atno 10763 bound_to 10752
  154.8545  135.3538  154.5868 H   0  0  0  0  0  0  0  0  0  0  0  0  # atno 10764 bound_to 10752
  153.6293  135.7061  153.5340 H   0  0  0  0  0  0  0  0  0  0  0  0  # atno 10765 bound_to 10752
  140.9338  134.1284  157.4212 H   0  0  0  0  0  0  0  0  0  0  0  0  # atno 11005 bound_to 11000
  145.1894  139.2309  143.5250 LP  0  0  0  0  0  0  0  0  0  0  0  0  # atno 17320 bound_to 7965
  146.3485  140.1687  142.8590 LP  0  0  0  0  0  0  0  0  0  0  0  0  # atno 17321 bound_to 7965
  139.4828  144.6088  151.7472 LP  0  0  0  0  0  0  0  0  0  0  0  0  # atno 17342 bound_to 10162
  140.5232  144.0846  150.6029 LP  0  0  0  0  0  0  0  0  0  0  0  0  # atno 17343 bound_to 10162
  157.1299  131.0269  151.2973 LP  0  0  0  0  0  0  0  0  0  0  0  0  # atno 17370 bound_to 10713
  157.4559  130.7625  149.7192 LP  0  0  0  0  0  0  0  0  0  0  0  0  # atno 17371 bound_to 10713
  139.8803  135.0014  156.6065 LP  0  0  0  0  0  0  0  0  0  0  0  0  # atno 17394 bound_to 11000
  140.7827  133.8647  155.8581 LP  0  0  0  0  0  0  0  0  0  0  0  0  # atno 17395 bound_to 11000

$$$$
