AV-unprocessed.smi:2898|AV-procd|sdf|11141|dock3
  -GOLD-   2272016 23D 1   1.00000     0.00000
 Structure written by MMmdl.
 44 45  0  0  0  0  0  0  0  0  1 V2000
  145.6015  140.3580  157.2612 C   0  0  0  0  0  0  0  0  0  0  0  0
  145.8012  139.7885  155.8859 C   0  0  0  0  0  0  0  0  0  0  0  0
  145.3088  138.5966  155.5977 N   0  0  0  0  0  0  0  0  0  0  0  0
  145.6797  138.3411  154.2754 O   0  0  0  0  0  0  0  0  0  0  0  0
  146.3919  139.4003  153.8136 C   0  0  0  0  0  0  0  0  0  0  0  0
  146.8954  139.2922  152.4135 C   0  0  0  0  0  0  0  0  0  0  0  0
  146.5004  140.3619  154.7841 C   0  0  0  0  0  0  0  0  0  0  0  0
  147.2135  141.6987  154.7537 C   0  0  2  0  0  0  0  0  0  0  0  0
  146.6434  142.6244  153.6679 C   0  0  0  0  0  0  0  0  0  0  0  0
  148.7438  141.5434  154.6177 C   0  0  0  0  0  0  0  0  0  0  0  0
  149.4550  142.2287  155.6945 N   0  0  0  0  0  0  0  0  0  0  0  0
  150.3219  141.6607  156.5513 C   0  0  0  0  0  0  0  0  0  0  0  0
  150.6835  140.4876  156.4449 O   0  0  0  0  0  0  0  0  0  0  0  0
  150.8436  142.5222  157.7228 C   0  0  0  0  0  0  0  0  0  0  0  0
  149.7331  143.0074  158.5696 C   0  0  0  0  0  0  0  0  0  0  0  0
  148.8638  143.3869  159.2335 N   0  0  0  0  0  0  0  0  0  0  0  0
  151.8067  141.6672  158.5856 C   0  0  0  0  0  0  0  0  0  0  0  0
  152.4659  142.4866  159.7091 C   0  0  0  0  0  0  0  0  0  0  0  0
  153.2111  143.7030  159.1393 C   0  0  0  0  0  0  0  0  0  0  0  0
  152.2879  144.5689  158.2691 C   0  0  0  0  0  0  0  0  0  0  0  0
  151.6303  143.7313  157.1580 C   0  0  0  0  0  0  0  0  0  0  0  0
  146.5595  140.5204  157.7558 H   0  0  0  0  0  0  0  0  0  0  0  0
  145.0123  139.6934  157.8943 H   0  0  0  0  0  0  0  0  0  0  0  0
  145.0836  141.3160  157.2150 H   0  0  0  0  0  0  0  0  0  0  0  0
  147.9121  139.6757  152.3339 H   0  0  0  0  0  0  0  0  0  0  0  0
  146.2628  139.8596  151.7312 H   0  0  0  0  0  0  0  0  0  0  0  0
  146.9047  138.2542  152.0804 H   0  0  0  0  0  0  0  0  0  0  0  0
  147.0398  142.2080  155.7025 H   0  0  0  0  0  0  0  0  0  0  0  0
  145.5705  142.7677  153.7984 H   0  0  0  0  0  0  0  0  0  0  0  0
  146.8083  142.2260  152.6673 H   0  0  0  0  0  0  0  0  0  0  0  0
  147.1130  143.6075  153.7089 H   0  0  0  0  0  0  0  0  0  0  0  0
  149.0180  140.4881  154.5836 H   0  0  0  0  0  0  0  0  0  0  0  0
  149.0748  141.9694  153.6701 H   0  0  0  0  0  0  0  0  0  0  0  0
  149.2180  143.1992  155.8418 H   0  0  0  0  0  0  0  0  0  0  0  0
  151.2677  140.8261  159.0241 H   0  0  0  0  0  0  0  0  0  0  0  0
  152.5921  141.2324  157.9652 H   0  0  0  0  0  0  0  0  0  0  0  0
  151.7112  142.8184  160.4227 H   0  0  0  0  0  0  0  0  0  0  0  0
  153.1592  141.8574  160.2677 H   0  0  0  0  0  0  0  0  0  0  0  0
  153.6251  144.3004  159.9520 H   0  0  0  0  0  0  0  0  0  0  0  0
  154.0589  143.3631  158.5431 H   0  0  0  0  0  0  0  0  0  0  0  0
  151.5217  145.0311  158.8923 H   0  0  0  0  0  0  0  0  0  0  0  0
  152.8575  145.3870  157.8274 H   0  0  0  0  0  0  0  0  0  0  0  0
  152.4075  143.3930  156.4706 H   0  0  0  0  0  0  0  0  0  0  0  0
  150.9648  144.3683  156.5737 H   0  0  0  0  0  0  0  0  0  0  0  0
  1  2  1  0  0  0  0
  1 22  1  0  0  0  0
  1 23  1  0  0  0  0
  1 24  1  0  0  0  0
  2  7  1  0  0  0  0
  2  3  2  0  0  0  0
  3  4  1  0  0  0  0
  4  5  1  0  0  0  0
  5  6  1  0  0  0  0
  5  7  2  0  0  0  0
  6 25  1  0  0  0  0
  6 26  1  0  0  0  0
  6 27  1  0  0  0  0
  7  8  1  0  0  0  0
  8  9  1  0  0  0  0
  8 10  1  0  0  0  0
  8 28  1  0  0  0  0
  9 29  1  0  0  0  0
  9 30  1  0  0  0  0
  9 31  1  0  0  0  0
 10 11  1  0  0  0  0
 10 32  1  0  0  0  0
 10 33  1  0  0  0  0
 11 12  1  0  0  0  0
 11 34  1  0  0  0  0
 12 13  2  0  0  0  0
 12 14  1  0  0  0  0
 14 21  1  0  0  0  0
 14 15  1  0  0  0  0
 14 17  1  0  0  0  0
 15 16  3  0  0  0  0
 17 18  1  0  0  0  0
 17 35  1  0  0  0  0
 17 36  1  0  0  0  0
 18 19  1  0  0  0  0
 18 37  1  0  0  0  0
 18 38  1  0  0  0  0
 19 20  1  0  0  0  0
 19 39  1  0  0  0  0
 19 40  1  0  0  0  0
 20 21  1  0  0  0  0
 20 41  1  0  0  0  0
 20 42  1  0  0  0  0
 21 43  1  0  0  0  0
 21 44  1  0  0  0  0
M  END
> <s_m_source_file>
AV-unprocessed.smi

> <i_m_source_file_index>
2898

> <i_lp_mmshare_version>
43012

> <i_f3d_flags>
0

> <s_epik_input>
W0NIM11jMW5vYyhbQ0gzXSljMVtDQEhdKFtDSDNdKVtDSDJdW05IXUMoPU8pQzIoQyNOKVtDSDJdW0NIMl1bQ0gyXVtDSDJdW0NIMl0y

> <s_epik_cmdline>
J2VwaWtfcHl0aG9uJywgJy1waCcsICc3LjAnLCAnLXRuJywgJzgnLCAnLW1hJywgJzIwMCcsICctbWV0YWxfYmluZGluZycsICctaW1hZScsICc8aW5maWxlLm1hZT4nLCAnLW9tYWUnLCAnPG91dGZpbGUubWFlPic=

> <r_lp_tautomer_probability>
1

> <r_epik_Ionization_Penalty>
4.33734e-07

> <r_epik_Ionization_Penalty_Charging>
0

> <r_epik_Ionization_Penalty_Neutral>
4.33734e-07

> <r_epik_State_Penalty>
-0

> <r_epik_Charging_Adjusted_Penalty>
0

> <i_epik_Tot_Q>
0

> <i_epik_Tot_abs_Q>
0

> <r_epik_Metal_State_Penalty>
-0

> <b_epik_Metal_Only>
0

> <s_lp_Force_Field>
OPLS_2005

> <r_lp_Energy>
7.89046

> <b_lp_Chiralities_Consistent>
1

> <s_lp_Variant>
AV-unprocessed.smi:2898-1

> <Gold.Version>
5.8.1

> <Gold.Id.Protein>
6NUR|6NUR_protein|mol2

> <Gold.PLP.Fitness>
39.9839

> <Gold.PLP.PLP>
-38.0529

> <Gold.PLP.part.hbond>
-2.0000

> <Gold.PLP.part.metal>
0.0000

> <Gold.PLP.part.buried>
-4.1181

> <Gold.PLP.part.nonpolar>
-32.7595

> <Gold.PLP.part.repulsive>
0.4410

> <Gold.PLP.ligand.clash>
0.0000

> <Gold.PLP.ligand.torsion>
0.7632

> <Gold.PLP.Chemscore.Hbond>
1.1248

> <Gold.PLP.Chemscore.CHOScore>
0.0000

> <Gold.PLP.Chemscore.Metal>
0.0000

> <Gold.Chemscore.Hbonds>
donor molecule, donor type, donor heavy atom, donor atom, acceptor molecule, acceptor atom, score
      L1  H    11    34       P1  8028  1.00

> <Gold.PLP.Chemscore.Internal.Correction>
0.0830

> <Gold.Rescore>
     Score         DG    S(hbond)    S(metal)    S(lipo)     H(rot)  DE(clash)    DE(int)     intcor
     16.44     -18.53       1.39        0.00     105.36       1.52       1.33       0.76       ----

> <Gold.Chemscore.Fitness>
16.4360

> <Gold.Chemscore.DG>
-18.5343

> <Gold.Chemscore.ZeroCoef>
-5.4800

> <Gold.Chemscore.Hbond>
1.3860

> <Gold.Chemscore.Metal>
0.0000

> <Gold.Chemscore.Lipo>
105.3633

> <Gold.Chemscore.Internal_Hbond>
0.0000

> <Gold.Chemscore.DEClash>
1.3339

> <Gold.Chemscore.DEInternal>
0.7645

> <Gold.Chemscore.Rot>
1.5243

> <Gold.Chemscore.Internal.Correction>
   9.000000E+99

> <Gold.Chemscore.Hbonds>
donor molecule, donor type, donor heavy atom, donor atom, acceptor molecule, acceptor atom, score
      L1  H    11    34       P1  8028  0.97
      P1  H  6933  6944       L1    16  0.03

> <Gold.Chemscore.Hbond.Weighted>
-4.6291

> <Gold.Chemscore.Metal.Weighted>
-0.0000

> <Gold.Chemscore.Lipo.Weighted>
-12.3275

> <Gold.Chemscore.Internal_Hbond.Weighted>
0.0000

> <Gold.Chemscore.DEClash.Weighted>
1.3339

> <Gold.Chemscore.DEInternal.Weighted>
0.7645

> <Gold.Chemscore.Rot.Weighted>
3.9022

> <Gold.Chemscore.Internal.Correction.Weighted>
   9.000000E+99

> <Gold.Protein.RotatedTorsions>
[ 6907 6896 6895 6894 ] final   82.88 input  -60.11 | X-H torsion
[ 7974 7965 7964 7962 ] final  174.96 input  175.53 | X-H torsion
[ 8008 7997 7996 7995 ] final  123.84 input   59.86 | X-H torsion
[ 10167 10162 10161 10158 ] final -159.90 input  -65.29 | X-H torsion
[ 10718 10713 10712 10709 ] final -159.85 input   66.30 | X-H torsion
[ 10763 10752 10751 10750 ] final  112.81 input  -60.55 | X-H torsion
[ 11005 11000 10999 10996 ] final   67.73 input  -57.11 | X-H torsion

> <Gold.Protein.ActiveResidues>
 VAL166  LYS551  ARG553  GLY616  TRP617  ASP618  TYR619  PRO620  LYS621  CYS622 
 ASP623  PHE694  ASN695  SER759  ASP760  ASP761  ALA762  ILE779  LEU786  VAL792 
 PHE793  MET794  SER795  GLU796  ALA797  LYS798  CYS799  TRP800  GLU811  SER814 

> <Gold.Protein.RotatedAtoms>
  152.5312  134.2981  159.9067 H   0  0  0  0  0  0  0  0  0  0  0  0  # atno 6907 bound_to 6896
  151.2932  133.4149  159.2642 H   0  0  0  0  0  0  0  0  0  0  0  0  # atno 6908 bound_to 6896
  151.0183  134.9465  159.8102 H   0  0  0  0  0  0  0  0  0  0  0  0  # atno 6909 bound_to 6896
  144.7211  139.9875  143.6439 H   0  0  0  0  0  0  0  0  0  0  0  0  # atno 7974 bound_to 7965
  156.2780  140.2753  156.1692 H   0  0  0  0  0  0  0  0  0  0  0  0  # atno 8008 bound_to 7997
  155.0673  140.0387  157.2614 H   0  0  0  0  0  0  0  0  0  0  0  0  # atno 8009 bound_to 7997
  154.7069  140.2660  155.6672 H   0  0  0  0  0  0  0  0  0  0  0  0  # atno 8010 bound_to 7997
  139.6580  143.9964  152.2206 H   0  0  0  0  0  0  0  0  0  0  0  0  # atno 10167 bound_to 10162
  156.5739  130.8700  151.2845 H   0  0  0  0  0  0  0  0  0  0  0  0  # atno 10718 bound_to 10713
  153.4833  135.3675  155.2453 H   0  0  0  0  0  0  0  0  0  0  0  0  # atno 10763 bound_to 10752
  154.8754  135.3959  154.3675 H   0  0  0  0  0  0  0  0  0  0  0  0  # atno 10764 bound_to 10752
  153.4282  135.7082  153.6314 H   0  0  0  0  0  0  0  0  0  0  0  0  # atno 10765 bound_to 10752
  139.9753  134.6832  156.0365 H   0  0  0  0  0  0  0  0  0  0  0  0  # atno 11005 bound_to 11000
  146.0438  139.3446  143.0681 LP  0  0  0  0  0  0  0  0  0  0  0  0  # atno 17320 bound_to 7965
  145.8301  140.9635  143.0853 LP  0  0  0  0  0  0  0  0  0  0  0  0  # atno 17321 bound_to 7965
  139.9696  144.6503  150.8002 LP  0  0  0  0  0  0  0  0  0  0  0  0  # atno 17342 bound_to 10162
  140.7567  143.3072  151.2933 LP  0  0  0  0  0  0  0  0  0  0  0  0  # atno 17343 bound_to 10162
  157.7342  130.9742  150.2016 LP  0  0  0  0  0  0  0  0  0  0  0  0  # atno 17370 bound_to 10713
  156.2690  130.3719  149.8051 LP  0  0  0  0  0  0  0  0  0  0  0  0  # atno 17371 bound_to 10713
  141.1431  133.6561  156.3787 LP  0  0  0  0  0  0  0  0  0  0  0  0  # atno 17394 bound_to 11000
  140.5207  134.6307  157.5317 LP  0  0  0  0  0  0  0  0  0  0  0  0  # atno 17395 bound_to 11000

$$$$
