AV-unprocessed.smi:2439|AV-procd|sdf|9608|dock10
  -GOLD-   2272013243D 1   1.00000     0.00000
 Structure written by MMmdl.
 41 43  0  0  0  0  0  0  0  0  2 V2000
  154.5715  139.2911  160.6843 N   0  0  0  0  0  0  0  0  0  0  0  0
  154.0484  140.2612  160.3326 C   0  0  0  0  0  0  0  0  0  0  0  0
  153.3883  141.4829  159.8887 C   0  0  0  0  0  0  0  0  0  0  0  0
  153.7451  142.7081  160.4902 C   0  0  0  0  0  0  0  0  0  0  0  0
  153.1100  143.8902  160.0676 C   0  0  0  0  0  0  0  0  0  0  0  0
  152.1392  143.7988  159.0541 C   0  0  0  0  0  0  0  0  0  0  0  0
  151.7883  142.6336  158.4709 N   0  0  0  0  0  0  0  0  0  0  0  0
  152.3951  141.4894  158.8724 C   0  0  0  0  0  0  0  0  0  0  0  0
  152.0104  140.2897  158.2445 N   0  0  0  0  0  0  0  0  0  0  0  0
  151.9322  140.1642  156.7937 C   0  0  0  0  0  0  0  0  0  0  0  0
  150.5033  140.3673  156.2608 C   0  0  1  0  0  0  0  0  0  0  0  0
  149.9929  141.7963  156.5490 C   0  0  0  0  0  0  0  0  0  0  0  0
  148.6665  142.0376  155.9308 N   0  3  2  0  0  0  0  0  0  0  0  0
  147.5409  141.4177  156.6821 C   0  0  0  0  0  0  0  0  0  0  0  0
  146.1878  141.7582  156.0408 C   0  0  0  0  0  0  0  0  0  0  0  0
  146.1587  141.3158  154.5737 C   0  0  0  0  0  0  0  0  0  0  0  0
  147.3235  141.9620  153.8113 C   0  0  0  0  0  0  0  0  0  0  0  0
  148.6895  141.6990  154.4807 C   0  0  2  0  0  0  0  0  0  0  0  0
  149.2287  140.2696  154.2632 C   0  0  0  0  0  0  0  0  0  0  0  0
  150.5205  140.1624  154.8508 O   0  0  0  0  0  0  0  0  0  0  0  0
  154.4958  142.7471  161.2665 H   0  0  0  0  0  0  0  0  0  0  0  0
  153.3623  144.8431  160.5089 H   0  0  0  0  0  0  0  0  0  0  0  0
  151.6299  144.6837  158.7025 H   0  0  0  0  0  0  0  0  0  0  0  0
  151.6934  139.5152  158.8104 H   0  0  0  0  0  0  0  0  0  0  0  0
  152.6148  140.8791  156.3327 H   0  0  0  0  0  0  0  0  0  0  0  0
  152.2968  139.1760  156.5120 H   0  0  0  0  0  0  0  0  0  0  0  0
  149.8380  139.6389  156.7256 H   0  0  0  0  0  0  0  0  0  0  0  0
  149.9456  141.9817  157.6229 H   0  0  0  0  0  0  0  0  0  0  0  0
  150.6962  142.5237  156.1412 H   0  0  0  0  0  0  0  0  0  0  0  0
  147.6586  140.3352  156.7288 H   0  0  0  0  0  0  0  0  0  0  0  0
  147.5539  141.7776  157.7115 H   0  0  0  0  0  0  0  0  0  0  0  0
  145.3814  141.2736  156.5922 H   0  0  0  0  0  0  0  0  0  0  0  0
  146.0074  142.8318  156.1073 H   0  0  0  0  0  0  0  0  0  0  0  0
  146.2242  140.2291  154.5107 H   0  0  0  0  0  0  0  0  0  0  0  0
  145.2097  141.5970  154.1160 H   0  0  0  0  0  0  0  0  0  0  0  0
  147.3350  141.6137  152.7779 H   0  0  0  0  0  0  0  0  0  0  0  0
  147.1549  143.0389  153.7639 H   0  0  0  0  0  0  0  0  0  0  0  0
  149.4044  142.3774  154.0121 H   0  0  0  0  0  0  0  0  0  0  0  0
  148.5619  139.5126  154.6778 H   0  0  0  0  0  0  0  0  0  0  0  0
  149.3169  140.0605  153.1968 H   0  0  0  0  0  0  0  0  0  0  0  0
  148.5050  143.0334  155.9856 H   0  0  0  0  0  0  0  0  0  0  0  0
  1  2  3  0  0  0  0
  2  3  1  0  0  0  0
  3  8  1  0  0  0  0
  3  4  2  0  0  0  0
  4  5  1  0  0  0  0
  4 21  1  0  0  0  0
  5  6  2  0  0  0  0
  5 22  1  0  0  0  0
  6  7  1  0  0  0  0
  6 23  1  0  0  0  0
  7  8  2  0  0  0  0
  8  9  1  0  0  0  0
  9 10  1  0  0  0  0
  9 24  1  0  0  0  0
 10 11  1  0  0  0  0
 10 25  1  0  0  0  0
 10 26  1  0  0  0  0
 11 20  1  0  0  0  0
 11 12  1  0  0  0  0
 11 27  1  0  0  0  0
 12 13  1  0  0  0  0
 12 28  1  0  0  0  0
 12 29  1  0  0  0  0
 13 18  1  0  0  0  0
 13 14  1  0  0  0  0
 13 41  1  0  0  0  0
 14 15  1  0  0  0  0
 14 30  1  0  0  0  0
 14 31  1  0  0  0  0
 15 16  1  0  0  0  0
 15 32  1  0  0  0  0
 15 33  1  0  0  0  0
 16 17  1  0  0  0  0
 16 34  1  0  0  0  0
 16 35  1  0  0  0  0
 17 18  1  0  0  0  0
 17 36  1  0  0  0  0
 17 37  1  0  0  0  0
 18 19  1  0  0  0  0
 18 38  1  0  0  0  0
 19 20  1  0  0  0  0
 19 39  1  0  0  0  0
 19 40  1  0  0  0  0
M  CHG  1  13   1
M  END
> <s_m_source_file>
AV-unprocessed.smi

> <i_m_source_file_index>
2439

> <i_lp_mmshare_version>
43012

> <i_f3d_flags>
0

> <s_epik_input>
TiNDYzFbY0hdW2NIXVtjSF1uYzFbTkhdW0NIMl1bQ0BIXShbQ0gyXTIpT1tDSDJdW0NAQEhdKE4yMylbQ0gyXVtDSDJdW0NIMl1bQ0gyXTM=

> <s_epik_cmdline>
J2VwaWtfcHl0aG9uJywgJy1waCcsICc3LjAnLCAnLXRuJywgJzgnLCAnLW1hJywgJzIwMCcsICctbWV0YWxfYmluZGluZycsICctaW1hZScsICc8aW5maWxlLm1hZT4nLCAnLW9tYWUnLCAnPG91dGZpbGUubWFlPic=

> <r_epik_Ionization_Penalty>
0.0803594

> <r_epik_Ionization_Penalty_Charging>
0.0803403

> <r_epik_Ionization_Penalty_Neutral>
1.90988e-05

> <r_epik_State_Penalty>
0.0711481

> <r_epik_Charging_Adjusted_Penalty>
0.151488

> <i_epik_Tot_Q>
1

> <i_epik_Tot_abs_Q>
1

> <r_epik_Metal_State_Penalty>
0.0711482

> <b_epik_Metal_Only>
0

> <s_lp_Force_Field>
OPLS_2005

> <r_lp_Energy>
31.3602

> <b_lp_Chiralities_Consistent>
1

> <s_lp_Variant>
AV-unprocessed.smi:2439-6

> <Gold.Version>
5.8.1

> <Gold.Id.Protein>
6NUR|6NUR_protein|mol2

> <Gold.PLP.Fitness>
44.7797

> <Gold.PLP.PLP>
-37.0208

> <Gold.PLP.part.hbond>
-2.0000

> <Gold.PLP.part.metal>
0.0000

> <Gold.PLP.part.buried>
-4.3982

> <Gold.PLP.part.nonpolar>
-31.0449

> <Gold.PLP.part.repulsive>
0.2482

> <Gold.PLP.ligand.clash>
0.0000

> <Gold.PLP.ligand.torsion>
0.5972

> <Gold.PLP.Chemscore.Hbond>
2.9840

> <Gold.PLP.Chemscore.CHOScore>
0.0000

> <Gold.PLP.Chemscore.Metal>
0.0000

> <Gold.Chemscore.Hbonds>
donor molecule, donor type, donor heavy atom, donor atom, acceptor molecule, acceptor atom, score
      L1  H    13    41       P1  8028  2.00
      P1  H  7989  7998       L1    20  1.00

> <Gold.PLP.Chemscore.Internal.Correction>
0.0012

> <Gold.Rescore>
     Score         DG    S(hbond)    S(metal)    S(lipo)     H(rot)  DE(clash)    DE(int)     intcor
     14.60     -16.78       0.98        0.00      96.31       1.27       0.12       2.06       ----

> <Gold.Chemscore.Fitness>
14.5981

> <Gold.Chemscore.DG>
-16.7838

> <Gold.Chemscore.ZeroCoef>
-5.4800

> <Gold.Chemscore.Hbond>
0.9811

> <Gold.Chemscore.Metal>
0.0000

> <Gold.Chemscore.Lipo>
96.3058

> <Gold.Chemscore.Internal_Hbond>
0.0000

> <Gold.Chemscore.DEClash>
0.1220

> <Gold.Chemscore.DEInternal>
2.0637

> <Gold.Chemscore.Rot>
1.2659

> <Gold.Chemscore.Internal.Correction>
   9.000000E+99

> <Gold.Chemscore.Hbonds>
donor molecule, donor type, donor heavy atom, donor atom, acceptor molecule, acceptor atom, score
      L1  H    13    41       P1  8028  0.95
      P1  H  7989  7998       L1    20  0.35

> <Gold.Chemscore.Hbond.Weighted>
-3.2768

> <Gold.Chemscore.Metal.Weighted>
-0.0000

> <Gold.Chemscore.Lipo.Weighted>
-11.2678

> <Gold.Chemscore.Internal_Hbond.Weighted>
0.0000

> <Gold.Chemscore.DEClash.Weighted>
0.1220

> <Gold.Chemscore.DEInternal.Weighted>
2.0637

> <Gold.Chemscore.Rot.Weighted>
3.2408

> <Gold.Chemscore.Internal.Correction.Weighted>
   9.000000E+99

> <Gold.Protein.RotatedTorsions>
[ 6907 6896 6895 6894 ] final   26.06 input  -60.11 | X-H torsion
[ 7974 7965 7964 7962 ] final -148.27 input  175.53 | X-H torsion
[ 8008 7997 7996 7995 ] final  146.74 input   59.86 | X-H torsion
[ 10167 10162 10161 10158 ] final -146.52 input  -65.29 | X-H torsion
[ 10718 10713 10712 10709 ] final  -66.14 input   66.30 | X-H torsion
[ 10763 10752 10751 10750 ] final  161.94 input  -60.55 | X-H torsion
[ 11005 11000 10999 10996 ] final  132.53 input  -57.11 | X-H torsion

> <Gold.Protein.ActiveResidues>
 VAL166  LYS551  ARG553  GLY616  TRP617  ASP618  TYR619  PRO620  LYS621  CYS622 
 ASP623  PHE694  ASN695  SER759  ASP760  ASP761  ALA762  ILE779  LEU786  VAL792 
 PHE793  MET794  SER795  GLU796  ALA797  LYS798  CYS799  TRP800  GLU811  SER814 

> <Gold.Protein.RotatedAtoms>
  151.9818  135.0025  160.0557 H   0  0  0  0  0  0  0  0  0  0  0  0  # atno 6907 bound_to 6896
  152.1689  133.4626  159.4907 H   0  0  0  0  0  0  0  0  0  0  0  0  # atno 6908 bound_to 6896
  150.6899  134.1895  159.4322 H   0  0  0  0  0  0  0  0  0  0  0  0  # atno 6909 bound_to 6896
  144.8040  140.5218  143.5688 H   0  0  0  0  0  0  0  0  0  0  0  0  # atno 7974 bound_to 7965
  156.2846  140.2174  156.5426 H   0  0  0  0  0  0  0  0  0  0  0  0  # atno 8008 bound_to 7997
  154.7357  140.0492  157.0789 H   0  0  0  0  0  0  0  0  0  0  0  0  # atno 8009 bound_to 7997
  155.0295  140.3133  155.4766 H   0  0  0  0  0  0  0  0  0  0  0  0  # atno 8010 bound_to 7997
  139.7706  143.8244  152.2624 H   0  0  0  0  0  0  0  0  0  0  0  0  # atno 10167 bound_to 10162
  156.0629  130.4257  150.1666 H   0  0  0  0  0  0  0  0  0  0  0  0  # atno 10718 bound_to 10713
  154.2707  135.2766  155.2739 H   0  0  0  0  0  0  0  0  0  0  0  0  # atno 10763 bound_to 10752
  154.5304  135.5731  153.6757 H   0  0  0  0  0  0  0  0  0  0  0  0  # atno 10764 bound_to 10752
  152.9945  135.6226  154.2862 H   0  0  0  0  0  0  0  0  0  0  0  0  # atno 10765 bound_to 10752
  139.9796  134.9552  156.9595 H   0  0  0  0  0  0  0  0  0  0  0  0  # atno 11005 bound_to 11000
  145.5484  139.1476  143.3408 LP  0  0  0  0  0  0  0  0  0  0  0  0  # atno 17320 bound_to 7965
  146.2327  140.5622  142.8968 LP  0  0  0  0  0  0  0  0  0  0  0  0  # atno 17321 bound_to 7965
  139.8277  144.7268  150.9491 LP  0  0  0  0  0  0  0  0  0  0  0  0  # atno 17342 bound_to 10162
  140.7813  143.4099  151.1010 LP  0  0  0  0  0  0  0  0  0  0  0  0  # atno 17343 bound_to 10162
  156.9731  130.9841  151.3454 LP  0  0  0  0  0  0  0  0  0  0  0  0  # atno 17370 bound_to 10713
  157.5651  130.8272  149.8316 LP  0  0  0  0  0  0  0  0  0  0  0  0  # atno 17371 bound_to 10713
  140.5124  134.0988  155.7273 LP  0  0  0  0  0  0  0  0  0  0  0  0  # atno 17394 bound_to 11000
  141.1469  133.9038  157.2193 LP  0  0  0  0  0  0  0  0  0  0  0  0  # atno 17395 bound_to 11000

$$$$
