AV-unprocessed.smi:3165|AV-procd|sdf|12085|dock3
  -GOLD-   2272017513D 1   1.00000     0.00000
 Structure written by MMmdl.
 38 39  0  0  0  0  0  0  0  0  2 V2000
  149.3656  141.5727  155.3519 C   0  0  0  0  0  0  0  0  0  0  0  0
  150.8004  141.8220  155.8454 C   0  0  2  0  0  0  0  0  0  0  0  0
  151.3787  140.6083  156.6095 C   0  0  0  0  0  0  0  0  0  0  0  0
  151.3281  139.3789  155.8391 N   0  0  0  0  0  0  0  0  0  0  0  0
  151.4792  138.0802  156.2783 C   0  0  0  0  0  0  0  0  0  0  0  0
  151.3622  137.2671  155.1874 C   0  0  0  0  0  0  0  0  0  0  0  0
  151.1438  138.1726  154.1119 C   0  0  0  0  0  0  0  0  0  0  0  0
  151.1269  139.4360  154.5049 N   0  0  0  0  0  0  0  0  0  0  0  0
  150.8253  143.0419  156.6833 N   0  3  0  0  0  0  0  0  0  0  0  0
  152.1432  143.7021  156.7979 C   0  0  0  0  0  0  0  0  0  0  0  0
  152.4686  144.0372  158.2603 C   0  0  2  0  0  0  0  0  0  0  0  0
  152.4264  142.7836  159.1560 C   0  0  0  0  0  0  0  0  0  0  0  0
  152.6557  143.1597  160.6241 C   0  0  0  0  0  0  0  0  0  0  0  0
  151.6674  144.2555  161.0355 C   0  0  0  0  0  0  0  0  0  0  0  0
  151.7375  145.4333  160.0510 C   0  0  0  0  0  0  0  0  0  0  0  0
  151.4967  144.9728  158.7241 O   0  0  0  0  0  0  0  0  0  0  0  0
  149.3199  140.7355  154.6549 H   0  0  0  0  0  0  0  0  0  0  0  0
  148.9730  142.4461  154.8297 H   0  0  0  0  0  0  0  0  0  0  0  0
  148.6937  141.3511  156.1816 H   0  0  0  0  0  0  0  0  0  0  0  0
  151.4157  142.0121  154.9645 H   0  0  0  0  0  0  0  0  0  0  0  0
  152.4186  140.7791  156.8882 H   0  0  0  0  0  0  0  0  0  0  0  0
  150.8304  140.4537  157.5398 H   0  0  0  0  0  0  0  0  0  0  0  0
  151.6538  137.8440  157.3178 H   0  0  0  0  0  0  0  0  0  0  0  0
  151.4253  136.1893  155.1603 H   0  0  0  0  0  0  0  0  0  0  0  0
  151.0000  137.9514  153.0645 H   0  0  0  0  0  0  0  0  0  0  0  0
  150.1923  143.7102  156.2676 H   0  0  0  0  0  0  0  0  0  0  0  0
  152.9252  143.0677  156.3809 H   0  0  0  0  0  0  0  0  0  0  0  0
  152.1252  144.6198  156.2086 H   0  0  0  0  0  0  0  0  0  0  0  0
  153.4624  144.4863  158.3132 H   0  0  0  0  0  0  0  0  0  0  0  0
  151.4588  142.2902  159.0542 H   0  0  0  0  0  0  0  0  0  0  0  0
  153.1795  142.0631  158.8354 H   0  0  0  0  0  0  0  0  0  0  0  0
  152.5420  142.2842  161.2641 H   0  0  0  0  0  0  0  0  0  0  0  0
  153.6777  143.5169  160.7575 H   0  0  0  0  0  0  0  0  0  0  0  0
  150.6546  143.8510  161.0474 H   0  0  0  0  0  0  0  0  0  0  0  0
  151.8806  144.5957  162.0492 H   0  0  0  0  0  0  0  0  0  0  0  0
  150.9851  146.1795  160.3067 H   0  0  0  0  0  0  0  0  0  0  0  0
  152.7081  145.9288  160.1052 H   0  0  0  0  0  0  0  0  0  0  0  0
  150.4861  142.8140  157.6073 H   0  0  0  0  0  0  0  0  0  0  0  0
  1  2  1  0  0  0  0
  1 17  1  0  0  0  0
  1 18  1  0  0  0  0
  1 19  1  0  0  0  0
  2  3  1  0  0  0  0
  2  9  1  0  0  0  0
  2 20  1  0  0  0  0
  3  4  1  0  0  0  0
  3 21  1  0  0  0  0
  3 22  1  0  0  0  0
  4  8  1  0  0  0  0
  4  5  1  0  0  0  0
  5  6  2  0  0  0  0
  5 23  1  0  0  0  0
  6  7  1  0  0  0  0
  6 24  1  0  0  0  0
  7  8  2  0  0  0  0
  7 25  1  0  0  0  0
  9 10  1  0  0  0  0
  9 26  1  0  0  0  0
  9 38  1  0  0  0  0
 10 11  1  0  0  0  0
 10 27  1  0  0  0  0
 10 28  1  0  0  0  0
 11 16  1  0  0  0  0
 11 12  1  0  0  0  0
 11 29  1  0  0  0  0
 12 13  1  0  0  0  0
 12 30  1  0  0  0  0
 12 31  1  0  0  0  0
 13 14  1  0  0  0  0
 13 32  1  0  0  0  0
 13 33  1  0  0  0  0
 14 15  1  0  0  0  0
 14 34  1  0  0  0  0
 14 35  1  0  0  0  0
 15 16  1  0  0  0  0
 15 36  1  0  0  0  0
 15 37  1  0  0  0  0
M  CHG  1   9   1
M  END
> <s_m_source_file>
AV-unprocessed.smi

> <i_m_source_file_index>
3165

> <i_lp_mmshare_version>
43012

> <i_f3d_flags>
0

> <s_epik_input>
bjFbY0hdW2NIXVtjSF1uMVtDSDJdW0NAQEhdKFtDSDNdKVtOSF1bQ0gyXVtDQEBIXTJbQ0gyXVtDSDJdW0NIMl1bQ0gyXU8y

> <s_epik_cmdline>
J2VwaWtfcHl0aG9uJywgJy1waCcsICc3LjAnLCAnLXRuJywgJzgnLCAnLW1hJywgJzIwMCcsICctbWV0YWxfYmluZGluZycsICctaW1hZScsICc8aW5maWxlLm1hZT4nLCAnLW9tYWUnLCAnPG91dGZpbGUubWFlPic=

> <r_lp_tautomer_probability>
1

> <r_epik_Ionization_Penalty>
0.00849196

> <r_epik_Ionization_Penalty_Charging>
0.00848754

> <r_epik_Ionization_Penalty_Neutral>
4.42049e-06

> <r_epik_State_Penalty>
0.00639836

> <r_epik_Charging_Adjusted_Penalty>
0.0148859

> <i_epik_Tot_Q>
1

> <i_epik_Tot_abs_Q>
1

> <r_epik_Metal_State_Penalty>
0.00639878

> <b_epik_Metal_Only>
0

> <s_lp_Force_Field>
OPLS_2005

> <r_lp_Energy>
12.7964

> <b_lp_Chiralities_Consistent>
1

> <s_lp_Variant>
AV-unprocessed.smi:3165-1

> <Gold.Version>
5.8.1

> <Gold.Id.Protein>
6NUR|6NUR_protein|mol2

> <Gold.PLP.Fitness>
49.3697

> <Gold.PLP.PLP>
-38.7156

> <Gold.PLP.part.hbond>
-2.0000

> <Gold.PLP.part.metal>
0.0000

> <Gold.PLP.part.buried>
-6.7489

> <Gold.PLP.part.nonpolar>
-31.5633

> <Gold.PLP.part.repulsive>
0.2696

> <Gold.PLP.ligand.clash>
0.0000

> <Gold.PLP.ligand.torsion>
0.7437

> <Gold.PLP.Chemscore.Hbond>
3.0000

> <Gold.PLP.Chemscore.CHOScore>
1.0316

> <Gold.PLP.Chemscore.Metal>
0.0000

> <Gold.Chemscore.Hbonds>
donor molecule, donor type, donor heavy atom, donor atom, acceptor molecule, acceptor atom, score
      L1  H     9    26       P1  8028  2.00
      P1  H  7989  7998       L1     8  1.00
      L1  C     7    25       P1  7948  0.04
      L1  C     7    25       P1  7949  1.00

> <Gold.PLP.Chemscore.Internal.Correction>
0.0464

> <Gold.Rescore>
     Score         DG    S(hbond)    S(metal)    S(lipo)     H(rot)  DE(clash)    DE(int)     intcor
     19.10     -21.39       1.99        0.00     114.99       1.64       1.32       0.97       ----

> <Gold.Chemscore.Fitness>
19.0957

> <Gold.Chemscore.DG>
-21.3857

> <Gold.Chemscore.ZeroCoef>
-5.4800

> <Gold.Chemscore.Hbond>
1.9944

> <Gold.Chemscore.Metal>
0.0000

> <Gold.Chemscore.Lipo>
114.9940

> <Gold.Chemscore.Internal_Hbond>
0.0000

> <Gold.Chemscore.DEClash>
1.3240

> <Gold.Chemscore.DEInternal>
0.9660

> <Gold.Chemscore.Rot>
1.6444

> <Gold.Chemscore.Internal.Correction>
   9.000000E+99

> <Gold.Chemscore.Hbonds>
donor molecule, donor type, donor heavy atom, donor atom, acceptor molecule, acceptor atom, score
      L1  H     9    26       P1  8028  1.00
      P1  H  7989  7998       L1     8  0.99

> <Gold.Chemscore.Hbond.Weighted>
-6.6611

> <Gold.Chemscore.Metal.Weighted>
-0.0000

> <Gold.Chemscore.Lipo.Weighted>
-13.4543

> <Gold.Chemscore.Internal_Hbond.Weighted>
0.0000

> <Gold.Chemscore.DEClash.Weighted>
1.3240

> <Gold.Chemscore.DEInternal.Weighted>
0.9660

> <Gold.Chemscore.Rot.Weighted>
4.2097

> <Gold.Chemscore.Internal.Correction.Weighted>
   9.000000E+99

> <Gold.Protein.RotatedTorsions>
[ 6907 6896 6895 6894 ] final  -33.31 input  -60.11 | X-H torsion
[ 7974 7965 7964 7962 ] final  100.13 input  175.53 | X-H torsion
[ 8008 7997 7996 7995 ] final  -15.60 input   59.86 | X-H torsion
[ 10167 10162 10161 10158 ] final  165.71 input  -65.29 | X-H torsion
[ 10718 10713 10712 10709 ] final  -46.09 input   66.30 | X-H torsion
[ 10763 10752 10751 10750 ] final  155.94 input  -60.55 | X-H torsion
[ 11005 11000 10999 10996 ] final   56.84 input  -57.11 | X-H torsion

> <Gold.Protein.ActiveResidues>
 VAL166  LYS551  ARG553  GLY616  TRP617  ASP618  TYR619  PRO620  LYS621  CYS622 
 ASP623  PHE694  ASN695  SER759  ASP760  ASP761  ALA762  ILE779  LEU786  VAL792 
 PHE793  MET794  SER795  GLU796  ALA797  LYS798  CYS799  TRP800  GLU811  SER814 

> <Gold.Protein.RotatedAtoms>
  151.0673  134.9775  159.8290 H   0  0  0  0  0  0  0  0  0  0  0  0  # atno 6907 bound_to 6896
  152.5404  134.2343  159.8847 H   0  0  0  0  0  0  0  0  0  0  0  0  # atno 6908 bound_to 6896
  151.2366  133.4378  159.2639 H   0  0  0  0  0  0  0  0  0  0  0  0  # atno 6909 bound_to 6896
  145.3897  139.2365  143.3358 H   0  0  0  0  0  0  0  0  0  0  0  0  # atno 7974 bound_to 7965
  154.5117  140.2192  155.9143 H   0  0  0  0  0  0  0  0  0  0  0  0  # atno 8008 bound_to 7997
  156.1560  140.3152  155.8693 H   0  0  0  0  0  0  0  0  0  0  0  0  # atno 8009 bound_to 7997
  155.3845  140.0474  157.3033 H   0  0  0  0  0  0  0  0  0  0  0  0  # atno 8010 bound_to 7997
  139.4911  144.4104  151.9306 H   0  0  0  0  0  0  0  0  0  0  0  0  # atno 10167 bound_to 10162
  156.2218  130.4166  149.8983 H   0  0  0  0  0  0  0  0  0  0  0  0  # atno 10718 bound_to 10713
  154.1764  135.2802  155.3065 H   0  0  0  0  0  0  0  0  0  0  0  0  # atno 10763 bound_to 10752
  154.6036  135.5521  153.7403 H   0  0  0  0  0  0  0  0  0  0  0  0  # atno 10764 bound_to 10752
  153.0150  135.6398  154.1904 H   0  0  0  0  0  0  0  0  0  0  0  0  # atno 10765 bound_to 10752
  140.0498  134.5753  155.9278 H   0  0  0  0  0  0  0  0  0  0  0  0  # atno 11005 bound_to 11000
  146.2803  140.4578  142.8779 LP  0  0  0  0  0  0  0  0  0  0  0  0  # atno 17320 bound_to 7965
  144.8449  140.6914  143.6205 LP  0  0  0  0  0  0  0  0  0  0  0  0  # atno 17321 bound_to 7965
  140.3545  144.3048  150.5943 LP  0  0  0  0  0  0  0  0  0  0  0  0  # atno 17342 bound_to 10162
  140.5456  143.2215  151.8012 LP  0  0  0  0  0  0  0  0  0  0  0  0  # atno 17343 bound_to 10162
  156.6627  130.8788  151.3550 LP  0  0  0  0  0  0  0  0  0  0  0  0  # atno 17370 bound_to 10713
  157.7091  130.9419  150.1029 LP  0  0  0  0  0  0  0  0  0  0  0  0  # atno 17371 bound_to 10713
  141.1925  133.6575  156.5503 LP  0  0  0  0  0  0  0  0  0  0  0  0  # atno 17394 bound_to 11000
  140.3936  134.7419  157.4736 LP  0  0  0  0  0  0  0  0  0  0  0  0  # atno 17395 bound_to 11000

$$$$
