AV-unprocessed.smi:2322|AV-procd|sdf|9286|dock6
  -GOLD-   2272012513D 1   1.00000     0.00000
 Structure written by MMmdl.
 38 40  0  0  0  0  0  0  0  0  1 V2000
  146.3526  142.3111  153.7307 C   0  0  0  0  0  0  0  0  0  0  0  0
  147.1882  141.1259  153.7127 N   0  0  0  0  0  0  0  0  0  0  0  0
  146.8799  140.0718  152.9216 N   0  0  0  0  0  0  0  0  0  0  0  0
  147.8634  139.2117  153.1823 C   0  0  0  0  0  0  0  0  0  0  0  0
  148.7973  139.6279  154.0877 N   0  0  0  0  0  0  0  0  0  0  0  0
  148.3117  140.8329  154.3757 C   0  0  0  0  0  0  0  0  0  0  0  0
  148.8609  141.7845  155.2857 N   0  0  0  0  0  0  0  0  0  0  0  0
  150.0784  141.8631  155.8629 C   0  0  0  0  0  0  0  0  0  0  0  0
  150.9431  141.0183  155.6366 O   0  0  0  0  0  0  0  0  0  0  0  0
  150.2776  142.9048  156.6869 N   0  0  0  0  0  0  0  0  0  0  0  0
  151.5043  143.1815  157.4267 C   0  0  1  0  0  0  0  0  0  0  0  0
  151.3531  144.4455  158.2889 C   0  0  0  0  0  0  0  0  0  0  0  0
  152.5846  144.6363  159.1886 C   0  0  0  0  0  0  0  0  0  0  0  0
  152.7917  143.4757  159.9873 O   0  0  0  0  0  0  0  0  0  0  0  0
  153.0613  142.3065  159.2192 C   0  0  1  0  0  0  0  0  0  0  0  0
  153.3702  141.1735  160.1774 C   0  0  0  0  0  0  0  0  0  0  0  0
  153.9303  141.4527  161.5527 C   0  0  0  0  0  0  0  0  0  0  0  0
  154.8001  140.8072  160.5013 C   0  0  0  0  0  0  0  0  0  0  0  0
  151.8443  141.9884  158.3311 C   0  0  0  0  0  0  0  0  0  0  0  0
  146.8750  143.1337  153.2422 H   0  0  0  0  0  0  0  0  0  0  0  0
  146.1302  142.5904  154.7608 H   0  0  0  0  0  0  0  0  0  0  0  0
  145.4139  142.1255  153.2072 H   0  0  0  0  0  0  0  0  0  0  0  0
  147.9097  138.2460  152.7010 H   0  0  0  0  0  0  0  0  0  0  0  0
  148.2275  142.5270  155.5441 H   0  0  0  0  0  0  0  0  0  0  0  0
  149.5134  143.5536  156.8136 H   0  0  0  0  0  0  0  0  0  0  0  0
  152.3275  143.3242  156.7237 H   0  0  0  0  0  0  0  0  0  0  0  0
  151.2135  145.3237  157.6579 H   0  0  0  0  0  0  0  0  0  0  0  0
  150.4621  144.3642  158.9133 H   0  0  0  0  0  0  0  0  0  0  0  0
  153.4741  144.8424  158.5913 H   0  0  0  0  0  0  0  0  0  0  0  0
  152.4381  145.4938  159.8456 H   0  0  0  0  0  0  0  0  0  0  0  0
  153.9387  142.4815  158.5936 H   0  0  0  0  0  0  0  0  0  0  0  0
  152.6752  140.3387  160.1068 H   0  0  0  0  0  0  0  0  0  0  0  0
  154.1428  142.4874  161.8141 H   0  0  0  0  0  0  0  0  0  0  0  0
  153.5821  140.8271  162.3719 H   0  0  0  0  0  0  0  0  0  0  0  0
  155.0325  139.7509  160.6184 H   0  0  0  0  0  0  0  0  0  0  0  0
  155.5904  141.4130  160.0621 H   0  0  0  0  0  0  0  0  0  0  0  0
  150.9875  141.7471  158.9622 H   0  0  0  0  0  0  0  0  0  0  0  0
  152.0438  141.1041  157.7245 H   0  0  0  0  0  0  0  0  0  0  0  0
  1  2  1  0  0  0  0
  1 20  1  0  0  0  0
  1 21  1  0  0  0  0
  1 22  1  0  0  0  0
  2  6  1  0  0  0  0
  2  3  1  0  0  0  0
  3  4  2  0  0  0  0
  4  5  1  0  0  0  0
  4 23  1  0  0  0  0
  5  6  2  0  0  0  0
  6  7  1  0  0  0  0
  7  8  1  0  0  0  0
  7 24  1  0  0  0  0
  8  9  2  0  0  0  0
  8 10  1  0  0  0  0
 10 11  1  0  0  0  0
 10 25  1  0  0  0  0
 11 19  1  0  0  0  0
 11 12  1  0  0  0  0
 11 26  1  0  0  0  0
 12 13  1  0  0  0  0
 12 27  1  0  0  0  0
 12 28  1  0  0  0  0
 13 14  1  0  0  0  0
 13 29  1  0  0  0  0
 13 30  1  0  0  0  0
 14 15  1  0  0  0  0
 15 16  1  0  0  0  0
 15 19  1  0  0  0  0
 15 31  1  0  0  0  0
 16 18  1  0  0  0  0
 16 17  1  0  0  0  0
 16 32  1  0  0  0  0
 17 18  1  0  0  0  0
 17 33  1  0  0  0  0
 17 34  1  0  0  0  0
 18 35  1  0  0  0  0
 18 36  1  0  0  0  0
 19 37  1  0  0  0  0
 19 38  1  0  0  0  0
M  END
> <s_m_source_file>
AV-unprocessed.smi

> <i_m_source_file_index>
2322

> <i_lp_mmshare_version>
43012

> <i_f3d_flags>
0

> <s_epik_input>
W0NIM11uMW5bY0hdbmMxW05IXUMoPU8pW05IXVtDQEBIXTJbQ0gyXVtDSDJdT1tDQEhdKFtDSDJdMilbQ0hdM1tDSDJdW0NIMl0z

> <s_epik_cmdline>
J2VwaWtfcHl0aG9uJywgJy1waCcsICc3LjAnLCAnLXRuJywgJzgnLCAnLW1hJywgJzIwMCcsICctbWV0YWxfYmluZGluZycsICctaW1hZScsICc8aW5maWxlLm1hZT4nLCAnLW9tYWUnLCAnPG91dGZpbGUubWFlPic=

> <r_lp_tautomer_probability>
1

> <r_epik_Ionization_Penalty>
2.16399e-05

> <r_epik_Ionization_Penalty_Charging>
0

> <r_epik_Ionization_Penalty_Neutral>
2.16399e-05

> <r_epik_State_Penalty>
-0

> <r_epik_Charging_Adjusted_Penalty>
0

> <i_epik_Tot_Q>
0

> <i_epik_Tot_abs_Q>
0

> <r_epik_Metal_State_Penalty>
-0

> <b_epik_Metal_Only>
0

> <s_lp_Force_Field>
OPLS_2005

> <r_lp_Energy>
20.3548

> <b_lp_Chiralities_Consistent>
1

> <s_lp_Variant>
AV-unprocessed.smi:2322-2

> <Gold.Version>
5.8.1

> <Gold.Id.Protein>
6NUR|6NUR_protein|mol2

> <Gold.PLP.Fitness>
45.6652

> <Gold.PLP.PLP>
-40.3469

> <Gold.PLP.part.hbond>
-2.9111

> <Gold.PLP.part.metal>
0.0000

> <Gold.PLP.part.buried>
-3.7456

> <Gold.PLP.part.nonpolar>
-34.4815

> <Gold.PLP.part.repulsive>
1.0379

> <Gold.PLP.ligand.clash>
0.0000

> <Gold.PLP.ligand.torsion>
1.0163

> <Gold.PLP.Chemscore.Hbond>
1.0924

> <Gold.PLP.Chemscore.CHOScore>
1.0000

> <Gold.PLP.Chemscore.Metal>
0.0000

> <Gold.Chemscore.Hbonds>
donor molecule, donor type, donor heavy atom, donor atom, acceptor molecule, acceptor atom, score
      L1  H     7    24       P1  8028  0.18
      L1  H    10    25       P1  8028  0.58
      P1  H  7989  7998       L1     9  0.34
      L1  C     4    23       P1  7948  1.00

> <Gold.PLP.Chemscore.Internal.Correction>
1.0738

> <Gold.Rescore>
     Score         DG    S(hbond)    S(metal)    S(lipo)     H(rot)  DE(clash)    DE(int)     intcor
     12.55     -16.11       0.96        0.00      91.97       1.31       0.38       3.18       ----

> <Gold.Chemscore.Fitness>
12.5496

> <Gold.Chemscore.DG>
-16.1080

> <Gold.Chemscore.ZeroCoef>
-5.4800

> <Gold.Chemscore.Hbond>
0.9624

> <Gold.Chemscore.Metal>
0.0000

> <Gold.Chemscore.Lipo>
91.9666

> <Gold.Chemscore.Internal_Hbond>
0.0000

> <Gold.Chemscore.DEClash>
0.3776

> <Gold.Chemscore.DEInternal>
3.1807

> <Gold.Chemscore.Rot>
1.3072

> <Gold.Chemscore.Internal.Correction>
   9.000000E+99

> <Gold.Chemscore.Hbonds>
donor molecule, donor type, donor heavy atom, donor atom, acceptor molecule, acceptor atom, score
      L1  H     7    24       P1  8028  0.18
      L1  H    10    25       P1  8028  0.57
      P1  H  7989  7998       L1     9  0.29

> <Gold.Chemscore.Hbond.Weighted>
-3.2144

> <Gold.Chemscore.Metal.Weighted>
-0.0000

> <Gold.Chemscore.Lipo.Weighted>
-10.7601

> <Gold.Chemscore.Internal_Hbond.Weighted>
0.0000

> <Gold.Chemscore.DEClash.Weighted>
0.3776

> <Gold.Chemscore.DEInternal.Weighted>
3.1807

> <Gold.Chemscore.Rot.Weighted>
3.3464

> <Gold.Chemscore.Internal.Correction.Weighted>
   9.000000E+99

> <Gold.Protein.RotatedTorsions>
[ 6907 6896 6895 6894 ] final  175.44 input  -60.11 | X-H torsion
[ 7974 7965 7964 7962 ] final  -18.23 input  175.53 | X-H torsion
[ 8008 7997 7996 7995 ] final   24.25 input   59.86 | X-H torsion
[ 10167 10162 10161 10158 ] final   29.72 input  -65.29 | X-H torsion
[ 10718 10713 10712 10709 ] final    1.38 input   66.30 | X-H torsion
[ 10763 10752 10751 10750 ] final  102.85 input  -60.55 | X-H torsion
[ 11005 11000 10999 10996 ] final -158.38 input  -57.11 | X-H torsion

> <Gold.Protein.ActiveResidues>
 VAL166  LYS551  ARG553  GLY616  TRP617  ASP618  TYR619  PRO620  LYS621  CYS622 
 ASP623  PHE694  ASN695  SER759  ASP760  ASP761  ALA762  ILE779  LEU786  VAL792 
 PHE793  MET794  SER795  GLU796  ALA797  LYS798  CYS799  TRP800  GLU811  SER814 

> <Gold.Protein.RotatedAtoms>
  151.7362  133.3320  159.3353 H   0  0  0  0  0  0  0  0  0  0  0  0  # atno 6907 bound_to 6896
  150.7592  134.6319  159.6200 H   0  0  0  0  0  0  0  0  0  0  0  0  # atno 6908 bound_to 6896
  152.3560  134.6942  160.0273 H   0  0  0  0  0  0  0  0  0  0  0  0  # atno 6909 bound_to 6896
  146.1903  140.3891  142.8461 H   0  0  0  0  0  0  0  0  0  0  0  0  # atno 7974 bound_to 7965
  154.9933  140.3116  155.4897 H   0  0  0  0  0  0  0  0  0  0  0  0  # atno 8008 bound_to 7997
  156.2936  140.2245  156.4980 H   0  0  0  0  0  0  0  0  0  0  0  0  # atno 8009 bound_to 7997
  154.7683  140.0454  157.1019 H   0  0  0  0  0  0  0  0  0  0  0  0  # atno 8010 bound_to 7997
  140.4740  144.0718  150.6245 H   0  0  0  0  0  0  0  0  0  0  0  0  # atno 10167 bound_to 10162
  156.8473  130.5541  149.5672 H   0  0  0  0  0  0  0  0  0  0  0  0  # atno 10718 bound_to 10713
  153.3449  135.3996  155.1601 H   0  0  0  0  0  0  0  0  0  0  0  0  # atno 10763 bound_to 10752
  154.8651  135.3642  154.5297 H   0  0  0  0  0  0  0  0  0  0  0  0  # atno 10764 bound_to 10752
  153.5744  135.7078  153.5550 H   0  0  0  0  0  0  0  0  0  0  0  0  # atno 10765 bound_to 10752
  140.6542  134.4418  157.5235 H   0  0  0  0  0  0  0  0  0  0  0  0  # atno 11005 bound_to 11000
  144.8473  140.6949  143.6191 LP  0  0  0  0  0  0  0  0  0  0  0  0  # atno 17320 bound_to 7965
  145.3814  139.1636  143.4278 LP  0  0  0  0  0  0  0  0  0  0  0  0  # atno 17321 bound_to 7965
  140.3941  143.2737  152.0026 LP  0  0  0  0  0  0  0  0  0  0  0  0  # atno 17342 bound_to 10162
  139.4823  144.6053  151.7533 LP  0  0  0  0  0  0  0  0  0  0  0  0  # atno 17343 bound_to 10162
  156.0847  130.5849  150.9627 LP  0  0  0  0  0  0  0  0  0  0  0  0  # atno 17370 bound_to 10713
  157.6323  131.0920  150.8418 LP  0  0  0  0  0  0  0  0  0  0  0  0  # atno 17371 bound_to 10713
  139.9035  134.8502  156.1799 LP  0  0  0  0  0  0  0  0  0  0  0  0  # atno 17394 bound_to 11000
  141.0514  133.6887  156.1778 LP  0  0  0  0  0  0  0  0  0  0  0  0  # atno 17395 bound_to 11000

$$$$
