#       Name:                AV-unprocessed.smi:3103
#       Creating user name   scv26
#       Creation time:       Fri Mar 27 17:18:38 2020


#       File generated by GOLD software.
#

@<TRIPOS>MOLECULE
AV-unprocessed.smi:3103
    38    38     1
SMALL
NO_CHARGES


@<TRIPOS>ATOM
      1 ****        -5.0184   1.3914   0.4928 C.3            1 S1                 0.0000
      2 ****        -3.5404   1.0635   0.5798 C.ar           1 S1                 0.0000
      3 ****        -2.5659   2.0815   0.6518 C.ar           1 S1                 0.0000
      4 ****        -1.2467   1.8017   0.7259 N.ar           1 S1                 0.0000
      5 ****        -0.8989   0.5130   0.7281 C.ar           1 S1                 0.0000
      6 ****         0.4583   0.2635   0.7947 N.pl3          1 S1                 0.0000
      7 ****         1.0485  -1.0613   0.6791 C.3            1 S1                 0.0000
      8 ****         2.5786  -0.9956   0.6567 C.3            1 S1                 0.0000
      9 ****         2.9933  -0.4122  -0.5672 O.3            1 S1                 0.0000
     10 ****         4.4033  -0.3460  -0.6983 C.3            1 S1                 0.0000
     11 ****         4.7471   0.3194  -2.0364 C.3            1 S1                 0.0000
     12 ****         4.6869  -0.6294  -3.0799 O.3            1 S1                 0.0000
     13 ****        -1.7323  -0.5324   0.6681 N.ar           1 S1                 0.0000
     14 ****        -3.0551  -0.2649   0.5936 C.ar           1 S1                 0.0000
     15 ****        -3.9832  -1.4626   0.5239 C.3            1 S1                 0.0000
     16 ****        -5.1801   2.4689   0.4475 H              1 S1                 0.0000
     17 ****        -5.5454   1.0058   1.3658 H              1 S1                 0.0000
     18 ****        -5.4561   0.9458  -0.4009 H              1 S1                 0.0000
     19 ****        -2.8423   3.1256   0.6493 H              1 S1                 0.0000
     20 ****         1.0753   1.0625   0.8037 H              1 S1                 0.0000
     21 ****         0.7210  -1.6593   1.5302 H              1 S1                 0.0000
     22 ****         0.6807  -1.5547  -0.2215 H              1 S1                 0.0000
     23 ****         2.9545  -0.4256   1.5079 H              1 S1                 0.0000
     24 ****         2.9850  -2.0051   0.7328 H              1 S1                 0.0000
     25 ****         4.8014   0.2609   0.1164 H              1 S1                 0.0000
     26 ****         4.8601  -1.3343  -0.6199 H              1 S1                 0.0000
     27 ****         4.0833   1.1593  -2.2443 H              1 S1                 0.0000
     28 ****         5.7641   0.7110  -2.0042 H              1 S1                 0.0000
     29 ****         4.8860  -0.1933  -3.8942 H              1 S1                 0.0000
     30 ****        -4.7121  -1.4269   1.3338 H              1 S1                 0.0000
     31 ****        -3.4317  -2.4000   0.6086 H              1 S1                 0.0000
     32 ****        -4.5200  -1.4704  -0.4249 H              1 S1                 0.0000
     33 ****        -0.5609   2.5278   0.7769 LP             1 S1                 0.0000
     34 ****         2.6243   0.5158  -0.6193 LP             1 S1                 0.0000
     35 ****         2.6283  -0.9588  -1.3208 LP             1 S1                 0.0000
     36 ****         3.7692  -1.0240  -3.1243 LP             1 S1                 0.0000
     37 ****         5.3543  -1.3555  -2.9143 LP             1 S1                 0.0000
     38 ****        -1.3906  -1.4722   0.6780 LP             1 S1                 0.0000
@<TRIPOS>BOND
    1    1    2 1     
    2    1   16 1     
    3    1   17 1     
    4    1   18 1     
    5    2   14 ar    
    6    2    3 ar    
    7    3    4 ar    
    8    3   19 1     
    9    4    5 ar    
   10    5    6 1     
   11    5   13 ar    
   12    6    7 1     
   13    6   20 1     
   14    7    8 1     
   15    7   21 1     
   16    7   22 1     
   17    8    9 1     
   18    8   23 1     
   19    8   24 1     
   20    9   10 1     
   21   10   11 1     
   22   10   25 1     
   23   10   26 1     
   24   11   12 1     
   25   11   27 1     
   26   11   28 1     
   27   12   29 1     
   28   13   14 ar    
   29   14   15 1     
   30   15   30 1     
   31   15   31 1     
   32   15   32 1     
   33    4   33 1     
   34    9   34 1     
   35    9   35 1     
   36   12   36 1     
   37   12   37 1     
   38   13   38 1     
@<TRIPOS>SUBSTRUCTURE
      1 S1             1
@<TRIPOS>SET
LONE_PAIRS      STATIC     ATOMS    <user>   **** ""
6 33 34 35 36 37 38
DONOR_HYDROGENS      STATIC     ATOMS    <user>   **** ""
2 20 29
ATOM$BLUE        STATIC     ATOMS    COLORGROUP SYSTEM
6 33 34 35 36 37 38
ATOM$RED        STATIC     ATOMS    COLORGROUP SYSTEM
2 20 29
