AV-unprocessed.smi:1314|AV-procd|sdf|5453|dock9
  -GOLD-   22720 5 23D 1   1.00000     0.00000
 Structure written by MMmdl.
 41 42  0  0  0  0  0  0  0  0  1 V2000
  155.5213  133.2762  161.7071 C   0  0  0  0  0  0  0  0  0  0  0  0
  154.8885  134.1634  162.7404 C   0  0  0  0  0  0  0  0  0  0  0  0
  154.2559  133.6229  163.7685 N   0  0  0  0  0  0  0  0  0  0  0  0
  153.7908  134.6940  164.5377 O   0  0  0  0  0  0  0  0  0  0  0  0
  154.1655  135.8508  163.9344 C   0  0  0  0  0  0  0  0  0  0  0  0
  153.7651  137.1193  164.6085 C   0  0  0  0  0  0  0  0  0  0  0  0
  154.8619  135.5867  162.7871 C   0  0  0  0  0  0  0  0  0  0  0  0
  155.4642  136.5575  161.8040 C   0  0  0  0  0  0  0  0  0  0  0  0
  154.4047  137.0016  160.7935 C   0  0  0  0  0  0  0  0  0  0  0  0
  153.7270  136.1610  160.2019 O   0  0  0  0  0  0  0  0  0  0  0  0
  154.2767  138.3241  160.6041 N   0  0  0  0  0  0  0  0  0  0  0  0
  153.3497  138.9652  159.6763 C   0  0  0  0  0  0  0  0  0  0  0  0
  153.7109  140.4381  159.4245 C   0  0  0  0  0  0  0  0  0  0  0  0
  153.4827  141.4754  160.8981 S   0  0  0  0  0  0  0  0  0  0  0  0
  152.4369  142.7942  160.2163 C   0  0  0  0  0  0  0  0  0  0  0  0
  153.1099  143.5336  159.0607 C   0  0  0  0  0  0  0  0  0  0  0  0
  152.3546  144.8613  158.9651 C   0  0  0  0  0  0  0  0  0  0  0  0
  151.8236  145.1508  160.3774 C   0  0  0  0  0  0  0  0  0  0  0  0
  152.1322  143.9074  161.2225 C   0  0  0  0  0  0  0  0  0  0  0  0
  156.5270  133.6186  161.4628 H   0  0  0  0  0  0  0  0  0  0  0  0
  154.9382  133.2748  160.7863 H   0  0  0  0  0  0  0  0  0  0  0  0
  155.5998  132.2449  162.0531 H   0  0  0  0  0  0  0  0  0  0  0  0
  154.5872  137.8351  164.6046 H   0  0  0  0  0  0  0  0  0  0  0  0
  153.4809  136.9399  165.6458 H   0  0  0  0  0  0  0  0  0  0  0  0
  152.9165  137.5751  164.0985 H   0  0  0  0  0  0  0  0  0  0  0  0
  155.8506  137.4444  162.3073 H   0  0  0  0  0  0  0  0  0  0  0  0
  156.3137  136.1126  161.2836 H   0  0  0  0  0  0  0  0  0  0  0  0
  154.8760  138.9354  161.1395 H   0  0  0  0  0  0  0  0  0  0  0  0
  153.4094  138.4187  158.7348 H   0  0  0  0  0  0  0  0  0  0  0  0
  152.3154  138.8744  160.0124 H   0  0  0  0  0  0  0  0  0  0  0  0
  154.7401  140.5256  159.0745 H   0  0  0  0  0  0  0  0  0  0  0  0
  153.0734  140.8309  158.6327 H   0  0  0  0  0  0  0  0  0  0  0  0
  151.5021  142.3582  159.8610 H   0  0  0  0  0  0  0  0  0  0  0  0
  154.1562  143.7282  159.3012 H   0  0  0  0  0  0  0  0  0  0  0  0
  153.0833  142.9691  158.1283 H   0  0  0  0  0  0  0  0  0  0  0  0
  152.9898  145.6642  158.5896 H   0  0  0  0  0  0  0  0  0  0  0  0
  151.5166  144.7582  158.2746 H   0  0  0  0  0  0  0  0  0  0  0  0
  152.2918  146.0367  160.8077 H   0  0  0  0  0  0  0  0  0  0  0  0
  150.7493  145.3359  160.3417 H   0  0  0  0  0  0  0  0  0  0  0  0
  151.3111  143.6505  161.8923 H   0  0  0  0  0  0  0  0  0  0  0  0
  153.0111  144.1006  161.8391 H   0  0  0  0  0  0  0  0  0  0  0  0
  1  2  1  0  0  0  0
  1 20  1  0  0  0  0
  1 21  1  0  0  0  0
  1 22  1  0  0  0  0
  2  7  1  0  0  0  0
  2  3  2  0  0  0  0
  3  4  1  0  0  0  0
  4  5  1  0  0  0  0
  5  6  1  0  0  0  0
  5  7  2  0  0  0  0
  6 23  1  0  0  0  0
  6 24  1  0  0  0  0
  6 25  1  0  0  0  0
  7  8  1  0  0  0  0
  8  9  1  0  0  0  0
  8 26  1  0  0  0  0
  8 27  1  0  0  0  0
  9 10  2  0  0  0  0
  9 11  1  0  0  0  0
 11 12  1  0  0  0  0
 11 28  1  0  0  0  0
 12 13  1  0  0  0  0
 12 29  1  0  0  0  0
 12 30  1  0  0  0  0
 13 14  1  0  0  0  0
 13 31  1  0  0  0  0
 13 32  1  0  0  0  0
 14 15  1  0  0  0  0
 15 19  1  0  0  0  0
 15 16  1  0  0  0  0
 15 33  1  0  0  0  0
 16 17  1  0  0  0  0
 16 34  1  0  0  0  0
 16 35  1  0  0  0  0
 17 18  1  0  0  0  0
 17 36  1  0  0  0  0
 17 37  1  0  0  0  0
 18 19  1  0  0  0  0
 18 38  1  0  0  0  0
 18 39  1  0  0  0  0
 19 40  1  0  0  0  0
 19 41  1  0  0  0  0
M  END
> <s_m_source_file>
AV-unprocessed.smi

> <i_m_source_file_index>
1314

> <i_lp_mmshare_version>
43012

> <i_f3d_flags>
0

> <s_epik_input>
W0NIM11jMW5vYyhbQ0gzXSljMVtDSDJdQyg9TylbTkhdW0NIMl1bQ0gyXVNbQ0hdMltDSDJdW0NIMl1bQ0gyXVtDSDJdMg==

> <s_epik_cmdline>
J2VwaWtfcHl0aG9uJywgJy1waCcsICc3LjAnLCAnLXRuJywgJzgnLCAnLW1hJywgJzIwMCcsICctbWV0YWxfYmluZGluZycsICctaW1hZScsICc8aW5maWxlLm1hZT4nLCAnLW9tYWUnLCAnPG91dGZpbGUubWFlPic=

> <r_lp_tautomer_probability>
1

> <r_epik_Ionization_Penalty>
2.75407e-08

> <r_epik_Ionization_Penalty_Charging>
0

> <r_epik_Ionization_Penalty_Neutral>
2.75407e-08

> <r_epik_State_Penalty>
-0

> <r_epik_Charging_Adjusted_Penalty>
0

> <i_epik_Tot_Q>
0

> <i_epik_Tot_abs_Q>
0

> <r_epik_Metal_State_Penalty>
-0

> <b_epik_Metal_Only>
0

> <s_lp_Force_Field>
OPLS_2005

> <r_lp_Energy>
14.7141

> <b_lp_Chiralities_Consistent>
1

> <s_lp_Variant>
AV-unprocessed.smi:1314-1

> <Gold.Version>
5.8.1

> <Gold.Id.Protein>
6NUR|6NUR_protein|mol2

> <Gold.PLP.Fitness>
44.9815

> <Gold.PLP.PLP>
-43.7459

> <Gold.PLP.part.hbond>
-1.0000

> <Gold.PLP.part.metal>
0.0000

> <Gold.PLP.part.buried>
-5.5572

> <Gold.PLP.part.nonpolar>
-37.0779

> <Gold.PLP.part.repulsive>
0.1328

> <Gold.PLP.ligand.clash>
0.0000

> <Gold.PLP.ligand.torsion>
0.9059

> <Gold.PLP.Chemscore.Hbond>
1.0000

> <Gold.PLP.Chemscore.CHOScore>
0.0000

> <Gold.PLP.Chemscore.Metal>
0.0000

> <Gold.Chemscore.Hbonds>
donor molecule, donor type, donor heavy atom, donor atom, acceptor molecule, acceptor atom, score
      P1  H  6896  6907       L1    10  1.00

> <Gold.PLP.Chemscore.Internal.Correction>
0.0473

> <Gold.Rescore>
     Score         DG    S(hbond)    S(metal)    S(lipo)     H(rot)  DE(clash)    DE(int)     intcor
     17.81     -18.69       1.00        0.00     120.81       1.66       0.08       0.80       ----

> <Gold.Chemscore.Fitness>
17.8085

> <Gold.Chemscore.DG>
-18.6929

> <Gold.Chemscore.ZeroCoef>
-5.4800

> <Gold.Chemscore.Hbond>
1.0000

> <Gold.Chemscore.Metal>
0.0000

> <Gold.Chemscore.Lipo>
120.8103

> <Gold.Chemscore.Internal_Hbond>
0.0000

> <Gold.Chemscore.DEClash>
0.0818

> <Gold.Chemscore.DEInternal>
0.8025

> <Gold.Chemscore.Rot>
1.6648

> <Gold.Chemscore.Internal.Correction>
   9.000000E+99

> <Gold.Chemscore.Hbonds>
donor molecule, donor type, donor heavy atom, donor atom, acceptor molecule, acceptor atom, score
      P1  H  6896  6907       L1    10  0.99

> <Gold.Chemscore.Hbond.Weighted>
-3.3400

> <Gold.Chemscore.Metal.Weighted>
-0.0000

> <Gold.Chemscore.Lipo.Weighted>
-14.1348

> <Gold.Chemscore.Internal_Hbond.Weighted>
0.0000

> <Gold.Chemscore.DEClash.Weighted>
0.0818

> <Gold.Chemscore.DEInternal.Weighted>
0.8025

> <Gold.Chemscore.Rot.Weighted>
4.2619

> <Gold.Chemscore.Internal.Correction.Weighted>
   9.000000E+99

> <Gold.Protein.RotatedTorsions>
[ 6907 6896 6895 6894 ] final   51.66 input  -60.11 | X-H torsion
[ 7974 7965 7964 7962 ] final   88.87 input  175.53 | X-H torsion
[ 8008 7997 7996 7995 ] final -162.30 input   59.86 | X-H torsion
[ 10167 10162 10161 10158 ] final   18.79 input  -65.29 | X-H torsion
[ 10718 10713 10712 10709 ] final  -98.11 input   66.30 | X-H torsion
[ 10763 10752 10751 10750 ] final -127.28 input  -60.55 | X-H torsion
[ 11005 11000 10999 10996 ] final   88.25 input  -57.11 | X-H torsion

> <Gold.Protein.ActiveResidues>
 VAL166  LYS551  ARG553  GLY616  TRP617  ASP618  TYR619  PRO620  LYS621  CYS622 
 ASP623  PHE694  ASN695  SER759  ASP760  ASP761  ALA762  ILE779  LEU786  VAL792 
 PHE793  MET794  SER795  GLU796  ALA797  LYS798  CYS799  TRP800  GLU811  SER814 

> <Gold.Protein.RotatedAtoms>
  152.3150  134.7451  160.0327 H   0  0  0  0  0  0  0  0  0  0  0  0  # atno 6907 bound_to 6896
  151.7919  133.3355  159.3509 H   0  0  0  0  0  0  0  0  0  0  0  0  # atno 6908 bound_to 6896
  150.7339  134.5765  159.5961 H   0  0  0  0  0  0  0  0  0  0  0  0  # atno 6909 bound_to 6896
  145.5399  139.2288  143.2572 H   0  0  0  0  0  0  0  0  0  0  0  0  # atno 7974 bound_to 7965
  155.8047  140.0897  157.1937 H   0  0  0  0  0  0  0  0  0  0  0  0  # atno 8008 bound_to 7997
  154.3981  140.1466  156.3375 H   0  0  0  0  0  0  0  0  0  0  0  0  # atno 8009 bound_to 7997
  155.8426  140.3438  155.5644 H   0  0  0  0  0  0  0  0  0  0  0  0  # atno 8010 bound_to 7997
  140.5627  143.9307  150.6654 H   0  0  0  0  0  0  0  0  0  0  0  0  # atno 10167 bound_to 10162
  156.0099  130.5224  150.6475 H   0  0  0  0  0  0  0  0  0  0  0  0  # atno 10718 bound_to 10713
  154.8751  135.3967  154.3568 H   0  0  0  0  0  0  0  0  0  0  0  0  # atno 10763 bound_to 10752
  153.4345  135.7026  153.6214 H   0  0  0  0  0  0  0  0  0  0  0  0  # atno 10764 bound_to 10752
  153.4821  135.3767  155.2417 H   0  0  0  0  0  0  0  0  0  0  0  0  # atno 10765 bound_to 10752
  139.8901  134.8475  156.2973 H   0  0  0  0  0  0  0  0  0  0  0  0  # atno 11005 bound_to 11000
  146.1988  140.6218  142.9112 LP  0  0  0  0  0  0  0  0  0  0  0  0  # atno 17320 bound_to 7965
  144.7582  140.5360  143.6754 LP  0  0  0  0  0  0  0  0  0  0  0  0  # atno 17321 bound_to 7965
  140.2762  143.3421  152.1193 LP  0  0  0  0  0  0  0  0  0  0  0  0  # atno 17342 bound_to 10162
  139.5078  144.6838  151.5940 LP  0  0  0  0  0  0  0  0  0  0  0  0  # atno 17343 bound_to 10162
  157.4243  131.0841  151.1101 LP  0  0  0  0  0  0  0  0  0  0  0  0  # atno 17370 bound_to 10713
  157.1693  130.6260  149.5635 LP  0  0  0  0  0  0  0  0  0  0  0  0  # atno 17371 bound_to 10713
  140.9936  133.7193  156.0852 LP  0  0  0  0  0  0  0  0  0  0  0  0  # atno 17394 bound_to 11000
  140.7592  134.3958  157.5528 LP  0  0  0  0  0  0  0  0  0  0  0  0  # atno 17395 bound_to 11000

$$$$
