AV-unprocessed.smi:1831|AV-procd|sdf|7458|dock3
  -GOLD-   22720 9153D 1   1.00000     0.00000
 Structure written by MMmdl.
 41 42  0  0  0  0  0  0  0  0  2 V2000
  153.7020  141.9686  160.7452 C   0  0  0  0  0  0  0  0  0  0  0  0
  152.8727  142.4619  159.6096 C   0  0  0  0  0  0  0  0  0  0  0  0
  152.8635  143.7444  159.2275 N   0  0  0  0  0  0  0  0  0  0  0  0
  152.0161  143.9666  158.1512 N   0  0  0  0  0  0  0  0  0  0  0  0
  151.4082  142.8408  157.7528 C   0  0  0  0  0  0  0  0  0  0  0  0
  150.4887  142.7808  156.6720 N   0  0  0  0  0  0  0  0  0  0  0  0
  150.1142  141.7050  155.9572 C   0  0  0  0  0  0  0  0  0  0  0  0
  150.5197  140.5559  156.1329 O   0  0  0  0  0  0  0  0  0  0  0  0
  149.2235  142.0347  155.0116 N   0  0  0  0  0  0  0  0  0  0  0  0
  148.6058  141.0847  154.0937 C   0  0  0  0  0  0  0  0  0  0  0  0
  147.1174  141.4040  153.8775 C   0  0  2  0  0  0  0  0  0  0  0  0
  146.8005  142.8976  153.8856 C   0  0  0  0  0  0  0  0  0  0  0  0
  145.3249  142.9836  154.2965 C   0  0  0  0  0  0  0  0  0  0  0  0
  144.9381  141.6513  154.8265 N   0  3  2  0  0  0  0  0  0  0  0  0
  144.0552  141.6776  156.0272 C   0  0  0  0  0  0  0  0  0  0  0  0
  143.7154  140.2568  156.5166 C   0  0  0  0  0  0  0  0  0  0  0  0
  142.7516  142.4462  155.7401 C   0  0  0  0  0  0  0  0  0  0  0  0
  146.1868  140.8705  154.9673 C   0  0  0  0  0  0  0  0  0  0  0  0
  151.8227  141.4048  158.6733 S   0  0  0  0  0  0  0  0  0  0  0  0
  154.6845  142.4414  160.7294 H   0  0  0  0  0  0  0  0  0  0  0  0
  153.8347  140.8889  160.6770 H   0  0  0  0  0  0  0  0  0  0  0  0
  153.2144  142.2030  161.6914 H   0  0  0  0  0  0  0  0  0  0  0  0
  150.0608  143.6592  156.4202 H   0  0  0  0  0  0  0  0  0  0  0  0
  148.9373  143.0001  154.9384 H   0  0  0  0  0  0  0  0  0  0  0  0
  149.1284  141.0924  153.1354 H   0  0  0  0  0  0  0  0  0  0  0  0
  148.7165  140.0812  154.5065 H   0  0  0  0  0  0  0  0  0  0  0  0
  146.7974  140.9935  152.9179 H   0  0  0  0  0  0  0  0  0  0  0  0
  147.4129  143.4065  154.6314 H   0  0  0  0  0  0  0  0  0  0  0  0
  146.9951  143.3703  152.9223 H   0  0  0  0  0  0  0  0  0  0  0  0
  145.1960  143.7732  155.0385 H   0  0  0  0  0  0  0  0  0  0  0  0
  144.6903  143.2233  153.4428 H   0  0  0  0  0  0  0  0  0  0  0  0
  144.5878  142.1915  156.8290 H   0  0  0  0  0  0  0  0  0  0  0  0
  143.0316  140.2900  157.3653 H   0  0  0  0  0  0  0  0  0  0  0  0
  144.6007  139.7144  156.8489 H   0  0  0  0  0  0  0  0  0  0  0  0
  143.2365  139.6704  155.7316 H   0  0  0  0  0  0  0  0  0  0  0  0
  142.0969  142.4440  156.6122 H   0  0  0  0  0  0  0  0  0  0  0  0
  142.2004  141.9951  154.9142 H   0  0  0  0  0  0  0  0  0  0  0  0
  142.9355  143.4900  155.4858 H   0  0  0  0  0  0  0  0  0  0  0  0
  146.0066  139.8001  154.8640 H   0  0  0  0  0  0  0  0  0  0  0  0
  146.6223  141.0492  155.9523 H   0  0  0  0  0  0  0  0  0  0  0  0
  144.4164  141.2011  154.0880 H   0  0  0  0  0  0  0  0  0  0  0  0
  1  2  1  0  0  0  0
  1 20  1  0  0  0  0
  1 21  1  0  0  0  0
  1 22  1  0  0  0  0
  2 19  1  0  0  0  0
  2  3  2  0  0  0  0
  3  4  1  0  0  0  0
  4  5  2  0  0  0  0
  5  6  1  0  0  0  0
  5 19  1  0  0  0  0
  6  7  1  0  0  0  0
  6 23  1  0  0  0  0
  7  8  2  0  0  0  0
  7  9  1  0  0  0  0
  9 10  1  0  0  0  0
  9 24  1  0  0  0  0
 10 11  1  0  0  0  0
 10 25  1  0  0  0  0
 10 26  1  0  0  0  0
 11 18  1  0  0  0  0
 11 12  1  0  0  0  0
 11 27  1  0  0  0  0
 12 13  1  0  0  0  0
 12 28  1  0  0  0  0
 12 29  1  0  0  0  0
 13 14  1  0  0  0  0
 13 30  1  0  0  0  0
 13 31  1  0  0  0  0
 14 15  1  0  0  0  0
 14 18  1  0  0  0  0
 14 41  1  0  0  0  0
 15 16  1  0  0  0  0
 15 17  1  0  0  0  0
 15 32  1  0  0  0  0
 16 33  1  0  0  0  0
 16 34  1  0  0  0  0
 16 35  1  0  0  0  0
 17 36  1  0  0  0  0
 17 37  1  0  0  0  0
 17 38  1  0  0  0  0
 18 39  1  0  0  0  0
 18 40  1  0  0  0  0
M  CHG  1  14   1
M  END
> <s_m_source_file>
AV-unprocessed.smi

> <i_m_source_file_index>
1831

> <i_lp_mmshare_version>
43012

> <i_f3d_flags>
0

> <s_epik_input>
W0NIM11jMW5uYyhzMSlbTkhdQyg9TylbTkhdW0NIMl1bQ0BASF0yW0NIMl1bQ0gyXU4oW0NIMl0yKVtDSF0oW0NIM10pW0NIM10=

> <s_epik_cmdline>
J2VwaWtfcHl0aG9uJywgJy1waCcsICc3LjAnLCAnLXRuJywgJzgnLCAnLW1hJywgJzIwMCcsICctbWV0YWxfYmluZGluZycsICctaW1hZScsICc8aW5maWxlLm1hZT4nLCAnLW9tYWUnLCAnPG91dGZpbGUubWFlPic=

> <r_lp_tautomer_probability>
1

> <r_epik_Ionization_Penalty>
0.00080807

> <r_epik_Ionization_Penalty_Charging>
0.000218981

> <r_epik_Ionization_Penalty_Neutral>
0.00058909

> <r_epik_State_Penalty>
-0

> <r_epik_Charging_Adjusted_Penalty>
0.000218981

> <i_epik_Tot_Q>
1

> <i_epik_Tot_abs_Q>
1

> <r_epik_Metal_State_Penalty>
0.236062

> <b_epik_Metal_Only>
0

> <s_lp_Force_Field>
OPLS_2005

> <r_lp_Energy>
30.7631

> <b_lp_Chiralities_Consistent>
1

> <s_lp_Variant>
AV-unprocessed.smi:1831-3

> <Gold.Version>
5.8.1

> <Gold.Id.Protein>
6NUR|6NUR_protein|mol2

> <Gold.PLP.Fitness>
46.4815

> <Gold.PLP.PLP>
-35.4348

> <Gold.PLP.part.hbond>
-3.0000

> <Gold.PLP.part.metal>
0.0000

> <Gold.PLP.part.buried>
-6.6038

> <Gold.PLP.part.nonpolar>
-25.8700

> <Gold.PLP.part.repulsive>
0.3560

> <Gold.PLP.ligand.clash>
0.0000

> <Gold.PLP.ligand.torsion>
0.4954

> <Gold.PLP.Chemscore.Hbond>
4.0000

> <Gold.PLP.Chemscore.CHOScore>
0.0000

> <Gold.PLP.Chemscore.Metal>
0.0000

> <Gold.Chemscore.Hbonds>
donor molecule, donor type, donor heavy atom, donor atom, acceptor molecule, acceptor atom, score
      L1  H     6    23       P1  8028  1.00
      L1  H     9    24       P1  8028  1.00
      L1  H    14    41       P1 10175  2.00

> <Gold.PLP.Chemscore.Internal.Correction>
0.0376

> <Gold.Rescore>
     Score         DG    S(hbond)    S(metal)    S(lipo)     H(rot)  DE(clash)    DE(int)     intcor
     17.55     -18.22       2.86        0.00      60.81       1.54       0.06       0.62       ----

> <Gold.Chemscore.Fitness>
17.5454

> <Gold.Chemscore.DG>
-18.2201

> <Gold.Chemscore.ZeroCoef>
-5.4800

> <Gold.Chemscore.Hbond>
2.8644

> <Gold.Chemscore.Metal>
0.0000

> <Gold.Chemscore.Lipo>
60.8067

> <Gold.Chemscore.Internal_Hbond>
0.0000

> <Gold.Chemscore.DEClash>
0.0553

> <Gold.Chemscore.DEInternal>
0.6194

> <Gold.Chemscore.Rot>
1.5396

> <Gold.Chemscore.Internal.Correction>
   9.000000E+99

> <Gold.Chemscore.Hbonds>
donor molecule, donor type, donor heavy atom, donor atom, acceptor molecule, acceptor atom, score
      L1  H     6    23       P1  8028  0.99
      L1  H     9    24       P1  8028  0.95
      L1  H    14    41       P1 10175  0.65

> <Gold.Chemscore.Hbond.Weighted>
-9.5670

> <Gold.Chemscore.Metal.Weighted>
-0.0000

> <Gold.Chemscore.Lipo.Weighted>
-7.1144

> <Gold.Chemscore.Internal_Hbond.Weighted>
0.0000

> <Gold.Chemscore.DEClash.Weighted>
0.0553

> <Gold.Chemscore.DEInternal.Weighted>
0.6194

> <Gold.Chemscore.Rot.Weighted>
3.9413

> <Gold.Chemscore.Internal.Correction.Weighted>
   9.000000E+99

> <Gold.Protein.RotatedTorsions>
[ 6907 6896 6895 6894 ] final -123.01 input  -60.11 | X-H torsion
[ 7974 7965 7964 7962 ] final   96.98 input  175.53 | X-H torsion
[ 8008 7997 7996 7995 ] final -135.09 input   59.86 | X-H torsion
[ 10167 10162 10161 10158 ] final   78.28 input  -65.29 | X-H torsion
[ 10718 10713 10712 10709 ] final   23.24 input   66.30 | X-H torsion
[ 10763 10752 10751 10750 ] final  137.31 input  -60.55 | X-H torsion
[ 11005 11000 10999 10996 ] final   12.81 input  -57.11 | X-H torsion

> <Gold.Protein.ActiveResidues>
 VAL166  LYS551  ARG553  GLY616  TRP617  ASP618  TYR619  PRO620  LYS621  CYS622 
 ASP623  PHE694  ASN695  SER759  ASP760  ASP761  ALA762  ILE779  LEU786  VAL792 
 PHE793  MET794  SER795  GLU796  ALA797  LYS798  CYS799  TRP800  GLU811  SER814 

> <Gold.Protein.RotatedAtoms>
  150.8630  133.7616  159.2985 H   0  0  0  0  0  0  0  0  0  0  0  0  # atno 6907 bound_to 6896
  151.5252  135.1066  159.9898 H   0  0  0  0  0  0  0  0  0  0  0  0  # atno 6908 bound_to 6896
  152.4640  133.7839  159.6921 H   0  0  0  0  0  0  0  0  0  0  0  0  # atno 6909 bound_to 6896
  145.4316  139.2310  143.3141 H   0  0  0  0  0  0  0  0  0  0  0  0  # atno 7974 bound_to 7965
  155.3729  140.0489  157.3045 H   0  0  0  0  0  0  0  0  0  0  0  0  # atno 8008 bound_to 7997
  154.5121  140.2195  155.9099 H   0  0  0  0  0  0  0  0  0  0  0  0  # atno 8009 bound_to 7997
  156.1594  140.3119  155.8787 H   0  0  0  0  0  0  0  0  0  0  0  0  # atno 8010 bound_to 7997
  139.9726  144.5883  150.7972 H   0  0  0  0  0  0  0  0  0  0  0  0  # atno 10167 bound_to 10162
  157.1634  130.6727  149.6052 H   0  0  0  0  0  0  0  0  0  0  0  0  # atno 10718 bound_to 10713
  153.8709  135.3056  155.3442 H   0  0  0  0  0  0  0  0  0  0  0  0  # atno 10763 bound_to 10752
  154.7806  135.4837  153.9840 H   0  0  0  0  0  0  0  0  0  0  0  0  # atno 10764 bound_to 10752
  153.1407  135.6823  153.9128 H   0  0  0  0  0  0  0  0  0  0  0  0  # atno 10765 bound_to 10752
  140.4878  134.0871  155.7764 H   0  0  0  0  0  0  0  0  0  0  0  0  # atno 11005 bound_to 11000
  146.2604  140.5054  142.8856 LP  0  0  0  0  0  0  0  0  0  0  0  0  # atno 17320 bound_to 7965
  144.8179  140.6499  143.6372 LP  0  0  0  0  0  0  0  0  0  0  0  0  # atno 17321 bound_to 7965
  140.7517  143.2976  151.3163 LP  0  0  0  0  0  0  0  0  0  0  0  0  # atno 17342 bound_to 10162
  139.6469  144.0434  152.2598 LP  0  0  0  0  0  0  0  0  0  0  0  0  # atno 17343 bound_to 10162
  155.9750  130.4704  150.6428 LP  0  0  0  0  0  0  0  0  0  0  0  0  # atno 17370 bound_to 10713
  157.4111  131.0824  151.1220 LP  0  0  0  0  0  0  0  0  0  0  0  0  # atno 17371 bound_to 10713
  141.1499  133.8987  157.2123 LP  0  0  0  0  0  0  0  0  0  0  0  0  # atno 17394 bound_to 11000
  139.9788  135.0105  156.9697 LP  0  0  0  0  0  0  0  0  0  0  0  0  # atno 17395 bound_to 11000

$$$$
