#       Name:                AV-unprocessed.smi:3014
#       Creating user name   scv26
#       Creation time:       Fri Mar 27 16:40:26 2020


#       File generated by GOLD software.
#

@<TRIPOS>MOLECULE
AV-unprocessed.smi:3014
    51    52     1
SMALL
NO_CHARGES


@<TRIPOS>ATOM
      1 ****        -4.8543   1.2306   3.5698 C.3            1 S1                 0.0000
      2 ****        -4.4523   0.5938   2.2316 C.3            1 S1                 0.0000
      3 ****        -4.9464   1.4346   1.0384 C.3            1 S1                 0.0000
      4 ****        -4.5336   0.8101  -0.3039 C.3            1 S1                 0.0000
      5 ****        -3.0134   0.5990  -0.3729 C.3            1 S1                 0.0000
      6 ****        -2.5183  -0.2608   0.8016 C.3            1 S1                 0.0000
      7 ****        -1.1030  -0.3517   0.7040 O.3            1 S1                 0.0000
      8 ****        -0.5492  -1.5019   1.3323 C.3            1 S1                 0.0000
      9 ****         0.9760  -1.4786   1.2132 C.2            1 S1                 0.0000
     10 ****         1.6468  -2.0864   2.0473 O.2            1 S1                 0.0000
     11 ****         1.4902  -0.8114   0.1621 N.am           1 S1                 0.0000
     12 ****         2.8543  -0.6389  -0.1912 C.ar           1 S1                 0.0000
     13 ****         3.8637  -0.5481   0.7992 C.ar           1 S1                 0.0000
     14 ****         5.1841  -0.3538   0.3523 C.ar           1 S1                 0.0000
     15 ****         5.4822  -0.2457  -0.9580 N.ar           1 S1                 0.0000
     16 ****         4.4679  -0.3235  -1.8274 C.ar           1 S1                 0.0000
     17 ****         4.7737  -0.2041  -3.1864 N.pl3          1 S1                 0.0000
     18 ****         3.7343  -0.3032  -4.2070 C.3            1 S1                 0.0000
     19 ****         6.1448   0.0210  -3.6357 C.3            1 S1                 0.0000
     20 ****         3.1820  -0.5062  -1.4970 N.ar           1 S1                 0.0000
     21 ****        -2.9287   0.3745   2.1464 C.3            1 S1                 0.0000
     22 ****        -4.4141   2.2217   3.6860 H              1 S1                 0.0000
     23 ****        -4.5255   0.6196   4.4109 H              1 S1                 0.0000
     24 ****        -5.9370   1.3366   3.6439 H              1 S1                 0.0000
     25 ****        -4.9337  -0.3836   2.1758 H              1 S1                 0.0000
     26 ****        -6.0318   1.5334   1.0761 H              1 S1                 0.0000
     27 ****        -4.5423   2.4457   1.1069 H              1 S1                 0.0000
     28 ****        -5.0424  -0.1458  -0.4349 H              1 S1                 0.0000
     29 ****        -4.8583   1.4482  -1.1262 H              1 S1                 0.0000
     30 ****        -2.7478   0.1253  -1.3186 H              1 S1                 0.0000
     31 ****        -2.5104   1.5670  -0.3597 H              1 S1                 0.0000
     32 ****        -2.9645  -1.2530   0.7092 H              1 S1                 0.0000
     33 ****        -0.8214  -1.5393   2.3874 H              1 S1                 0.0000
     34 ****        -0.9253  -2.4095   0.8581 H              1 S1                 0.0000
     35 ****         0.8196  -0.4536  -0.5028 H              1 S1                 0.0000
     36 ****         3.6532  -0.6104   1.8561 H              1 S1                 0.0000
     37 ****         6.0045  -0.2774   1.0504 H              1 S1                 0.0000
     38 ****         3.2028  -1.2514  -4.1194 H              1 S1                 0.0000
     39 ****         4.1456  -0.2465  -5.2148 H              1 S1                 0.0000
     40 ****         3.0135   0.5074  -4.0942 H              1 S1                 0.0000
     41 ****         6.5524   0.9237  -3.1793 H              1 S1                 0.0000
     42 ****         6.2056   0.1415  -4.7174 H              1 S1                 0.0000
     43 ****         6.7788  -0.8214  -3.3572 H              1 S1                 0.0000
     44 ****        -2.4137   1.3284   2.2696 H              1 S1                 0.0000
     45 ****        -2.6090  -0.2559   2.9759 H              1 S1                 0.0000
     46 ****        -0.7061   0.4609   1.1309 LP             1 S1                 0.0000
     47 ****        -0.8559  -0.3737  -0.2648 LP             1 S1                 0.0000
     48 ****         1.1937  -2.5842   2.7868 LP             1 S1                 0.0000
     49 ****         2.6449  -2.0824   1.9854 LP             1 S1                 0.0000
     50 ****         6.4236  -0.1127  -1.2679 LP             1 S1                 0.0000
     51 ****         2.4761  -0.5438  -2.2043 LP             1 S1                 0.0000
@<TRIPOS>BOND
    1    1    2 1     
    2    1   22 1     
    3    1   23 1     
    4    1   24 1     
    5    2   21 1     
    6    2    3 1     
    7    2   25 1     
    8    3    4 1     
    9    3   26 1     
   10    3   27 1     
   11    4    5 1     
   12    4   28 1     
   13    4   29 1     
   14    5    6 1     
   15    5   30 1     
   16    5   31 1     
   17    6    7 1     
   18    6   21 1     
   19    6   32 1     
   20    7    8 1     
   21    8    9 1     
   22    8   33 1     
   23    8   34 1     
   24    9   10 2     
   25    9   11 am    
   26   11   12 1     
   27   11   35 1     
   28   12   20 ar    
   29   12   13 ar    
   30   13   14 ar    
   31   13   36 1     
   32   14   15 ar    
   33   14   37 1     
   34   15   16 ar    
   35   16   17 1     
   36   16   20 ar    
   37   17   18 1     
   38   17   19 1     
   39   18   38 1     
   40   18   39 1     
   41   18   40 1     
   42   19   41 1     
   43   19   42 1     
   44   19   43 1     
   45   21   44 1     
   46   21   45 1     
   47    7   46 1     
   48    7   47 1     
   49   10   48 1     
   50   10   49 1     
   51   15   50 1     
   52   20   51 1     
@<TRIPOS>SUBSTRUCTURE
      1 S1             1
@<TRIPOS>SET
LONE_PAIRS      STATIC     ATOMS    <user>   **** ""
6 46 47 48 49 50 51
DONOR_HYDROGENS      STATIC     ATOMS    <user>   **** ""
1 35
ATOM$BLUE        STATIC     ATOMS    COLORGROUP SYSTEM
6 46 47 48 49 50 51
ATOM$RED        STATIC     ATOMS    COLORGROUP SYSTEM
1 35
