#       Name:                AV-unprocessed.smi:1543
#       Creating user name   scv26
#       Creation time:       Fri Mar 27 06:37:39 2020


#       File generated by GOLD software.
#

@<TRIPOS>MOLECULE
AV-unprocessed.smi:1543
    54    55     1
SMALL
NO_CHARGES


@<TRIPOS>ATOM
      1 ****        -3.3016   3.7305  -1.1081 C.3            1 S1                 0.0000
      2 ****        -2.6227   2.3581  -1.0420 C.3            1 S1                 0.0000
      3 ****        -1.1082   2.4499  -1.3031 C.3            1 S1                 0.0000
      4 ****        -0.4730   1.1294  -1.3336 N.3            1 S1                 0.0000
      5 ****         1.0149   1.1466  -1.4151 C.3            1 S1                 0.0000
      6 ****         1.5407   1.7840  -2.7234 C.3            1 S1                 0.0000
      7 ****         1.6289   1.9440  -0.2363 C.3            1 S1                 0.0000
      8 ****         1.6122  -0.2882  -1.3257 C.3            1 S1                 0.0000
      9 ****         1.1052  -1.0299  -0.1710 N.am           1 S1                 0.0000
     10 ****         1.8397  -1.5150   0.8393 C.2            1 S1                 0.0000
     11 ****         3.0642  -1.4112   0.9029 O.2            1 S1                 0.0000
     12 ****         1.0603  -2.1273   1.7472 N.am           1 S1                 0.0000
     13 ****         1.4360  -2.7907   2.9474 C.ar           1 S1                 0.0000
     14 ****         2.6811  -2.6255   3.6022 C.ar           1 S1                 0.0000
     15 ****         2.9219  -3.3363   4.7941 C.ar           1 S1                 0.0000
     16 ****         1.9092  -4.1784   5.2920 C.ar           1 S1                 0.0000
     17 ****         0.7137  -4.3359   4.6863 N.ar           1 S1                 0.0000
     18 ****         0.4904  -3.6518   3.5440 C.ar           1 S1                 0.0000
     19 ****        -1.1380   0.3175  -2.3590 C.3            1 S1                 0.0000
     20 ****        -2.6599   0.2163  -2.1421 C.3            1 S1                 0.0000
     21 ****        -3.0422  -0.6918  -0.9606 C.3            1 S1                 0.0000
     22 ****        -3.2300   1.5193  -2.0214 O.3            1 S1                 0.0000
     23 ****        -2.8784   4.4141  -0.3717 H              1 S1                 0.0000
     24 ****        -4.3701   3.6467  -0.9079 H              1 S1                 0.0000
     25 ****        -3.1816   4.1828  -2.0928 H              1 S1                 0.0000
     26 ****        -2.7947   1.9387  -0.0502 H              1 S1                 0.0000
     27 ****        -0.9390   2.9686  -2.2471 H              1 S1                 0.0000
     28 ****        -0.6774   3.0708  -0.5200 H              1 S1                 0.0000
     29 ****         2.6312   1.7896  -2.7448 H              1 S1                 0.0000
     30 ****         1.2198   2.8197  -2.8342 H              1 S1                 0.0000
     31 ****         1.2122   1.2384  -3.6077 H              1 S1                 0.0000
     32 ****         2.7104   1.8126  -0.1844 H              1 S1                 0.0000
     33 ****         1.2182   1.6253   0.7226 H              1 S1                 0.0000
     34 ****         1.4595   3.0166  -0.3277 H              1 S1                 0.0000
     35 ****         1.3848  -0.8660  -2.2213 H              1 S1                 0.0000
     36 ****         2.7023  -0.2371  -1.3075 H              1 S1                 0.0000
     37 ****         0.1050  -1.1606  -0.1308 H              1 S1                 0.0000
     38 ****         0.0772  -2.1734   1.5220 H              1 S1                 0.0000
     39 ****         3.4483  -1.9662   3.2284 H              1 S1                 0.0000
     40 ****         3.8614  -3.2350   5.3173 H              1 S1                 0.0000
     41 ****         2.0619  -4.7365   6.2039 H              1 S1                 0.0000
     42 ****        -0.4777  -3.8016   3.0883 H              1 S1                 0.0000
     43 ****        -0.9584   0.7487  -3.3441 H              1 S1                 0.0000
     44 ****        -0.7365  -0.6936  -2.3854 H              1 S1                 0.0000
     45 ****        -3.0970  -0.2259  -3.0376 H              1 S1                 0.0000
     46 ****        -2.6896  -1.7101  -1.1264 H              1 S1                 0.0000
     47 ****        -4.1243  -0.7331  -0.8356 H              1 S1                 0.0000
     48 ****        -2.6090  -0.3482  -0.0214 H              1 S1                 0.0000
     49 ****        -0.6088   0.6934  -0.4439 LP             1 S1                 0.0000
     50 ****         3.5649  -0.9438   0.1743 LP             1 S1                 0.0000
     51 ****         3.5586  -1.7942   1.6833 LP             1 S1                 0.0000
     52 ****         0.0157  -4.9398   5.0712 LP             1 S1                 0.0000
     53 ****        -3.1536   1.9741  -2.9087 LP             1 S1                 0.0000
     54 ****        -4.1955   1.4139  -1.7829 LP             1 S1                 0.0000
@<TRIPOS>BOND
    1    1    2 1     
    2    1   23 1     
    3    1   24 1     
    4    1   25 1     
    5    2   22 1     
    6    2    3 1     
    7    2   26 1     
    8    3    4 1     
    9    3   27 1     
   10    3   28 1     
   11    4    5 1     
   12    4   19 1     
   13    5    6 1     
   14    5    7 1     
   15    5    8 1     
   16    6   29 1     
   17    6   30 1     
   18    6   31 1     
   19    7   32 1     
   20    7   33 1     
   21    7   34 1     
   22    8    9 1     
   23    8   35 1     
   24    8   36 1     
   25    9   10 am    
   26    9   37 1     
   27   10   11 2     
   28   10   12 am    
   29   12   13 1     
   30   12   38 1     
   31   13   18 ar    
   32   13   14 ar    
   33   14   15 ar    
   34   14   39 1     
   35   15   16 ar    
   36   15   40 1     
   37   16   17 ar    
   38   16   41 1     
   39   17   18 ar    
   40   18   42 1     
   41   19   20 1     
   42   19   43 1     
   43   19   44 1     
   44   20   21 1     
   45   20   22 1     
   46   20   45 1     
   47   21   46 1     
   48   21   47 1     
   49   21   48 1     
   50    4   49 1     
   51   11   50 1     
   52   11   51 1     
   53   17   52 1     
   54   22   53 1     
   55   22   54 1     
@<TRIPOS>SUBSTRUCTURE
      1 S1             1
@<TRIPOS>SET
LONE_PAIRS      STATIC     ATOMS    <user>   **** ""
6 49 50 51 52 53 54
DONOR_HYDROGENS      STATIC     ATOMS    <user>   **** ""
2 37 38
ATOM$BLUE        STATIC     ATOMS    COLORGROUP SYSTEM
6 49 50 51 52 53 54
ATOM$RED        STATIC     ATOMS    COLORGROUP SYSTEM
2 37 38
