AV-unprocessed.smi:2593|AV-procd|sdf|10164|dock9
  -GOLD-   2272014183D 1   1.00000     0.00000
 Structure written by MMmdl.
 41 43  0  0  0  0  0  0  0  0  2 V2000
  152.8398  138.4174  154.9761 C   0  0  0  0  0  0  0  0  0  0  0  0
  152.8651  139.2951  156.0876 O   0  0  0  0  0  0  0  0  0  0  0  0
  152.2570  138.7333  157.2394 C   0  0  0  0  0  0  0  0  0  0  0  0
  152.1815  139.7933  158.3471 C   0  0  0  0  0  0  0  0  0  0  0  0
  151.5865  141.0508  157.8728 N   0  0  0  0  0  0  0  0  0  0  0  0
  150.7324  141.2960  156.8398 C   0  0  0  0  0  0  0  0  0  0  0  0
  150.0232  140.1092  155.7465 S   0  0  0  0  0  0  0  0  0  0  0  0
  149.2755  141.0993  154.4207 C   0  0  0  0  0  0  0  0  0  0  0  0
  147.8901  141.5549  154.8371 C   0  0  0  0  0  0  0  0  0  0  0  0
  147.0593  142.2481  153.9320 C   0  0  0  0  0  0  0  0  0  0  0  0
  145.7945  142.6775  154.3779 C   0  0  0  0  0  0  0  0  0  0  0  0
  145.4144  142.4042  155.7063 C   0  0  0  0  0  0  0  0  0  0  0  0
  146.3171  141.7050  156.5332 C   0  0  0  0  0  0  0  0  0  0  0  0
  145.9812  141.4227  157.8545 N   0  0  0  0  0  0  0  0  0  0  0  0
  147.5286  141.2846  156.1122 N   0  0  0  0  0  0  0  0  0  0  0  0
  150.4903  142.6348  156.8099 N   0  3  0  0  0  0  0  0  0  0  0  0
  151.1939  143.2574  157.8417 C   0  0  0  0  0  0  0  0  0  0  0  0
  151.2632  144.5948  158.2193 C   0  0  0  0  0  0  0  0  0  0  0  0
  152.0830  144.8981  159.3260 C   0  0  0  0  0  0  0  0  0  0  0  0
  152.7950  143.8919  160.0107 C   0  0  0  0  0  0  0  0  0  0  0  0
  152.7171  142.5389  159.6193 C   0  0  0  0  0  0  0  0  0  0  0  0
  151.9023  142.2469  158.5261 C   0  0  0  0  0  0  0  0  0  0  0  0
  153.3227  138.8932  154.1226 H   0  0  0  0  0  0  0  0  0  0  0  0
  151.8160  138.1727  154.6904 H   0  0  0  0  0  0  0  0  0  0  0  0
  153.3745  137.4917  155.1923 H   0  0  0  0  0  0  0  0  0  0  0  0
  151.2536  138.3787  156.9992 H   0  0  0  0  0  0  0  0  0  0  0  0
  152.8335  137.8728  157.5819 H   0  0  0  0  0  0  0  0  0  0  0  0
  151.5729  139.4232  159.1714 H   0  0  0  0  0  0  0  0  0  0  0  0
  153.1680  140.0019  158.7620 H   0  0  0  0  0  0  0  0  0  0  0  0
  149.9067  141.9641  154.2153 H   0  0  0  0  0  0  0  0  0  0  0  0
  149.2245  140.5114  153.5038 H   0  0  0  0  0  0  0  0  0  0  0  0
  147.3845  142.4504  152.9218 H   0  0  0  0  0  0  0  0  0  0  0  0
  145.1301  143.2115  153.7148 H   0  0  0  0  0  0  0  0  0  0  0  0
  144.4517  142.7251  156.0772 H   0  0  0  0  0  0  0  0  0  0  0  0
  145.0947  141.7092  158.2443 H   0  0  0  0  0  0  0  0  0  0  0  0
  146.5612  140.8255  158.4258 H   0  0  0  0  0  0  0  0  0  0  0  0
  150.7198  145.3679  157.6959 H   0  0  0  0  0  0  0  0  0  0  0  0
  152.1682  145.9234  159.6559 H   0  0  0  0  0  0  0  0  0  0  0  0
  153.4138  144.1630  160.8538 H   0  0  0  0  0  0  0  0  0  0  0  0
  153.2672  141.7756  160.1497 H   0  0  0  0  0  0  0  0  0  0  0  0
  149.8809  143.0838  156.1385 H   0  0  0  0  0  0  0  0  0  0  0  0
  1  2  1  0  0  0  0
  1 23  1  0  0  0  0
  1 24  1  0  0  0  0
  1 25  1  0  0  0  0
  2  3  1  0  0  0  0
  3  4  1  0  0  0  0
  3 26  1  0  0  0  0
  3 27  1  0  0  0  0
  4  5  1  0  0  0  0
  4 28  1  0  0  0  0
  4 29  1  0  0  0  0
  5 22  1  0  0  0  0
  5  6  1  0  0  0  0
  6  7  1  0  0  0  0
  6 16  2  0  0  0  0
  7  8  1  0  0  0  0
  8  9  1  0  0  0  0
  8 30  1  0  0  0  0
  8 31  1  0  0  0  0
  9 15  1  0  0  0  0
  9 10  2  0  0  0  0
 10 11  1  0  0  0  0
 10 32  1  0  0  0  0
 11 12  2  0  0  0  0
 11 33  1  0  0  0  0
 12 13  1  0  0  0  0
 12 34  1  0  0  0  0
 13 14  1  0  0  0  0
 13 15  2  0  0  0  0
 14 35  1  0  0  0  0
 14 36  1  0  0  0  0
 16 17  1  0  0  0  0
 16 41  1  0  0  0  0
 17 22  2  0  0  0  0
 17 18  1  0  0  0  0
 18 19  2  0  0  0  0
 18 37  1  0  0  0  0
 19 20  1  0  0  0  0
 19 38  1  0  0  0  0
 20 21  2  0  0  0  0
 20 39  1  0  0  0  0
 21 22  1  0  0  0  0
 21 40  1  0  0  0  0
M  CHG  1  16   1
M  END
> <s_m_source_file>
AV-unprocessed.smi

> <i_m_source_file_index>
2593

> <i_lp_mmshare_version>
43012

> <i_f3d_flags>
0

> <s_epik_input>
W2NIXTFbY0hdW2NIXVtjSF1jKGMxMiluKFtDSDJdW0NIMl1PW0NIM10pYyhuMilTW0NIMl1jM1tjSF1bY0hdW2NIXWMobjMpW05IMl0=

> <s_epik_cmdline>
J2VwaWtfcHl0aG9uJywgJy1waCcsICc3LjAnLCAnLXRuJywgJzgnLCAnLW1hJywgJzIwMCcsICctbWV0YWxfYmluZGluZycsICctaW1hZScsICc8aW5maWxlLm1hZT4nLCAnLW9tYWUnLCAnPG91dGZpbGUubWFlPic=

> <r_lp_tautomer_probability>
1

> <r_epik_Ionization_Penalty>
1.62501

> <r_epik_Ionization_Penalty_Charging>
1.62036

> <r_epik_Ionization_Penalty_Neutral>
0.00464699

> <r_epik_State_Penalty>
1.7318

> <r_epik_Charging_Adjusted_Penalty>
3.35216

> <i_epik_Tot_Q>
1

> <i_epik_Tot_abs_Q>
1

> <r_epik_Metal_State_Penalty>
1.7649

> <b_epik_Metal_Only>
0

> <s_lp_Force_Field>
OPLS_2005

> <r_lp_Energy>
8.46533

> <b_lp_Chiralities_Consistent>
1

> <s_lp_Variant>
AV-unprocessed.smi:2593-2

> <Gold.Version>
5.8.1

> <Gold.Id.Protein>
6NUR|6NUR_protein|mol2

> <Gold.PLP.Fitness>
57.7888

> <Gold.PLP.PLP>
-50.0861

> <Gold.PLP.part.hbond>
-2.0000

> <Gold.PLP.part.metal>
0.0000

> <Gold.PLP.part.buried>
-5.9385

> <Gold.PLP.part.nonpolar>
-42.2548

> <Gold.PLP.part.repulsive>
0.1956

> <Gold.PLP.ligand.clash>
0.0000

> <Gold.PLP.ligand.torsion>
0.6783

> <Gold.PLP.Chemscore.Hbond>
3.0000

> <Gold.PLP.Chemscore.CHOScore>
0.0000

> <Gold.PLP.Chemscore.Metal>
0.0000

> <Gold.Chemscore.Hbonds>
donor molecule, donor type, donor heavy atom, donor atom, acceptor molecule, acceptor atom, score
      L1  H    16    41       P1  8028  1.86
      P1  H  7997  8010       L1     2  1.00

> <Gold.PLP.Chemscore.Internal.Correction>
0.0592

> <Gold.Rescore>
     Score         DG    S(hbond)    S(metal)    S(lipo)     H(rot)  DE(clash)    DE(int)     intcor
     19.16     -20.91       1.88        0.00     126.09       2.19       0.01       1.75       ----

> <Gold.Chemscore.Fitness>
19.1550

> <Gold.Chemscore.DG>
-20.9101

> <Gold.Chemscore.ZeroCoef>
-5.4800

> <Gold.Chemscore.Hbond>
1.8844

> <Gold.Chemscore.Metal>
0.0000

> <Gold.Chemscore.Lipo>
126.0947

> <Gold.Chemscore.Internal_Hbond>
0.0000

> <Gold.Chemscore.DEClash>
0.0073

> <Gold.Chemscore.DEInternal>
1.7477

> <Gold.Chemscore.Rot>
2.1941

> <Gold.Chemscore.Internal.Correction>
   9.000000E+99

> <Gold.Chemscore.Hbonds>
donor molecule, donor type, donor heavy atom, donor atom, acceptor molecule, acceptor atom, score
      L1  H    16    41       P1  8028  0.88
      P1  H  7997  8010       L1     2  0.74

> <Gold.Chemscore.Hbond.Weighted>
-6.2940

> <Gold.Chemscore.Metal.Weighted>
-0.0000

> <Gold.Chemscore.Lipo.Weighted>
-14.7531

> <Gold.Chemscore.Internal_Hbond.Weighted>
0.0000

> <Gold.Chemscore.DEClash.Weighted>
0.0073

> <Gold.Chemscore.DEInternal.Weighted>
1.7477

> <Gold.Chemscore.Rot.Weighted>
5.6169

> <Gold.Chemscore.Internal.Correction.Weighted>
   9.000000E+99

> <Gold.Protein.RotatedTorsions>
[ 6907 6896 6895 6894 ] final  -90.36 input  -60.11 | X-H torsion
[ 7974 7965 7964 7962 ] final  136.09 input  175.53 | X-H torsion
[ 8008 7997 7996 7995 ] final   90.14 input   59.86 | X-H torsion
[ 10167 10162 10161 10158 ] final   96.96 input  -65.29 | X-H torsion
[ 10718 10713 10712 10709 ] final  -77.34 input   66.30 | X-H torsion
[ 10763 10752 10751 10750 ] final  -94.82 input  -60.55 | X-H torsion
[ 11005 11000 10999 10996 ] final  -13.01 input  -57.11 | X-H torsion

> <Gold.Protein.ActiveResidues>
 VAL166  LYS551  ARG553  GLY616  TRP617  ASP618  TYR619  PRO620  LYS621  CYS622 
 ASP623  PHE694  ASN695  SER759  ASP760  ASP761  ALA762  ILE779  LEU786  VAL792 
 PHE793  MET794  SER795  GLU796  ALA797  LYS798  CYS799  TRP800  GLU811  SER814 

> <Gold.Protein.RotatedAtoms>
  150.6881  134.2443  159.4484 H   0  0  0  0  0  0  0  0  0  0  0  0  # atno 6907 bound_to 6896
  152.0385  134.9723  160.0583 H   0  0  0  0  0  0  0  0  0  0  0  0  # atno 6908 bound_to 6896
  152.1234  133.4331  159.4723 H   0  0  0  0  0  0  0  0  0  0  0  0  # atno 6909 bound_to 6896
  144.9599  139.4722  143.5484 H   0  0  0  0  0  0  0  0  0  0  0  0  # atno 7974 bound_to 7965
  156.0084  140.3353  155.6916 H   0  0  0  0  0  0  0  0  0  0  0  0  # atno 8008 bound_to 7997
  155.6192  140.0673  157.2701 H   0  0  0  0  0  0  0  0  0  0  0  0  # atno 8009 bound_to 7997
  154.4273  140.1779  156.1342 H   0  0  0  0  0  0  0  0  0  0  0  0  # atno 8010 bound_to 7997
  139.7845  144.6876  150.9977 H   0  0  0  0  0  0  0  0  0  0  0  0  # atno 10167 bound_to 10162
  156.0148  130.4489  150.3330 H   0  0  0  0  0  0  0  0  0  0  0  0  # atno 10718 bound_to 10713
  154.7091  135.5143  153.8639 H   0  0  0  0  0  0  0  0  0  0  0  0  # atno 10763 bound_to 10752
  153.0766  135.6618  154.0142 H   0  0  0  0  0  0  0  0  0  0  0  0  # atno 10764 bound_to 10752
  153.9988  135.3013  155.3384 H   0  0  0  0  0  0  0  0  0  0  0  0  # atno 10765 bound_to 10752
  140.7716  133.8434  155.9212 H   0  0  0  0  0  0  0  0  0  0  0  0  # atno 11005 bound_to 11000
  146.3349  139.8742  142.8835 LP  0  0  0  0  0  0  0  0  0  0  0  0  # atno 17320 bound_to 7965
  145.2715  141.0110  143.3769 LP  0  0  0  0  0  0  0  0  0  0  0  0  # atno 17321 bound_to 7965
  140.7819  143.4447  151.0500 LP  0  0  0  0  0  0  0  0  0  0  0  0  # atno 17342 bound_to 10162
  139.8126  143.7930  152.3172 LP  0  0  0  0  0  0  0  0  0  0  0  0  # atno 17343 bound_to 10162
  157.1427  131.0301  151.2920 LP  0  0  0  0  0  0  0  0  0  0  0  0  # atno 17370 bound_to 10713
  157.4458  130.7570  149.7108 LP  0  0  0  0  0  0  0  0  0  0  0  0  # atno 17371 bound_to 10713
  140.9568  134.1707  157.4685 LP  0  0  0  0  0  0  0  0  0  0  0  0  # atno 17394 bound_to 11000
  139.8755  134.9930  156.5623 LP  0  0  0  0  0  0  0  0  0  0  0  0  # atno 17395 bound_to 11000

$$$$
