AV-unprocessed.smi:235|AV-procd|sdf|1803|dock6
  -GOLD-   2262020373D 1   1.00000     0.00000
 Structure written by MMmdl.
 54 58  0  0  0  0  0  0  0  0  1 V2000
  145.9044  140.0017  157.9791 O   0  0  0  0  0  0  0  0  0  0  0  0
  145.7017  141.2154  158.0355 C   0  0  0  0  0  0  0  0  0  0  0  0
  145.2105  141.8333  159.1194 N   0  0  0  0  0  0  0  0  0  0  0  0
  144.8653  141.2006  160.3508 C   0  0  0  0  0  0  0  0  0  0  0  0
  143.9486  141.9510  161.2925 C   0  0  0  0  0  0  0  0  0  0  0  0
  145.4075  141.8069  161.6268 C   0  0  0  0  0  0  0  0  0  0  0  0
  145.9910  142.1137  156.8246 C   0  0  2  0  0  0  0  0  0  0  0  0
  144.7317  142.8360  156.3292 C   0  0  0  0  0  0  0  0  0  0  0  0
  145.0667  143.1438  154.8752 C   0  0  0  0  0  0  0  0  0  0  0  0
  145.8720  141.9191  154.4410 C   0  0  0  0  0  0  0  0  0  0  0  0
  146.4427  141.3502  155.6590 N   0  0  0  0  0  0  0  0  0  0  0  0
  147.7661  141.0807  155.6158 C   0  0  0  0  0  0  0  0  0  0  0  0
  148.2280  140.4128  154.5311 N   0  0  0  0  0  0  0  0  0  0  0  0
  149.5270  140.1132  154.4359 C   0  0  0  0  0  0  0  0  0  0  0  0
  150.5123  140.3836  155.2957 N   0  0  0  0  0  0  0  0  0  0  0  0
  150.0477  141.0577  156.3871 C   0  0  0  0  0  0  0  0  0  0  0  0
  148.6993  141.4424  156.6275 C   0  0  0  0  0  0  0  0  0  0  0  0
  148.6032  142.1060  157.8450 N   0  0  0  0  0  0  0  0  0  0  0  0
  149.8269  142.1128  158.2989 C   0  0  0  0  0  0  0  0  0  0  0  0
  150.7596  141.5122  157.4829 N   0  0  0  0  0  0  0  0  0  0  0  0
  152.1856  141.3837  157.7370 C   0  0  0  0  0  0  0  0  0  0  0  0
  152.5278  141.0319  159.2022 C   0  0  1  0  0  0  0  0  0  0  0  0
  153.6705  140.1990  159.2250 O   0  0  0  0  0  0  0  0  0  0  0  0
  152.8014  142.2605  160.0932 C   0  0  2  0  0  0  0  0  0  0  0  0
  153.3025  141.9276  161.4992 C   0  0  0  0  0  0  0  0  0  0  0  0
  152.8858  143.1368  162.3227 C   0  0  0  0  0  0  0  0  0  0  0  0
  151.8596  143.8537  161.4408 C   0  0  0  0  0  0  0  0  0  0  0  0
  151.5960  142.9556  160.3724 O   0  0  0  0  0  0  0  0  0  0  0  0
  145.0722  142.8321  159.0687 H   0  0  0  0  0  0  0  0  0  0  0  0
  144.7610  140.1165  160.3447 H   0  0  0  0  0  0  0  0  0  0  0  0
  143.5990  142.9355  160.9870 H   0  0  0  0  0  0  0  0  0  0  0  0
  143.2396  141.3655  161.8741 H   0  0  0  0  0  0  0  0  0  0  0  0
  145.6727  141.1252  162.4327 H   0  0  0  0  0  0  0  0  0  0  0  0
  146.0307  142.6954  161.5450 H   0  0  0  0  0  0  0  0  0  0  0  0
  146.7419  142.8580  157.0977 H   0  0  0  0  0  0  0  0  0  0  0  0
  143.8589  142.1818  156.3741 H   0  0  0  0  0  0  0  0  0  0  0  0
  144.5091  143.7351  156.9046 H   0  0  0  0  0  0  0  0  0  0  0  0
  144.1845  143.3143  154.2579 H   0  0  0  0  0  0  0  0  0  0  0  0
  145.6936  144.0352  154.8248 H   0  0  0  0  0  0  0  0  0  0  0  0
  145.2110  141.1708  154.0029 H   0  0  0  0  0  0  0  0  0  0  0  0
  146.6143  142.1779  153.6840 H   0  0  0  0  0  0  0  0  0  0  0  0
  149.8186  139.5808  153.5427 H   0  0  0  0  0  0  0  0  0  0  0  0
  150.0874  142.5667  159.2443 H   0  0  0  0  0  0  0  0  0  0  0  0
  152.5806  140.6162  157.0704 H   0  0  0  0  0  0  0  0  0  0  0  0
  152.6745  142.3151  157.4482 H   0  0  0  0  0  0  0  0  0  0  0  0
  151.6966  140.4626  159.6196 H   0  0  0  0  0  0  0  0  0  0  0  0
  153.7405  139.8077  160.0823 H   0  0  0  0  0  0  0  0  0  0  0  0
  153.5006  142.9457  159.6100 H   0  0  0  0  0  0  0  0  0  0  0  0
  152.8000  141.0373  161.8796 H   0  0  0  0  0  0  0  0  0  0  0  0
  154.3771  141.7444  161.5288 H   0  0  0  0  0  0  0  0  0  0  0  0
  152.4557  142.8292  163.2765 H   0  0  0  0  0  0  0  0  0  0  0  0
  153.7342  143.7897  162.5308 H   0  0  0  0  0  0  0  0  0  0  0  0
  150.9444  144.1017  161.9789 H   0  0  0  0  0  0  0  0  0  0  0  0
  152.2788  144.7767  161.0375 H   0  0  0  0  0  0  0  0  0  0  0  0
  1  2  2  0  0  0  0
  2  3  1  0  0  0  0
  2  7  1  0  0  0  0
  3  4  1  0  0  0  0
  3 29  1  0  0  0  0
  4  6  1  0  0  0  0
  4  5  1  0  0  0  0
  4 30  1  0  0  0  0
  5  6  1  0  0  0  0
  5 31  1  0  0  0  0
  5 32  1  0  0  0  0
  6 33  1  0  0  0  0
  6 34  1  0  0  0  0
  7 11  1  0  0  0  0
  7  8  1  0  0  0  0
  7 35  1  0  0  0  0
  8  9  1  0  0  0  0
  8 36  1  0  0  0  0
  8 37  1  0  0  0  0
  9 10  1  0  0  0  0
  9 38  1  0  0  0  0
  9 39  1  0  0  0  0
 10 11  1  0  0  0  0
 10 40  1  0  0  0  0
 10 41  1  0  0  0  0
 11 12  1  0  0  0  0
 12 17  1  0  0  0  0
 12 13  2  0  0  0  0
 13 14  1  0  0  0  0
 14 15  2  0  0  0  0
 14 42  1  0  0  0  0
 15 16  1  0  0  0  0
 16 20  1  0  0  0  0
 16 17  2  0  0  0  0
 17 18  1  0  0  0  0
 18 19  2  0  0  0  0
 19 20  1  0  0  0  0
 19 43  1  0  0  0  0
 20 21  1  0  0  0  0
 21 22  1  0  0  0  0
 21 44  1  0  0  0  0
 21 45  1  0  0  0  0
 22 23  1  0  0  0  0
 22 24  1  0  0  0  0
 22 46  1  0  0  0  0
 23 47  1  0  0  0  0
 24 28  1  0  0  0  0
 24 25  1  0  0  0  0
 24 48  1  0  0  0  0
 25 26  1  0  0  0  0
 25 49  1  0  0  0  0
 25 50  1  0  0  0  0
 26 27  1  0  0  0  0
 26 51  1  0  0  0  0
 26 52  1  0  0  0  0
 27 28  1  0  0  0  0
 27 53  1  0  0  0  0
 27 54  1  0  0  0  0
M  END
> <s_m_source_file>
AV-unprocessed.smi

> <i_m_source_file_index>
235

> <i_lp_mmshare_version>
43012

> <i_f3d_flags>
0

> <s_epik_input>
W0NIMl0xW0NIMl1bQ0hdMVtOSF1DKD1PKVtDQEBIXTJbQ0gyXVtDSDJdW0NIMl1OMmMobltjSF1uMyljKGMzNCluW2NIXW40W0NIMl1bQ0BIXShbT0hdKVtDQEBIXTVbQ0gyXVtDSDJdW0NIMl1PNQ==

> <s_epik_cmdline>
J2VwaWtfcHl0aG9uJywgJy1waCcsICc3LjAnLCAnLXRuJywgJzgnLCAnLW1hJywgJzIwMCcsICctbWV0YWxfYmluZGluZycsICctaW1hZScsICc8aW5maWxlLm1hZT4nLCAnLW9tYWUnLCAnPG91dGZpbGUubWFlPic=

> <r_lp_tautomer_probability>
1

> <r_epik_Ionization_Penalty>
0.000526714

> <r_epik_Ionization_Penalty_Charging>
0

> <r_epik_Ionization_Penalty_Neutral>
0.000526714

> <r_epik_State_Penalty>
0.000272704

> <r_epik_Charging_Adjusted_Penalty>
0.000272704

> <i_epik_Tot_Q>
0

> <i_epik_Tot_abs_Q>
0

> <r_epik_Metal_State_Penalty>
-0

> <b_epik_Metal_Only>
0

> <s_lp_Force_Field>
OPLS_2005

> <r_lp_Energy>
60.0351

> <b_lp_Chiralities_Consistent>
1

> <s_lp_Variant>
AV-unprocessed.smi:235-3

> <Gold.Version>
5.8.1

> <Gold.Id.Protein>
6NUR|6NUR_protein|mol2

> <Gold.PLP.Fitness>
46.8439

> <Gold.PLP.PLP>
-45.8064

> <Gold.PLP.part.hbond>
-1.1380

> <Gold.PLP.part.metal>
0.0000

> <Gold.PLP.part.buried>
-8.0965

> <Gold.PLP.part.nonpolar>
-36.4645

> <Gold.PLP.part.repulsive>
1.0921

> <Gold.PLP.ligand.clash>
0.0000

> <Gold.PLP.ligand.torsion>
1.1622

> <Gold.PLP.Chemscore.Hbond>
0.0715

> <Gold.PLP.Chemscore.CHOScore>
0.9633

> <Gold.PLP.Chemscore.Metal>
0.0000

> <Gold.Chemscore.Hbonds>
donor molecule, donor type, donor heavy atom, donor atom, acceptor molecule, acceptor atom, score
      P1  H  7989  7998       L1    15  0.13
      L1  C    14    42       P1  7957  1.00

> <Gold.PLP.Chemscore.Internal.Correction>
0.2573

> <Gold.Rescore>
     Score         DG    S(hbond)    S(metal)    S(lipo)     H(rot)  DE(clash)    DE(int)     intcor
      4.42      -8.43       0.00        0.00      90.87       3.00       0.04       3.98       ----

> <Gold.Chemscore.Fitness>
4.4184

> <Gold.Chemscore.DG>
-8.4350

> <Gold.Chemscore.ZeroCoef>
-5.4800

> <Gold.Chemscore.Hbond>
0.0000

> <Gold.Chemscore.Metal>
0.0000

> <Gold.Chemscore.Lipo>
90.8734

> <Gold.Chemscore.Internal_Hbond>
0.0000

> <Gold.Chemscore.DEClash>
0.0360

> <Gold.Chemscore.DEInternal>
3.9805

> <Gold.Chemscore.Rot>
2.9989

> <Gold.Chemscore.Internal.Correction>
   9.000000E+99

> <Gold.Chemscore.Hbond.Weighted>
-0.0000

> <Gold.Chemscore.Metal.Weighted>
-0.0000

> <Gold.Chemscore.Lipo.Weighted>
-10.6322

> <Gold.Chemscore.Internal_Hbond.Weighted>
0.0000

> <Gold.Chemscore.DEClash.Weighted>
0.0360

> <Gold.Chemscore.DEInternal.Weighted>
3.9805

> <Gold.Chemscore.Rot.Weighted>
7.6772

> <Gold.Chemscore.Internal.Correction.Weighted>
   9.000000E+99

> <Gold.Protein.RotatedTorsions>
[ 6907 6896 6895 6894 ] final   56.95 input  -60.11 | X-H torsion
[ 7974 7965 7964 7962 ] final -139.30 input  175.53 | X-H torsion
[ 8008 7997 7996 7995 ] final  -23.73 input   59.86 | X-H torsion
[ 10167 10162 10161 10158 ] final   -2.15 input  -65.29 | X-H torsion
[ 10718 10713 10712 10709 ] final  102.56 input   66.30 | X-H torsion
[ 10763 10752 10751 10750 ] final   -2.15 input  -60.55 | X-H torsion
[ 11005 11000 10999 10996 ] final  -28.65 input  -57.11 | X-H torsion

> <Gold.Protein.ActiveResidues>
 VAL166  LYS551  ARG553  GLY616  TRP617  ASP618  TYR619  PRO620  LYS621  CYS622 
 ASP623  PHE694  ASN695  SER759  ASP760  ASP761  ALA762  ILE779  LEU786  VAL792 
 PHE793  MET794  SER795  GLU796  ALA797  LYS798  CYS799  TRP800  GLU811  SER814 

> <Gold.Protein.RotatedAtoms>
  152.3685  134.6769  160.0183 H   0  0  0  0  0  0  0  0  0  0  0  0  # atno 6907 bound_to 6896
  151.7069  133.3306  159.3289 H   0  0  0  0  0  0  0  0  0  0  0  0  # atno 6908 bound_to 6896
  150.7656  134.6501  159.6328 H   0  0  0  0  0  0  0  0  0  0  0  0  # atno 6909 bound_to 6896
  144.8688  140.6334  143.5280 H   0  0  0  0  0  0  0  0  0  0  0  0  # atno 7974 bound_to 7965
  154.4568  140.1972  156.0356 H   0  0  0  0  0  0  0  0  0  0  0  0  # atno 8008 bound_to 7997
  156.0762  140.3278  155.7609 H   0  0  0  0  0  0  0  0  0  0  0  0  # atno 8009 bound_to 7997
  155.5184  140.0567  157.2902 H   0  0  0  0  0  0  0  0  0  0  0  0  # atno 8010 bound_to 7997
  140.6839  143.6691  150.8201 H   0  0  0  0  0  0  0  0  0  0  0  0  # atno 10167 bound_to 10162
  157.6798  131.0756  150.5423 H   0  0  0  0  0  0  0  0  0  0  0  0  # atno 10718 bound_to 10713
  153.3543  135.6987  153.6763 H   0  0  0  0  0  0  0  0  0  0  0  0  # atno 10763 bound_to 10752
  153.5478  135.3560  155.2747 H   0  0  0  0  0  0  0  0  0  0  0  0  # atno 10764 bound_to 10752
  154.8658  135.4219  154.2785 H   0  0  0  0  0  0  0  0  0  0  0  0  # atno 10765 bound_to 10752
  140.9227  133.7388  156.0824 H   0  0  0  0  0  0  0  0  0  0  0  0  # atno 11005 bound_to 11000
  145.4170  139.1570  143.4094 LP  0  0  0  0  0  0  0  0  0  0  0  0  # atno 17320 bound_to 7965
  146.2915  140.4278  142.8737 LP  0  0  0  0  0  0  0  0  0  0  0  0  # atno 17321 bound_to 7965
  140.0395  143.5361  152.2724 LP  0  0  0  0  0  0  0  0  0  0  0  0  # atno 17342 bound_to 10162
  139.6183  144.7624  151.2798 LP  0  0  0  0  0  0  0  0  0  0  0  0  # atno 17343 bound_to 10162
  156.5729  130.4284  149.6011 LP  0  0  0  0  0  0  0  0  0  0  0  0  # atno 17370 bound_to 10713
  156.2725  130.7025  151.1826 LP  0  0  0  0  0  0  0  0  0  0  0  0  # atno 17371 bound_to 10713
  140.7966  134.3556  157.5450 LP  0  0  0  0  0  0  0  0  0  0  0  0  # atno 17394 bound_to 11000
  139.8779  134.9172  156.3174 LP  0  0  0  0  0  0  0  0  0  0  0  0  # atno 17395 bound_to 11000

$$$$
