AV-unprocessed.smi:3116|AV-procd|sdf|11870|dock7
  -GOLD-   2272017253D 1   1.00000     0.00000
 Structure written by MMmdl.
 33 33  0  0  0  0  0  0  0  0  1 V2000
  152.5810  138.6260  156.3886 C   0  0  0  0  0  0  0  0  0  0  0  0
  151.3073  139.0465  155.6260 C   0  0  2  0  0  0  0  0  0  0  0  0
  150.2006  139.3578  156.5449 N   0  0  0  0  0  0  0  0  0  0  0  0
  150.1397  140.7578  156.9597 C   0  0  2  0  0  0  0  0  0  0  0  0
  150.0279  141.6161  155.6844 C   0  0  0  0  0  0  0  0  0  0  0  0
  151.3965  141.0760  157.8133 C   0  0  2  0  0  0  0  0  0  0  0  0
  151.5358  140.1391  159.0294 C   0  0  0  0  0  0  0  0  0  0  0  0
  151.4290  142.4685  158.2444 N   0  0  0  0  0  0  0  0  0  0  0  0
  152.4590  143.1440  158.8662 C   0  0  0  0  0  0  0  0  0  0  0  0
  152.0425  144.4282  159.0698 C   0  0  0  0  0  0  0  0  0  0  0  0
  150.7251  144.4450  158.5330 C   0  0  0  0  0  0  0  0  0  0  0  0
  150.3610  143.2731  158.0390 N   0  0  0  0  0  0  0  0  0  0  0  0
  150.8594  137.9711  154.6263 C   0  0  0  0  0  0  0  0  0  0  0  0
  149.8601  138.2973  153.8023 N   0  0  0  0  0  0  0  0  0  0  0  0
  151.3879  136.8608  154.5989 O   0  0  0  0  0  0  0  0  0  0  0  0
  153.3727  138.3254  155.7012 H   0  0  0  0  0  0  0  0  0  0  0  0
  152.3890  137.7889  157.0614 H   0  0  0  0  0  0  0  0  0  0  0  0
  152.9778  139.4462  156.9869 H   0  0  0  0  0  0  0  0  0  0  0  0
  151.5371  139.9358  155.0360 H   0  0  0  0  0  0  0  0  0  0  0  0
  150.2060  138.7570  157.3568 H   0  0  0  0  0  0  0  0  0  0  0  0
  149.2558  140.9445  157.5721 H   0  0  0  0  0  0  0  0  0  0  0  0
  149.8924  142.6713  155.9218 H   0  0  0  0  0  0  0  0  0  0  0  0
  149.1736  141.3185  155.0759 H   0  0  0  0  0  0  0  0  0  0  0  0
  150.9216  141.5276  155.0658 H   0  0  0  0  0  0  0  0  0  0  0  0
  152.2777  140.9304  157.1857 H   0  0  0  0  0  0  0  0  0  0  0  0
  151.6445  139.0996  158.7201 H   0  0  0  0  0  0  0  0  0  0  0  0
  150.6650  140.1987  159.6830 H   0  0  0  0  0  0  0  0  0  0  0  0
  152.4151  140.3942  159.6217 H   0  0  0  0  0  0  0  0  0  0  0  0
  153.3939  142.6601  159.1073 H   0  0  0  0  0  0  0  0  0  0  0  0
  152.5950  145.2332  159.5314 H   0  0  0  0  0  0  0  0  0  0  0  0
  150.0278  145.2684  158.4867 H   0  0  0  0  0  0  0  0  0  0  0  0
  149.5300  137.6268  153.1235 H   0  0  0  0  0  0  0  0  0  0  0  0
  149.4415  139.2142  153.8598 H   0  0  0  0  0  0  0  0  0  0  0  0
  1  2  1  0  0  0  0
  1 16  1  0  0  0  0
  1 17  1  0  0  0  0
  1 18  1  0  0  0  0
  2  3  1  0  0  0  0
  2 13  1  0  0  0  0
  2 19  1  0  0  0  0
  3  4  1  0  0  0  0
  3 20  1  0  0  0  0
  4  5  1  0  0  0  0
  4  6  1  0  0  0  0
  4 21  1  0  0  0  0
  5 22  1  0  0  0  0
  5 23  1  0  0  0  0
  5 24  1  0  0  0  0
  6  7  1  0  0  0  0
  6  8  1  0  0  0  0
  6 25  1  0  0  0  0
  7 26  1  0  0  0  0
  7 27  1  0  0  0  0
  7 28  1  0  0  0  0
  8 12  1  0  0  0  0
  8  9  1  0  0  0  0
  9 10  2  0  0  0  0
  9 29  1  0  0  0  0
 10 11  1  0  0  0  0
 10 30  1  0  0  0  0
 11 12  2  0  0  0  0
 11 31  1  0  0  0  0
 13 14  1  0  0  0  0
 13 15  2  0  0  0  0
 14 32  1  0  0  0  0
 14 33  1  0  0  0  0
M  END
> <s_m_source_file>
AV-unprocessed.smi

> <i_m_source_file_index>
3116

> <i_lp_mmshare_version>
43012

> <i_f3d_flags>
0

> <s_epik_input>
W05IMl1DKD1PKVtDQEhdKFtDSDNdKVtOSF1bQ0BIXShbQ0gzXSlbQ0BIXShbQ0gzXSluMVtjSF1bY0hdW2NIXW4x

> <s_epik_cmdline>
J2VwaWtfcHl0aG9uJywgJy1waCcsICc3LjAnLCAnLXRuJywgJzgnLCAnLW1hJywgJzIwMCcsICctbWV0YWxfYmluZGluZycsICctaW1hZScsICc8aW5maWxlLm1hZT4nLCAnLW9tYWUnLCAnPG91dGZpbGUubWFlPic=

> <r_lp_tautomer_probability>
1

> <r_epik_Ionization_Penalty>
0.865977

> <r_epik_Ionization_Penalty_Charging>
0

> <r_epik_Ionization_Penalty_Neutral>
0.865977

> <r_epik_State_Penalty>
0.901888

> <r_epik_Charging_Adjusted_Penalty>
0.901888

> <i_epik_Tot_Q>
0

> <i_epik_Tot_abs_Q>
0

> <r_epik_Metal_State_Penalty>
0.901181

> <b_epik_Metal_Only>
0

> <s_lp_Force_Field>
OPLS_2005

> <r_lp_Energy>
9.43225

> <b_lp_Chiralities_Consistent>
1

> <s_lp_Variant>
AV-unprocessed.smi:3116-9

> <Gold.Version>
5.8.1

> <Gold.Id.Protein>
6NUR|6NUR_protein|mol2

> <Gold.PLP.Fitness>
39.1345

> <Gold.PLP.PLP>
-31.1831

> <Gold.PLP.part.hbond>
-3.0000

> <Gold.PLP.part.metal>
0.0000

> <Gold.PLP.part.buried>
-3.9460

> <Gold.PLP.part.nonpolar>
-25.9192

> <Gold.PLP.part.repulsive>
0.6536

> <Gold.PLP.ligand.clash>
0.0000

> <Gold.PLP.ligand.torsion>
0.5901

> <Gold.PLP.Chemscore.Hbond>
2.0000

> <Gold.PLP.Chemscore.CHOScore>
0.9993

> <Gold.PLP.Chemscore.Metal>
0.0000

> <Gold.Chemscore.Hbonds>
donor molecule, donor type, donor heavy atom, donor atom, acceptor molecule, acceptor atom, score
      L1  H    14    32       P1  7948  1.00
      P1  H 10752 10765       L1    15  0.92
      L1  C    11    31       P1  8029  1.00

> <Gold.PLP.Chemscore.Internal.Correction>
0.1338

> <Gold.Rescore>
     Score         DG    S(hbond)    S(metal)    S(lipo)     H(rot)  DE(clash)    DE(int)     intcor
     12.69     -14.47       1.91        0.00      74.60       2.38       0.04       1.74       ----

> <Gold.Chemscore.Fitness>
12.6912

> <Gold.Chemscore.DG>
-14.4720

> <Gold.Chemscore.ZeroCoef>
-5.4800

> <Gold.Chemscore.Hbond>
1.9061

> <Gold.Chemscore.Metal>
0.0000

> <Gold.Chemscore.Lipo>
74.5957

> <Gold.Chemscore.Internal_Hbond>
0.0000

> <Gold.Chemscore.DEClash>
0.0420

> <Gold.Chemscore.DEInternal>
1.7388

> <Gold.Chemscore.Rot>
2.3836

> <Gold.Chemscore.Internal.Correction>
   9.000000E+99

> <Gold.Chemscore.Hbonds>
donor molecule, donor type, donor heavy atom, donor atom, acceptor molecule, acceptor atom, score
      L1  H    14    32       P1  7948  0.85
      P1  H 10752 10765       L1    15  0.84

> <Gold.Chemscore.Hbond.Weighted>
-6.3663

> <Gold.Chemscore.Metal.Weighted>
-0.0000

> <Gold.Chemscore.Lipo.Weighted>
-8.7277

> <Gold.Chemscore.Internal_Hbond.Weighted>
0.0000

> <Gold.Chemscore.DEClash.Weighted>
0.0420

> <Gold.Chemscore.DEInternal.Weighted>
1.7388

> <Gold.Chemscore.Rot.Weighted>
6.1020

> <Gold.Chemscore.Internal.Correction.Weighted>
   9.000000E+99

> <Gold.Protein.RotatedTorsions>
[ 6907 6896 6895 6894 ] final -156.64 input  -60.11 | X-H torsion
[ 7974 7965 7964 7962 ] final -146.75 input  175.53 | X-H torsion
[ 8008 7997 7996 7995 ] final  -11.83 input   59.86 | X-H torsion
[ 10167 10162 10161 10158 ] final  -31.50 input  -65.29 | X-H torsion
[ 10718 10713 10712 10709 ] final -121.91 input   66.30 | X-H torsion
[ 10763 10752 10751 10750 ] final  147.84 input  -60.55 | X-H torsion
[ 11005 11000 10999 10996 ] final  -30.24 input  -57.11 | X-H torsion

> <Gold.Protein.ActiveResidues>
 VAL166  LYS551  ARG553  GLY616  TRP617  ASP618  TYR619  PRO620  LYS621  CYS622 
 ASP623  PHE694  ASN695  SER759  ASP760  ASP761  ALA762  ILE779  LEU786  VAL792 
 PHE793  MET794  SER795  GLU796  ALA797  LYS798  CYS799  TRP800  GLU811  SER814 

> <Gold.Protein.RotatedAtoms>
  151.2907  133.4166  159.2632 H   0  0  0  0  0  0  0  0  0  0  0  0  # atno 6907 bound_to 6896
  151.0280  134.9518  159.8106 H   0  0  0  0  0  0  0  0  0  0  0  0  # atno 6908 bound_to 6896
  152.5339  134.2869  159.9081 H   0  0  0  0  0  0  0  0  0  0  0  0  # atno 6909 bound_to 6896
  144.8139  140.5416  143.5624 H   0  0  0  0  0  0  0  0  0  0  0  0  # atno 7974 bound_to 7965
  154.5430  140.2292  155.8609 H   0  0  0  0  0  0  0  0  0  0  0  0  # atno 8008 bound_to 7997
  156.1876  140.3085  155.9231 H   0  0  0  0  0  0  0  0  0  0  0  0  # atno 8009 bound_to 7997
  155.3220  140.0441  157.3030 H   0  0  0  0  0  0  0  0  0  0  0  0  # atno 8010 bound_to 7997
  140.7235  143.3766  151.1679 H   0  0  0  0  0  0  0  0  0  0  0  0  # atno 10167 bound_to 10162
  156.1375  130.6441  150.9719 H   0  0  0  0  0  0  0  0  0  0  0  0  # atno 10718 bound_to 10713
  154.0450  135.2886  155.3349 H   0  0  0  0  0  0  0  0  0  0  0  0  # atno 10763 bound_to 10752
  154.6905  135.5228  153.8389 H   0  0  0  0  0  0  0  0  0  0  0  0  # atno 10764 bound_to 10752
  153.0584  135.6604  154.0651 H   0  0  0  0  0  0  0  0  0  0  0  0  # atno 10765 bound_to 10752
  140.9366  133.7305  156.1014 H   0  0  0  0  0  0  0  0  0  0  0  0  # atno 11005 bound_to 11000
  145.5260  139.1476  143.3526 LP  0  0  0  0  0  0  0  0  0  0  0  0  # atno 17320 bound_to 7965
  146.2440  140.5401  142.8922 LP  0  0  0  0  0  0  0  0  0  0  0  0  # atno 17321 bound_to 7965
  139.7347  143.9018  152.3031 LP  0  0  0  0  0  0  0  0  0  0  0  0  # atno 17342 bound_to 10162
  139.8818  144.7013  150.8869 LP  0  0  0  0  0  0  0  0  0  0  0  0  # atno 17343 bound_to 10162
  157.6546  131.0891  150.7977 LP  0  0  0  0  0  0  0  0  0  0  0  0  # atno 17370 bound_to 10713
  156.8055  130.4935  149.5363 LP  0  0  0  0  0  0  0  0  0  0  0  0  # atno 17371 bound_to 10713
  140.7791  134.3746  157.5491 LP  0  0  0  0  0  0  0  0  0  0  0  0  # atno 17394 bound_to 11000
  139.8809  134.9070  156.2936 LP  0  0  0  0  0  0  0  0  0  0  0  0  # atno 17395 bound_to 11000

$$$$
