AV-unprocessed.smi:1012|AV-procd|sdf|4424|dock1
  -GOLD-   22720 2373D 1   1.00000     0.00000
 Structure written by MMmdl.
 44 46  0  0  0  0  0  0  0  0  2 V2000
  153.8121  141.1400  160.2017 C   0  0  0  0  0  0  0  0  0  0  0  0
  152.6534  141.3649  159.4119 O   0  0  0  0  0  0  0  0  0  0  0  0
  152.1058  142.6320  159.3900 C   0  0  0  0  0  0  0  0  0  0  0  0
  152.6496  143.7255  160.1129 C   0  0  0  0  0  0  0  0  0  0  0  0
  152.0493  144.9972  160.0532 C   0  0  0  0  0  0  0  0  0  0  0  0
  150.8988  145.1979  159.2716 C   0  0  0  0  0  0  0  0  0  0  0  0
  150.3496  144.1232  158.5503 C   0  0  0  0  0  0  0  0  0  0  0  0
  150.9430  142.8444  158.6068 C   0  0  0  0  0  0  0  0  0  0  0  0
  150.3131  141.7222  157.7977 C   0  0  0  0  0  0  0  0  0  0  0  0
  150.4253  141.9639  156.4048 O   0  0  0  0  0  0  0  0  0  0  0  0
  150.9722  140.8628  155.6985 C   0  0  0  0  0  0  0  0  0  0  0  0
  149.8528  140.1713  154.9081 C   0  0  2  0  0  0  0  0  0  0  0  0
  150.4218  139.5186  153.7905 O   0  0  0  0  0  0  0  0  0  0  0  0
  148.7679  141.1591  154.4345 C   0  0  0  0  0  0  0  0  0  0  0  0
  147.6471  141.2634  155.3777 N   0  0  0  0  0  0  0  0  0  0  0  0
  147.4560  140.6626  156.5835 C   0  0  0  0  0  0  0  0  0  0  0  0
  146.2593  141.0929  157.0713 N   0  3  0  0  0  0  0  0  0  0  0  0
  145.6775  141.9807  156.1632 C   0  0  0  0  0  0  0  0  0  0  0  0
  144.4748  142.6780  156.2109 C   0  0  0  0  0  0  0  0  0  0  0  0
  144.1787  143.5102  155.1109 C   0  0  0  0  0  0  0  0  0  0  0  0
  143.0209  144.2122  155.1069 F   0  0  0  0  0  0  0  0  0  0  0  0
  145.0640  143.6249  154.0177 C   0  0  0  0  0  0  0  0  0  0  0  0
  144.7411  144.4355  152.9822 F   0  0  0  0  0  0  0  0  0  0  0  0
  146.2807  142.9124  153.9804 C   0  0  0  0  0  0  0  0  0  0  0  0
  146.5641  142.0935  155.0722 C   0  0  0  0  0  0  0  0  0  0  0  0
  154.1100  140.0956  160.1113 H   0  0  0  0  0  0  0  0  0  0  0  0
  153.6206  141.3369  161.2574 H   0  0  0  0  0  0  0  0  0  0  0  0
  154.6500  141.7516  159.8644 H   0  0  0  0  0  0  0  0  0  0  0  0
  153.5323  143.6164  160.7243 H   0  0  0  0  0  0  0  0  0  0  0  0
  152.4744  145.8205  160.6080 H   0  0  0  0  0  0  0  0  0  0  0  0
  150.4391  146.1742  159.2239 H   0  0  0  0  0  0  0  0  0  0  0  0
  149.4663  144.2823  157.9490 H   0  0  0  0  0  0  0  0  0  0  0  0
  150.8278  140.7940  158.0511 H   0  0  0  0  0  0  0  0  0  0  0  0
  149.2645  141.5812  158.0596 H   0  0  0  0  0  0  0  0  0  0  0  0
  151.7675  141.1934  155.0281 H   0  0  0  0  0  0  0  0  0  0  0  0
  151.4126  140.1627  156.4108 H   0  0  0  0  0  0  0  0  0  0  0  0
  149.4025  139.4031  155.5377 H   0  0  0  0  0  0  0  0  0  0  0  0
  149.8125  139.5717  153.0702 H   0  0  0  0  0  0  0  0  0  0  0  0
  149.1828  142.1566  154.2838 H   0  0  0  0  0  0  0  0  0  0  0  0
  148.3609  140.8454  153.4722 H   0  0  0  0  0  0  0  0  0  0  0  0
  148.1333  139.9738  157.0679 H   0  0  0  0  0  0  0  0  0  0  0  0
  143.7950  142.5940  157.0459 H   0  0  0  0  0  0  0  0  0  0  0  0
  146.9535  143.0082  153.1408 H   0  0  0  0  0  0  0  0  0  0  0  0
  145.8729  140.8025  157.9606 H   0  0  0  0  0  0  0  0  0  0  0  0
  1  2  1  0  0  0  0
  1 26  1  0  0  0  0
  1 27  1  0  0  0  0
  1 28  1  0  0  0  0
  2  3  1  0  0  0  0
  3  8  1  0  0  0  0
  3  4  2  0  0  0  0
  4  5  1  0  0  0  0
  4 29  1  0  0  0  0
  5  6  2  0  0  0  0
  5 30  1  0  0  0  0
  6  7  1  0  0  0  0
  6 31  1  0  0  0  0
  7  8  2  0  0  0  0
  7 32  1  0  0  0  0
  8  9  1  0  0  0  0
  9 10  1  0  0  0  0
  9 33  1  0  0  0  0
  9 34  1  0  0  0  0
 10 11  1  0  0  0  0
 11 12  1  0  0  0  0
 11 35  1  0  0  0  0
 11 36  1  0  0  0  0
 12 13  1  0  0  0  0
 12 14  1  0  0  0  0
 12 37  1  0  0  0  0
 13 38  1  0  0  0  0
 14 15  1  0  0  0  0
 14 39  1  0  0  0  0
 14 40  1  0  0  0  0
 15 25  1  0  0  0  0
 15 16  1  0  0  0  0
 16 17  2  0  0  0  0
 16 41  1  0  0  0  0
 17 18  1  0  0  0  0
 17 44  1  0  0  0  0
 18 25  2  0  0  0  0
 18 19  1  0  0  0  0
 19 20  2  0  0  0  0
 19 42  1  0  0  0  0
 20 21  1  0  0  0  0
 20 22  1  0  0  0  0
 22 23  1  0  0  0  0
 22 24  2  0  0  0  0
 24 25  1  0  0  0  0
 24 43  1  0  0  0  0
M  CHG  1  17   1
M  END
> <s_m_source_file>
AV-unprocessed.smi

> <i_m_source_file_index>
1012

> <i_lp_mmshare_version>
43012

> <i_f3d_flags>
0

> <s_epik_input>
W0NIM11PYzFbY0hdW2NIXVtjSF1bY0hdYzFbQ0gyXU9bQ0gyXVtDQEhdKFtPSF0pW0NIMl1uKFtjSF1uMiljKGMyMylbY0hdYyhGKWMoRilbY0hdMw==

> <s_epik_cmdline>
J2VwaWtfcHl0aG9uJywgJy1waCcsICc3LjAnLCAnLXRuJywgJzgnLCAnLW1hJywgJzIwMCcsICctbWV0YWxfYmluZGluZycsICctaW1hZScsICc8aW5maWxlLm1hZT4nLCAnLW9tYWUnLCAnPG91dGZpbGUubWFlPic=

> <r_lp_tautomer_probability>
1

> <r_epik_Ionization_Penalty>
2.14697

> <r_epik_Ionization_Penalty_Charging>
2.14697

> <r_epik_Ionization_Penalty_Neutral>
1.07667e-06

> <r_epik_State_Penalty>
2.28651

> <r_epik_Charging_Adjusted_Penalty>
4.43348

> <i_epik_Tot_Q>
1

> <i_epik_Tot_abs_Q>
1

> <r_epik_Metal_State_Penalty>
6.36664

> <b_epik_Metal_Only>
0

> <s_lp_Force_Field>
OPLS_2005

> <r_lp_Energy>
22.239

> <b_lp_Chiralities_Consistent>
1

> <s_lp_Variant>
AV-unprocessed.smi:1012-3

> <Gold.Version>
5.8.1

> <Gold.Id.Protein>
6NUR|6NUR_protein|mol2

> <Gold.PLP.Fitness>
57.1462

> <Gold.PLP.PLP>
-55.1377

> <Gold.PLP.part.hbond>
-2.0000

> <Gold.PLP.part.metal>
0.0000

> <Gold.PLP.part.buried>
-6.8053

> <Gold.PLP.part.nonpolar>
-46.8666

> <Gold.PLP.part.repulsive>
0.1225

> <Gold.PLP.ligand.clash>
0.0000

> <Gold.PLP.ligand.torsion>
1.4961

> <Gold.PLP.Chemscore.Hbond>
1.5440

> <Gold.PLP.Chemscore.CHOScore>
0.0000

> <Gold.PLP.Chemscore.Metal>
0.0000

> <Gold.Chemscore.Hbonds>
donor molecule, donor type, donor heavy atom, donor atom, acceptor molecule, acceptor atom, score
      L1  H    13    38       P1  7957  0.88
      P1  H  7989  7998       L1    13  0.69

> <Gold.PLP.Chemscore.Internal.Correction>
0.3687

> <Gold.Rescore>
     Score         DG    S(hbond)    S(metal)    S(lipo)     H(rot)  DE(clash)    DE(int)     intcor
     14.19     -16.17       0.88        0.00     132.62       3.03       0.34       1.65       ----

> <Gold.Chemscore.Fitness>
14.1866

> <Gold.Chemscore.DG>
-16.1743

> <Gold.Chemscore.ZeroCoef>
-5.4800

> <Gold.Chemscore.Hbond>
0.8768

> <Gold.Chemscore.Metal>
0.0000

> <Gold.Chemscore.Lipo>
132.6247

> <Gold.Chemscore.Internal_Hbond>
0.0000

> <Gold.Chemscore.DEClash>
0.3402

> <Gold.Chemscore.DEInternal>
1.6475

> <Gold.Chemscore.Rot>
3.0278

> <Gold.Chemscore.Internal.Correction>
   9.000000E+99

> <Gold.Chemscore.Hbonds>
donor molecule, donor type, donor heavy atom, donor atom, acceptor molecule, acceptor atom, score
      L1  H    13    38       P1  7957  0.85
      P1  H  7989  7998       L1    13  0.03

> <Gold.Chemscore.Hbond.Weighted>
-2.9283

> <Gold.Chemscore.Metal.Weighted>
-0.0000

> <Gold.Chemscore.Lipo.Weighted>
-15.5171

> <Gold.Chemscore.Internal_Hbond.Weighted>
0.0000

> <Gold.Chemscore.DEClash.Weighted>
0.3402

> <Gold.Chemscore.DEInternal.Weighted>
1.6475

> <Gold.Chemscore.Rot.Weighted>
7.7512

> <Gold.Chemscore.Internal.Correction.Weighted>
   9.000000E+99

> <Gold.Protein.RotatedTorsions>
[ 6907 6896 6895 6894 ] final   52.33 input  -60.11 | X-H torsion
[ 7974 7965 7964 7962 ] final   49.32 input  175.53 | X-H torsion
[ 8008 7997 7996 7995 ] final  156.43 input   59.86 | X-H torsion
[ 10167 10162 10161 10158 ] final -146.16 input  -65.29 | X-H torsion
[ 10718 10713 10712 10709 ] final  139.37 input   66.30 | X-H torsion
[ 10763 10752 10751 10750 ] final -126.61 input  -60.55 | X-H torsion
[ 11005 11000 10999 10996 ] final   49.20 input  -57.11 | X-H torsion

> <Gold.Protein.ActiveResidues>
 VAL166  LYS551  ARG553  GLY616  TRP617  ASP618  TYR619  PRO620  LYS621  CYS622 
 ASP623  PHE694  ASN695  SER759  ASP760  ASP761  ALA762  ILE779  LEU786  VAL792 
 PHE793  MET794  SER795  GLU796  ALA797  LYS798  CYS799  TRP800  GLU811  SER814 

> <Gold.Protein.RotatedAtoms>
  152.3221  134.7366  160.0310 H   0  0  0  0  0  0  0  0  0  0  0  0  # atno 6907 bound_to 6896
  151.7811  133.3344  159.3480 H   0  0  0  0  0  0  0  0  0  0  0  0  # atno 6908 bound_to 6896
  150.7376  134.5861  159.6008 H   0  0  0  0  0  0  0  0  0  0  0  0  # atno 6909 bound_to 6896
  146.0120  139.4554  142.9950 H   0  0  0  0  0  0  0  0  0  0  0  0  # atno 7974 bound_to 7965
  156.2423  140.1912  156.6954 H   0  0  0  0  0  0  0  0  0  0  0  0  # atno 8008 bound_to 7997
  154.6221  140.0607  156.9654 H   0  0  0  0  0  0  0  0  0  0  0  0  # atno 8009 bound_to 7997
  155.1845  140.3279  155.4372 H   0  0  0  0  0  0  0  0  0  0  0  0  # atno 8010 bound_to 7997
  139.7739  143.8198  152.2629 H   0  0  0  0  0  0  0  0  0  0  0  0  # atno 10167 bound_to 10162
  157.4151  131.1032  151.0413 H   0  0  0  0  0  0  0  0  0  0  0  0  # atno 10718 bound_to 10713
  154.8747  135.3990  154.3459 H   0  0  0  0  0  0  0  0  0  0  0  0  # atno 10763 bound_to 10752
  153.4251  135.7024  153.6273 H   0  0  0  0  0  0  0  0  0  0  0  0  # atno 10764 bound_to 10752
  153.4918  135.3746  155.2466 H   0  0  0  0  0  0  0  0  0  0  0  0  # atno 10765 bound_to 10752
  140.1124  134.4937  155.8666 H   0  0  0  0  0  0  0  0  0  0  0  0  # atno 11005 bound_to 11000
  145.7327  141.0036  143.1343 LP  0  0  0  0  0  0  0  0  0  0  0  0  # atno 17320 bound_to 7965
  144.6956  139.9004  143.7458 LP  0  0  0  0  0  0  0  0  0  0  0  0  # atno 17321 bound_to 7965
  139.8241  144.7283  150.9535 LP  0  0  0  0  0  0  0  0  0  0  0  0  # atno 17342 bound_to 10162
  140.7815  143.4131  151.0960 LP  0  0  0  0  0  0  0  0  0  0  0  0  # atno 17343 bound_to 10162
  157.1363  130.6124  149.5543 LP  0  0  0  0  0  0  0  0  0  0  0  0  # atno 17370 bound_to 10713
  155.9863  130.4896  150.7071 LP  0  0  0  0  0  0  0  0  0  0  0  0  # atno 17371 bound_to 10713
  141.2133  133.6732  156.6730 LP  0  0  0  0  0  0  0  0  0  0  0  0  # atno 17394 bound_to 11000
  140.3073  134.8115  157.4147 LP  0  0  0  0  0  0  0  0  0  0  0  0  # atno 17395 bound_to 11000

$$$$
