#       Name:                AV-unprocessed.smi:625
#       Creating user name   scv26
#       Creation time:       Fri Mar 27 00:02:28 2020


#       File generated by GOLD software.
#

@<TRIPOS>MOLECULE
AV-unprocessed.smi:625
    55    57     1
SMALL
NO_CHARGES


@<TRIPOS>ATOM
      1 ****        -2.2368   2.7123   2.5054 C.3            1 S1                 0.0000
      2 ****        -2.4001   1.9192   1.2968 N.am           1 S1                 0.0000
      3 ****        -3.0247   2.3423   0.1838 C.2            1 S1                 0.0000
      4 ****        -3.5259   3.4650   0.1123 O.2            1 S1                 0.0000
      5 ****        -3.0382   1.3640  -0.9077 C.2            1 S1                 0.0000
      6 ****        -3.6050   1.7353  -2.1896 C.2            1 S1                 0.0000
      7 ****        -3.5974   0.8707  -3.2234 C.2            1 S1                 0.0000
      8 ****        -3.0213  -0.4720  -3.1026 C.2            1 S1                 0.0000
      9 ****        -2.9914  -1.2566  -4.0506 O.2            1 S1                 0.0000
     10 ****        -2.5167  -0.7912  -1.8727 N.am           1 S1                 0.0000
     11 ****        -1.8633  -2.0848  -1.6194 C.3            1 S1                 0.0000
     12 ****        -0.3384  -1.9427  -1.6756 C.2            1 S1                 0.0000
     13 ****         0.2044  -1.4750  -2.6766 O.2            1 S1                 0.0000
     14 ****         0.3306  -2.3295  -0.5782 N.am           1 S1                 0.0000
     15 ****         1.7598  -2.1438  -0.3368 C.3            1 S1                 0.0000
     16 ****         2.3733  -3.5063   0.0239 C.3            1 S1                 0.0000
     17 ****         1.9747  -1.0863   0.7770 C.3            1 S1                 0.0000
     18 ****         3.4610  -0.7084   0.9893 C.3            1 S1                 0.0000
     19 ****         3.4592   0.8261   0.8713 C.3            1 S1                 0.0000
     20 ****         2.7449   1.4372   2.0905 C.3            1 S1                 0.0000
     21 ****         1.2682   1.0968   1.8206 C.3            1 S1                 0.0000
     22 ****         1.3380   0.3033   0.5023 C.3            1 S1                 0.0000
     23 ****         2.4421   1.0465  -0.2400 C.3            1 S1                 0.0000
     24 ****        -2.5292   0.1182  -0.7961 C.2            1 S1                 0.0000
     25 ****        -1.7040   2.1331   3.2593 H              1 S1                 0.0000
     26 ****        -3.2051   2.9999   2.9165 H              1 S1                 0.0000
     27 ****        -1.6611   3.6159   2.3013 H              1 S1                 0.0000
     28 ****        -2.0057   0.9898   1.2993 H              1 S1                 0.0000
     29 ****        -4.0411   2.7137  -2.3319 H              1 S1                 0.0000
     30 ****        -4.0250   1.1741  -4.1677 H              1 S1                 0.0000
     31 ****        -2.1721  -2.4612  -0.6424 H              1 S1                 0.0000
     32 ****        -2.1695  -2.8519  -2.3321 H              1 S1                 0.0000
     33 ****        -0.2063  -2.7168   0.1843 H              1 S1                 0.0000
     34 ****         2.2481  -1.7949  -1.2479 H              1 S1                 0.0000
     35 ****         3.4505  -3.4353   0.1724 H              1 S1                 0.0000
     36 ****         2.2042  -4.2334  -0.7712 H              1 S1                 0.0000
     37 ****         1.9385  -3.9088   0.9396 H              1 S1                 0.0000
     38 ****         1.5629  -1.4891   1.7038 H              1 S1                 0.0000
     39 ****         3.8425  -1.0508   1.9519 H              1 S1                 0.0000
     40 ****         4.0974  -1.1347   0.2128 H              1 S1                 0.0000
     41 ****         4.4455   1.2507   0.6832 H              1 S1                 0.0000
     42 ****         3.1038   1.0193   3.0317 H              1 S1                 0.0000
     43 ****         2.8884   2.5180   2.1263 H              1 S1                 0.0000
     44 ****         0.8138   0.5253   2.6304 H              1 S1                 0.0000
     45 ****         0.6849   2.0089   1.6905 H              1 S1                 0.0000
     46 ****         0.3811   0.2801  -0.0164 H              1 S1                 0.0000
     47 ****         2.2136   2.0993  -0.4150 H              1 S1                 0.0000
     48 ****         2.7214   0.5800  -1.1859 H              1 S1                 0.0000
     49 ****        -2.0752  -0.2734   0.1032 H              1 S1                 0.0000
     50 ****        -3.4739   4.0865   0.8940 LP             1 S1                 0.0000
     51 ****        -3.9849   3.7551  -0.7274 LP             1 S1                 0.0000
     52 ****        -3.3674  -0.9849  -4.9365 LP             1 S1                 0.0000
     53 ****        -2.5911  -2.1656  -3.9348 LP             1 S1                 0.0000
     54 ****        -0.3500  -1.1861  -3.4571 LP             1 S1                 0.0000
     55 ****         1.1997  -1.3839  -2.7092 LP             1 S1                 0.0000
@<TRIPOS>BOND
    1    1    2 1     
    2    1   25 1     
    3    1   26 1     
    4    1   27 1     
    5    2    3 am    
    6    2   28 1     
    7    3    4 2     
    8    3    5 1     
    9    5   24 2     
   10    5    6 1     
   11    6    7 2     
   12    6   29 1     
   13    7    8 1     
   14    7   30 1     
   15    8    9 2     
   16    8   10 am    
   17   10   11 1     
   18   10   24 1     
   19   11   12 1     
   20   11   31 1     
   21   11   32 1     
   22   12   13 2     
   23   12   14 am    
   24   14   15 1     
   25   14   33 1     
   26   15   16 1     
   27   15   17 1     
   28   15   34 1     
   29   16   35 1     
   30   16   36 1     
   31   16   37 1     
   32   17   22 1     
   33   17   18 1     
   34   17   38 1     
   35   18   19 1     
   36   18   39 1     
   37   18   40 1     
   38   19   23 1     
   39   19   20 1     
   40   19   41 1     
   41   20   21 1     
   42   20   42 1     
   43   20   43 1     
   44   21   22 1     
   45   21   44 1     
   46   21   45 1     
   47   22   23 1     
   48   22   46 1     
   49   23   47 1     
   50   23   48 1     
   51   24   49 1     
   52    4   50 1     
   53    4   51 1     
   54    9   52 1     
   55    9   53 1     
   56   13   54 1     
   57   13   55 1     
@<TRIPOS>SUBSTRUCTURE
      1 S1             1
@<TRIPOS>SET
LONE_PAIRS      STATIC     ATOMS    <user>   **** ""
6 50 51 52 53 54 55
DONOR_HYDROGENS      STATIC     ATOMS    <user>   **** ""
2 28 33
ATOM$BLUE        STATIC     ATOMS    COLORGROUP SYSTEM
6 50 51 52 53 54 55
ATOM$RED        STATIC     ATOMS    COLORGROUP SYSTEM
2 28 33
