AV-unprocessed.smi:3335|AV-procd|sdf|12847|dock8
  -GOLD-   2272019233D 1   1.00000     0.00000
 Structure written by MMmdl.
 46 47  0  0  0  0  0  0  0  0  1 V2000
  145.0007  133.0052  151.1441 C   0  0  0  0  0  0  0  0  0  0  0  0
  146.0832  132.5723  152.0902 C   0  0  0  0  0  0  0  0  0  0  0  0
  146.1892  131.3380  152.7904 C   0  0  0  0  0  0  0  0  0  0  0  0
  147.2668  131.2718  153.5539 N   0  0  0  0  0  0  0  0  0  0  0  0
  147.8942  132.4553  153.3669 N   0  0  0  0  0  0  0  0  0  0  0  0
  149.1286  132.7694  154.0838 C   0  0  2  0  0  0  0  0  0  0  0  0
  149.7069  131.5439  154.8199 C   0  0  0  0  0  0  0  0  0  0  0  0
  149.0100  134.0266  154.9883 C   0  0  1  0  0  0  0  0  0  0  0  0
  149.4550  133.7414  156.4373 C   0  0  0  0  0  0  0  0  0  0  0  0
  149.7660  135.1334  154.3949 N   0  0  0  0  0  0  0  0  0  0  0  0
  149.8554  136.3549  155.2163 C   0  0  2  0  0  0  0  0  0  0  0  0
  148.5281  137.1234  155.1259 C   0  0  0  0  0  0  0  0  0  0  0  0
  151.0119  137.2762  154.7717 C   0  0  0  0  0  0  0  0  0  0  0  0
  151.7202  136.9272  153.8254 O   0  0  0  0  0  0  0  0  0  0  0  0
  151.2282  138.4363  155.4293 N   0  0  0  0  0  0  0  0  0  0  0  0
  152.3225  139.3488  155.1006 C   0  0  0  0  0  0  0  0  0  0  0  0
  152.3509  140.3876  156.2217 C   0  0  0  0  0  0  0  0  0  0  0  0
  150.9238  140.4012  156.7487 C   0  0  0  0  0  0  0  0  0  0  0  0
  150.4348  138.9685  156.5370 C   0  0  0  0  0  0  0  0  0  0  0  0
  147.1939  133.2593  152.4905 C   0  0  0  0  0  0  0  0  0  0  0  0
  144.0478  132.5292  151.3760 H   0  0  0  0  0  0  0  0  0  0  0  0
  145.2445  132.7513  150.1124 H   0  0  0  0  0  0  0  0  0  0  0  0
  144.8379  134.0825  151.1818 H   0  0  0  0  0  0  0  0  0  0  0  0
  145.5163  130.4934  152.7687 H   0  0  0  0  0  0  0  0  0  0  0  0
  149.8613  133.0149  153.3135 H   0  0  0  0  0  0  0  0  0  0  0  0
  150.6747  131.7772  155.2641 H   0  0  0  0  0  0  0  0  0  0  0  0
  149.8546  130.7108  154.1321 H   0  0  0  0  0  0  0  0  0  0  0  0
  149.0525  131.1983  155.6207 H   0  0  0  0  0  0  0  0  0  0  0  0
  147.9550  134.3039  155.0048 H   0  0  0  0  0  0  0  0  0  0  0  0
  148.9931  132.8285  156.8136 H   0  0  0  0  0  0  0  0  0  0  0  0
  149.1590  134.5418  157.1147 H   0  0  0  0  0  0  0  0  0  0  0  0
  150.5363  133.6205  156.5121 H   0  0  0  0  0  0  0  0  0  0  0  0
  149.3783  135.3359  153.4846 H   0  0  0  0  0  0  0  0  0  0  0  0
  149.9759  136.0541  156.2562 H   0  0  0  0  0  0  0  0  0  0  0  0
  148.5458  138.0205  155.7461 H   0  0  0  0  0  0  0  0  0  0  0  0
  147.6963  136.5077  155.4695 H   0  0  0  0  0  0  0  0  0  0  0  0
  148.3102  137.4310  154.1020 H   0  0  0  0  0  0  0  0  0  0  0  0
  153.2789  138.8297  155.0189 H   0  0  0  0  0  0  0  0  0  0  0  0
  152.1118  139.8249  154.1418 H   0  0  0  0  0  0  0  0  0  0  0  0
  153.0274  140.0561  157.0106 H   0  0  0  0  0  0  0  0  0  0  0  0
  152.6874  141.3679  155.8829 H   0  0  0  0  0  0  0  0  0  0  0  0
  150.8592  140.7215  157.7890 H   0  0  0  0  0  0  0  0  0  0  0  0
  150.3207  141.0855  156.1503 H   0  0  0  0  0  0  0  0  0  0  0  0
  149.3646  138.9486  156.3269 H   0  0  0  0  0  0  0  0  0  0  0  0
  150.6221  138.3685  157.4288 H   0  0  0  0  0  0  0  0  0  0  0  0
  147.5397  134.2488  152.2296 H   0  0  0  0  0  0  0  0  0  0  0  0
  1  2  1  0  0  0  0
  1 21  1  0  0  0  0
  1 22  1  0  0  0  0
  1 23  1  0  0  0  0
  2 20  2  0  0  0  0
  2  3  1  0  0  0  0
  3  4  2  0  0  0  0
  3 24  1  0  0  0  0
  4  5  1  0  0  0  0
  5  6  1  0  0  0  0
  5 20  1  0  0  0  0
  6  7  1  0  0  0  0
  6  8  1  0  0  0  0
  6 25  1  0  0  0  0
  7 26  1  0  0  0  0
  7 27  1  0  0  0  0
  7 28  1  0  0  0  0
  8  9  1  0  0  0  0
  8 10  1  0  0  0  0
  8 29  1  0  0  0  0
  9 30  1  0  0  0  0
  9 31  1  0  0  0  0
  9 32  1  0  0  0  0
 10 11  1  0  0  0  0
 10 33  1  0  0  0  0
 11 12  1  0  0  0  0
 11 13  1  0  0  0  0
 11 34  1  0  0  0  0
 12 35  1  0  0  0  0
 12 36  1  0  0  0  0
 12 37  1  0  0  0  0
 13 14  2  0  0  0  0
 13 15  1  0  0  0  0
 15 19  1  0  0  0  0
 15 16  1  0  0  0  0
 16 17  1  0  0  0  0
 16 38  1  0  0  0  0
 16 39  1  0  0  0  0
 17 18  1  0  0  0  0
 17 40  1  0  0  0  0
 17 41  1  0  0  0  0
 18 19  1  0  0  0  0
 18 42  1  0  0  0  0
 18 43  1  0  0  0  0
 19 44  1  0  0  0  0
 19 45  1  0  0  0  0
 20 46  1  0  0  0  0
M  END
> <s_m_source_file>
AV-unprocessed.smi

> <i_m_source_file_index>
3335

> <i_lp_mmshare_version>
43012

> <i_f3d_flags>
0

> <s_epik_input>
W0NIM11jMVtjSF1ubihbY0hdMSlbQ0BIXShbQ0gzXSlbQ0BIXShbQ0gzXSlbTkhdW0NASF0oW0NIM10pQyg9TylOMltDSDJdW0NIMl1bQ0gyXVtDSDJdMg==

> <s_epik_cmdline>
J2VwaWtfcHl0aG9uJywgJy1waCcsICc3LjAnLCAnLXRuJywgJzgnLCAnLW1hJywgJzIwMCcsICctbWV0YWxfYmluZGluZycsICctaW1hZScsICc8aW5maWxlLm1hZT4nLCAnLW9tYWUnLCAnPG91dGZpbGUubWFlPic=

> <r_lp_tautomer_probability>
1

> <r_epik_Ionization_Penalty>
0.918803

> <r_epik_Ionization_Penalty_Charging>
0

> <r_epik_Ionization_Penalty_Neutral>
0.918803

> <r_epik_State_Penalty>
0.958258

> <r_epik_Charging_Adjusted_Penalty>
0.958258

> <i_epik_Tot_Q>
0

> <i_epik_Tot_abs_Q>
0

> <r_epik_Metal_State_Penalty>
0.956786

> <b_epik_Metal_Only>
0

> <s_lp_Force_Field>
OPLS_2005

> <r_lp_Energy>
40.8069

> <b_lp_Chiralities_Consistent>
1

> <s_lp_Variant>
AV-unprocessed.smi:3335-11

> <Gold.Version>
5.8.1

> <Gold.Id.Protein>
6NUR|6NUR_protein|mol2

> <Gold.PLP.Fitness>
37.4080

> <Gold.PLP.PLP>
-32.1715

> <Gold.PLP.part.hbond>
-2.0000

> <Gold.PLP.part.metal>
0.0000

> <Gold.PLP.part.buried>
-5.1816

> <Gold.PLP.part.nonpolar>
-27.4079

> <Gold.PLP.part.repulsive>
1.7850

> <Gold.PLP.ligand.clash>
0.3584

> <Gold.PLP.ligand.torsion>
1.7279

> <Gold.PLP.Chemscore.Hbond>
1.9500

> <Gold.PLP.Chemscore.CHOScore>
1.0000

> <Gold.PLP.Chemscore.Metal>
0.0000

> <Gold.Chemscore.Hbonds>
donor molecule, donor type, donor heavy atom, donor atom, acceptor molecule, acceptor atom, score
      L1  H    10    33       P1  7948  0.90
      P1  H 10752 10765       L1    14  0.90
      L1  C    20    46       P1  7948  1.00

> <Gold.PLP.Chemscore.Internal.Correction>
0.2008

> <Gold.Rescore>
     Score         DG    S(hbond)    S(metal)    S(lipo)     H(rot)  DE(clash)    DE(int)     intcor
     11.49     -13.47       1.10        0.00      72.38       1.62       0.04       1.94       ----

> <Gold.Chemscore.Fitness>
11.4861

> <Gold.Chemscore.DG>
-13.4670

> <Gold.Chemscore.ZeroCoef>
-5.4800

> <Gold.Chemscore.Hbond>
1.0978

> <Gold.Chemscore.Metal>
0.0000

> <Gold.Chemscore.Lipo>
72.3795

> <Gold.Chemscore.Internal_Hbond>
0.0000

> <Gold.Chemscore.DEClash>
0.0376

> <Gold.Chemscore.DEInternal>
1.9433

> <Gold.Chemscore.Rot>
1.6204

> <Gold.Chemscore.Internal.Correction>
   9.000000E+99

> <Gold.Chemscore.Hbonds>
donor molecule, donor type, donor heavy atom, donor atom, acceptor molecule, acceptor atom, score
      L1  H    10    33       P1  7948  0.18
      P1  H 10752 10765       L1    14  0.57

> <Gold.Chemscore.Hbond.Weighted>
-3.6668

> <Gold.Chemscore.Metal.Weighted>
-0.0000

> <Gold.Chemscore.Lipo.Weighted>
-8.4684

> <Gold.Chemscore.Internal_Hbond.Weighted>
0.0000

> <Gold.Chemscore.DEClash.Weighted>
0.0376

> <Gold.Chemscore.DEInternal.Weighted>
1.9433

> <Gold.Chemscore.Rot.Weighted>
4.1482

> <Gold.Chemscore.Internal.Correction.Weighted>
   9.000000E+99

> <Gold.Protein.RotatedTorsions>
[ 6907 6896 6895 6894 ] final  -31.98 input  -60.11 | X-H torsion
[ 7974 7965 7964 7962 ] final   13.29 input  175.53 | X-H torsion
[ 8008 7997 7996 7995 ] final -128.32 input   59.86 | X-H torsion
[ 10167 10162 10161 10158 ] final   82.97 input  -65.29 | X-H torsion
[ 10718 10713 10712 10709 ] final  123.26 input   66.30 | X-H torsion
[ 10763 10752 10751 10750 ] final  174.20 input  -60.55 | X-H torsion
[ 11005 11000 10999 10996 ] final   62.73 input  -57.11 | X-H torsion

> <Gold.Protein.ActiveResidues>
 VAL166  LYS551  ARG553  GLY616  TRP617  ASP618  TYR619  PRO620  LYS621  CYS622 
 ASP623  PHE694  ASN695  SER759  ASP760  ASP761  ALA762  ILE779  LEU786  VAL792 
 PHE793  MET794  SER795  GLU796  ALA797  LYS798  CYS799  TRP800  GLU811  SER814 

> <Gold.Protein.RotatedAtoms>
  151.0849  134.9881  159.8373 H   0  0  0  0  0  0  0  0  0  0  0  0  # atno 6907 bound_to 6896
  152.5423  134.2136  159.8770 H   0  0  0  0  0  0  0  0  0  0  0  0  # atno 6908 bound_to 6896
  151.2169  133.4480  159.2633 H   0  0  0  0  0  0  0  0  0  0  0  0  # atno 6909 bound_to 6896
  146.2332  139.9211  142.8510 H   0  0  0  0  0  0  0  0  0  0  0  0  # atno 7974 bound_to 7965
  155.2607  140.0436  157.2997 H   0  0  0  0  0  0  0  0  0  0  0  0  # atno 8008 bound_to 7997
  154.5712  140.2374  155.8158 H   0  0  0  0  0  0  0  0  0  0  0  0  # atno 8009 bound_to 7997
  156.2124  140.2995  155.9770 H   0  0  0  0  0  0  0  0  0  0  0  0  # atno 8010 bound_to 7997
  139.9232  144.6199  150.8418 H   0  0  0  0  0  0  0  0  0  0  0  0  # atno 10167 bound_to 10162
  157.5679  131.1085  150.8421 H   0  0  0  0  0  0  0  0  0  0  0  0  # atno 10718 bound_to 10713
  154.4506  135.2764  155.1784 H   0  0  0  0  0  0  0  0  0  0  0  0  # atno 10763 bound_to 10752
  154.3612  135.6129  153.5695 H   0  0  0  0  0  0  0  0  0  0  0  0  # atno 10764 bound_to 10752
  152.9847  135.5835  154.4850 H   0  0  0  0  0  0  0  0  0  0  0  0  # atno 10765 bound_to 10752
  140.0072  134.6351  155.9837 H   0  0  0  0  0  0  0  0  0  0  0  0  # atno 11005 bound_to 11000
  145.2136  140.9906  143.4086 LP  0  0  0  0  0  0  0  0  0  0  0  0  # atno 17320 bound_to 7965
  144.9670  139.3920  143.6328 LP  0  0  0  0  0  0  0  0  0  0  0  0  # atno 17321 bound_to 7965
  140.7657  143.3282  151.2469 LP  0  0  0  0  0  0  0  0  0  0  0  0  # atno 17342 bound_to 10162
  139.6844  143.9800  152.2826 LP  0  0  0  0  0  0  0  0  0  0  0  0  # atno 17343 bound_to 10162
  156.8901  130.5210  149.5286 LP  0  0  0  0  0  0  0  0  0  0  0  0  # atno 17370 bound_to 10713
  156.0726  130.5755  150.9412 LP  0  0  0  0  0  0  0  0  0  0  0  0  # atno 17371 bound_to 10713
  141.1685  133.6537  156.4566 LP  0  0  0  0  0  0  0  0  0  0  0  0  # atno 17394 bound_to 11000
  140.4620  134.6833  157.5090 LP  0  0  0  0  0  0  0  0  0  0  0  0  # atno 17395 bound_to 11000

$$$$
