AV-unprocessed.smi:442|AV-procd|sdf|2584|dock4
  -GOLD-   2262022573D 1   1.00000     0.00000
 Structure written by MMmdl.
 37 37  0  0  0  0  0  0  0  0  3 V2000
  153.0127  141.9202  160.6344 C   0  0  0  0  0  0  0  0  0  0  0  0
  152.8225  143.3227  160.0393 C   0  0  0  0  0  0  0  0  0  0  0  0
  151.3479  143.7483  159.8932 C   0  0  1  0  0  0  0  0  0  0  0  0
  151.1367  145.2053  160.3270 C   0  0  0  0  0  0  0  0  0  0  0  0
  150.8998  143.6000  158.5107 N   0  0  0  0  0  0  0  0  0  0  0  0
  150.9153  142.4692  157.7829 C   0  0  0  0  0  0  0  0  0  0  0  0
  151.3436  141.4004  158.2160 O   0  0  0  0  0  0  0  0  0  0  0  0
  150.3785  142.5265  156.3418 C   0  0  0  0  0  0  0  0  0  0  0  0
  150.1721  141.2120  155.7016 N   0  0  0  0  0  0  0  0  0  0  0  0
  151.2936  140.3658  155.6380 C   0  0  0  0  0  0  0  0  0  0  0  0
  151.2415  139.1467  155.0737 C   0  0  0  0  0  0  0  0  0  0  0  0
  152.4132  138.2994  155.0102 N   0  3  0  0  0  0  0  0  0  0  0  0
  152.2656  137.1059  154.7678 O   0  0  0  0  0  0  0  0  0  0  0  0
  153.5191  138.7971  155.1992 O   0  5  0  0  0  0  0  0  0  0  0  0
  149.9757  138.7102  154.5214 C   0  0  0  0  0  0  0  0  0  0  0  0
  148.8814  139.5126  154.5650 C   0  0  0  0  0  0  0  0  0  0  0  0
  147.5697  139.1095  154.0098 C   0  0  0  0  0  0  0  0  0  0  0  0
  147.6348  138.1398  153.0891 N   0  0  0  0  0  0  0  0  0  0  0  0
  146.4675  139.5693  154.3078 O   0  0  0  0  0  0  0  0  0  0  0  0
  148.9521  140.8641  155.1846 C   0  0  0  0  0  0  0  0  0  0  0  0
  148.0111  141.6594  155.2491 O   0  0  0  0  0  0  0  0  0  0  0  0
  154.0713  141.6987  160.7700 H   0  0  0  0  0  0  0  0  0  0  0  0
  152.5973  141.1486  159.9861 H   0  0  0  0  0  0  0  0  0  0  0  0
  152.5288  141.8373  161.6078 H   0  0  0  0  0  0  0  0  0  0  0  0
  153.3377  144.0397  160.6794 H   0  0  0  0  0  0  0  0  0  0  0  0
  153.3195  143.3726  159.0696 H   0  0  0  0  0  0  0  0  0  0  0  0
  150.7428  143.1235  160.5525 H   0  0  0  0  0  0  0  0  0  0  0  0
  151.4384  145.3543  161.3641 H   0  0  0  0  0  0  0  0  0  0  0  0
  150.0871  145.4902  160.2463 H   0  0  0  0  0  0  0  0  0  0  0  0
  151.7164  145.8925  159.7096 H   0  0  0  0  0  0  0  0  0  0  0  0
  150.5325  144.4305  158.0700 H   0  0  0  0  0  0  0  0  0  0  0  0
  149.4423  143.0864  156.3568 H   0  0  0  0  0  0  0  0  0  0  0  0
  151.0546  143.1415  155.7454 H   0  0  0  0  0  0  0  0  0  0  0  0
  152.1929  140.7823  156.0688 H   0  0  0  0  0  0  0  0  0  0  0  0
  149.9309  137.7288  154.0739 H   0  0  0  0  0  0  0  0  0  0  0  0
  146.7920  137.7969  152.6520 H   0  0  0  0  0  0  0  0  0  0  0  0
  148.5326  137.7536  152.8346 H   0  0  0  0  0  0  0  0  0  0  0  0
  1  2  1  0  0  0  0
  1 22  1  0  0  0  0
  1 23  1  0  0  0  0
  1 24  1  0  0  0  0
  2  3  1  0  0  0  0
  2 25  1  0  0  0  0
  2 26  1  0  0  0  0
  3  4  1  0  0  0  0
  3  5  1  0  0  0  0
  3 27  1  0  0  0  0
  4 28  1  0  0  0  0
  4 29  1  0  0  0  0
  4 30  1  0  0  0  0
  5  6  1  0  0  0  0
  5 31  1  0  0  0  0
  6  7  2  0  0  0  0
  6  8  1  0  0  0  0
  8  9  1  0  0  0  0
  8 32  1  0  0  0  0
  8 33  1  0  0  0  0
  9 20  1  0  0  0  0
  9 10  1  0  0  0  0
 10 11  2  0  0  0  0
 10 34  1  0  0  0  0
 11 12  1  0  0  0  0
 11 15  1  0  0  0  0
 12 13  2  0  0  0  0
 12 14  1  0  0  0  0
 15 16  2  0  0  0  0
 15 35  1  0  0  0  0
 16 17  1  0  0  0  0
 16 20  1  0  0  0  0
 17 18  1  0  0  0  0
 17 19  2  0  0  0  0
 18 36  1  0  0  0  0
 18 37  1  0  0  0  0
 20 21  2  0  0  0  0
M  CHG  1  12   1
M  CHG  1  14  -1
M  END
> <s_m_source_file>
AV-unprocessed.smi

> <i_m_source_file_index>
442

> <i_lp_mmshare_version>
43012

> <i_f3d_flags>
0

> <s_epik_input>
W0NIM11bQ0gyXVtDQEhdKFtDSDNdKVtOSF1DKD1PKVtDSDJdbjFbY0hdYyhbTitdKD1PKVtPLV0pW2NIXWMoYzE9TylDKD1PKVtOSDJd

> <s_epik_cmdline>
J2VwaWtfcHl0aG9uJywgJy1waCcsICc3LjAnLCAnLXRuJywgJzgnLCAnLW1hJywgJzIwMCcsICctbWV0YWxfYmluZGluZycsICctaW1hZScsICc8aW5maWxlLm1hZT4nLCAnLW9tYWUnLCAnPG91dGZpbGUubWFlPic=

> <r_lp_tautomer_probability>
1

> <r_epik_Ionization_Penalty>
2.86914e-06

> <r_epik_Ionization_Penalty_Charging>
2.2828e-12

> <r_epik_Ionization_Penalty_Neutral>
2.86914e-06

> <r_epik_State_Penalty>
-0

> <r_epik_Charging_Adjusted_Penalty>
2.2828e-12

> <i_epik_Tot_Q>
0

> <i_epik_Tot_abs_Q>
2

> <r_epik_Metal_State_Penalty>
-0

> <b_epik_Metal_Only>
0

> <s_lp_Force_Field>
OPLS_2005

> <r_lp_Energy>
22.4314

> <b_lp_Chiralities_Consistent>
1

> <s_lp_Variant>
AV-unprocessed.smi:442-2

> <Gold.Version>
5.8.1

> <Gold.Id.Protein>
6NUR|6NUR_protein|mol2

> <Gold.PLP.Fitness>
47.9904

> <Gold.PLP.PLP>
-42.3964

> <Gold.PLP.part.hbond>
-4.0000

> <Gold.PLP.part.metal>
0.0000

> <Gold.PLP.part.buried>
-3.0002

> <Gold.PLP.part.nonpolar>
-38.0889

> <Gold.PLP.part.repulsive>
2.5927

> <Gold.PLP.ligand.clash>
0.0000

> <Gold.PLP.ligand.torsion>
1.0649

> <Gold.PLP.Chemscore.Hbond>
2.5603

> <Gold.PLP.Chemscore.CHOScore>
0.0000

> <Gold.PLP.Chemscore.Metal>
0.0000

> <Gold.Chemscore.Hbonds>
donor molecule, donor type, donor heavy atom, donor atom, acceptor molecule, acceptor atom, score
      L1  H    18    37       P1  7948  0.62
      P1  H  7997  8008       L1    14  0.91
      P1  H 10752 10764       L1    13  0.78

> <Gold.PLP.Chemscore.Internal.Correction>
0.0429

> <Gold.Rescore>
     Score         DG    S(hbond)    S(metal)    S(lipo)     H(rot)  DE(clash)    DE(int)     intcor
     13.45     -18.63       2.73        0.00      78.90       2.03       1.19       4.00       ----

> <Gold.Chemscore.Fitness>
13.4475

> <Gold.Chemscore.DG>
-18.6346

> <Gold.Chemscore.ZeroCoef>
-5.4800

> <Gold.Chemscore.Hbond>
2.7337

> <Gold.Chemscore.Metal>
0.0000

> <Gold.Chemscore.Lipo>
78.8988

> <Gold.Chemscore.Internal_Hbond>
0.0000

> <Gold.Chemscore.DEClash>
1.1895

> <Gold.Chemscore.DEInternal>
3.9977

> <Gold.Chemscore.Rot>
2.0340

> <Gold.Chemscore.Internal.Correction>
   9.000000E+99

> <Gold.Chemscore.Hbonds>
donor molecule, donor type, donor heavy atom, donor atom, acceptor molecule, acceptor atom, score
      L1  H    18    37       P1  7948  0.62
      P1  H  7997  8008       L1    14  0.88
      P1  H 10752 10764       L1    13  0.77

> <Gold.Chemscore.Hbond.Weighted>
-9.1305

> <Gold.Chemscore.Metal.Weighted>
-0.0000

> <Gold.Chemscore.Lipo.Weighted>
-9.2312

> <Gold.Chemscore.Internal_Hbond.Weighted>
0.0000

> <Gold.Chemscore.DEClash.Weighted>
1.1895

> <Gold.Chemscore.DEInternal.Weighted>
3.9977

> <Gold.Chemscore.Rot.Weighted>
5.2071

> <Gold.Chemscore.Internal.Correction.Weighted>
   9.000000E+99

> <Gold.Protein.RotatedTorsions>
[ 6907 6896 6895 6894 ] final   14.14 input  -60.11 | X-H torsion
[ 7974 7965 7964 7962 ] final  -22.44 input  175.53 | X-H torsion
[ 8008 7997 7996 7995 ] final  -28.77 input   59.86 | X-H torsion
[ 10167 10162 10161 10158 ] final  152.23 input  -65.29 | X-H torsion
[ 10718 10713 10712 10709 ] final -159.94 input   66.30 | X-H torsion
[ 10763 10752 10751 10750 ] final  -62.06 input  -60.55 | X-H torsion
[ 11005 11000 10999 10996 ] final  -57.12 input  -57.11 | X-H torsion

> <Gold.Protein.ActiveResidues>
 VAL166  LYS551  ARG553  GLY616  TRP617  ASP618  TYR619  PRO620  LYS621  CYS622 
 ASP623  PHE694  ASN695  SER759  ASP760  ASP761  ALA762  ILE779  LEU786  VAL792 
 PHE793  MET794  SER795  GLU796  ALA797  LYS798  CYS799  TRP800  GLU811  SER814 

> <Gold.Protein.RotatedAtoms>
  151.7975  135.0718  160.0395 H   0  0  0  0  0  0  0  0  0  0  0  0  # atno 6907 bound_to 6896
  152.3113  133.5751  159.5691 H   0  0  0  0  0  0  0  0  0  0  0  0  # atno 6908 bound_to 6896
  150.7321  134.0065  159.3697 H   0  0  0  0  0  0  0  0  0  0  0  0  # atno 6909 bound_to 6896
  146.1675  140.4479  142.8546 H   0  0  0  0  0  0  0  0  0  0  0  0  # atno 7974 bound_to 7965
  154.4318  140.1836  156.1142 H   0  0  0  0  0  0  0  0  0  0  0  0  # atno 8008 bound_to 7997
  156.0194  140.3342  155.6997 H   0  0  0  0  0  0  0  0  0  0  0  0  # atno 8009 bound_to 7997
  155.5998  140.0639  157.2727 H   0  0  0  0  0  0  0  0  0  0  0  0  # atno 8010 bound_to 7997
  139.4834  144.5375  151.7620 H   0  0  0  0  0  0  0  0  0  0  0  0  # atno 10167 bound_to 10162
  156.5751  130.8705  151.2849 H   0  0  0  0  0  0  0  0  0  0  0  0  # atno 10718 bound_to 10713
  154.2941  135.6247  153.5397 H   0  0  0  0  0  0  0  0  0  0  0  0  # atno 10763 bound_to 10752
  152.9848  135.5663  154.5357 H   0  0  0  0  0  0  0  0  0  0  0  0  # atno 10764 bound_to 10752
  154.4974  135.2870  155.1424 H   0  0  0  0  0  0  0  0  0  0  0  0  # atno 10765 bound_to 10752
  141.1151  133.6610  156.4722 H   0  0  0  0  0  0  0  0  0  0  0  0  # atno 11005 bound_to 11000
  144.8114  140.6392  143.6413 LP  0  0  0  0  0  0  0  0  0  0  0  0  # atno 17320 bound_to 7965
  145.4428  139.1533  143.3961 LP  0  0  0  0  0  0  0  0  0  0  0  0  # atno 17321 bound_to 7965
  140.4910  144.1310  150.5950 LP  0  0  0  0  0  0  0  0  0  0  0  0  # atno 17342 bound_to 10162
  140.4171  143.2629  151.9762 LP  0  0  0  0  0  0  0  0  0  0  0  0  # atno 17343 bound_to 10162
  157.7339  130.9738  150.2003 LP  0  0  0  0  0  0  0  0  0  0  0  0  # atno 17370 bound_to 10713
  156.2680  130.3718  149.8061 LP  0  0  0  0  0  0  0  0  0  0  0  0  # atno 17371 bound_to 10713
  140.4669  134.6789  157.5111 LP  0  0  0  0  0  0  0  0  0  0  0  0  # atno 17394 bound_to 11000
  140.0067  134.6752  155.9443 LP  0  0  0  0  0  0  0  0  0  0  0  0  # atno 17395 bound_to 11000

$$$$
