AV-unprocessed.smi:234|AV-procd|sdf|1788|dock1
  -GOLD-   2262020343D 1   1.00000     0.00000
 Structure written by MMmdl.
 59 62  0  0  0  0  0  0  0  0  1 V2000
  152.6910  144.7994  158.0557 C   0  0  0  0  0  0  0  0  0  0  0  0
  151.8482  144.2330  159.2062 C   0  0  0  0  0  0  0  0  0  0  0  0
  150.7975  143.4096  158.7198 O   0  0  0  0  0  0  0  0  0  0  0  0
  151.1800  142.5266  157.6695 C   0  0  1  0  0  0  0  0  0  0  0  0
  151.9596  141.3177  158.1950 C   0  0  0  0  0  0  0  0  0  0  0  0
  150.5975  140.6318  158.3731 C   0  0  2  0  0  0  0  0  0  0  0  0
  150.5975  139.2022  158.0431 N   0  0  0  0  0  0  0  0  0  0  0  0
  151.5561  138.7368  157.0469 C   0  0  0  0  0  0  0  0  0  0  0  0
  149.3961  138.5893  157.8969 C   0  0  0  0  0  0  0  0  0  0  0  0
  148.6396  138.8204  156.7906 N   0  0  0  0  0  0  0  0  0  0  0  0
  147.4650  138.2021  156.6380 C   0  0  0  0  0  0  0  0  0  0  0  0
  146.8698  137.3282  157.4522 N   0  0  0  0  0  0  0  0  0  0  0  0
  147.6254  137.0916  158.5626 C   0  0  0  0  0  0  0  0  0  0  0  0
  148.8914  137.6708  158.8582 C   0  0  0  0  0  0  0  0  0  0  0  0
  149.3606  137.1914  160.0750 N   0  0  0  0  0  0  0  0  0  0  0  0
  148.4267  136.3721  160.4746 C   0  0  0  0  0  0  0  0  0  0  0  0
  147.3432  136.2595  159.6322 N   0  0  0  0  0  0  0  0  0  0  0  0
  146.1675  135.4263  159.8357 C   0  0  0  0  0  0  0  0  0  0  0  0
  145.5707  135.5368  161.2636 C   0  0  1  0  0  0  0  0  0  0  0  0
  145.5273  136.9104  161.6143 O   0  0  0  0  0  0  0  0  0  0  0  0
  144.1538  134.9818  161.3808 C   0  0  0  0  0  0  0  0  0  0  0  0
  144.0783  134.5403  162.8341 C   0  0  0  0  0  0  0  0  0  0  0  0
  145.3601  133.9763  163.0456 O   0  0  0  0  0  0  0  0  0  0  0  0
  146.3341  134.7862  162.3918 C   0  0  1  0  0  0  0  0  0  0  0  0
  147.4850  133.8661  161.9558 C   0  0  0  0  0  0  0  0  0  0  0  0
  150.0381  141.5620  157.2595 C   0  0  0  0  0  0  0  0  0  0  0  0
  148.6160  142.0962  157.4547 C   0  0  0  0  0  0  0  0  0  0  0  0
  150.1300  141.0684  155.8057 C   0  0  0  0  0  0  0  0  0  0  0  0
  153.4416  145.4940  158.4330 H   0  0  0  0  0  0  0  0  0  0  0  0
  152.0662  145.3395  157.3442 H   0  0  0  0  0  0  0  0  0  0  0  0
  153.2163  144.0147  157.5119 H   0  0  0  0  0  0  0  0  0  0  0  0
  152.4721  143.6983  159.9236 H   0  0  0  0  0  0  0  0  0  0  0  0
  151.3918  145.0610  159.7488 H   0  0  0  0  0  0  0  0  0  0  0  0
  151.6468  143.0261  156.8200 H   0  0  0  0  0  0  0  0  0  0  0  0
  152.5912  140.8563  157.4339 H   0  0  0  0  0  0  0  0  0  0  0  0
  152.5076  141.4841  159.1226 H   0  0  0  0  0  0  0  0  0  0  0  0
  150.1601  140.8552  159.3482 H   0  0  0  0  0  0  0  0  0  0  0  0
  151.0887  138.6323  156.0665 H   0  0  0  0  0  0  0  0  0  0  0  0
  151.9666  137.7694  157.3365 H   0  0  0  0  0  0  0  0  0  0  0  0
  152.3887  139.4298  156.9406 H   0  0  0  0  0  0  0  0  0  0  0  0
  146.9254  138.4410  155.7333 H   0  0  0  0  0  0  0  0  0  0  0  0
  148.4994  135.8278  161.4053 H   0  0  0  0  0  0  0  0  0  0  0  0
  145.4270  135.7083  159.0869 H   0  0  0  0  0  0  0  0  0  0  0  0
  146.4462  134.3938  159.6207 H   0  0  0  0  0  0  0  0  0  0  0  0
  144.6865  137.0922  162.0052 H   0  0  0  0  0  0  0  0  0  0  0  0
  143.3743  135.6932  161.1046 H   0  0  0  0  0  0  0  0  0  0  0  0
  144.0413  134.1020  160.7465 H   0  0  0  0  0  0  0  0  0  0  0  0
  143.9327  135.3925  163.4996 H   0  0  0  0  0  0  0  0  0  0  0  0
  143.2843  133.8160  163.0159 H   0  0  0  0  0  0  0  0  0  0  0  0
  146.7212  135.4954  163.1262 H   0  0  0  0  0  0  0  0  0  0  0  0
  148.2779  134.4265  161.4606 H   0  0  0  0  0  0  0  0  0  0  0  0
  147.1393  133.0868  161.2762 H   0  0  0  0  0  0  0  0  0  0  0  0
  147.9280  133.3713  162.8203 H   0  0  0  0  0  0  0  0  0  0  0  0
  147.8613  141.3697  157.1545 H   0  0  0  0  0  0  0  0  0  0  0  0
  148.4491  143.0005  156.8685 H   0  0  0  0  0  0  0  0  0  0  0  0
  148.4188  142.3461  158.4974 H   0  0  0  0  0  0  0  0  0  0  0  0
  149.3840  140.3034  155.5888 H   0  0  0  0  0  0  0  0  0  0  0  0
  151.1051  140.6364  155.5793 H   0  0  0  0  0  0  0  0  0  0  0  0
  149.9709  141.8847  155.1002 H   0  0  0  0  0  0  0  0  0  0  0  0
  1  2  1  0  0  0  0
  1 29  1  0  0  0  0
  1 30  1  0  0  0  0
  1 31  1  0  0  0  0
  2  3  1  0  0  0  0
  2 32  1  0  0  0  0
  2 33  1  0  0  0  0
  3  4  1  0  0  0  0
  4 26  1  0  0  0  0
  4  5  1  0  0  0  0
  4 34  1  0  0  0  0
  5  6  1  0  0  0  0
  5 35  1  0  0  0  0
  5 36  1  0  0  0  0
  6  7  1  0  0  0  0
  6 26  1  0  0  0  0
  6 37  1  0  0  0  0
  7  8  1  0  0  0  0
  7  9  1  0  0  0  0
  8 38  1  0  0  0  0
  8 39  1  0  0  0  0
  8 40  1  0  0  0  0
  9 14  1  0  0  0  0
  9 10  2  0  0  0  0
 10 11  1  0  0  0  0
 11 12  2  0  0  0  0
 11 41  1  0  0  0  0
 12 13  1  0  0  0  0
 13 17  1  0  0  0  0
 13 14  2  0  0  0  0
 14 15  1  0  0  0  0
 15 16  2  0  0  0  0
 16 17  1  0  0  0  0
 16 42  1  0  0  0  0
 17 18  1  0  0  0  0
 18 19  1  0  0  0  0
 18 43  1  0  0  0  0
 18 44  1  0  0  0  0
 19 24  1  0  0  0  0
 19 20  1  0  0  0  0
 19 21  1  0  0  0  0
 20 45  1  0  0  0  0
 21 22  1  0  0  0  0
 21 46  1  0  0  0  0
 21 47  1  0  0  0  0
 22 23  1  0  0  0  0
 22 48  1  0  0  0  0
 22 49  1  0  0  0  0
 23 24  1  0  0  0  0
 24 25  1  0  0  0  0
 24 50  1  0  0  0  0
 25 51  1  0  0  0  0
 25 52  1  0  0  0  0
 25 53  1  0  0  0  0
 26 27  1  0  0  0  0
 26 28  1  0  0  0  0
 27 54  1  0  0  0  0
 27 55  1  0  0  0  0
 27 56  1  0  0  0  0
 28 57  1  0  0  0  0
 28 58  1  0  0  0  0
 28 59  1  0  0  0  0
M  END
> <s_m_source_file>
AV-unprocessed.smi

> <i_m_source_file_index>
234

> <i_lp_mmshare_version>
43012

> <i_f3d_flags>
0

> <s_epik_input>
W0NIM11bQ0gyXU9bQ0BASF0oQzEoW0NIM10pW0NIM10pW0NIMl1bQ0BIXTFOKFtDSDNdKWMobltjSF1uMiljKGMyMyluW2NIXW4zW0NIMl1bQ0BAXTQoW09IXSlbQ0gyXVtDSDJdT1tDQEhdNFtDSDNd

> <s_epik_cmdline>
J2VwaWtfcHl0aG9uJywgJy1waCcsICc3LjAnLCAnLXRuJywgJzgnLCAnLW1hJywgJzIwMCcsICctbWV0YWxfYmluZGluZycsICctaW1hZScsICc8aW5maWxlLm1hZT4nLCAnLW9tYWUnLCAnPG91dGZpbGUubWFlPic=

> <r_lp_tautomer_probability>
1

> <r_epik_Ionization_Penalty>
0.00349132

> <r_epik_Ionization_Penalty_Charging>
0

> <r_epik_Ionization_Penalty_Neutral>
0.00349132

> <r_epik_State_Penalty>
0.00242418

> <r_epik_Charging_Adjusted_Penalty>
0.00242418

> <i_epik_Tot_Q>
0

> <i_epik_Tot_abs_Q>
0

> <r_epik_Metal_State_Penalty>
-0

> <b_epik_Metal_Only>
0

> <s_lp_Force_Field>
OPLS_2005

> <r_lp_Energy>
49.5598

> <b_lp_Chiralities_Consistent>
1

> <s_lp_Variant>
AV-unprocessed.smi:234-4

> <Gold.Version>
5.8.1

> <Gold.Id.Protein>
6NUR|6NUR_protein|mol2

> <Gold.PLP.Fitness>
42.6715

> <Gold.PLP.PLP>
-43.2877

> <Gold.PLP.part.hbond>
-2.0000

> <Gold.PLP.part.metal>
0.0000

> <Gold.PLP.part.buried>
-7.6833

> <Gold.PLP.part.nonpolar>
-33.5933

> <Gold.PLP.part.repulsive>
0.1522

> <Gold.PLP.ligand.clash>
0.0000

> <Gold.PLP.ligand.torsion>
0.9773

> <Gold.PLP.Chemscore.Hbond>
0.0858

> <Gold.PLP.Chemscore.CHOScore>
0.0000

> <Gold.PLP.Chemscore.Metal>
0.0000

> <Gold.Chemscore.Hbonds>
donor molecule, donor type, donor heavy atom, donor atom, acceptor molecule, acceptor atom, score
      P1  H  6931  6943       L1    15  0.13

> <Gold.PLP.Chemscore.Internal.Correction>
1.0810

> <Gold.Rescore>
     Score         DG    S(hbond)    S(metal)    S(lipo)     H(rot)  DE(clash)    DE(int)     intcor
      9.39     -11.53       0.07        0.00     107.03       2.62       0.09       2.06       ----

> <Gold.Chemscore.Fitness>
9.3873

> <Gold.Chemscore.DG>
-11.5343

> <Gold.Chemscore.ZeroCoef>
-5.4800

> <Gold.Chemscore.Hbond>
0.0731

> <Gold.Chemscore.Metal>
0.0000

> <Gold.Chemscore.Lipo>
107.0273

> <Gold.Chemscore.Internal_Hbond>
0.0000

> <Gold.Chemscore.DEClash>
0.0892

> <Gold.Chemscore.DEInternal>
2.0577

> <Gold.Chemscore.Rot>
2.6219

> <Gold.Chemscore.Internal.Correction>
   9.000000E+99

> <Gold.Chemscore.Hbond.Weighted>
-0.2442

> <Gold.Chemscore.Metal.Weighted>
-0.0000

> <Gold.Chemscore.Lipo.Weighted>
-12.5222

> <Gold.Chemscore.Internal_Hbond.Weighted>
0.0000

> <Gold.Chemscore.DEClash.Weighted>
0.0892

> <Gold.Chemscore.DEInternal.Weighted>
2.0577

> <Gold.Chemscore.Rot.Weighted>
6.7121

> <Gold.Chemscore.Internal.Correction.Weighted>
   9.000000E+99

> <Gold.Protein.RotatedTorsions>
[ 6907 6896 6895 6894 ] final -158.72 input  -60.11 | X-H torsion
[ 7974 7965 7964 7962 ] final  -24.27 input  175.53 | X-H torsion
[ 8008 7997 7996 7995 ] final   95.11 input   59.86 | X-H torsion
[ 10167 10162 10161 10158 ] final -162.77 input  -65.29 | X-H torsion
[ 10718 10713 10712 10709 ] final  -97.79 input   66.30 | X-H torsion
[ 10763 10752 10751 10750 ] final  -84.05 input  -60.55 | X-H torsion
[ 11005 11000 10999 10996 ] final  -15.75 input  -57.11 | X-H torsion

> <Gold.Protein.ActiveResidues>
 VAL166  LYS551  ARG553  GLY616  TRP617  ASP618  TYR619  PRO620  LYS621  CYS622 
 ASP623  PHE694  ASN695  SER759  ASP760  ASP761  ALA762  ILE779  LEU786  VAL792 
 PHE793  MET794  SER795  GLU796  ALA797  LYS798  CYS799  TRP800  GLU811  SER814 

> <Gold.Protein.RotatedAtoms>
  151.3225  133.4034  159.2655 H   0  0  0  0  0  0  0  0  0  0  0  0  # atno 6907 bound_to 6896
  151.0022  134.9332  159.7971 H   0  0  0  0  0  0  0  0  0  0  0  0  # atno 6908 bound_to 6896
  152.5278  134.3190  159.9194 H   0  0  0  0  0  0  0  0  0  0  0  0  # atno 6909 bound_to 6896
  146.1565  140.4730  142.8589 H   0  0  0  0  0  0  0  0  0  0  0  0  # atno 7974 bound_to 7965
  156.0653  140.3291  155.7510 H   0  0  0  0  0  0  0  0  0  0  0  0  # atno 8008 bound_to 7997
  155.5392  140.0600  157.2891 H   0  0  0  0  0  0  0  0  0  0  0  0  # atno 8009 bound_to 7997
  154.4502  140.1914  156.0561 H   0  0  0  0  0  0  0  0  0  0  0  0  # atno 8010 bound_to 7997
  139.6368  144.0334  152.2061 H   0  0  0  0  0  0  0  0  0  0  0  0  # atno 10167 bound_to 10162
  156.0092  130.5210  150.6427 H   0  0  0  0  0  0  0  0  0  0  0  0  # atno 10718 bound_to 10713
  154.5949  135.5534  153.7316 H   0  0  0  0  0  0  0  0  0  0  0  0  # atno 10763 bound_to 10752
  153.0131  135.6352  154.1796 H   0  0  0  0  0  0  0  0  0  0  0  0  # atno 10764 bound_to 10752
  154.1737  135.2891  155.3053 H   0  0  0  0  0  0  0  0  0  0  0  0  # atno 10765 bound_to 10752
  140.7998  133.8223  155.9459 H   0  0  0  0  0  0  0  0  0  0  0  0  # atno 11005 bound_to 11000
  144.7970  140.6141  143.6504 LP  0  0  0  0  0  0  0  0  0  0  0  0  # atno 17320 bound_to 7965
  145.4696  139.1504  143.3821 LP  0  0  0  0  0  0  0  0  0  0  0  0  # atno 17321 bound_to 7965
  140.0014  144.6291  150.7727 LP  0  0  0  0  0  0  0  0  0  0  0  0  # atno 17342 bound_to 10162
  140.7470  143.2899  151.3360 LP  0  0  0  0  0  0  0  0  0  0  0  0  # atno 17343 bound_to 10162
  157.4204  131.0836  151.1136 LP  0  0  0  0  0  0  0  0  0  0  0  0  # atno 17370 bound_to 10713
  157.1740  130.6280  149.5650 LP  0  0  0  0  0  0  0  0  0  0  0  0  # atno 17371 bound_to 10713
  140.9306  134.2026  157.4866 LP  0  0  0  0  0  0  0  0  0  0  0  0  # atno 17394 bound_to 11000
  139.8723  134.9831  156.5185 LP  0  0  0  0  0  0  0  0  0  0  0  0  # atno 17395 bound_to 11000

$$$$
