AV-unprocessed.smi:798|AV-procd|sdf|3777|dock8
  -GOLD-   22720 1213D 1   1.00000     0.00000
 Structure written by MMmdl.
 33 35  0  0  0  0  0  0  0  0  2 V2000
  149.8849  136.2888  158.9884 O   0  0  0  0  0  0  0  0  0  0  0  0
  149.1153  137.2523  158.9727 C   0  0  0  0  0  0  0  0  0  0  0  0
  148.0484  137.4391  159.7826 N   0  5  0  0  0  0  0  0  0  0  0  0
  147.7830  136.5535  160.7571 C   0  0  0  0  0  0  0  0  0  0  0  0
  147.9452  136.8441  162.0580 N   0  0  0  0  0  0  0  0  0  0  0  0
  147.6187  135.7879  162.8980 N   0  0  0  0  0  0  0  0  0  0  0  0
  147.2241  134.7201  162.2048 C   0  0  0  0  0  0  0  0  0  0  0  0
  147.2198  134.9057  160.4638 S   0  0  0  0  0  0  0  0  0  0  0  0
  149.3091  138.2479  158.0966 N   0  0  0  0  0  0  0  0  0  0  0  0
  150.3941  138.3257  157.1191 C   0  0  2  0  0  0  0  0  0  0  0  0
  151.5386  139.2848  157.5389 C   0  0  2  0  0  0  0  0  0  0  0  0
  150.9936  140.6684  157.9535 C   0  0  0  0  0  0  0  0  0  0  0  0
  150.5054  141.2512  156.6146 C   0  0  0  0  0  0  0  0  0  0  0  0
  150.8706  140.1432  155.6067 C   0  0  1  0  0  0  0  0  0  0  0  0
  152.1736  139.6139  156.1944 C   0  0  0  0  0  0  0  0  0  0  0  0
  149.9059  138.9471  155.7829 C   0  0  1  0  0  0  0  0  0  0  0  0
  149.9540  137.9667  154.5947 C   0  0  0  0  0  0  0  0  0  0  0  0
  149.5738  138.6206  153.4028 O   0  0  0  0  0  0  0  0  0  0  0  0
  146.9377  133.8163  162.7213 H   0  0  0  0  0  0  0  0  0  0  0  0
  148.6537  139.0154  158.1130 H   0  0  0  0  0  0  0  0  0  0  0  0
  150.7979  137.3259  156.9475 H   0  0  0  0  0  0  0  0  0  0  0  0
  152.2222  138.8521  158.2698 H   0  0  0  0  0  0  0  0  0  0  0  0
  150.2056  140.6205  158.7052 H   0  0  0  0  0  0  0  0  0  0  0  0
  151.7944  141.2844  158.3646 H   0  0  0  0  0  0  0  0  0  0  0  0
  149.4372  141.4711  156.6220 H   0  0  0  0  0  0  0  0  0  0  0  0
  151.0348  142.1767  156.3852 H   0  0  0  0  0  0  0  0  0  0  0  0
  150.9422  140.5050  154.5805 H   0  0  0  0  0  0  0  0  0  0  0  0
  152.9583  140.3698  156.2588 H   0  0  0  0  0  0  0  0  0  0  0  0
  152.5679  138.7386  155.6765 H   0  0  0  0  0  0  0  0  0  0  0  0
  148.8845  139.3232  155.8688 H   0  0  0  0  0  0  0  0  0  0  0  0
  150.9657  137.5823  154.4638 H   0  0  0  0  0  0  0  0  0  0  0  0
  149.3022  137.1081  154.7568 H   0  0  0  0  0  0  0  0  0  0  0  0
  149.6156  137.9999  152.6918 H   0  0  0  0  0  0  0  0  0  0  0  0
  1  2  2  0  0  0  0
  2  3  1  0  0  0  0
  2  9  1  0  0  0  0
  3  4  1  0  0  0  0
  4  8  1  0  0  0  0
  4  5  2  0  0  0  0
  5  6  1  0  0  0  0
  6  7  2  0  0  0  0
  7  8  1  0  0  0  0
  7 19  1  0  0  0  0
  9 10  1  0  0  0  0
  9 20  1  0  0  0  0
 10 16  1  0  0  0  0
 10 11  1  0  0  0  0
 10 21  1  0  0  0  0
 11 15  1  0  0  0  0
 11 12  1  0  0  0  0
 11 22  1  0  0  0  0
 12 13  1  0  0  0  0
 12 23  1  0  0  0  0
 12 24  1  0  0  0  0
 13 14  1  0  0  0  0
 13 25  1  0  0  0  0
 13 26  1  0  0  0  0
 14 15  1  0  0  0  0
 14 16  1  0  0  0  0
 14 27  1  0  0  0  0
 15 28  1  0  0  0  0
 15 29  1  0  0  0  0
 16 17  1  0  0  0  0
 16 30  1  0  0  0  0
 17 18  1  0  0  0  0
 17 31  1  0  0  0  0
 17 32  1  0  0  0  0
 18 33  1  0  0  0  0
M  CHG  1   3  -1
M  END
> <s_m_source_file>
AV-unprocessed.smi

> <i_m_source_file_index>
798

> <i_lp_mmshare_version>
43012

> <i_f3d_flags>
0

> <s_epik_input>
W0NIMl0xW0NIMl1bQ0BASF0oW0NIMl0yKVtDQEBIXShbQ0gyXVtPSF0pW0NAQEhdKFtDQEhdMTIpW05IXUMoPU8pW05IXWMzbm5bY0hdczM=

> <s_epik_cmdline>
J2VwaWtfcHl0aG9uJywgJy1waCcsICc3LjAnLCAnLXRuJywgJzgnLCAnLW1hJywgJzIwMCcsICctbWV0YWxfYmluZGluZycsICctaW1hZScsICc8aW5maWxlLm1hZT4nLCAnLW9tYWUnLCAnPG91dGZpbGUubWFlPic=

> <r_lp_tautomer_probability>
1

> <r_epik_Ionization_Penalty>
4.53732

> <r_epik_Ionization_Penalty_Charging>
4.48632

> <r_epik_Ionization_Penalty_Neutral>
0.0510007

> <r_epik_State_Penalty>
4.48602

> <r_epik_Charging_Adjusted_Penalty>
8.97234

> <i_epik_Tot_Q>
-1

> <i_epik_Tot_abs_Q>
1

> <r_epik_Metal_State_Penalty>
0.812492

> <b_epik_Metal_Only>
1

> <s_lp_Force_Field>
OPLS_2005

> <r_lp_Energy>
46.8419

> <b_lp_Chiralities_Consistent>
1

> <s_lp_Variant>
AV-unprocessed.smi:798-9

> <Gold.Version>
5.8.1

> <Gold.Id.Protein>
6NUR|6NUR_protein|mol2

> <Gold.PLP.Fitness>
39.5676

> <Gold.PLP.PLP>
-30.6323

> <Gold.PLP.part.hbond>
-6.1018

> <Gold.PLP.part.metal>
0.0000

> <Gold.PLP.part.buried>
-4.8871

> <Gold.PLP.part.nonpolar>
-20.4535

> <Gold.PLP.part.repulsive>
0.1263

> <Gold.PLP.ligand.clash>
0.0000

> <Gold.PLP.ligand.torsion>
0.9505

> <Gold.PLP.Chemscore.Hbond>
3.6003

> <Gold.PLP.Chemscore.CHOScore>
0.0000

> <Gold.PLP.Chemscore.Metal>
0.0000

> <Gold.Chemscore.Hbonds>
donor molecule, donor type, donor heavy atom, donor atom, acceptor molecule, acceptor atom, score
      L1  H    18    33       P1  7948  1.00
      P1  H  6896  6909       L1     1  1.00
      P1  H  6931  6943       L1     5  1.00
      P1  H  6934  6947       L1     3  0.56

> <Gold.PLP.Chemscore.Internal.Correction>
0.0354

> <Gold.Rescore>
     Score         DG    S(hbond)    S(metal)    S(lipo)     H(rot)  DE(clash)    DE(int)     intcor
     14.22     -15.15       2.38        0.00      56.65       1.92       0.02       0.91       ----

> <Gold.Chemscore.Fitness>
14.2223

> <Gold.Chemscore.DG>
-15.1453

> <Gold.Chemscore.ZeroCoef>
-5.4800

> <Gold.Chemscore.Hbond>
2.3816

> <Gold.Chemscore.Metal>
0.0000

> <Gold.Chemscore.Lipo>
56.6467

> <Gold.Chemscore.Internal_Hbond>
0.0000

> <Gold.Chemscore.DEClash>
0.0163

> <Gold.Chemscore.DEInternal>
0.9067

> <Gold.Chemscore.Rot>
1.9207

> <Gold.Chemscore.Internal.Correction>
   9.000000E+99

> <Gold.Chemscore.Hbonds>
donor molecule, donor type, donor heavy atom, donor atom, acceptor molecule, acceptor atom, score
      L1  H    18    33       P1  7948  0.58
      P1  H  6896  6909       L1     1  0.97
      P1  H  6931  6943       L1     5  0.26
      P1  H  6934  6947       L1     3  0.02

> <Gold.Chemscore.Hbond.Weighted>
-7.9545

> <Gold.Chemscore.Metal.Weighted>
-0.0000

> <Gold.Chemscore.Lipo.Weighted>
-6.6277

> <Gold.Chemscore.Internal_Hbond.Weighted>
0.0000

> <Gold.Chemscore.DEClash.Weighted>
0.0163

> <Gold.Chemscore.DEInternal.Weighted>
0.9067

> <Gold.Chemscore.Rot.Weighted>
4.9169

> <Gold.Chemscore.Internal.Correction.Weighted>
   9.000000E+99

> <Gold.Protein.RotatedTorsions>
[ 6907 6896 6895 6894 ] final   55.45 input  -60.11 | X-H torsion
[ 7974 7965 7964 7962 ] final  147.28 input  175.53 | X-H torsion
[ 8008 7997 7996 7995 ] final   74.98 input   59.86 | X-H torsion
[ 10167 10162 10161 10158 ] final  -54.96 input  -65.29 | X-H torsion
[ 10718 10713 10712 10709 ] final   97.58 input   66.30 | X-H torsion
[ 10763 10752 10751 10750 ] final  105.21 input  -60.55 | X-H torsion
[ 11005 11000 10999 10996 ] final -169.99 input  -57.11 | X-H torsion

> <Gold.Protein.ActiveResidues>
 VAL166  LYS551  ARG553  GLY616  TRP617  ASP618  TYR619  PRO620  LYS621  CYS622 
 ASP623  PHE694  ASN695  SER759  ASP760  ASP761  ALA762  ILE779  LEU786  VAL792 
 PHE793  MET794  SER795  GLU796  ALA797  LYS798  CYS799  TRP800  GLU811  SER814 

> <Gold.Protein.RotatedAtoms>
  152.3539  134.6967  160.0227 H   0  0  0  0  0  0  0  0  0  0  0  0  # atno 6907 bound_to 6896
  151.7312  133.3312  159.3349 H   0  0  0  0  0  0  0  0  0  0  0  0  # atno 6908 bound_to 6896
  150.7559  134.6296  159.6223 H   0  0  0  0  0  0  0  0  0  0  0  0  # atno 6909 bound_to 6896
  144.8604  139.6009  143.5933 H   0  0  0  0  0  0  0  0  0  0  0  0  # atno 7974 bound_to 7965
  155.8063  140.3474  155.5431 H   0  0  0  0  0  0  0  0  0  0  0  0  # atno 8008 bound_to 7997
  155.8487  140.0953  157.1709 H   0  0  0  0  0  0  0  0  0  0  0  0  # atno 8009 bound_to 7997
  154.4007  140.1380  156.3805 H   0  0  0  0  0  0  0  0  0  0  0  0  # atno 8010 bound_to 7997
  140.6402  143.2503  151.5011 H   0  0  0  0  0  0  0  0  0  0  0  0  # atno 10167 bound_to 10162
  157.6910  131.0614  150.4665 H   0  0  0  0  0  0  0  0  0  0  0  0  # atno 10718 bound_to 10713
  153.3763  135.3917  155.1825 H   0  0  0  0  0  0  0  0  0  0  0  0  # atno 10763 bound_to 10752
  154.8701  135.3714  154.4914 H   0  0  0  0  0  0  0  0  0  0  0  0  # atno 10764 bound_to 10752
  153.5386  135.7085  153.5708 H   0  0  0  0  0  0  0  0  0  0  0  0  # atno 10765 bound_to 10752
  140.5245  134.5676  157.5057 H   0  0  0  0  0  0  0  0  0  0  0  0  # atno 11005 bound_to 11000
  146.2856  139.6994  142.9198 LP  0  0  0  0  0  0  0  0  0  0  0  0  # atno 17320 bound_to 7965
  145.4324  141.0416  143.2903 LP  0  0  0  0  0  0  0  0  0  0  0  0  # atno 17321 bound_to 7965
  139.5611  144.2155  152.1692 LP  0  0  0  0  0  0  0  0  0  0  0  0  # atno 17342 bound_to 10162
  140.1423  144.5191  150.6737 LP  0  0  0  0  0  0  0  0  0  0  0  0  # atno 17343 bound_to 10162
  156.5006  130.4116  149.6355 LP  0  0  0  0  0  0  0  0  0  0  0  0  # atno 17370 bound_to 10713
  156.3332  130.7342  151.2275 LP  0  0  0  0  0  0  0  0  0  0  0  0  # atno 17371 bound_to 10713
  139.9587  134.7489  156.0284 LP  0  0  0  0  0  0  0  0  0  0  0  0  # atno 17394 bound_to 11000
  141.1316  133.6585  156.3479 LP  0  0  0  0  0  0  0  0  0  0  0  0  # atno 17395 bound_to 11000

$$$$
