AV-unprocessed.smi:2041|AV-procd|sdf|8292|dock10
  -GOLD-   2272010563D 1   1.00000     0.00000
 Structure written by MMmdl.
 30 31  0  0  0  0  0  0  0  0  2 V2000
  152.7484  139.7611  156.2944 O   0  0  0  0  0  0  0  0  0  0  0  0
  152.3058  139.3203  157.3578 C   0  0  0  0  0  0  0  0  0  0  0  0
  152.1344  138.0168  157.6763 N   0  5  0  0  0  0  0  0  0  0  0  0
  151.5343  137.1859  156.8086 C   0  0  0  0  0  0  0  0  0  0  0  0
  151.3212  135.8906  157.0676 N   0  0  0  0  0  0  0  0  0  0  0  0
  150.6740  135.2161  156.0307 C   0  0  0  0  0  0  0  0  0  0  0  0
  150.3807  136.0182  154.9600 C   0  0  0  0  0  0  0  0  0  0  0  0
  150.9118  137.6547  155.2238 S   0  0  0  0  0  0  0  0  0  0  0  0
  151.9423  140.1663  158.3340 N   0  0  0  0  0  0  0  0  0  0  0  0
  152.0033  141.6288  158.2826 C   0  0  2  0  0  0  0  0  0  0  0  0
  152.2844  142.1468  159.7158 C   0  0  0  0  0  0  0  0  0  0  0  0
  152.0000  143.6435  159.9755 C   0  0  0  0  0  0  0  0  0  0  0  0
  152.4971  144.6066  158.8780 C   0  0  0  0  0  0  0  0  0  0  0  0
  151.8996  144.4146  157.4597 C   0  0  0  0  0  0  0  0  0  0  0  0
  150.7225  143.5479  157.4003 N   0  0  0  0  0  0  0  0  0  0  0  0
  150.6936  142.2494  157.7463 C   0  0  0  0  0  0  0  0  0  0  0  0
  149.6580  141.5896  157.6679 O   0  0  0  0  0  0  0  0  0  0  0  0
  150.4599  134.1634  156.1406 H   0  0  0  0  0  0  0  0  0  0  0  0
  149.8869  135.7499  154.0385 H   0  0  0  0  0  0  0  0  0  0  0  0
  151.5801  139.7581  159.1830 H   0  0  0  0  0  0  0  0  0  0  0  0
  152.8314  141.9101  157.6307 H   0  0  0  0  0  0  0  0  0  0  0  0
  151.7071  141.5682  160.4388 H   0  0  0  0  0  0  0  0  0  0  0  0
  153.3303  141.9442  159.9484 H   0  0  0  0  0  0  0  0  0  0  0  0
  150.9295  143.7917  160.1234 H   0  0  0  0  0  0  0  0  0  0  0  0
  152.4558  143.9230  160.9256 H   0  0  0  0  0  0  0  0  0  0  0  0
  152.2748  145.6228  159.2057 H   0  0  0  0  0  0  0  0  0  0  0  0
  153.5846  144.5549  158.8165 H   0  0  0  0  0  0  0  0  0  0  0  0
  151.6268  145.3855  157.0455 H   0  0  0  0  0  0  0  0  0  0  0  0
  152.6598  144.0179  156.7855 H   0  0  0  0  0  0  0  0  0  0  0  0
  149.8666  143.9617  157.0602 H   0  0  0  0  0  0  0  0  0  0  0  0
  1  2  2  0  0  0  0
  2  3  1  0  0  0  0
  2  9  1  0  0  0  0
  3  4  1  0  0  0  0
  4  8  1  0  0  0  0
  4  5  2  0  0  0  0
  5  6  1  0  0  0  0
  6  7  2  0  0  0  0
  6 18  1  0  0  0  0
  7  8  1  0  0  0  0
  7 19  1  0  0  0  0
  9 10  1  0  0  0  0
  9 20  1  0  0  0  0
 10 16  1  0  0  0  0
 10 11  1  0  0  0  0
 10 21  1  0  0  0  0
 11 12  1  0  0  0  0
 11 22  1  0  0  0  0
 11 23  1  0  0  0  0
 12 13  1  0  0  0  0
 12 24  1  0  0  0  0
 12 25  1  0  0  0  0
 13 14  1  0  0  0  0
 13 26  1  0  0  0  0
 13 27  1  0  0  0  0
 14 15  1  0  0  0  0
 14 28  1  0  0  0  0
 14 29  1  0  0  0  0
 15 16  1  0  0  0  0
 15 30  1  0  0  0  0
 16 17  2  0  0  0  0
M  CHG  1   3  -1
M  END
> <s_m_source_file>
AV-unprocessed.smi

> <i_m_source_file_index>
2041

> <i_lp_mmshare_version>
43012

> <i_f3d_flags>
0

> <s_epik_input>
czFbY0hdW2NIXW5jMVtOSF1DKD1PKVtOSF1bQ0BASF0yW0NIMl1bQ0gyXVtDSDJdW0NIMl1bTkhdQzI9Tw==

> <s_epik_cmdline>
J2VwaWtfcHl0aG9uJywgJy1waCcsICc3LjAnLCAnLXRuJywgJzgnLCAnLW1hJywgJzIwMCcsICctbWV0YWxfYmluZGluZycsICctaW1hZScsICc8aW5maWxlLm1hZT4nLCAnLW9tYWUnLCAnPG91dGZpbGUubWFlPic=

> <r_lp_tautomer_probability>
1

> <r_epik_Ionization_Penalty>
7.83857

> <r_epik_Ionization_Penalty_Charging>
6.39911

> <r_epik_Ionization_Penalty_Neutral>
1.43945

> <r_epik_State_Penalty>
6.3991

> <r_epik_Charging_Adjusted_Penalty>
12.7982

> <i_epik_Tot_Q>
-1

> <i_epik_Tot_abs_Q>
1

> <r_epik_Metal_State_Penalty>
2.33024

> <b_epik_Metal_Only>
1

> <s_lp_Force_Field>
OPLS_2005

> <r_lp_Energy>
11.6521

> <b_lp_Chiralities_Consistent>
1

> <s_lp_Variant>
AV-unprocessed.smi:2041-3

> <Gold.Version>
5.8.1

> <Gold.Id.Protein>
6NUR|6NUR_protein|mol2

> <Gold.PLP.Fitness>
37.5412

> <Gold.PLP.PLP>
-30.0952

> <Gold.PLP.part.hbond>
-2.4545

> <Gold.PLP.part.metal>
0.0000

> <Gold.PLP.part.buried>
-5.1475

> <Gold.PLP.part.nonpolar>
-22.4746

> <Gold.PLP.part.repulsive>
0.1859

> <Gold.PLP.ligand.clash>
0.0000

> <Gold.PLP.ligand.torsion>
0.7789

> <Gold.PLP.Chemscore.Hbond>
2.0000

> <Gold.PLP.Chemscore.CHOScore>
1.0000

> <Gold.PLP.Chemscore.Metal>
0.0000

> <Gold.Chemscore.Hbonds>
donor molecule, donor type, donor heavy atom, donor atom, acceptor molecule, acceptor atom, score
      L1  H    15    30       P1  8028  1.00
      P1  H  7997  8010       L1     1  1.00
      L1  C     7    19       P1  7948  0.85

> <Gold.PLP.Chemscore.Internal.Correction>
0.0037

> <Gold.Rescore>
     Score         DG    S(hbond)    S(metal)    S(lipo)     H(rot)  DE(clash)    DE(int)     intcor
     16.30     -18.27       1.99        0.00      74.42       1.00       0.02       1.94       ----

> <Gold.Chemscore.Fitness>
16.3028

> <Gold.Chemscore.DG>
-18.2672

> <Gold.Chemscore.ZeroCoef>
-5.4800

> <Gold.Chemscore.Hbond>
1.9880

> <Gold.Chemscore.Metal>
0.0000

> <Gold.Chemscore.Lipo>
74.4204

> <Gold.Chemscore.Internal_Hbond>
0.0000

> <Gold.Chemscore.DEClash>
0.0215

> <Gold.Chemscore.DEInternal>
1.9429

> <Gold.Chemscore.Rot>
1.0000

> <Gold.Chemscore.Internal.Correction>
   9.000000E+99

> <Gold.Chemscore.Hbonds>
donor molecule, donor type, donor heavy atom, donor atom, acceptor molecule, acceptor atom, score
      L1  H    15    30       P1  8028  0.83
      P1  H  7997  8010       L1     1  0.96

> <Gold.Chemscore.Hbond.Weighted>
-6.6400

> <Gold.Chemscore.Metal.Weighted>
-0.0000

> <Gold.Chemscore.Lipo.Weighted>
-8.7072

> <Gold.Chemscore.Internal_Hbond.Weighted>
0.0000

> <Gold.Chemscore.DEClash.Weighted>
0.0215

> <Gold.Chemscore.DEInternal.Weighted>
1.9429

> <Gold.Chemscore.Rot.Weighted>
2.5600

> <Gold.Chemscore.Internal.Correction.Weighted>
   9.000000E+99

> <Gold.Protein.RotatedTorsions>
[ 6907 6896 6895 6894 ] final  156.89 input  -60.11 | X-H torsion
[ 7974 7965 7964 7962 ] final  155.36 input  175.53 | X-H torsion
[ 8008 7997 7996 7995 ] final   86.03 input   59.86 | X-H torsion
[ 10167 10162 10161 10158 ] final -150.29 input  -65.29 | X-H torsion
[ 10718 10713 10712 10709 ] final  -62.04 input   66.30 | X-H torsion
[ 10763 10752 10751 10750 ] final  156.00 input  -60.55 | X-H torsion
[ 11005 11000 10999 10996 ] final  -31.72 input  -57.11 | X-H torsion

> <Gold.Protein.ActiveResidues>
 VAL166  LYS551  ARG553  GLY616  TRP617  ASP618  TYR619  PRO620  LYS621  CYS622 
 ASP623  PHE694  ASN695  SER759  ASP760  ASP761  ALA762  ILE779  LEU786  VAL792 
 PHE793  MET794  SER795  GLU796  ALA797  LYS798  CYS799  TRP800  GLU811  SER814 

> <Gold.Protein.RotatedAtoms>
  152.0232  133.3907  159.4266 H   0  0  0  0  0  0  0  0  0  0  0  0  # atno 6907 bound_to 6896
  150.6888  134.3603  159.4957 H   0  0  0  0  0  0  0  0  0  0  0  0  # atno 6908 bound_to 6896
  152.1380  134.9084  160.0606 H   0  0  0  0  0  0  0  0  0  0  0  0  # atno 6909 bound_to 6896
  144.8030  139.7058  143.6174 H   0  0  0  0  0  0  0  0  0  0  0  0  # atno 7974 bound_to 7965
  155.9575  140.3396  155.6462 H   0  0  0  0  0  0  0  0  0  0  0  0  # atno 8008 bound_to 7997
  155.6840  140.0741  157.2492 H   0  0  0  0  0  0  0  0  0  0  0  0  # atno 8009 bound_to 7997
  154.4135  140.1669  156.2001 H   0  0  0  0  0  0  0  0  0  0  0  0  # atno 8010 bound_to 7997
  139.7367  143.8725  152.2551 H   0  0  0  0  0  0  0  0  0  0  0  0  # atno 10167 bound_to 10162
  156.0881  130.4205  150.1079 H   0  0  0  0  0  0  0  0  0  0  0  0  # atno 10718 bound_to 10713
  154.1774  135.2801  155.3062 H   0  0  0  0  0  0  0  0  0  0  0  0  # atno 10763 bound_to 10752
  154.6029  135.5524  153.7396 H   0  0  0  0  0  0  0  0  0  0  0  0  # atno 10764 bound_to 10752
  153.0147  135.6396  154.1914 H   0  0  0  0  0  0  0  0  0  0  0  0  # atno 10765 bound_to 10752
  140.9492  133.7231  156.1194 H   0  0  0  0  0  0  0  0  0  0  0  0  # atno 11005 bound_to 11000
  146.2315  139.5823  142.9552 LP  0  0  0  0  0  0  0  0  0  0  0  0  # atno 17320 bound_to 7965
  145.5507  141.0413  143.2280 LP  0  0  0  0  0  0  0  0  0  0  0  0  # atno 17321 bound_to 7965
  139.8663  144.7091  150.9039 LP  0  0  0  0  0  0  0  0  0  0  0  0  # atno 17342 bound_to 10162
  140.7780  143.3775  151.1537 LP  0  0  0  0  0  0  0  0  0  0  0  0  # atno 17343 bound_to 10162
  156.9096  130.9647  151.3565 LP  0  0  0  0  0  0  0  0  0  0  0  0  # atno 17370 bound_to 10713
  157.6022  130.8521  149.8819 LP  0  0  0  0  0  0  0  0  0  0  0  0  # atno 17371 bound_to 10713
  140.7626  134.3922  157.5523 LP  0  0  0  0  0  0  0  0  0  0  0  0  # atno 17394 bound_to 11000
  139.8842  134.8971  156.2716 LP  0  0  0  0  0  0  0  0  0  0  0  0  # atno 17395 bound_to 11000

$$$$
