AV-unprocessed.smi:3012|AV-procd|sdf|11463|dock2
  -GOLD-   2272016403D 1   1.00000     0.00000
 Structure written by MMmdl.
 16 16  0  0  0  0  0  0  0  0  3 V2000
  152.4061  137.5141  154.1039 O   0  0  0  0  0  0  0  0  0  0  0  0
  152.8027  138.4688  154.8090 C   0  0  0  0  0  0  0  0  0  0  0  0
  153.7953  139.1863  154.5517 O   0  5  0  0  0  0  0  0  0  0  0  0
  151.9796  138.7810  156.0664 C   0  0  0  0  0  0  0  0  0  0  0  0
  151.2816  140.1407  156.0662 C   0  0  0  0  0  0  0  0  0  0  0  0
  151.4430  141.0108  157.1367 C   0  0  0  0  0  0  0  0  0  0  0  0
  150.7398  142.2886  157.1258 C   0  0  0  0  0  0  0  0  0  0  0  0
  150.8203  143.1326  158.0165 O   0  0  0  0  0  0  0  0  0  0  0  0
  149.9652  142.4801  156.0293 N   0  0  0  0  0  0  0  0  0  0  0  0
  149.7981  141.6165  154.9943 C   0  0  0  0  0  0  0  0  0  0  0  0
  149.0459  141.9624  154.0855 O   0  0  0  0  0  0  0  0  0  0  0  0
  150.4621  140.4249  155.0189 N   0  5  0  0  0  0  0  0  0  0  0  0
  149.4593  143.3517  155.9770 H   0  0  0  0  0  0  0  0  0  0  0  0
  151.2517  137.9780  156.1908 H   0  0  0  0  0  0  0  0  0  0  0  0
  152.6381  138.7204  156.9338 H   0  0  0  0  0  0  0  0  0  0  0  0
  152.0821  140.7537  157.9686 H   0  0  0  0  0  0  0  0  0  0  0  0
  1  2  2  0  0  0  0
  2  3  1  0  0  0  0
  2  4  1  0  0  0  0
  4  5  1  0  0  0  0
  4 14  1  0  0  0  0
  4 15  1  0  0  0  0
  5 12  1  0  0  0  0
  5  6  2  0  0  0  0
  6  7  1  0  0  0  0
  6 16  1  0  0  0  0
  7  8  2  0  0  0  0
  7  9  1  0  0  0  0
  9 13  1  0  0  0  0
  9 10  1  0  0  0  0
 10 11  2  0  0  0  0
 10 12  1  0  0  0  0
M  CHG  1   3  -1
M  CHG  1  12  -1
M  END
> <s_m_source_file>
AV-unprocessed.smi

> <i_m_source_file_index>
3012

> <i_lp_mmshare_version>
43012

> <i_f3d_flags>
0

> <s_epik_input>
Tz1DKFtPSF0pW0NIMl1jMVtjSF1jKD1PKVtuSF1jKD1PKVtuSF0x

> <s_epik_cmdline>
J2VwaWtfcHl0aG9uJywgJy1waCcsICc3LjAnLCAnLXRuJywgJzgnLCAnLW1hJywgJzIwMCcsICctbWV0YWxfYmluZGluZycsICctaW1hZScsICc8aW5maWxlLm1hZT4nLCAnLW9tYWUnLCAnPG91dGZpbGUubWFlPic=

> <r_lp_tautomer_probability>
1

> <r_epik_Ionization_Penalty>
4.12951

> <r_epik_Ionization_Penalty_Charging>
0.000885541

> <r_epik_Ionization_Penalty_Neutral>
4.12862

> <r_epik_State_Penalty>
4.12806

> <r_epik_Charging_Adjusted_Penalty>
4.12895

> <i_epik_Tot_Q>
-2

> <i_epik_Tot_abs_Q>
2

> <r_epik_Metal_State_Penalty>
0.707998

> <b_epik_Metal_Only>
1

> <s_lp_Force_Field>
OPLS_2005

> <r_lp_Energy>
11.7888

> <b_lp_Chiralities_Consistent>
1

> <s_lp_Variant>
AV-unprocessed.smi:3012-3

> <Gold.Version>
5.8.1

> <Gold.Id.Protein>
6NUR|6NUR_protein|mol2

> <Gold.PLP.Fitness>
39.4203

> <Gold.PLP.PLP>
-22.4628

> <Gold.PLP.part.hbond>
-5.1845

> <Gold.PLP.part.metal>
0.0000

> <Gold.PLP.part.buried>
-3.4930

> <Gold.PLP.part.nonpolar>
-14.2690

> <Gold.PLP.part.repulsive>
0.7081

> <Gold.PLP.ligand.clash>
0.0000

> <Gold.PLP.ligand.torsion>
0.0633

> <Gold.PLP.Chemscore.Hbond>
5.6930

> <Gold.PLP.Chemscore.CHOScore>
0.0000

> <Gold.PLP.Chemscore.Metal>
0.0000

> <Gold.Chemscore.Hbonds>
donor molecule, donor type, donor heavy atom, donor atom, acceptor molecule, acceptor atom, score
      L1  H     9    13       P1  8028  0.98
      P1  H  7989  7998       L1    12  0.70
      P1  H  7997  8010       L1     3  2.00
      P1  H  8011  8017       L1    11  0.43
      P1  H 10752 10764       L1     1  1.44

> <Gold.PLP.Chemscore.Internal.Correction>
0.0051

> <Gold.Rescore>
     Score         DG    S(hbond)    S(metal)    S(lipo)     H(rot)  DE(clash)    DE(int)     intcor
     13.87     -14.17       3.23        0.00      18.91       1.68       0.20       0.09       ----

> <Gold.Chemscore.Fitness>
13.8731

> <Gold.Chemscore.DG>
-14.1652

> <Gold.Chemscore.ZeroCoef>
-5.4800

> <Gold.Chemscore.Hbond>
3.2291

> <Gold.Chemscore.Metal>
0.0000

> <Gold.Chemscore.Lipo>
18.9101

> <Gold.Chemscore.Internal_Hbond>
0.0000

> <Gold.Chemscore.DEClash>
0.2047

> <Gold.Chemscore.DEInternal>
0.0874

> <Gold.Chemscore.Rot>
1.6846

> <Gold.Chemscore.Internal.Correction>
   9.000000E+99

> <Gold.Chemscore.Hbonds>
donor molecule, donor type, donor heavy atom, donor atom, acceptor molecule, acceptor atom, score
      L1  H     9    13       P1  8028  0.91
      P1  H  7989  7998       L1    12  0.04
      P1  H  7997  8010       L1     3  0.99
      P1  H  8011  8017       L1    11  0.41
      P1  H 10752 10764       L1     1  0.72

> <Gold.Chemscore.Hbond.Weighted>
-10.7853

> <Gold.Chemscore.Metal.Weighted>
-0.0000

> <Gold.Chemscore.Lipo.Weighted>
-2.2125

> <Gold.Chemscore.Internal_Hbond.Weighted>
0.0000

> <Gold.Chemscore.DEClash.Weighted>
0.2047

> <Gold.Chemscore.DEInternal.Weighted>
0.0874

> <Gold.Chemscore.Rot.Weighted>
4.3126

> <Gold.Chemscore.Internal.Correction.Weighted>
   9.000000E+99

> <Gold.Protein.RotatedTorsions>
[ 6907 6896 6895 6894 ] final  -89.92 input  -60.11 | X-H torsion
[ 7974 7965 7964 7962 ] final  157.87 input  175.53 | X-H torsion
[ 8008 7997 7996 7995 ] final  127.46 input   59.86 | X-H torsion
[ 10167 10162 10161 10158 ] final  -20.88 input  -65.29 | X-H torsion
[ 10718 10713 10712 10709 ] final   -0.35 input   66.30 | X-H torsion
[ 10763 10752 10751 10750 ] final  -96.12 input  -60.55 | X-H torsion
[ 11005 11000 10999 10996 ] final  -38.31 input  -57.11 | X-H torsion

> <Gold.Protein.ActiveResidues>
 VAL166  LYS551  ARG553  GLY616  TRP617  ASP618  TYR619  PRO620  LYS621  CYS622 
 ASP623  PHE694  ASN695  SER759  ASP760  ASP761  ALA762  ILE779  LEU786  VAL792 
 PHE793  MET794  SER795  GLU796  ALA797  LYS798  CYS799  TRP800  GLU811  SER814 

> <Gold.Protein.RotatedAtoms>
  150.6877  134.2513  159.4511 H   0  0  0  0  0  0  0  0  0  0  0  0  # atno 6907 bound_to 6896
  152.0450  134.9686  160.0583 H   0  0  0  0  0  0  0  0  0  0  0  0  # atno 6908 bound_to 6896
  152.1173  133.4299  159.4696 H   0  0  0  0  0  0  0  0  0  0  0  0  # atno 6909 bound_to 6896
  144.7878  139.7400  143.6233 H   0  0  0  0  0  0  0  0  0  0  0  0  # atno 7974 bound_to 7965
  156.2891  140.2668  156.2278 H   0  0  0  0  0  0  0  0  0  0  0  0  # atno 8008 bound_to 7997
  155.0103  140.0387  157.2415 H   0  0  0  0  0  0  0  0  0  0  0  0  # atno 8009 bound_to 7997
  154.7524  140.2745  155.6287 H   0  0  0  0  0  0  0  0  0  0  0  0  # atno 8010 bound_to 7997
  140.7279  143.4681  151.0285 H   0  0  0  0  0  0  0  0  0  0  0  0  # atno 10167 bound_to 10162
  156.8217  130.5458  149.5696 H   0  0  0  0  0  0  0  0  0  0  0  0  # atno 10718 bound_to 10713
  154.7210  135.5095  153.8812 H   0  0  0  0  0  0  0  0  0  0  0  0  # atno 10763 bound_to 10752
  153.0863  135.6646  153.9952 H   0  0  0  0  0  0  0  0  0  0  0  0  # atno 10764 bound_to 10752
  153.9775  135.3032  155.3402 H   0  0  0  0  0  0  0  0  0  0  0  0  # atno 10765 bound_to 10752
  141.0018  133.6952  156.2036 H   0  0  0  0  0  0  0  0  0  0  0  0  # atno 11005 bound_to 11000
  146.2118  139.5479  142.9676 LP  0  0  0  0  0  0  0  0  0  0  0  0  # atno 17320 bound_to 7965
  145.5875  141.0374  143.2088 LP  0  0  0  0  0  0  0  0  0  0  0  0  # atno 17321 bound_to 7965
  139.8370  143.7614  152.3180 LP  0  0  0  0  0  0  0  0  0  0  0  0  # atno 17342 bound_to 10162
  139.7749  144.7464  151.0170 LP  0  0  0  0  0  0  0  0  0  0  0  0  # atno 17343 bound_to 10162
  156.0985  130.5951  150.9854 LP  0  0  0  0  0  0  0  0  0  0  0  0  # atno 17370 bound_to 10713
  157.6453  131.0905  150.8165 LP  0  0  0  0  0  0  0  0  0  0  0  0  # atno 17371 bound_to 10713
  140.6877  134.4699  157.5589 LP  0  0  0  0  0  0  0  0  0  0  0  0  # atno 17394 bound_to 11000
  139.9042  134.8486  156.1771 LP  0  0  0  0  0  0  0  0  0  0  0  0  # atno 17395 bound_to 11000

$$$$
