AV-unprocessed.smi:1709|AV-procd|sdf|6897|dock2
  -GOLD-   22720 8103D 1   1.00000     0.00000
 Structure written by MMmdl.
 43 45  0  0  0  0  0  0  0  0  2 V2000
  147.8915  133.1424  153.2098 C   0  0  0  0  0  0  0  0  0  0  0  0
  146.5113  133.2373  152.5790 C   0  0  0  0  0  0  0  0  0  0  0  0
  145.8017  132.0511  152.2948 C   0  0  0  0  0  0  0  0  0  0  0  0
  144.5267  132.1377  151.7106 C   0  0  0  0  0  0  0  0  0  0  0  0
  144.0127  133.4153  151.4326 C   0  0  0  0  0  0  0  0  0  0  0  0
  144.6841  134.5537  151.7012 N   0  0  0  0  0  0  0  0  0  0  0  0
  145.9150  134.4899  152.2717 C   0  0  0  0  0  0  0  0  0  0  0  0
  146.7011  135.6462  152.5664 N   0  0  0  0  0  0  0  0  0  0  0  0
  146.3640  136.8351  153.1087 C   0  0  0  0  0  0  0  0  0  0  0  0
  145.2057  137.0805  153.4409 O   0  0  0  0  0  0  0  0  0  0  0  0
  147.3620  137.7222  153.2523 N   0  0  0  0  0  0  0  0  0  0  0  0
  147.2312  139.0457  153.8519 C   0  0  2  0  0  0  0  0  0  0  0  0
  147.3337  140.1790  152.8396 C   0  0  0  0  0  0  0  0  0  0  0  0
  147.6563  141.3935  153.7156 C   0  0  0  0  0  0  0  0  0  0  0  0
  148.3489  140.8801  154.9236 N   0  3  2  0  0  0  0  0  0  0  0  0
  149.6825  141.4944  155.1624 C   0  0  0  0  0  0  0  0  0  0  0  0
  150.4982  140.6643  156.1644 C   0  0  0  0  0  0  0  0  0  0  0  0
  150.7693  139.2444  155.6321 C   0  0  0  0  0  0  0  0  0  0  0  0
  149.7316  138.7999  154.5831 C   0  0  0  0  0  0  0  0  0  0  0  0
  148.3296  139.3904  154.8752 C   0  0  2  0  0  0  0  0  0  0  0  0
  148.1811  132.1048  153.3785 H   0  0  0  0  0  0  0  0  0  0  0  0
  147.9073  133.6552  154.1720 H   0  0  0  0  0  0  0  0  0  0  0  0
  148.6406  133.5979  152.5615 H   0  0  0  0  0  0  0  0  0  0  0  0
  146.2276  131.0843  152.5196 H   0  0  0  0  0  0  0  0  0  0  0  0
  143.9592  131.2481  151.4802 H   0  0  0  0  0  0  0  0  0  0  0  0
  143.0379  133.5281  150.9818 H   0  0  0  0  0  0  0  0  0  0  0  0
  147.6578  135.5871  152.2492 H   0  0  0  0  0  0  0  0  0  0  0  0
  148.2852  137.4424  152.9515 H   0  0  0  0  0  0  0  0  0  0  0  0
  146.2569  139.1242  154.3395 H   0  0  0  0  0  0  0  0  0  0  0  0
  148.1553  139.9946  152.1456 H   0  0  0  0  0  0  0  0  0  0  0  0
  146.4228  140.3110  152.2553 H   0  0  0  0  0  0  0  0  0  0  0  0
  148.2364  142.1387  153.1697 H   0  0  0  0  0  0  0  0  0  0  0  0
  146.7334  141.8754  154.0398 H   0  0  0  0  0  0  0  0  0  0  0  0
  150.2366  141.5691  154.2250 H   0  0  0  0  0  0  0  0  0  0  0  0
  149.5437  142.5119  155.5289 H   0  0  0  0  0  0  0  0  0  0  0  0
  151.4407  141.1610  156.3969 H   0  0  0  0  0  0  0  0  0  0  0  0
  149.9467  140.6028  157.1038 H   0  0  0  0  0  0  0  0  0  0  0  0
  151.7645  139.1932  155.1891 H   0  0  0  0  0  0  0  0  0  0  0  0
  150.7753  138.5473  156.4710 H   0  0  0  0  0  0  0  0  0  0  0  0
  150.0587  139.1211  153.5930 H   0  0  0  0  0  0  0  0  0  0  0  0
  149.7040  137.7104  154.5528 H   0  0  0  0  0  0  0  0  0  0  0  0
  148.0197  139.0266  155.8560 H   0  0  0  0  0  0  0  0  0  0  0  0
  147.7696  141.1345  155.7110 H   0  0  0  0  0  0  0  0  0  0  0  0
  1  2  1  0  0  0  0
  1 21  1  0  0  0  0
  1 22  1  0  0  0  0
  1 23  1  0  0  0  0
  2  7  1  0  0  0  0
  2  3  2  0  0  0  0
  3  4  1  0  0  0  0
  3 24  1  0  0  0  0
  4  5  2  0  0  0  0
  4 25  1  0  0  0  0
  5  6  1  0  0  0  0
  5 26  1  0  0  0  0
  6  7  2  0  0  0  0
  7  8  1  0  0  0  0
  8  9  1  0  0  0  0
  8 27  1  0  0  0  0
  9 10  2  0  0  0  0
  9 11  1  0  0  0  0
 11 12  1  0  0  0  0
 11 28  1  0  0  0  0
 12 20  1  0  0  0  0
 12 13  1  0  0  0  0
 12 29  1  0  0  0  0
 13 14  1  0  0  0  0
 13 30  1  0  0  0  0
 13 31  1  0  0  0  0
 14 15  1  0  0  0  0
 14 32  1  0  0  0  0
 14 33  1  0  0  0  0
 15 20  1  0  0  0  0
 15 16  1  0  0  0  0
 15 43  1  0  0  0  0
 16 17  1  0  0  0  0
 16 34  1  0  0  0  0
 16 35  1  0  0  0  0
 17 18  1  0  0  0  0
 17 36  1  0  0  0  0
 17 37  1  0  0  0  0
 18 19  1  0  0  0  0
 18 38  1  0  0  0  0
 18 39  1  0  0  0  0
 19 20  1  0  0  0  0
 19 40  1  0  0  0  0
 19 41  1  0  0  0  0
 20 42  1  0  0  0  0
M  CHG  1  15   1
M  END
> <s_m_source_file>
AV-unprocessed.smi

> <i_m_source_file_index>
1709

> <i_lp_mmshare_version>
43012

> <i_f3d_flags>
0

> <s_epik_input>
W0NIM11jMVtjSF1bY0hdW2NIXW5jMVtOSF1DKD1PKVtOSF1bQ0BIXShbQ0gyXVtDSDJdMilbQ0BASF0oTjIzKVtDSDJdW0NIMl1bQ0gyXVtDSDJdMw==

> <s_epik_cmdline>
J2VwaWtfcHl0aG9uJywgJy1waCcsICc3LjAnLCAnLXRuJywgJzgnLCAnLW1hJywgJzIwMCcsICctbWV0YWxfYmluZGluZycsICctaW1hZScsICc8aW5maWxlLm1hZT4nLCAnLW9tYWUnLCAnPG91dGZpbGUubWFlPic=

> <r_epik_Ionization_Penalty>
0.00101524

> <r_epik_Ionization_Penalty_Charging>
0.000974069

> <r_epik_Ionization_Penalty_Neutral>
4.11757e-05

> <r_epik_State_Penalty>
0.000633842

> <r_epik_Charging_Adjusted_Penalty>
0.00160791

> <i_epik_Tot_Q>
1

> <i_epik_Tot_abs_Q>
1

> <r_epik_Metal_State_Penalty>
-0

> <b_epik_Metal_Only>
0

> <s_lp_Force_Field>
OPLS_2005

> <r_lp_Energy>
45.6111

> <b_lp_Chiralities_Consistent>
1

> <s_lp_Variant>
AV-unprocessed.smi:1709-7

> <Gold.Version>
5.8.1

> <Gold.Id.Protein>
6NUR|6NUR_protein|mol2

> <Gold.PLP.Fitness>
41.1891

> <Gold.PLP.PLP>
-33.7619

> <Gold.PLP.part.hbond>
-1.9426

> <Gold.PLP.part.metal>
0.0000

> <Gold.PLP.part.buried>
-0.6498

> <Gold.PLP.part.nonpolar>
-29.9077

> <Gold.PLP.part.repulsive>
0.4384

> <Gold.PLP.ligand.clash>
0.0000

> <Gold.PLP.ligand.torsion>
0.4765

> <Gold.PLP.Chemscore.Hbond>
1.7920

> <Gold.PLP.Chemscore.CHOScore>
1.0000

> <Gold.PLP.Chemscore.Metal>
0.0000

> <Gold.Chemscore.Hbonds>
donor molecule, donor type, donor heavy atom, donor atom, acceptor molecule, acceptor atom, score
      L1  H     8    27       P1  7948  0.86
      L1  H    11    28       P1  7948  0.74
      L1  C     5    26       P1 10186  0.74

> <Gold.PLP.Chemscore.Internal.Correction>
0.0042

> <Gold.Rescore>
     Score         DG    S(hbond)    S(metal)    S(lipo)     H(rot)  DE(clash)    DE(int)     intcor
     17.48     -18.09       1.79        0.00      78.54       1.00       0.04       0.56       ----

> <Gold.Chemscore.Fitness>
17.4848

> <Gold.Chemscore.DG>
-18.0858

> <Gold.Chemscore.ZeroCoef>
-5.4800

> <Gold.Chemscore.Hbond>
1.7895

> <Gold.Chemscore.Metal>
0.0000

> <Gold.Chemscore.Lipo>
78.5366

> <Gold.Chemscore.Internal_Hbond>
0.0000

> <Gold.Chemscore.DEClash>
0.0402

> <Gold.Chemscore.DEInternal>
0.5608

> <Gold.Chemscore.Rot>
1.0000

> <Gold.Chemscore.Internal.Correction>
   9.000000E+99

> <Gold.Chemscore.Hbonds>
donor molecule, donor type, donor heavy atom, donor atom, acceptor molecule, acceptor atom, score
      L1  H     8    27       P1  7948  0.81
      L1  H    11    28       P1  7948  0.74

> <Gold.Chemscore.Hbond.Weighted>
-5.9770

> <Gold.Chemscore.Metal.Weighted>
-0.0000

> <Gold.Chemscore.Lipo.Weighted>
-9.1888

> <Gold.Chemscore.Internal_Hbond.Weighted>
0.0000

> <Gold.Chemscore.DEClash.Weighted>
0.0402

> <Gold.Chemscore.DEInternal.Weighted>
0.5608

> <Gold.Chemscore.Rot.Weighted>
2.5600

> <Gold.Chemscore.Internal.Correction.Weighted>
   9.000000E+99

> <Gold.Protein.RotatedTorsions>
[ 6907 6896 6895 6894 ] final  -50.69 input  -60.11 | X-H torsion
[ 7974 7965 7964 7962 ] final -166.06 input  175.53 | X-H torsion
[ 8008 7997 7996 7995 ] final  107.89 input   59.86 | X-H torsion
[ 10167 10162 10161 10158 ] final  -15.62 input  -65.29 | X-H torsion
[ 10718 10713 10712 10709 ] final    6.85 input   66.30 | X-H torsion
[ 10763 10752 10751 10750 ] final   33.20 input  -60.55 | X-H torsion
[ 11005 11000 10999 10996 ] final -111.04 input  -57.11 | X-H torsion

> <Gold.Protein.ActiveResidues>
 VAL166  LYS551  ARG553  GLY616  TRP617  ASP618  TYR619  PRO620  LYS621  CYS622 
 ASP623  PHE694  ASN695  SER759  ASP760  ASP761  ALA762  ILE779  LEU786  VAL792 
 PHE793  MET794  SER795  GLU796  ALA797  LYS798  CYS799  TRP800  GLU811  SER814 

> <Gold.Protein.RotatedAtoms>
  150.8683  134.8051  159.7135 H   0  0  0  0  0  0  0  0  0  0  0  0  # atno 6907 bound_to 6896
  152.4697  134.4988  159.9728 H   0  0  0  0  0  0  0  0  0  0  0  0  # atno 6908 bound_to 6896
  151.5081  133.3452  159.2916 H   0  0  0  0  0  0  0  0  0  0  0  0  # atno 6909 bound_to 6896
  144.7254  140.2722  143.6249 H   0  0  0  0  0  0  0  0  0  0  0  0  # atno 7974 bound_to 7965
  156.1860  140.3086  155.9239 H   0  0  0  0  0  0  0  0  0  0  0  0  # atno 8008 bound_to 7997
  155.3279  140.0459  157.3058 H   0  0  0  0  0  0  0  0  0  0  0  0  # atno 8009 bound_to 7997
  154.5396  140.2257  155.8673 H   0  0  0  0  0  0  0  0  0  0  0  0  # atno 8010 bound_to 7997
  140.7221  143.5199  150.9646 H   0  0  0  0  0  0  0  0  0  0  0  0  # atno 10167 bound_to 10162
  156.9283  130.5816  149.5649 H   0  0  0  0  0  0  0  0  0  0  0  0  # atno 10718 bound_to 10713
  153.0223  135.6393  154.1475 H   0  0  0  0  0  0  0  0  0  0  0  0  # atno 10763 bound_to 10752
  154.1208  135.2847  155.3210 H   0  0  0  0  0  0  0  0  0  0  0  0  # atno 10764 bound_to 10752
  154.6265  135.5507  153.7695 H   0  0  0  0  0  0  0  0  0  0  0  0  # atno 10765 bound_to 10752
  141.0757  133.9305  157.2394 H   0  0  0  0  0  0  0  0  0  0  0  0  # atno 11005 bound_to 11000
  145.8031  139.1972  143.2036 LP  0  0  0  0  0  0  0  0  0  0  0  0  # atno 17320 bound_to 7965
  146.0659  140.7921  142.9712 LP  0  0  0  0  0  0  0  0  0  0  0  0  # atno 17321 bound_to 7965
  139.8916  143.6946  152.3144 LP  0  0  0  0  0  0  0  0  0  0  0  0  # atno 17342 bound_to 10162
  139.7264  144.7592  151.0873 LP  0  0  0  0  0  0  0  0  0  0  0  0  # atno 17343 bound_to 10162
  156.0459  130.5535  150.8879 LP  0  0  0  0  0  0  0  0  0  0  0  0  # atno 17370 bound_to 10713
  157.5863  131.0945  150.9190 LP  0  0  0  0  0  0  0  0  0  0  0  0  # atno 17371 bound_to 10713
  139.9569  135.0163  156.9154 LP  0  0  0  0  0  0  0  0  0  0  0  0  # atno 17394 bound_to 11000
  140.5578  134.0564  155.7389 LP  0  0  0  0  0  0  0  0  0  0  0  0  # atno 17395 bound_to 11000

$$$$
