AV-unprocessed.smi:2156|AV-procd|sdf|8781|dock2
  -GOLD-   2272011563D 1   1.00000     0.00000
 Structure written by MMmdl.
 33 33  0  0  0  0  0  0  0  0  2 V2000
  153.8618  141.3274  160.8311 C   0  0  0  0  0  0  0  0  0  0  0  0
  152.8939  142.4319  160.3920 C   0  0  0  0  0  0  0  0  0  0  0  0
  153.4045  143.2061  159.1644 C   0  0  0  0  0  0  0  0  0  0  0  0
  152.4053  144.2455  158.6210 C   0  0  2  0  0  0  0  0  0  0  0  0
  151.5098  144.7993  159.7417 C   0  0  0  0  0  0  0  0  0  0  0  0
  151.5868  143.6555  157.5642 N   0  0  0  0  0  0  0  0  0  0  0  0
  150.7784  142.5940  157.7058 C   0  0  0  0  0  0  0  0  0  0  0  0
  150.6583  141.9749  158.7641 O   0  0  0  0  0  0  0  0  0  0  0  0
  150.0159  142.1605  156.4457 C   0  0  0  0  0  0  0  0  0  0  0  0
  150.5727  140.9530  155.8141 N   0  0  0  0  0  0  0  0  0  0  0  0
  151.4989  140.1973  156.5543 C   0  0  0  0  0  0  0  0  0  0  0  0
  152.0569  139.0755  156.0607 C   0  0  0  0  0  0  0  0  0  0  0  0
  151.6774  138.6485  154.7197 C   0  0  0  0  0  0  0  0  0  0  0  0
  152.1806  137.6292  154.2509 O   0  0  0  0  0  0  0  0  0  0  0  0
  150.7711  139.4129  154.0429 N   0  5  0  0  0  0  0  0  0  0  0  0
  150.2105  140.5509  154.5586 C   0  0  0  0  0  0  0  0  0  0  0  0
  149.3930  141.2256  153.9316 O   0  0  0  0  0  0  0  0  0  0  0  0
  153.4750  140.7947  161.6999 H   0  0  0  0  0  0  0  0  0  0  0  0
  154.8341  141.7408  161.1002 H   0  0  0  0  0  0  0  0  0  0  0  0
  154.0156  140.5981  160.0353 H   0  0  0  0  0  0  0  0  0  0  0  0
  151.9229  141.9892  160.1670 H   0  0  0  0  0  0  0  0  0  0  0  0
  152.7343  143.1145  161.2273 H   0  0  0  0  0  0  0  0  0  0  0  0
  154.3461  143.6989  159.4109 H   0  0  0  0  0  0  0  0  0  0  0  0
  153.6357  142.4918  158.3731 H   0  0  0  0  0  0  0  0  0  0  0  0
  152.9789  145.0740  158.2006 H   0  0  0  0  0  0  0  0  0  0  0  0
  152.1081  145.2493  160.5341 H   0  0  0  0  0  0  0  0  0  0  0  0
  150.9019  144.0124  160.1892 H   0  0  0  0  0  0  0  0  0  0  0  0
  150.8348  145.5695  159.3671 H   0  0  0  0  0  0  0  0  0  0  0  0
  151.6253  144.0993  156.6581 H   0  0  0  0  0  0  0  0  0  0  0  0
  148.9642  142.0022  156.6923 H   0  0  0  0  0  0  0  0  0  0  0  0
  150.0219  142.9942  155.7424 H   0  0  0  0  0  0  0  0  0  0  0  0
  151.7204  140.5788  157.5403 H   0  0  0  0  0  0  0  0  0  0  0  0
  152.7651  138.5048  156.6433 H   0  0  0  0  0  0  0  0  0  0  0  0
  1  2  1  0  0  0  0
  1 18  1  0  0  0  0
  1 19  1  0  0  0  0
  1 20  1  0  0  0  0
  2  3  1  0  0  0  0
  2 21  1  0  0  0  0
  2 22  1  0  0  0  0
  3  4  1  0  0  0  0
  3 23  1  0  0  0  0
  3 24  1  0  0  0  0
  4  5  1  0  0  0  0
  4  6  1  0  0  0  0
  4 25  1  0  0  0  0
  5 26  1  0  0  0  0
  5 27  1  0  0  0  0
  5 28  1  0  0  0  0
  6  7  1  0  0  0  0
  6 29  1  0  0  0  0
  7  8  2  0  0  0  0
  7  9  1  0  0  0  0
  9 10  1  0  0  0  0
  9 30  1  0  0  0  0
  9 31  1  0  0  0  0
 10 16  1  0  0  0  0
 10 11  1  0  0  0  0
 11 12  2  0  0  0  0
 11 32  1  0  0  0  0
 12 13  1  0  0  0  0
 12 33  1  0  0  0  0
 13 14  2  0  0  0  0
 13 15  1  0  0  0  0
 15 16  1  0  0  0  0
 16 17  2  0  0  0  0
M  CHG  1  15  -1
M  END
> <s_m_source_file>
AV-unprocessed.smi

> <i_m_source_file_index>
2156

> <i_lp_mmshare_version>
43012

> <i_f3d_flags>
0

> <s_epik_input>
W0NIM11bQ0gyXVtDSDJdW0NASF0oW0NIM10pW05IXUMoPU8pW0NIMl1uMVtjSF1bY0hdYyg9TylbbkhdYzE9Tw==

> <s_epik_cmdline>
J2VwaWtfcHl0aG9uJywgJy1waCcsICc3LjAnLCAnLXRuJywgJzgnLCAnLW1hJywgJzIwMCcsICctbWV0YWxfYmluZGluZycsICctaW1hZScsICc8aW5maWxlLm1hZT4nLCAnLW9tYWUnLCAnPG91dGZpbGUubWFlPic=

> <r_lp_tautomer_probability>
0.999537

> <r_epik_Ionization_Penalty>
3.08607

> <r_epik_Ionization_Penalty_Charging>
2.78879e-08

> <r_epik_Ionization_Penalty_Neutral>
3.08607

> <r_epik_State_Penalty>
3.08511

> <r_epik_Charging_Adjusted_Penalty>
3.08511

> <i_epik_Tot_Q>
-1

> <i_epik_Tot_abs_Q>
1

> <r_epik_Metal_State_Penalty>
0.460479

> <b_epik_Metal_Only>
1

> <s_lp_Force_Field>
OPLS_2005

> <r_lp_Energy>
12.6721

> <b_lp_Chiralities_Consistent>
1

> <s_lp_Variant>
AV-unprocessed.smi:2156-3

> <Gold.Version>
5.8.1

> <Gold.Id.Protein>
6NUR|6NUR_protein|mol2

> <Gold.PLP.Fitness>
42.1661

> <Gold.PLP.PLP>
-38.9973

> <Gold.PLP.part.hbond>
-4.0000

> <Gold.PLP.part.metal>
0.0000

> <Gold.PLP.part.buried>
0.3954

> <Gold.PLP.part.nonpolar>
-35.9129

> <Gold.PLP.part.repulsive>
1.2415

> <Gold.PLP.ligand.clash>
0.0000

> <Gold.PLP.ligand.torsion>
0.7617

> <Gold.PLP.Chemscore.Hbond>
1.5579

> <Gold.PLP.Chemscore.CHOScore>
0.0000

> <Gold.PLP.Chemscore.Metal>
0.0000

> <Gold.Chemscore.Hbonds>
donor molecule, donor type, donor heavy atom, donor atom, acceptor molecule, acceptor atom, score
      P1  H  8011  8017       L1    17  0.82
      P1  H 10752 10765       L1    14  0.69

> <Gold.PLP.Chemscore.Internal.Correction>
0.0186

> <Gold.Rescore>
     Score         DG    S(hbond)    S(metal)    S(lipo)     H(rot)  DE(clash)    DE(int)     intcor
      9.52     -12.38       0.99        0.00      77.61       2.14       0.07       2.79       ----

> <Gold.Chemscore.Fitness>
9.5238

> <Gold.Chemscore.DG>
-12.3801

> <Gold.Chemscore.ZeroCoef>
-5.4800

> <Gold.Chemscore.Hbond>
0.9852

> <Gold.Chemscore.Metal>
0.0000

> <Gold.Chemscore.Lipo>
77.6141

> <Gold.Chemscore.Internal_Hbond>
0.0000

> <Gold.Chemscore.DEClash>
0.0650

> <Gold.Chemscore.DEInternal>
2.7913

> <Gold.Chemscore.Rot>
2.1372

> <Gold.Chemscore.Internal.Correction>
   9.000000E+99

> <Gold.Chemscore.Hbonds>
donor molecule, donor type, donor heavy atom, donor atom, acceptor molecule, acceptor atom, score
      P1  H  8011  8017       L1    17  0.75
      P1  H 10752 10765       L1    14  0.67

> <Gold.Chemscore.Hbond.Weighted>
-3.2906

> <Gold.Chemscore.Metal.Weighted>
-0.0000

> <Gold.Chemscore.Lipo.Weighted>
-9.0809

> <Gold.Chemscore.Internal_Hbond.Weighted>
0.0000

> <Gold.Chemscore.DEClash.Weighted>
0.0650

> <Gold.Chemscore.DEInternal.Weighted>
2.7913

> <Gold.Chemscore.Rot.Weighted>
5.4713

> <Gold.Chemscore.Internal.Correction.Weighted>
   9.000000E+99

> <Gold.Protein.RotatedTorsions>
[ 6907 6896 6895 6894 ] final  154.93 input  -60.11 | X-H torsion
[ 7974 7965 7964 7962 ] final   62.87 input  175.53 | X-H torsion
[ 8008 7997 7996 7995 ] final  174.68 input   59.86 | X-H torsion
[ 10167 10162 10161 10158 ] final  179.59 input  -65.29 | X-H torsion
[ 10718 10713 10712 10709 ] final   20.46 input   66.30 | X-H torsion
[ 10763 10752 10751 10750 ] final  156.18 input  -60.55 | X-H torsion
[ 11005 11000 10999 10996 ] final  140.20 input  -57.11 | X-H torsion

> <Gold.Protein.ActiveResidues>
 VAL166  LYS551  ARG553  GLY616  TRP617  ASP618  TYR619  PRO620  LYS621  CYS622 
 ASP623  PHE694  ASN695  SER759  ASP760  ASP761  ALA762  ILE779  LEU786  VAL792 
 PHE793  MET794  SER795  GLU796  ALA797  LYS798  CYS799  TRP800  GLU811  SER814 

> <Gold.Protein.RotatedAtoms>
  152.0515  133.4021  159.4378 H   0  0  0  0  0  0  0  0  0  0  0  0  # atno 6907 bound_to 6896
  150.6870  134.3303  159.4833 H   0  0  0  0  0  0  0  0  0  0  0  0  # atno 6908 bound_to 6896
  152.1113  134.9272  160.0617 H   0  0  0  0  0  0  0  0  0  0  0  0  # atno 6909 bound_to 6896
  145.8684  139.3361  143.0777 H   0  0  0  0  0  0  0  0  0  0  0  0  # atno 7974 bound_to 7965
  156.0949  140.1428  156.9543 H   0  0  0  0  0  0  0  0  0  0  0  0  # atno 8008 bound_to 7997
  154.4665  140.0924  156.7080 H   0  0  0  0  0  0  0  0  0  0  0  0  # atno 8009 bound_to 7997
  155.4857  140.3446  155.4349 H   0  0  0  0  0  0  0  0  0  0  0  0  # atno 8010 bound_to 7997
  139.5343  144.2543  152.0759 H   0  0  0  0  0  0  0  0  0  0  0  0  # atno 10167 bound_to 10162
  157.1248  130.6565  149.5934 H   0  0  0  0  0  0  0  0  0  0  0  0  # atno 10718 bound_to 10713
  154.1802  135.2800  155.3054 H   0  0  0  0  0  0  0  0  0  0  0  0  # atno 10763 bound_to 10752
  154.6009  135.5530  153.7376 H   0  0  0  0  0  0  0  0  0  0  0  0  # atno 10764 bound_to 10752
  153.0140  135.6391  154.1941 H   0  0  0  0  0  0  0  0  0  0  0  0  # atno 10765 bound_to 10752
  140.0310  134.9352  157.0662 H   0  0  0  0  0  0  0  0  0  0  0  0  # atno 11005 bound_to 11000
  145.9166  140.9144  143.0426 LP  0  0  0  0  0  0  0  0  0  0  0  0  # atno 17320 bound_to 7965
  144.6726  140.1232  143.7448 LP  0  0  0  0  0  0  0  0  0  0  0  0  # atno 17321 bound_to 7965
  140.2011  144.4657  150.6431 LP  0  0  0  0  0  0  0  0  0  0  0  0  # atno 17342 bound_to 10162
  140.6540  143.2232  151.6011 LP  0  0  0  0  0  0  0  0  0  0  0  0  # atno 17343 bound_to 10162
  155.9821  130.4832  150.6861 LP  0  0  0  0  0  0  0  0  0  0  0  0  # atno 17370 bound_to 10713
  157.4445  131.0865  151.0910 LP  0  0  0  0  0  0  0  0  0  0  0  0  # atno 17371 bound_to 10713
  140.4225  134.1865  155.7165 LP  0  0  0  0  0  0  0  0  0  0  0  0  # atno 17394 bound_to 11000
  141.1831  133.8372  157.1187 LP  0  0  0  0  0  0  0  0  0  0  0  0  # atno 17395 bound_to 11000

$$$$
