AV-unprocessed.smi:1785|AV-procd|sdf|7201|dock2
  -GOLD-   22720 8443D 1   1.00000     0.00000
 Structure written by MMmdl.
 27 28  0  0  0  0  0  0  0  0  2 V2000
  151.3020  144.7822  158.9748 C   0  0  0  0  0  0  0  0  0  0  0  0
  151.9491  143.5812  159.6461 C   0  0  0  0  0  0  0  0  0  0  0  0
  152.4542  143.7126  160.9567 C   0  0  0  0  0  0  0  0  0  0  0  0
  153.0579  142.6039  161.5738 C   0  0  0  0  0  0  0  0  0  0  0  0
  153.1325  141.4043  160.8455 C   0  0  0  0  0  0  0  0  0  0  0  0
  152.6524  141.2703  159.5924 N   0  0  0  0  0  0  0  0  0  0  0  0
  152.0574  142.3259  158.9854 C   0  0  0  0  0  0  0  0  0  0  0  0
  151.6017  142.1502  157.7330 N   0  5  0  0  0  0  0  0  0  0  0  0
  151.7269  140.9515  157.1062 C   0  0  0  0  0  0  0  0  0  0  0  0
  152.5983  140.1189  157.3733 O   0  0  0  0  0  0  0  0  0  0  0  0
  150.7403  140.6815  156.0638 C   0  0  0  0  0  0  0  0  0  0  0  0
  150.0229  141.6975  155.5271 C   0  0  0  0  0  0  0  0  0  0  0  0
  149.0512  141.5250  154.5729 O   0  0  0  0  0  0  0  0  0  0  0  0
  148.6624  140.1735  154.3610 C   0  0  0  0  0  0  0  0  0  0  0  0
  149.8941  139.2574  154.3735 C   0  0  0  0  0  0  0  0  0  0  0  0
  150.5897  139.3899  155.6075 O   0  0  0  0  0  0  0  0  0  0  0  0
  151.3683  145.6724  159.6007 H   0  0  0  0  0  0  0  0  0  0  0  0
  150.2480  144.5838  158.7790 H   0  0  0  0  0  0  0  0  0  0  0  0
  151.7940  145.0009  158.0267 H   0  0  0  0  0  0  0  0  0  0  0  0
  152.3827  144.6519  161.4850 H   0  0  0  0  0  0  0  0  0  0  0  0
  153.4546  142.6716  162.5757 H   0  0  0  0  0  0  0  0  0  0  0  0
  153.5917  140.5285  161.2793 H   0  0  0  0  0  0  0  0  0  0  0  0
  150.1081  142.7344  155.8186 H   0  0  0  0  0  0  0  0  0  0  0  0
  147.9587  139.8753  155.1394 H   0  0  0  0  0  0  0  0  0  0  0  0
  148.1391  140.0974  153.4079 H   0  0  0  0  0  0  0  0  0  0  0  0
  149.5987  138.2165  154.2405 H   0  0  0  0  0  0  0  0  0  0  0  0
  150.5666  139.5089  153.5523 H   0  0  0  0  0  0  0  0  0  0  0  0
  1  2  1  0  0  0  0
  1 17  1  0  0  0  0
  1 18  1  0  0  0  0
  1 19  1  0  0  0  0
  2  7  1  0  0  0  0
  2  3  2  0  0  0  0
  3  4  1  0  0  0  0
  3 20  1  0  0  0  0
  4  5  2  0  0  0  0
  4 21  1  0  0  0  0
  5  6  1  0  0  0  0
  5 22  1  0  0  0  0
  6  7  2  0  0  0  0
  7  8  1  0  0  0  0
  8  9  1  0  0  0  0
  9 10  2  0  0  0  0
  9 11  1  0  0  0  0
 11 16  1  0  0  0  0
 11 12  2  0  0  0  0
 12 13  1  0  0  0  0
 12 23  1  0  0  0  0
 13 14  1  0  0  0  0
 14 15  1  0  0  0  0
 14 24  1  0  0  0  0
 14 25  1  0  0  0  0
 15 16  1  0  0  0  0
 15 26  1  0  0  0  0
 15 27  1  0  0  0  0
M  CHG  1   8  -1
M  END
> <s_m_source_file>
AV-unprocessed.smi

> <i_m_source_file_index>
1785

> <i_lp_mmshare_version>
43012

> <i_f3d_flags>
0

> <s_epik_input>
W0NIM11jMVtjSF1bY0hdW2NIXW5jMVtOSF1DKD1PKUMyPVtDSF1PW0NIMl1bQ0gyXU8y

> <s_epik_cmdline>
J2VwaWtfcHl0aG9uJywgJy1waCcsICc3LjAnLCAnLXRuJywgJzgnLCAnLW1hJywgJzIwMCcsICctbWV0YWxfYmluZGluZycsICctaW1hZScsICc8aW5maWxlLm1hZT4nLCAnLW9tYWUnLCAnPG91dGZpbGUubWFlPic=

> <r_lp_tautomer_probability>
1

> <r_epik_Ionization_Penalty>
11.0036

> <r_epik_Ionization_Penalty_Charging>
5.9985

> <r_epik_Ionization_Penalty_Neutral>
5.00509

> <r_epik_State_Penalty>
5.99847

> <r_epik_Charging_Adjusted_Penalty>
11.997

> <i_epik_Tot_Q>
-1

> <i_epik_Tot_abs_Q>
1

> <r_epik_Metal_State_Penalty>
1.95147

> <b_epik_Metal_Only>
1

> <s_lp_Force_Field>
OPLS_2005

> <r_lp_Energy>
4.89912

> <b_lp_Chiralities_Consistent>
1

> <s_lp_Variant>
AV-unprocessed.smi:1785-2

> <Gold.Version>
5.8.1

> <Gold.Id.Protein>
6NUR|6NUR_protein|mol2

> <Gold.PLP.Fitness>
40.5288

> <Gold.PLP.PLP>
-34.8427

> <Gold.PLP.part.hbond>
-1.3886

> <Gold.PLP.part.metal>
0.0000

> <Gold.PLP.part.buried>
-4.6375

> <Gold.PLP.part.nonpolar>
-28.9905

> <Gold.PLP.part.repulsive>
0.2108

> <Gold.PLP.ligand.clash>
0.0000

> <Gold.PLP.ligand.torsion>
0.2613

> <Gold.PLP.Chemscore.Hbond>
1.0000

> <Gold.PLP.Chemscore.CHOScore>
1.0000

> <Gold.PLP.Chemscore.Metal>
0.0000

> <Gold.Chemscore.Hbonds>
donor molecule, donor type, donor heavy atom, donor atom, acceptor molecule, acceptor atom, score
      P1  H  7997  8010       L1    10  1.00
      L1  C    12    23       P1  8028  1.00

> <Gold.PLP.Chemscore.Internal.Correction>
0.2087

> <Gold.Rescore>
     Score         DG    S(hbond)    S(metal)    S(lipo)     H(rot)  DE(clash)    DE(int)     intcor
     17.18     -19.59       1.18        0.00      86.85       0.00       0.33       2.09       ----

> <Gold.Chemscore.Fitness>
17.1751

> <Gold.Chemscore.DG>
-19.5890

> <Gold.Chemscore.ZeroCoef>
-5.4800

> <Gold.Chemscore.Hbond>
1.1817

> <Gold.Chemscore.Metal>
0.0000

> <Gold.Chemscore.Lipo>
86.8542

> <Gold.Chemscore.Internal_Hbond>
0.0000

> <Gold.Chemscore.DEClash>
0.3268

> <Gold.Chemscore.DEInternal>
2.0871

> <Gold.Chemscore.Rot>
0.0000

> <Gold.Chemscore.Internal.Correction>
   9.000000E+99

> <Gold.Chemscore.Hbonds>
donor molecule, donor type, donor heavy atom, donor atom, acceptor molecule, acceptor atom, score
      P1  H  7997  8010       L1    10  0.96

> <Gold.Chemscore.Hbond.Weighted>
-3.9470

> <Gold.Chemscore.Metal.Weighted>
-0.0000

> <Gold.Chemscore.Lipo.Weighted>
-10.1619

> <Gold.Chemscore.Internal_Hbond.Weighted>
0.0000

> <Gold.Chemscore.DEClash.Weighted>
0.3268

> <Gold.Chemscore.DEInternal.Weighted>
2.0871

> <Gold.Chemscore.Rot.Weighted>
0.0000

> <Gold.Chemscore.Internal.Correction.Weighted>
   9.000000E+99

> <Gold.Protein.RotatedTorsions>
[ 6907 6896 6895 6894 ] final  -19.66 input  -60.11 | X-H torsion
[ 7974 7965 7964 7962 ] final   80.56 input  175.53 | X-H torsion
[ 8008 7997 7996 7995 ] final   50.18 input   59.86 | X-H torsion
[ 10167 10162 10161 10158 ] final   26.21 input  -65.29 | X-H torsion
[ 10718 10713 10712 10709 ] final   19.62 input   66.30 | X-H torsion
[ 10763 10752 10751 10750 ] final   -4.29 input  -60.55 | X-H torsion
[ 11005 11000 10999 10996 ] final -152.33 input  -57.11 | X-H torsion

> <Gold.Protein.ActiveResidues>
 VAL166  LYS551  ARG553  GLY616  TRP617  ASP618  TYR619  PRO620  LYS621  CYS622 
 ASP623  PHE694  ASN695  SER759  ASP760  ASP761  ALA762  ILE779  LEU786  VAL792 
 PHE793  MET794  SER795  GLU796  ALA797  LYS798  CYS799  TRP800  GLU811  SER814 

> <Gold.Protein.RotatedAtoms>
  151.2599  135.0650  159.9093 H   0  0  0  0  0  0  0  0  0  0  0  0  # atno 6907 bound_to 6896
  152.5367  134.0242  159.8006 H   0  0  0  0  0  0  0  0  0  0  0  0  # atno 6908 bound_to 6896
  151.0464  133.5612  159.2677 H   0  0  0  0  0  0  0  0  0  0  0  0  # atno 6909 bound_to 6896
  145.6496  139.2444  143.1984 H   0  0  0  0  0  0  0  0  0  0  0  0  # atno 7974 bound_to 7965
  155.4145  140.3444  155.4266 H   0  0  0  0  0  0  0  0  0  0  0  0  # atno 8008 bound_to 7997
  156.1429  140.1547  156.8923 H   0  0  0  0  0  0  0  0  0  0  0  0  # atno 8009 bound_to 7997
  154.4986  140.0821  156.7731 H   0  0  0  0  0  0  0  0  0  0  0  0  # atno 8010 bound_to 7997
  140.5041  144.0266  150.6345 H   0  0  0  0  0  0  0  0  0  0  0  0  # atno 10167 bound_to 10162
  157.1130  130.6517  149.5902 H   0  0  0  0  0  0  0  0  0  0  0  0  # atno 10718 bound_to 10713
  153.3828  135.6999  153.6552 H   0  0  0  0  0  0  0  0  0  0  0  0  # atno 10763 bound_to 10752
  153.5156  135.3622  155.2608 H   0  0  0  0  0  0  0  0  0  0  0  0  # atno 10764 bound_to 10752
  154.8694  135.4145  154.3130 H   0  0  0  0  0  0  0  0  0  0  0  0  # atno 10765 bound_to 10752
  140.7201  134.3737  157.5185 H   0  0  0  0  0  0  0  0  0  0  0  0  # atno 11005 bound_to 11000
  146.1214  140.7304  142.9456 LP  0  0  0  0  0  0  0  0  0  0  0  0  # atno 17320 bound_to 7965
  144.7127  140.4099  143.7068 LP  0  0  0  0  0  0  0  0  0  0  0  0  # atno 17321 bound_to 7965
  140.3571  143.2929  152.0424 LP  0  0  0  0  0  0  0  0  0  0  0  0  # atno 17342 bound_to 10162
  139.4879  144.6331  151.7030 LP  0  0  0  0  0  0  0  0  0  0  0  0  # atno 17343 bound_to 10162
  155.9846  130.4871  150.6990 LP  0  0  0  0  0  0  0  0  0  0  0  0  # atno 17370 bound_to 10713
  157.4543  131.0876  151.0813 LP  0  0  0  0  0  0  0  0  0  0  0  0  # atno 17371 bound_to 10713
  139.8850  134.8949  156.2668 LP  0  0  0  0  0  0  0  0  0  0  0  0  # atno 17394 bound_to 11000
  141.0011  133.7151  156.0962 LP  0  0  0  0  0  0  0  0  0  0  0  0  # atno 17395 bound_to 11000

$$$$
