AV-unprocessed.smi:610|AV-procd|sdf|3055|dock1
  -GOLD-   2262023573D 1   1.00000     0.00000
 Structure written by MMmdl.
 38 39  0  0  0  0  0  0  0  0  2 V2000
  148.3946  141.9129  157.3791 C   0  0  0  0  0  0  0  0  0  0  0  0
  149.6675  141.0736  157.5639 C   0  0  2  0  0  0  0  0  0  0  0  0
  150.9380  141.8900  157.2582 C   0  0  0  0  0  0  0  0  0  0  0  0
  151.2489  142.8317  158.3184 N   0  0  0  0  0  0  0  0  0  0  0  0
  152.3790  142.8427  159.1251 C   0  0  0  0  0  0  0  0  0  0  0  0
  152.2495  143.9233  159.9681 C   0  0  0  0  0  0  0  0  0  0  0  0
  151.0544  144.5870  159.6995 N   0  0  0  0  0  0  0  0  0  0  0  0
  150.5132  143.8787  158.7172 C   0  0  0  0  0  0  0  0  0  0  0  0
  149.6189  139.8964  156.7000 N   0  0  0  0  0  0  0  0  0  0  0  0
  149.9076  139.8679  155.3889 C   0  0  0  0  0  0  0  0  0  0  0  0
  150.3074  140.8606  154.7796 O   0  0  0  0  0  0  0  0  0  0  0  0
  149.6959  138.5415  154.6213 C   0  0  0  0  0  0  0  0  0  0  0  0
  148.7732  138.8269  153.5066 N   0  3  0  0  0  0  0  0  0  0  0  0
  151.0357  137.9861  154.1086 C   0  0  0  0  0  0  0  0  0  0  0  0
  151.6197  137.1882  155.2832 C   0  0  0  0  0  0  0  0  0  0  0  0
  150.4237  136.7710  156.1543 C   0  0  0  0  0  0  0  0  0  0  0  0
  149.1799  137.3671  155.4797 C   0  0  0  0  0  0  0  0  0  0  0  0
  148.4130  142.7974  158.0165 H   0  0  0  0  0  0  0  0  0  0  0  0
  147.5032  141.3410  157.6397 H   0  0  0  0  0  0  0  0  0  0  0  0
  148.2858  142.2483  156.3473 H   0  0  0  0  0  0  0  0  0  0  0  0
  149.7168  140.7557  158.6071 H   0  0  0  0  0  0  0  0  0  0  0  0
  151.7945  141.2303  157.1105 H   0  0  0  0  0  0  0  0  0  0  0  0
  150.8120  142.4524  156.3323 H   0  0  0  0  0  0  0  0  0  0  0  0
  153.1615  142.1038  159.0321 H   0  0  0  0  0  0  0  0  0  0  0  0
  152.9196  144.2723  160.7401 H   0  0  0  0  0  0  0  0  0  0  0  0
  149.5643  144.1349  158.2690 H   0  0  0  0  0  0  0  0  0  0  0  0
  149.3059  139.0379  157.1299 H   0  0  0  0  0  0  0  0  0  0  0  0
  147.9461  139.2873  153.8584 H   0  0  0  0  0  0  0  0  0  0  0  0
  148.5138  137.9580  153.0612 H   0  0  0  0  0  0  0  0  0  0  0  0
  150.8614  137.3099  153.2700 H   0  0  0  0  0  0  0  0  0  0  0  0
  151.7250  138.7552  153.7564 H   0  0  0  0  0  0  0  0  0  0  0  0
  152.1931  136.3282  154.9356 H   0  0  0  0  0  0  0  0  0  0  0  0
  152.2963  137.8162  155.8643 H   0  0  0  0  0  0  0  0  0  0  0  0
  150.3443  135.6870  156.2443 H   0  0  0  0  0  0  0  0  0  0  0  0
  150.5412  137.1723  157.1617 H   0  0  0  0  0  0  0  0  0  0  0  0
  148.4036  137.6400  156.1962 H   0  0  0  0  0  0  0  0  0  0  0  0
  148.7401  136.6084  154.8300 H   0  0  0  0  0  0  0  0  0  0  0  0
  149.2332  139.4227  152.8332 H   0  0  0  0  0  0  0  0  0  0  0  0
  1  2  1  0  0  0  0
  1 18  1  0  0  0  0
  1 19  1  0  0  0  0
  1 20  1  0  0  0  0
  2  3  1  0  0  0  0
  2  9  1  0  0  0  0
  2 21  1  0  0  0  0
  3  4  1  0  0  0  0
  3 22  1  0  0  0  0
  3 23  1  0  0  0  0
  4  8  1  0  0  0  0
  4  5  1  0  0  0  0
  5  6  2  0  0  0  0
  5 24  1  0  0  0  0
  6  7  1  0  0  0  0
  6 25  1  0  0  0  0
  7  8  2  0  0  0  0
  8 26  1  0  0  0  0
  9 10  1  0  0  0  0
  9 27  1  0  0  0  0
 10 11  2  0  0  0  0
 10 12  1  0  0  0  0
 12 17  1  0  0  0  0
 12 13  1  0  0  0  0
 12 14  1  0  0  0  0
 13 28  1  0  0  0  0
 13 29  1  0  0  0  0
 13 38  1  0  0  0  0
 14 15  1  0  0  0  0
 14 30  1  0  0  0  0
 14 31  1  0  0  0  0
 15 16  1  0  0  0  0
 15 32  1  0  0  0  0
 15 33  1  0  0  0  0
 16 17  1  0  0  0  0
 16 34  1  0  0  0  0
 16 35  1  0  0  0  0
 17 36  1  0  0  0  0
 17 37  1  0  0  0  0
M  CHG  1  13   1
M  END
> <s_m_source_file>
AV-unprocessed.smi

> <i_m_source_file_index>
610

> <i_lp_mmshare_version>
43012

> <i_f3d_flags>
0

> <s_epik_input>
W2NIXTFuW2NIXVtjSF1uMVtDSDJdW0NAQEhdKFtDSDNdKVtOSF1DKD1PKUMyKFtOSDJdKVtDSDJdW0NIMl1bQ0gyXVtDSDJdMg==

> <s_epik_cmdline>
J2VwaWtfcHl0aG9uJywgJy1waCcsICc3LjAnLCAnLXRuJywgJzgnLCAnLW1hJywgJzIwMCcsICctbWV0YWxfYmluZGluZycsICctaW1hZScsICc8aW5maWxlLm1hZT4nLCAnLW9tYWUnLCAnPG91dGZpbGUubWFlPic=

> <r_lp_tautomer_probability>
1

> <r_epik_Ionization_Penalty>
0.661147

> <r_epik_Ionization_Penalty_Charging>
0.661145

> <r_epik_Ionization_Penalty_Neutral>
1.19451e-06

> <r_epik_State_Penalty>
0.679243

> <r_epik_Charging_Adjusted_Penalty>
1.34039

> <i_epik_Tot_Q>
1

> <i_epik_Tot_abs_Q>
1

> <r_epik_Metal_State_Penalty>
0.372892

> <b_epik_Metal_Only>
0

> <s_lp_Force_Field>
OPLS_2005

> <r_lp_Energy>
25.3563

> <b_lp_Chiralities_Consistent>
1

> <s_lp_Variant>
AV-unprocessed.smi:610-3

> <Gold.Version>
5.8.1

> <Gold.Id.Protein>
6NUR|6NUR_protein|mol2

> <Gold.PLP.Fitness>
42.8240

> <Gold.PLP.PLP>
-28.7070

> <Gold.PLP.part.hbond>
-3.0000

> <Gold.PLP.part.metal>
0.0000

> <Gold.PLP.part.buried>
-2.5015

> <Gold.PLP.part.nonpolar>
-23.8404

> <Gold.PLP.part.repulsive>
0.3248

> <Gold.PLP.ligand.clash>
0.0000

> <Gold.PLP.ligand.torsion>
0.4343

> <Gold.PLP.Chemscore.Hbond>
3.7680

> <Gold.PLP.Chemscore.CHOScore>
1.1941

> <Gold.PLP.Chemscore.Metal>
0.0000

> <Gold.Chemscore.Hbonds>
donor molecule, donor type, donor heavy atom, donor atom, acceptor molecule, acceptor atom, score
      L1  H    13    29       P1  7948  1.50
      L1  H    13    38       P1  7957  1.00
      P1  H  7989  7998       L1    11  0.77
      L1  C     8    26       P1  8028  0.31
      L1  C     8    26       P1  8029  0.55

> <Gold.PLP.Chemscore.Internal.Correction>
0.0991

> <Gold.Rescore>
     Score         DG    S(hbond)    S(metal)    S(lipo)     H(rot)  DE(clash)    DE(int)     intcor
     15.15     -17.18       2.80        0.00      63.83       2.00       0.47       1.56       ----

> <Gold.Chemscore.Fitness>
15.1456

> <Gold.Chemscore.DG>
-17.1774

> <Gold.Chemscore.ZeroCoef>
-5.4800

> <Gold.Chemscore.Hbond>
2.7971

> <Gold.Chemscore.Metal>
0.0000

> <Gold.Chemscore.Lipo>
63.8258

> <Gold.Chemscore.Internal_Hbond>
0.0000

> <Gold.Chemscore.DEClash>
0.4675

> <Gold.Chemscore.DEInternal>
1.5642

> <Gold.Chemscore.Rot>
1.9972

> <Gold.Chemscore.Internal.Correction>
   9.000000E+99

> <Gold.Chemscore.Hbonds>
donor molecule, donor type, donor heavy atom, donor atom, acceptor molecule, acceptor atom, score
      L1  H    13    29       P1  7948  0.71
      L1  H    13    38       P1  7957  0.98
      P1  H  7989  7998       L1    11  0.78

> <Gold.Chemscore.Hbond.Weighted>
-9.3425

> <Gold.Chemscore.Metal.Weighted>
-0.0000

> <Gold.Chemscore.Lipo.Weighted>
-7.4676

> <Gold.Chemscore.Internal_Hbond.Weighted>
0.0000

> <Gold.Chemscore.DEClash.Weighted>
0.4675

> <Gold.Chemscore.DEInternal.Weighted>
1.5642

> <Gold.Chemscore.Rot.Weighted>
5.1127

> <Gold.Chemscore.Internal.Correction.Weighted>
   9.000000E+99

> <Gold.Protein.RotatedTorsions>
[ 6907 6896 6895 6894 ] final  145.43 input  -60.11 | X-H torsion
[ 7974 7965 7964 7962 ] final  121.49 input  175.53 | X-H torsion
[ 8008 7997 7996 7995 ] final   45.20 input   59.86 | X-H torsion
[ 10167 10162 10161 10158 ] final   75.34 input  -65.29 | X-H torsion
[ 10718 10713 10712 10709 ] final  -88.90 input   66.30 | X-H torsion
[ 10763 10752 10751 10750 ] final  -66.40 input  -60.55 | X-H torsion
[ 11005 11000 10999 10996 ] final    0.99 input  -57.11 | X-H torsion

> <Gold.Protein.ActiveResidues>
 VAL166  LYS551  ARG553  GLY616  TRP617  ASP618  TYR619  PRO620  LYS621  CYS622 
 ASP623  PHE694  ASN695  SER759  ASP760  ASP761  ALA762  ILE779  LEU786  VAL792 
 PHE793  MET794  SER795  GLU796  ALA797  LYS798  CYS799  TRP800  GLU811  SER814 

> <Gold.Protein.RotatedAtoms>
  152.1810  133.4707  159.4957 H   0  0  0  0  0  0  0  0  0  0  0  0  # atno 6907 bound_to 6896
  150.6934  134.1833  159.4266 H   0  0  0  0  0  0  0  0  0  0  0  0  # atno 6908 bound_to 6896
  151.9744  135.0060  160.0605 H   0  0  0  0  0  0  0  0  0  0  0  0  # atno 6909 bound_to 6896
  145.1187  139.3404  143.4725 H   0  0  0  0  0  0  0  0  0  0  0  0  # atno 7974 bound_to 7965
  155.3319  140.3403  155.4239 H   0  0  0  0  0  0  0  0  0  0  0  0  # atno 8008 bound_to 7997
  156.1857  140.1680  156.8226 H   0  0  0  0  0  0  0  0  0  0  0  0  # atno 8009 bound_to 7997
  154.5384  140.0730  156.8450 H   0  0  0  0  0  0  0  0  0  0  0  0  # atno 8010 bound_to 7997
  140.0040  144.5664  150.7713 H   0  0  0  0  0  0  0  0  0  0  0  0  # atno 10167 bound_to 10162
  155.9984  130.4853  150.5090 H   0  0  0  0  0  0  0  0  0  0  0  0  # atno 10718 bound_to 10713
  154.3593  135.6119  153.5682 H   0  0  0  0  0  0  0  0  0  0  0  0  # atno 10763 bound_to 10752
  152.9794  135.5811  154.4652 H   0  0  0  0  0  0  0  0  0  0  0  0  # atno 10764 bound_to 10752
  154.4387  135.2849  155.1840 H   0  0  0  0  0  0  0  0  0  0  0  0  # atno 10765 bound_to 10752
  140.6205  133.9666  155.8222 H   0  0  0  0  0  0  0  0  0  0  0  0  # atno 11005 bound_to 11000
  146.3522  140.1137  142.8603 LP  0  0  0  0  0  0  0  0  0  0  0  0  # atno 17320 bound_to 7965
  145.0765  140.9191  143.4851 LP  0  0  0  0  0  0  0  0  0  0  0  0  # atno 17321 bound_to 7965
  140.7407  143.2809  151.3603 LP  0  0  0  0  0  0  0  0  0  0  0  0  # atno 17342 bound_to 10162
  139.6251  144.0830  152.2427 LP  0  0  0  0  0  0  0  0  0  0  0  0  # atno 17343 bound_to 10162
  157.3065  131.0655  151.2031 LP  0  0  0  0  0  0  0  0  0  0  0  0  # atno 17370 bound_to 10713
  157.2992  130.6834  149.6155 LP  0  0  0  0  0  0  0  0  0  0  0  0  # atno 17371 bound_to 10713
  141.0746  134.0154  157.3477 LP  0  0  0  0  0  0  0  0  0  0  0  0  # atno 17394 bound_to 11000
  139.9155  135.0196  156.7865 LP  0  0  0  0  0  0  0  0  0  0  0  0  # atno 17395 bound_to 11000

$$$$
