AV-unprocessed.smi:445|AV-procd|sdf|2592|dock5
  -GOLD-   2262022583D 1   1.00000     0.00000
 Structure written by MMmdl.
 44 45  0  0  0  0  0  0  0  0  3 V2000
  152.5661  142.7230  162.1759 C   0  0  0  0  0  0  0  0  0  0  0  0
  152.0812  143.3286  160.8459 C   0  0  1  0  0  0  0  0  0  0  0  0
  152.4409  144.8260  160.7658 C   0  0  0  0  0  0  0  0  0  0  0  0
  151.9479  145.4626  159.4574 C   0  0  0  0  0  0  0  0  0  0  0  0
  152.4999  144.7127  158.2375 C   0  0  0  0  0  0  0  0  0  0  0  0
  152.1409  143.2209  158.2982 C   0  0  0  0  0  0  0  0  0  0  0  0
  152.6287  142.5709  159.6105 C   0  0  2  0  0  0  0  0  0  0  0  0
  152.2161  141.1716  159.6592 N   0  0  0  0  0  0  0  0  0  0  0  0
  152.9905  140.1095  159.3802 C   0  0  0  0  0  0  0  0  0  0  0  0
  154.1633  140.2152  159.0239 O   0  0  0  0  0  0  0  0  0  0  0  0
  152.3781  138.7054  159.5267 C   0  0  0  0  0  0  0  0  0  0  0  0
  151.2694  138.4109  158.5971 N   0  0  0  0  0  0  0  0  0  0  0  0
  150.0602  137.9983  159.1842 C   0  0  0  0  0  0  0  0  0  0  0  0
  148.9708  137.7045  158.4532 C   0  0  0  0  0  0  0  0  0  0  0  0
  147.7354  137.2903  159.0830 N   0  3  0  0  0  0  0  0  0  0  0  0
  147.5593  137.5568  160.2676 O   0  0  0  0  0  0  0  0  0  0  0  0
  146.9008  136.6854  158.4167 O   0  5  0  0  0  0  0  0  0  0  0  0
  149.0703  137.8232  157.0132 C   0  0  0  0  0  0  0  0  0  0  0  0
  150.2252  138.2263  156.4242 C   0  0  0  0  0  0  0  0  0  0  0  0
  150.3686  138.3699  154.9579 C   0  0  0  0  0  0  0  0  0  0  0  0
  149.6230  137.5169  154.2441 N   0  0  0  0  0  0  0  0  0  0  0  0
  151.0860  139.1719  154.3604 O   0  0  0  0  0  0  0  0  0  0  0  0
  151.4228  138.5577  157.2435 C   0  0  0  0  0  0  0  0  0  0  0  0
  152.5014  138.9476  156.7890 O   0  0  0  0  0  0  0  0  0  0  0  0
  153.6543  142.7396  162.2443 H   0  0  0  0  0  0  0  0  0  0  0  0
  152.2407  141.6889  162.2927 H   0  0  0  0  0  0  0  0  0  0  0  0
  152.1719  143.2810  163.0256 H   0  0  0  0  0  0  0  0  0  0  0  0
  150.9926  143.2521  160.8326 H   0  0  0  0  0  0  0  0  0  0  0  0
  152.0083  145.3593  161.6129 H   0  0  0  0  0  0  0  0  0  0  0  0
  153.5220  144.9497  160.8443 H   0  0  0  0  0  0  0  0  0  0  0  0
  150.8575  145.4520  159.4322 H   0  0  0  0  0  0  0  0  0  0  0  0
  152.2481  146.5099  159.4169 H   0  0  0  0  0  0  0  0  0  0  0  0
  152.1065  145.1530  157.3209 H   0  0  0  0  0  0  0  0  0  0  0  0
  153.5838  144.8273  158.1960 H   0  0  0  0  0  0  0  0  0  0  0  0
  151.0595  143.1053  158.2091 H   0  0  0  0  0  0  0  0  0  0  0  0
  152.5761  142.7100  157.4385 H   0  0  0  0  0  0  0  0  0  0  0  0
  153.7194  142.6162  159.6390 H   0  0  0  0  0  0  0  0  0  0  0  0
  151.2628  140.9954  159.9408 H   0  0  0  0  0  0  0  0  0  0  0  0
  153.1767  137.9693  159.4206 H   0  0  0  0  0  0  0  0  0  0  0  0
  152.0393  138.5931  160.5577 H   0  0  0  0  0  0  0  0  0  0  0  0
  150.0816  137.9475  160.2636 H   0  0  0  0  0  0  0  0  0  0  0  0
  148.1965  137.5862  156.4248 H   0  0  0  0  0  0  0  0  0  0  0  0
  149.6508  137.5393  153.2353 H   0  0  0  0  0  0  0  0  0  0  0  0
  149.0307  136.8526  154.7214 H   0  0  0  0  0  0  0  0  0  0  0  0
  1  2  1  0  0  0  0
  1 25  1  0  0  0  0
  1 26  1  0  0  0  0
  1 27  1  0  0  0  0
  2  7  1  0  0  0  0
  2  3  1  0  0  0  0
  2 28  1  0  0  0  0
  3  4  1  0  0  0  0
  3 29  1  0  0  0  0
  3 30  1  0  0  0  0
  4  5  1  0  0  0  0
  4 31  1  0  0  0  0
  4 32  1  0  0  0  0
  5  6  1  0  0  0  0
  5 33  1  0  0  0  0
  5 34  1  0  0  0  0
  6  7  1  0  0  0  0
  6 35  1  0  0  0  0
  6 36  1  0  0  0  0
  7  8  1  0  0  0  0
  7 37  1  0  0  0  0
  8  9  1  0  0  0  0
  8 38  1  0  0  0  0
  9 10  2  0  0  0  0
  9 11  1  0  0  0  0
 11 12  1  0  0  0  0
 11 39  1  0  0  0  0
 11 40  1  0  0  0  0
 12 23  1  0  0  0  0
 12 13  1  0  0  0  0
 13 14  2  0  0  0  0
 13 41  1  0  0  0  0
 14 15  1  0  0  0  0
 14 18  1  0  0  0  0
 15 16  2  0  0  0  0
 15 17  1  0  0  0  0
 18 19  2  0  0  0  0
 18 42  1  0  0  0  0
 19 20  1  0  0  0  0
 19 23  1  0  0  0  0
 20 21  1  0  0  0  0
 20 22  2  0  0  0  0
 21 43  1  0  0  0  0
 21 44  1  0  0  0  0
 23 24  2  0  0  0  0
M  CHG  1  15   1
M  CHG  1  17  -1
M  END
> <s_m_source_file>
AV-unprocessed.smi

> <i_m_source_file_index>
445

> <i_lp_mmshare_version>
43012

> <i_f3d_flags>
0

> <s_epik_input>
W0NIM11bQ0BASF0xW0NIMl1bQ0gyXVtDSDJdW0NIMl1bQ0BIXTFbTkhdQyg9TylbQ0gyXW4yW2NIXWMoW04rXSg9TylbTy1dKVtjSF1jKGMyPU8pQyg9TylbTkgyXQ==

> <s_epik_cmdline>
J2VwaWtfcHl0aG9uJywgJy1waCcsICc3LjAnLCAnLXRuJywgJzgnLCAnLW1hJywgJzIwMCcsICctbWV0YWxfYmluZGluZycsICctaW1hZScsICc8aW5maWxlLm1hZT4nLCAnLW9tYWUnLCAnPG91dGZpbGUubWFlPic=

> <r_lp_tautomer_probability>
1

> <r_epik_Ionization_Penalty>
2.81321e-06

> <r_epik_Ionization_Penalty_Charging>
2.43777e-12

> <r_epik_Ionization_Penalty_Neutral>
2.81321e-06

> <r_epik_State_Penalty>
-0

> <r_epik_Charging_Adjusted_Penalty>
2.43777e-12

> <i_epik_Tot_Q>
0

> <i_epik_Tot_abs_Q>
2

> <r_epik_Metal_State_Penalty>
-0

> <b_epik_Metal_Only>
0

> <s_lp_Force_Field>
OPLS_2005

> <r_lp_Energy>
28.9067

> <b_lp_Chiralities_Consistent>
1

> <s_lp_Variant>
AV-unprocessed.smi:445-4

> <Gold.Version>
5.8.1

> <Gold.Id.Protein>
6NUR|6NUR_protein|mol2

> <Gold.PLP.Fitness>
54.3251

> <Gold.PLP.PLP>
-44.0919

> <Gold.PLP.part.hbond>
-6.0000

> <Gold.PLP.part.metal>
0.0000

> <Gold.PLP.part.buried>
-4.2794

> <Gold.PLP.part.nonpolar>
-32.7067

> <Gold.PLP.part.repulsive>
0.2968

> <Gold.PLP.ligand.clash>
0.0000

> <Gold.PLP.ligand.torsion>
0.8764

> <Gold.PLP.Chemscore.Hbond>
3.9752

> <Gold.PLP.Chemscore.CHOScore>
0.0000

> <Gold.PLP.Chemscore.Metal>
0.0000

> <Gold.Chemscore.Hbonds>
donor molecule, donor type, donor heavy atom, donor atom, acceptor molecule, acceptor atom, score
      L1  H    21    43       P1  7948  0.64
      P1  H  6931  6943       L1    16  0.17
      P1  H  6934  6947       L1    16  0.90
      P1  H  7989  7998       L1    22  1.00
      P1  H  7997  8010       L1    24  0.60

> <Gold.PLP.Chemscore.Internal.Correction>
0.0603

> <Gold.Rescore>
     Score         DG    S(hbond)    S(metal)    S(lipo)     H(rot)  DE(clash)    DE(int)     intcor
     20.18     -26.02       3.84        0.00     103.40       1.71       1.35       4.48       ----

> <Gold.Chemscore.Fitness>
20.1802

> <Gold.Chemscore.DG>
-26.0151

> <Gold.Chemscore.ZeroCoef>
-5.4800

> <Gold.Chemscore.Hbond>
3.8385

> <Gold.Chemscore.Metal>
0.0000

> <Gold.Chemscore.Lipo>
103.4023

> <Gold.Chemscore.Internal_Hbond>
0.0000

> <Gold.Chemscore.DEClash>
1.3529

> <Gold.Chemscore.DEInternal>
4.4821

> <Gold.Chemscore.Rot>
1.7123

> <Gold.Chemscore.Internal.Correction>
   9.000000E+99

> <Gold.Chemscore.Hbonds>
donor molecule, donor type, donor heavy atom, donor atom, acceptor molecule, acceptor atom, score
      L1  H    21    43       P1  7948  0.46
      P1  H  6931  6943       L1    16  0.18
      P1  H  6934  6947       L1    16  0.88
      P1  H  7989  7998       L1    22  0.98
      P1  H  7997  8010       L1    24  0.60

> <Gold.Chemscore.Hbond.Weighted>
-12.8205

> <Gold.Chemscore.Metal.Weighted>
-0.0000

> <Gold.Chemscore.Lipo.Weighted>
-12.0981

> <Gold.Chemscore.Internal_Hbond.Weighted>
0.0000

> <Gold.Chemscore.DEClash.Weighted>
1.3529

> <Gold.Chemscore.DEInternal.Weighted>
4.4821

> <Gold.Chemscore.Rot.Weighted>
4.3835

> <Gold.Chemscore.Internal.Correction.Weighted>
   9.000000E+99

> <Gold.Protein.RotatedTorsions>
[ 6907 6896 6895 6894 ] final -161.17 input  -60.11 | X-H torsion
[ 7974 7965 7964 7962 ] final  -48.91 input  175.53 | X-H torsion
[ 8008 7997 7996 7995 ] final   67.53 input   59.86 | X-H torsion
[ 10167 10162 10161 10158 ] final   44.33 input  -65.29 | X-H torsion
[ 10718 10713 10712 10709 ] final  166.14 input   66.30 | X-H torsion
[ 10763 10752 10751 10750 ] final  145.68 input  -60.55 | X-H torsion
[ 11005 11000 10999 10996 ] final -142.69 input  -57.11 | X-H torsion

> <Gold.Protein.ActiveResidues>
 VAL166  LYS551  ARG553  GLY616  TRP617  ASP618  TYR619  PRO620  LYS621  CYS622 
 ASP623  PHE694  ASN695  SER759  ASP760  ASP761  ALA762  ILE779  LEU786  VAL792 
 PHE793  MET794  SER795  GLU796  ALA797  LYS798  CYS799  TRP800  GLU811  SER814 

> <Gold.Protein.RotatedAtoms>
  151.3605  133.3891  159.2689 H   0  0  0  0  0  0  0  0  0  0  0  0  # atno 6907 bound_to 6896
  150.9729  134.9100  159.7809 H   0  0  0  0  0  0  0  0  0  0  0  0  # atno 6908 bound_to 6896
  152.5191  134.3568  159.9323 H   0  0  0  0  0  0  0  0  0  0  0  0  # atno 6909 bound_to 6896
  145.9462  140.7616  142.9527 H   0  0  0  0  0  0  0  0  0  0  0  0  # atno 7974 bound_to 7965
  155.6942  140.3496  155.4906 H   0  0  0  0  0  0  0  0  0  0  0  0  # atno 8008 bound_to 7997
  155.9497  140.1117  157.1009 H   0  0  0  0  0  0  0  0  0  0  0  0  # atno 8009 bound_to 7997
  154.4119  140.1196  156.5022 H   0  0  0  0  0  0  0  0  0  0  0  0  # atno 8010 bound_to 7997
  140.3353  144.2537  150.6162 H   0  0  0  0  0  0  0  0  0  0  0  0  # atno 10167 bound_to 10162
  157.0701  131.0364  151.2615 H   0  0  0  0  0  0  0  0  0  0  0  0  # atno 10718 bound_to 10713
  154.0094  135.2916  155.3394 H   0  0  0  0  0  0  0  0  0  0  0  0  # atno 10763 bound_to 10752
  154.7112  135.5148  153.8672 H   0  0  0  0  0  0  0  0  0  0  0  0  # atno 10764 bound_to 10752
  153.0730  135.6654  154.0327 H   0  0  0  0  0  0  0  0  0  0  0  0  # atno 10765 bound_to 10752
  140.8200  134.2642  157.4904 H   0  0  0  0  0  0  0  0  0  0  0  0  # atno 11005 bound_to 11000
  144.6787  140.2360  143.7349 LP  0  0  0  0  0  0  0  0  0  0  0  0  # atno 17320 bound_to 7965
  145.8233  139.2053  143.1925 LP  0  0  0  0  0  0  0  0  0  0  0  0  # atno 17321 bound_to 7965
  140.5359  143.2233  151.8163 LP  0  0  0  0  0  0  0  0  0  0  0  0  # atno 17342 bound_to 10162
  139.4849  144.4662  151.9481 LP  0  0  0  0  0  0  0  0  0  0  0  0  # atno 17343 bound_to 10162
  157.4885  130.7808  149.7484 LP  0  0  0  0  0  0  0  0  0  0  0  0  # atno 17370 bound_to 10713
  155.9953  130.3913  150.2824 LP  0  0  0  0  0  0  0  0  0  0  0  0  # atno 17371 bound_to 10713
  139.8709  134.9530  156.4132 LP  0  0  0  0  0  0  0  0  0  0  0  0  # atno 17394 bound_to 11000
  140.9109  133.7712  155.9790 LP  0  0  0  0  0  0  0  0  0  0  0  0  # atno 17395 bound_to 11000

$$$$
