AV-unprocessed.smi:1084|AV-procd|sdf|4716|dock9
  -GOLD-   22720 3243D 1   1.00000     0.00000
 Structure written by MMmdl.
 52 54  0  0  0  0  0  0  0  0  1 V2000
  143.6029  136.4593  153.2352 C   0  0  0  0  0  0  0  0  0  0  0  0
  145.0986  136.1312  152.9928 C   0  0  2  0  0  0  0  0  0  0  0  0
  145.7345  137.2820  152.1656 C   0  0  0  0  0  0  0  0  0  0  0  0
  147.0990  137.5815  152.5872 N   0  0  0  0  0  0  0  0  0  0  0  0
  147.4544  138.6371  153.3307 C   0  0  0  0  0  0  0  0  0  0  0  0
  146.6602  139.4935  153.7193 O   0  0  0  0  0  0  0  0  0  0  0  0
  148.7771  138.6410  153.5675 N   0  0  0  0  0  0  0  0  0  0  0  0
  149.5199  139.5321  154.3868 C   0  0  0  0  0  0  0  0  0  0  0  0
  150.8474  139.1883  154.7113 C   0  0  0  0  0  0  0  0  0  0  0  0
  151.5931  140.0422  155.5457 C   0  0  0  0  0  0  0  0  0  0  0  0
  150.9769  141.2147  156.0403 C   0  0  0  0  0  0  0  0  0  0  0  0
  151.6582  142.1050  156.8806 N   0  0  0  0  0  0  0  0  0  0  0  0
  152.1049  141.4961  158.1263 C   0  0  0  0  0  0  0  0  0  0  0  0
  152.9551  142.4990  158.9255 C   0  0  0  0  0  0  0  0  0  0  0  0
  152.2112  143.6962  159.1369 O   0  0  0  0  0  0  0  0  0  0  0  0
  151.8458  144.3234  157.9104 C   0  0  0  0  0  0  0  0  0  0  0  0
  150.9635  143.3690  157.0878 C   0  0  0  0  0  0  0  0  0  0  0  0
  149.7025  141.5462  155.7425 N   0  0  0  0  0  0  0  0  0  0  0  0
  148.9931  140.7242  154.9402 C   0  0  0  0  0  0  0  0  0  0  0  0
  145.2984  134.7951  152.3851 N   0  0  0  0  0  0  0  0  0  0  0  0
  146.7042  134.3739  152.3997 C   0  0  0  0  0  0  0  0  0  0  0  0
  146.9224  132.9966  151.7506 C   0  0  0  0  0  0  0  0  0  0  0  0
  146.4350  133.0148  150.4162 O   0  0  0  0  0  0  0  0  0  0  0  0
  145.0540  133.3437  150.3581 C   0  0  0  0  0  0  0  0  0  0  0  0
  144.8198  134.7223  150.9997 C   0  0  0  0  0  0  0  0  0  0  0  0
  143.4521  137.4645  153.6268 H   0  0  0  0  0  0  0  0  0  0  0  0
  143.1487  135.7985  153.9723 H   0  0  0  0  0  0  0  0  0  0  0  0
  143.0286  136.3798  152.3114 H   0  0  0  0  0  0  0  0  0  0  0  0
  145.5877  136.1325  153.9683 H   0  0  0  0  0  0  0  0  0  0  0  0
  145.8066  137.0292  151.1091 H   0  0  0  0  0  0  0  0  0  0  0  0
  145.1100  138.1743  152.2402 H   0  0  0  0  0  0  0  0  0  0  0  0
  147.8169  136.9305  152.3053 H   0  0  0  0  0  0  0  0  0  0  0  0
  149.3194  137.9371  153.0884 H   0  0  0  0  0  0  0  0  0  0  0  0
  151.2933  138.2832  154.3252 H   0  0  0  0  0  0  0  0  0  0  0  0
  152.6144  139.7974  155.7982 H   0  0  0  0  0  0  0  0  0  0  0  0
  151.2410  141.1887  158.7170 H   0  0  0  0  0  0  0  0  0  0  0  0
  152.6864  140.5986  157.9116 H   0  0  0  0  0  0  0  0  0  0  0  0
  153.2285  142.0746  159.8916 H   0  0  0  0  0  0  0  0  0  0  0  0
  153.8852  142.7243  158.4011 H   0  0  0  0  0  0  0  0  0  0  0  0
  151.3034  145.2434  158.1287 H   0  0  0  0  0  0  0  0  0  0  0  0
  152.7403  144.6046  157.3520 H   0  0  0  0  0  0  0  0  0  0  0  0
  150.7200  143.8189  156.1245 H   0  0  0  0  0  0  0  0  0  0  0  0
  150.0228  143.1957  157.6116 H   0  0  0  0  0  0  0  0  0  0  0  0
  147.9732  141.0313  154.7680 H   0  0  0  0  0  0  0  0  0  0  0  0
  147.3179  135.1162  151.8872 H   0  0  0  0  0  0  0  0  0  0  0  0
  147.0748  134.3059  153.4208 H   0  0  0  0  0  0  0  0  0  0  0  0
  147.9836  132.7479  151.7381 H   0  0  0  0  0  0  0  0  0  0  0  0
  146.4181  132.2157  152.3220 H   0  0  0  0  0  0  0  0  0  0  0  0
  144.7344  133.3528  149.3160 H   0  0  0  0  0  0  0  0  0  0  0  0
  144.4667  132.5773  150.8665 H   0  0  0  0  0  0  0  0  0  0  0  0
  143.7501  134.9137  150.9498 H   0  0  0  0  0  0  0  0  0  0  0  0
  145.3094  135.4896  150.3980 H   0  0  0  0  0  0  0  0  0  0  0  0
  1  2  1  0  0  0  0
  1 26  1  0  0  0  0
  1 27  1  0  0  0  0
  1 28  1  0  0  0  0
  2  3  1  0  0  0  0
  2 20  1  0  0  0  0
  2 29  1  0  0  0  0
  3  4  1  0  0  0  0
  3 30  1  0  0  0  0
  3 31  1  0  0  0  0
  4  5  1  0  0  0  0
  4 32  1  0  0  0  0
  5  6  2  0  0  0  0
  5  7  1  0  0  0  0
  7  8  1  0  0  0  0
  7 33  1  0  0  0  0
  8 19  1  0  0  0  0
  8  9  2  0  0  0  0
  9 10  1  0  0  0  0
  9 34  1  0  0  0  0
 10 11  2  0  0  0  0
 10 35  1  0  0  0  0
 11 12  1  0  0  0  0
 11 18  1  0  0  0  0
 12 17  1  0  0  0  0
 12 13  1  0  0  0  0
 13 14  1  0  0  0  0
 13 36  1  0  0  0  0
 13 37  1  0  0  0  0
 14 15  1  0  0  0  0
 14 38  1  0  0  0  0
 14 39  1  0  0  0  0
 15 16  1  0  0  0  0
 16 17  1  0  0  0  0
 16 40  1  0  0  0  0
 16 41  1  0  0  0  0
 17 42  1  0  0  0  0
 17 43  1  0  0  0  0
 18 19  2  0  0  0  0
 19 44  1  0  0  0  0
 20 25  1  0  0  0  0
 20 21  1  0  0  0  0
 21 22  1  0  0  0  0
 21 45  1  0  0  0  0
 21 46  1  0  0  0  0
 22 23  1  0  0  0  0
 22 47  1  0  0  0  0
 22 48  1  0  0  0  0
 23 24  1  0  0  0  0
 24 25  1  0  0  0  0
 24 49  1  0  0  0  0
 24 50  1  0  0  0  0
 25 51  1  0  0  0  0
 25 52  1  0  0  0  0
M  END
> <s_m_source_file>
AV-unprocessed.smi

> <i_m_source_file_index>
1084

> <i_lp_mmshare_version>
43012

> <i_f3d_flags>
0

> <s_epik_input>
W0NIMl0xW0NIMl1PW0NIMl1bQ0gyXU4xW0NASF0oW0NIM10pW0NIMl1bTkhdQyg9TylbTkhdYzJbY0hdW2NIXWMobltjSF0yKU4zW0NIMl1bQ0gyXU9bQ0gyXVtDSDJdMw==

> <s_epik_cmdline>
J2VwaWtfcHl0aG9uJywgJy1waCcsICc3LjAnLCAnLXRuJywgJzgnLCAnLW1hJywgJzIwMCcsICctbWV0YWxfYmluZGluZycsICctaW1hZScsICc8aW5maWxlLm1hZT4nLCAnLW9tYWUnLCAnPG91dGZpbGUubWFlPic=

> <r_lp_tautomer_probability>
1

> <r_epik_Ionization_Penalty>
0.268053

> <r_epik_Ionization_Penalty_Charging>
0

> <r_epik_Ionization_Penalty_Neutral>
0.268053

> <r_epik_State_Penalty>
0.269834

> <r_epik_Charging_Adjusted_Penalty>
0.269834

> <i_epik_Tot_Q>
0

> <i_epik_Tot_abs_Q>
0

> <r_epik_Metal_State_Penalty>
0.268436

> <b_epik_Metal_Only>
0

> <s_lp_Force_Field>
OPLS_2005

> <r_lp_Energy>
46.8762

> <b_lp_Chiralities_Consistent>
1

> <s_lp_Variant>
AV-unprocessed.smi:1084-1

> <Gold.Version>
5.8.1

> <Gold.Id.Protein>
6NUR|6NUR_protein|mol2

> <Gold.PLP.Fitness>
46.4596

> <Gold.PLP.PLP>
-42.0640

> <Gold.PLP.part.hbond>
-3.0000

> <Gold.PLP.part.metal>
0.0000

> <Gold.PLP.part.buried>
-0.5664

> <Gold.PLP.part.nonpolar>
-40.1424

> <Gold.PLP.part.repulsive>
0.8015

> <Gold.PLP.ligand.clash>
0.0000

> <Gold.PLP.ligand.torsion>
0.7903

> <Gold.PLP.Chemscore.Hbond>
1.9440

> <Gold.PLP.Chemscore.CHOScore>
0.0000

> <Gold.PLP.Chemscore.Metal>
0.0000

> <Gold.Chemscore.Hbonds>
donor molecule, donor type, donor heavy atom, donor atom, acceptor molecule, acceptor atom, score
      L1  H     4    32       P1  7948  0.67
      L1  H     7    33       P1  7948  0.65

> <Gold.PLP.Chemscore.Internal.Correction>
0.1441

> <Gold.Rescore>
     Score         DG    S(hbond)    S(metal)    S(lipo)     H(rot)  DE(clash)    DE(int)     intcor
     16.59     -18.81       1.85        0.00      96.56       1.62       0.26       1.96       ----

> <Gold.Chemscore.Fitness>
16.5900

> <Gold.Chemscore.DG>
-18.8119

> <Gold.Chemscore.ZeroCoef>
-5.4800

> <Gold.Chemscore.Hbond>
1.8518

> <Gold.Chemscore.Metal>
0.0000

> <Gold.Chemscore.Lipo>
96.5567

> <Gold.Chemscore.Internal_Hbond>
0.0000

> <Gold.Chemscore.DEClash>
0.2604

> <Gold.Chemscore.DEInternal>
1.9616

> <Gold.Chemscore.Rot>
1.6211

> <Gold.Chemscore.Internal.Correction>
   9.000000E+99

> <Gold.Chemscore.Hbonds>
donor molecule, donor type, donor heavy atom, donor atom, acceptor molecule, acceptor atom, score
      L1  H     4    32       P1  7948  0.67
      L1  H     7    33       P1  7948  0.61

> <Gold.Chemscore.Hbond.Weighted>
-6.1849

> <Gold.Chemscore.Metal.Weighted>
-0.0000

> <Gold.Chemscore.Lipo.Weighted>
-11.2971

> <Gold.Chemscore.Internal_Hbond.Weighted>
0.0000

> <Gold.Chemscore.DEClash.Weighted>
0.2604

> <Gold.Chemscore.DEInternal.Weighted>
1.9616

> <Gold.Chemscore.Rot.Weighted>
4.1501

> <Gold.Chemscore.Internal.Correction.Weighted>
   9.000000E+99

> <Gold.Protein.RotatedTorsions>
[ 6907 6896 6895 6894 ] final  -41.14 input  -60.11 | X-H torsion
[ 7974 7965 7964 7962 ] final    6.44 input  175.53 | X-H torsion
[ 8008 7997 7996 7995 ] final  -69.85 input   59.86 | X-H torsion
[ 10167 10162 10161 10158 ] final  134.16 input  -65.29 | X-H torsion
[ 10718 10713 10712 10709 ] final  174.85 input   66.30 | X-H torsion
[ 10763 10752 10751 10750 ] final -121.90 input  -60.55 | X-H torsion
[ 11005 11000 10999 10996 ] final  158.50 input  -57.11 | X-H torsion

> <Gold.Protein.ActiveResidues>
 VAL166  LYS551  ARG553  GLY616  TRP617  ASP618  TYR619  PRO620  LYS621  CYS622 
 ASP623  PHE694  ASN695  SER759  ASP760  ASP761  ALA762  ILE779  LEU786  VAL792 
 PHE793  MET794  SER795  GLU796  ALA797  LYS798  CYS799  TRP800  GLU811  SER814 

> <Gold.Protein.RotatedAtoms>
  150.9702  134.9076  159.7783 H   0  0  0  0  0  0  0  0  0  0  0  0  # atno 6907 bound_to 6896
  152.5187  134.3551  159.9275 H   0  0  0  0  0  0  0  0  0  0  0  0  # atno 6908 bound_to 6896
  151.3560  133.3866  159.2719 H   0  0  0  0  0  0  0  0  0  0  0  0  # atno 6909 bound_to 6896
  146.2434  140.0233  142.8396 H   0  0  0  0  0  0  0  0  0  0  0  0  # atno 7974 bound_to 7965
  154.4969  140.0845  156.7715 H   0  0  0  0  0  0  0  0  0  0  0  0  # atno 8008 bound_to 7997
  155.4096  140.3441  155.4244 H   0  0  0  0  0  0  0  0  0  0  0  0  # atno 8009 bound_to 7997
  156.1405  140.1528  156.8916 H   0  0  0  0  0  0  0  0  0  0  0  0  # atno 8010 bound_to 7997
  139.5267  144.6581  151.5100 H   0  0  0  0  0  0  0  0  0  0  0  0  # atno 10167 bound_to 10162
  156.9436  131.0009  151.2963 H   0  0  0  0  0  0  0  0  0  0  0  0  # atno 10718 bound_to 10713
  154.8678  135.4151  154.2695 H   0  0  0  0  0  0  0  0  0  0  0  0  # atno 10763 bound_to 10752
  153.3608  135.7003  153.6720 H   0  0  0  0  0  0  0  0  0  0  0  0  # atno 10764 bound_to 10752
  153.5621  135.3608  155.2776 H   0  0  0  0  0  0  0  0  0  0  0  0  # atno 10765 bound_to 10752
  140.1871  134.8434  157.2870 H   0  0  0  0  0  0  0  0  0  0  0  0  # atno 11005 bound_to 11000
  145.1221  140.9468  143.4594 LP  0  0  0  0  0  0  0  0  0  0  0  0  # atno 17320 bound_to 7965
  145.0471  139.3212  143.5947 LP  0  0  0  0  0  0  0  0  0  0  0  0  # atno 17321 bound_to 7965
  140.6416  143.8878  150.6697 LP  0  0  0  0  0  0  0  0  0  0  0  0  # atno 17342 bound_to 10162
  140.2214  143.3806  152.1639 LP  0  0  0  0  0  0  0  0  0  0  0  0  # atno 17343 bound_to 10162
  157.5769  130.8349  149.8468 LP  0  0  0  0  0  0  0  0  0  0  0  0  # atno 17370 bound_to 10713
  156.0394  130.3743  150.1476 LP  0  0  0  0  0  0  0  0  0  0  0  0  # atno 17371 bound_to 10713
  140.2201  134.4034  155.7570 LP  0  0  0  0  0  0  0  0  0  0  0  0  # atno 17394 bound_to 11000
  141.2225  133.7161  156.8476 LP  0  0  0  0  0  0  0  0  0  0  0  0  # atno 17395 bound_to 11000

$$$$
