AV-unprocessed.smi:500|AV-procd|sdf|2740|dock9
  -GOLD-   2262023203D 1   1.00000     0.00000
 Structure written by MMmdl.
 45 47  0  0  0  0  0  0  0  0  3 V2000
  152.4341  144.9085  159.1780 C   0  0  0  0  0  0  0  0  0  0  0  0
  152.7270  143.8721  158.0910 C   0  0  0  0  0  0  0  0  0  0  0  0
  151.4953  143.4177  157.5502 O   0  0  0  0  0  0  0  0  0  0  0  0
  151.6313  142.4923  156.4808 C   0  0  0  0  0  0  0  0  0  0  0  0
  150.9726  141.1407  156.8057 C   0  0  0  0  0  0  0  0  0  0  0  0
  150.5825  140.4189  155.5791 N   0  0  0  0  0  0  0  0  0  0  0  0
  150.9834  139.2130  155.0608 C   0  0  0  0  0  0  0  0  0  0  0  0
  151.9909  138.2385  155.6179 C   0  0  2  0  0  0  0  0  0  0  0  0
  153.2257  138.1815  154.7087 C   0  0  0  0  0  0  0  0  0  0  0  0
  151.4349  136.8910  155.7569 N   0  5  0  0  0  0  0  0  0  0  0  0
  150.4986  136.5428  156.6853 C   0  0  0  0  0  0  0  0  0  0  0  0
  150.1995  137.0991  157.7477 O   0  0  0  0  0  0  0  0  0  0  0  0
  149.7560  135.3180  156.3049 C   0  0  0  0  0  0  0  0  0  0  0  0
  149.5841  134.7389  155.0753 C   0  0  0  0  0  0  0  0  0  0  0  0
  148.7860  133.5783  155.2744 C   0  0  0  0  0  0  0  0  0  0  0  0
  148.5258  133.5269  156.6133 C   0  0  0  0  0  0  0  0  0  0  0  0
  149.1076  134.5757  157.2550 O   0  0  0  0  0  0  0  0  0  0  0  0
  150.2954  139.0358  153.8958 N   0  3  0  0  0  0  0  0  0  0  0  0
  149.4362  140.1099  153.6750 C   0  0  0  0  0  0  0  0  0  0  0  0
  148.5397  140.3607  152.6414 C   0  0  0  0  0  0  0  0  0  0  0  0
  147.8022  141.5601  152.7213 C   0  0  0  0  0  0  0  0  0  0  0  0
  147.9703  142.4539  153.7987 C   0  0  0  0  0  0  0  0  0  0  0  0
  148.8833  142.1877  154.8403 C   0  0  0  0  0  0  0  0  0  0  0  0
  149.6112  141.0004  154.7528 C   0  0  0  0  0  0  0  0  0  0  0  0
  153.3584  145.2823  159.6190 H   0  0  0  0  0  0  0  0  0  0  0  0
  151.8320  144.4771  159.9780 H   0  0  0  0  0  0  0  0  0  0  0  0
  151.8894  145.7603  158.7701 H   0  0  0  0  0  0  0  0  0  0  0  0
  153.3403  144.3219  157.3090 H   0  0  0  0  0  0  0  0  0  0  0  0
  153.2920  143.0445  158.5195 H   0  0  0  0  0  0  0  0  0  0  0  0
  151.1362  142.9267  155.6116 H   0  0  0  0  0  0  0  0  0  0  0  0
  152.6801  142.3684  156.2065 H   0  0  0  0  0  0  0  0  0  0  0  0
  151.6277  140.4982  157.3928 H   0  0  0  0  0  0  0  0  0  0  0  0
  150.0829  141.2926  157.4167 H   0  0  0  0  0  0  0  0  0  0  0  0
  152.3182  138.6226  156.5849 H   0  0  0  0  0  0  0  0  0  0  0  0
  153.6836  139.1663  154.6127 H   0  0  0  0  0  0  0  0  0  0  0  0
  152.9696  137.8351  153.7065 H   0  0  0  0  0  0  0  0  0  0  0  0
  153.9821  137.5071  155.1118 H   0  0  0  0  0  0  0  0  0  0  0  0
  149.9854  135.1085  154.1431 H   0  0  0  0  0  0  0  0  0  0  0  0
  148.4459  132.8714  154.5322 H   0  0  0  0  0  0  0  0  0  0  0  0
  147.9723  132.8488  157.2457 H   0  0  0  0  0  0  0  0  0  0  0  0
  148.4086  139.6737  151.8185 H   0  0  0  0  0  0  0  0  0  0  0  0
  147.0925  141.7974  151.9421 H   0  0  0  0  0  0  0  0  0  0  0  0
  147.3864  143.3622  153.8278 H   0  0  0  0  0  0  0  0  0  0  0  0
  148.9998  142.8777  155.6628 H   0  0  0  0  0  0  0  0  0  0  0  0
  150.4034  138.2154  153.3131 H   0  0  0  0  0  0  0  0  0  0  0  0
  1  2  1  0  0  0  0
  1 25  1  0  0  0  0
  1 26  1  0  0  0  0
  1 27  1  0  0  0  0
  2  3  1  0  0  0  0
  2 28  1  0  0  0  0
  2 29  1  0  0  0  0
  3  4  1  0  0  0  0
  4  5  1  0  0  0  0
  4 30  1  0  0  0  0
  4 31  1  0  0  0  0
  5  6  1  0  0  0  0
  5 32  1  0  0  0  0
  5 33  1  0  0  0  0
  6 24  1  0  0  0  0
  6  7  1  0  0  0  0
  7  8  1  0  0  0  0
  7 18  2  0  0  0  0
  8  9  1  0  0  0  0
  8 10  1  0  0  0  0
  8 34  1  0  0  0  0
  9 35  1  0  0  0  0
  9 36  1  0  0  0  0
  9 37  1  0  0  0  0
 10 11  1  0  0  0  0
 11 12  2  0  0  0  0
 11 13  1  0  0  0  0
 13 17  1  0  0  0  0
 13 14  2  0  0  0  0
 14 15  1  0  0  0  0
 14 38  1  0  0  0  0
 15 16  2  0  0  0  0
 15 39  1  0  0  0  0
 16 17  1  0  0  0  0
 16 40  1  0  0  0  0
 18 19  1  0  0  0  0
 18 45  1  0  0  0  0
 19 24  2  0  0  0  0
 19 20  1  0  0  0  0
 20 21  2  0  0  0  0
 20 41  1  0  0  0  0
 21 22  1  0  0  0  0
 21 42  1  0  0  0  0
 22 23  2  0  0  0  0
 22 43  1  0  0  0  0
 23 24  1  0  0  0  0
 23 44  1  0  0  0  0
M  CHG  1  10  -1
M  CHG  1  18   1
M  END
> <s_m_source_file>
AV-unprocessed.smi

> <i_m_source_file_index>
500

> <i_lp_mmshare_version>
43012

> <i_f3d_flags>
0

> <s_epik_input>
W0NIM11bQ0gyXU9bQ0gyXVtDSDJdbihjKGMxMilbY0hdW2NIXVtjSF1bY0hdMiljKG4xKVtDQEhdKFtDSDNdKVtOSF1DKD1PKWMzW2NIXVtjSF1bY0hdbzM=

> <s_epik_cmdline>
J2VwaWtfcHl0aG9uJywgJy1waCcsICc3LjAnLCAnLXRuJywgJzgnLCAnLW1hJywgJzIwMCcsICctbWV0YWxfYmluZGluZycsICctaW1hZScsICc8aW5maWxlLm1hZT4nLCAnLW9tYWUnLCAnPG91dGZpbGUubWFlPic=

> <r_epik_Ionization_Penalty>
6.22753

> <r_epik_Ionization_Penalty_Charging>
6.22753

> <r_epik_Ionization_Penalty_Neutral>
2.56065e-12

> <r_epik_State_Penalty>
7.17947

> <r_epik_Charging_Adjusted_Penalty>
13.407

> <i_epik_Tot_Q>
0

> <i_epik_Tot_abs_Q>
2

> <r_epik_Metal_State_Penalty>
3.2092

> <b_epik_Metal_Only>
1

> <s_lp_Force_Field>
OPLS_2005

> <r_lp_Energy>
11.6209

> <b_lp_Chiralities_Consistent>
1

> <s_lp_Variant>
AV-unprocessed.smi:500-7

> <Gold.Version>
5.8.1

> <Gold.Id.Protein>
6NUR|6NUR_protein|mol2

> <Gold.PLP.Fitness>
50.3962

> <Gold.PLP.PLP>
-44.1914

> <Gold.PLP.part.hbond>
-2.7264

> <Gold.PLP.part.metal>
0.0000

> <Gold.PLP.part.buried>
0.4750

> <Gold.PLP.part.nonpolar>
-42.6431

> <Gold.PLP.part.repulsive>
0.2799

> <Gold.PLP.ligand.clash>
0.0000

> <Gold.PLP.ligand.torsion>
1.0369

> <Gold.PLP.Chemscore.Hbond>
2.7040

> <Gold.PLP.Chemscore.CHOScore>
0.0000

> <Gold.PLP.Chemscore.Metal>
0.0000

> <Gold.Chemscore.Hbonds>
donor molecule, donor type, donor heavy atom, donor atom, acceptor molecule, acceptor atom, score
      P1  H 10752 10765       L1    10  0.81

> <Gold.PLP.Chemscore.Internal.Correction>
0.1666

> <Gold.Rescore>
     Score         DG    S(hbond)    S(metal)    S(lipo)     H(rot)  DE(clash)    DE(int)     intcor
     17.63     -19.52       2.08        0.00     102.25       1.90       0.85       1.04       ----

> <Gold.Chemscore.Fitness>
17.6323

> <Gold.Chemscore.DG>
-19.5227

> <Gold.Chemscore.ZeroCoef>
-5.4800

> <Gold.Chemscore.Hbond>
2.0784

> <Gold.Chemscore.Metal>
0.0000

> <Gold.Chemscore.Lipo>
102.2474

> <Gold.Chemscore.Internal_Hbond>
0.0000

> <Gold.Chemscore.DEClash>
0.8474

> <Gold.Chemscore.DEInternal>
1.0431

> <Gold.Chemscore.Rot>
1.8993

> <Gold.Chemscore.Internal.Correction>
   9.000000E+99

> <Gold.Chemscore.Hbonds>
donor molecule, donor type, donor heavy atom, donor atom, acceptor molecule, acceptor atom, score
      P1  H 10752 10765       L1    10  0.18

> <Gold.Chemscore.Hbond.Weighted>
-6.9420

> <Gold.Chemscore.Metal.Weighted>
-0.0000

> <Gold.Chemscore.Lipo.Weighted>
-11.9629

> <Gold.Chemscore.Internal_Hbond.Weighted>
0.0000

> <Gold.Chemscore.DEClash.Weighted>
0.8474

> <Gold.Chemscore.DEInternal.Weighted>
1.0431

> <Gold.Chemscore.Rot.Weighted>
4.8622

> <Gold.Chemscore.Internal.Correction.Weighted>
   9.000000E+99

> <Gold.Protein.RotatedTorsions>
[ 6907 6896 6895 6894 ] final -120.08 input  -60.11 | X-H torsion
[ 7974 7965 7964 7962 ] final   78.29 input  175.53 | X-H torsion
[ 8008 7997 7996 7995 ] final -159.55 input   59.86 | X-H torsion
[ 10167 10162 10161 10158 ] final  -53.65 input  -65.29 | X-H torsion
[ 10718 10713 10712 10709 ] final -152.12 input   66.30 | X-H torsion
[ 10763 10752 10751 10750 ] final -162.96 input  -60.55 | X-H torsion
[ 11005 11000 10999 10996 ] final  -90.07 input  -57.11 | X-H torsion

> <Gold.Protein.ActiveResidues>
 VAL166  LYS551  ARG553  GLY616  TRP617  ASP618  TYR619  PRO620  LYS621  CYS622 
 ASP623  PHE694  ASN695  SER759  ASP760  ASP761  ALA762  ILE779  LEU786  VAL792 
 PHE793  MET794  SER795  GLU796  ALA797  LYS798  CYS799  TRP800  GLU811  SER814 

> <Gold.Protein.RotatedAtoms>
  150.8362  133.8010  159.3078 H   0  0  0  0  0  0  0  0  0  0  0  0  # atno 6907 bound_to 6896
  151.5725  135.1060  160.0008 H   0  0  0  0  0  0  0  0  0  0  0  0  # atno 6908 bound_to 6896
  152.4434  133.7448  159.6717 H   0  0  0  0  0  0  0  0  0  0  0  0  # atno 6909 bound_to 6896
  145.6790  139.2518  143.1825 H   0  0  0  0  0  0  0  0  0  0  0  0  # atno 7974 bound_to 7965
  155.7642  140.0843  157.2140 H   0  0  0  0  0  0  0  0  0  0  0  0  # atno 8008 bound_to 7997
  154.4001  140.1537  156.2925 H   0  0  0  0  0  0  0  0  0  0  0  0  # atno 8009 bound_to 7997
  155.8809  140.3420  155.5890 H   0  0  0  0  0  0  0  0  0  0  0  0  # atno 8010 bound_to 7997
  140.6473  143.2543  151.4822 H   0  0  0  0  0  0  0  0  0  0  0  0  # atno 10167 bound_to 10162
  156.4682  130.8246  151.2476 H   0  0  0  0  0  0  0  0  0  0  0  0  # atno 10718 bound_to 10713
  154.7167  135.3017  154.9113 H   0  0  0  0  0  0  0  0  0  0  0  0  # atno 10763 bound_to 10752
  153.9998  135.6708  153.4762 H   0  0  0  0  0  0  0  0  0  0  0  0  # atno 10764 bound_to 10752
  153.0799  135.5014  154.8397 H   0  0  0  0  0  0  0  0  0  0  0  0  # atno 10765 bound_to 10752
  141.1573  133.7669  156.9685 H   0  0  0  0  0  0  0  0  0  0  0  0  # atno 11005 bound_to 11000
  146.0980  140.7577  142.9563 LP  0  0  0  0  0  0  0  0  0  0  0  0  # atno 17320 bound_to 7965
  144.7032  140.3743  143.7139 LP  0  0  0  0  0  0  0  0  0  0  0  0  # atno 17321 bound_to 7965
  139.5685  144.1985  152.1801 LP  0  0  0  0  0  0  0  0  0  0  0  0  # atno 17342 bound_to 10162
  140.1274  144.5319  150.6824 LP  0  0  0  0  0  0  0  0  0  0  0  0  # atno 17343 bound_to 10162
  157.7493  131.0085  150.3230 LP  0  0  0  0  0  0  0  0  0  0  0  0  # atno 17370 bound_to 10713
  156.3645  130.3853  149.7224 LP  0  0  0  0  0  0  0  0  0  0  0  0  # atno 17371 bound_to 10713
  140.1145  134.9456  157.2114 LP  0  0  0  0  0  0  0  0  0  0  0  0  # atno 17394 bound_to 11000
  140.3150  134.2980  155.7258 LP  0  0  0  0  0  0  0  0  0  0  0  0  # atno 17395 bound_to 11000

$$$$
