AV-unprocessed.smi:1029|AV-procd|sdf|4476|dock6
  -GOLD-   22720 2453D 1   1.00000     0.00000
 Structure written by MMmdl.
 46 47  0  0  0  0  0  0  0  0  2 V2000
  147.4078  133.3810  161.3344 C   0  0  0  0  0  0  0  0  0  0  0  0
  147.5389  134.7716  160.7868 C   0  0  0  0  0  0  0  0  0  0  0  0
  148.1180  135.1827  159.5542 C   0  0  0  0  0  0  0  0  0  0  0  0
  147.9611  136.5430  159.5835 C   0  0  0  0  0  0  0  0  0  0  0  0
  148.3323  137.4570  158.6486 N   0  0  0  0  0  0  0  0  0  0  0  0
  147.5566  138.1729  157.8154 C   0  0  0  0  0  0  0  0  0  0  0  0
  146.3304  138.0980  157.7360 O   0  0  0  0  0  0  0  0  0  0  0  0
  148.2880  139.0044  157.0611 N   0  0  0  0  0  0  0  0  0  0  0  0
  147.7237  139.9370  156.0935 C   0  0  0  0  0  0  0  0  0  0  0  0
  148.2123  141.3726  156.3518 C   0  0  2  0  0  0  0  0  0  0  0  0
  148.0428  142.1180  155.1612 O   0  0  0  0  0  0  0  0  0  0  0  0
  149.7108  141.4014  156.7161 C   0  0  0  0  0  0  0  0  0  0  0  0
  150.1123  142.6735  157.3705 N   0  3  2  0  0  0  0  0  0  0  0  0
  151.5660  142.9468  157.2344 C   0  0  0  0  0  0  0  0  0  0  0  0
  151.9238  144.3398  157.7835 C   0  0  0  0  0  0  0  0  0  0  0  0
  151.4731  144.5251  159.2437 C   0  0  2  0  0  0  0  0  0  0  0  0
  152.3600  143.7595  160.2412 C   0  0  0  0  0  0  0  0  0  0  0  0
  149.9820  144.1618  159.3699 C   0  0  0  0  0  0  0  0  0  0  0  0
  149.6676  142.7725  158.7857 C   0  0  0  0  0  0  0  0  0  0  0  0
  147.3465  136.9416  160.7236 O   0  0  0  0  0  0  0  0  0  0  0  0
  147.0812  135.7987  161.4876 N   0  0  0  0  0  0  0  0  0  0  0  0
  147.5516  132.6352  160.5521 H   0  0  0  0  0  0  0  0  0  0  0  0
  146.4210  133.2169  161.7683 H   0  0  0  0  0  0  0  0  0  0  0  0
  148.1499  133.1956  162.1112 H   0  0  0  0  0  0  0  0  0  0  0  0
  148.5664  134.5651  158.7909 H   0  0  0  0  0  0  0  0  0  0  0  0
  149.3249  137.6302  158.5912 H   0  0  0  0  0  0  0  0  0  0  0  0
  149.2902  139.0135  157.1822 H   0  0  0  0  0  0  0  0  0  0  0  0
  148.0395  139.6156  155.0998 H   0  0  0  0  0  0  0  0  0  0  0  0
  146.6329  139.8903  156.1092 H   0  0  0  0  0  0  0  0  0  0  0  0
  147.6166  141.8232  157.1459 H   0  0  0  0  0  0  0  0  0  0  0  0
  148.2274  143.0272  155.3434 H   0  0  0  0  0  0  0  0  0  0  0  0
  149.9651  140.5661  157.3707 H   0  0  0  0  0  0  0  0  0  0  0  0
  150.2899  141.2533  155.8029 H   0  0  0  0  0  0  0  0  0  0  0  0
  152.1359  142.1714  157.7481 H   0  0  0  0  0  0  0  0  0  0  0  0
  151.8505  142.9005  156.1826 H   0  0  0  0  0  0  0  0  0  0  0  0
  152.9965  144.5148  157.6933 H   0  0  0  0  0  0  0  0  0  0  0  0
  151.4421  145.0973  157.1635 H   0  0  0  0  0  0  0  0  0  0  0  0
  151.5766  145.5830  159.4891 H   0  0  0  0  0  0  0  0  0  0  0  0
  152.3302  142.6826  160.0778 H   0  0  0  0  0  0  0  0  0  0  0  0
  152.0435  143.9461  161.2679 H   0  0  0  0  0  0  0  0  0  0  0  0
  153.4005  144.0754  160.1597 H   0  0  0  0  0  0  0  0  0  0  0  0
  149.6697  144.2094  160.4137 H   0  0  0  0  0  0  0  0  0  0  0  0
  149.3867  144.9088  158.8426 H   0  0  0  0  0  0  0  0  0  0  0  0
  148.5948  142.5962  158.8570 H   0  0  0  0  0  0  0  0  0  0  0  0
  150.1499  141.9928  159.3768 H   0  0  0  0  0  0  0  0  0  0  0  0
  149.6424  143.4092  156.8617 H   0  0  0  0  0  0  0  0  0  0  0  0
  1  2  1  0  0  0  0
  1 22  1  0  0  0  0
  1 23  1  0  0  0  0
  1 24  1  0  0  0  0
  2 21  2  0  0  0  0
  2  3  1  0  0  0  0
  3  4  2  0  0  0  0
  3 25  1  0  0  0  0
  4  5  1  0  0  0  0
  4 20  1  0  0  0  0
  5  6  1  0  0  0  0
  5 26  1  0  0  0  0
  6  7  2  0  0  0  0
  6  8  1  0  0  0  0
  8  9  1  0  0  0  0
  8 27  1  0  0  0  0
  9 10  1  0  0  0  0
  9 28  1  0  0  0  0
  9 29  1  0  0  0  0
 10 11  1  0  0  0  0
 10 12  1  0  0  0  0
 10 30  1  0  0  0  0
 11 31  1  0  0  0  0
 12 13  1  0  0  0  0
 12 32  1  0  0  0  0
 12 33  1  0  0  0  0
 13 19  1  0  0  0  0
 13 14  1  0  0  0  0
 13 46  1  0  0  0  0
 14 15  1  0  0  0  0
 14 34  1  0  0  0  0
 14 35  1  0  0  0  0
 15 16  1  0  0  0  0
 15 36  1  0  0  0  0
 15 37  1  0  0  0  0
 16 17  1  0  0  0  0
 16 18  1  0  0  0  0
 16 38  1  0  0  0  0
 17 39  1  0  0  0  0
 17 40  1  0  0  0  0
 17 41  1  0  0  0  0
 18 19  1  0  0  0  0
 18 42  1  0  0  0  0
 18 43  1  0  0  0  0
 19 44  1  0  0  0  0
 19 45  1  0  0  0  0
 20 21  1  0  0  0  0
M  CHG  1  13   1
M  END
> <s_m_source_file>
AV-unprocessed.smi

> <i_m_source_file_index>
1029

> <i_lp_mmshare_version>
43012

> <i_f3d_flags>
0

> <s_epik_input>
W0NIM11jMVtjSF1jKG9uMSlbTkhdQyg9TylbTkhdW0NIMl1bQ0BIXShbT0hdKVtDSDJdTjJbQ0gyXVtDSDJdW0NIXShbQ0gzXSlbQ0gyXVtDSDJdMg==

> <s_epik_cmdline>
J2VwaWtfcHl0aG9uJywgJy1waCcsICc3LjAnLCAnLXRuJywgJzgnLCAnLW1hJywgJzIwMCcsICctbWV0YWxfYmluZGluZycsICctaW1hZScsICc8aW5maWxlLm1hZT4nLCAnLW9tYWUnLCAnPG91dGZpbGUubWFlPic=

> <r_lp_tautomer_probability>
1

> <r_epik_Ionization_Penalty>
0.00211787

> <r_epik_Ionization_Penalty_Charging>
0.00153238

> <r_epik_Ionization_Penalty_Neutral>
0.000585488

> <r_epik_State_Penalty>
-0

> <r_epik_Charging_Adjusted_Penalty>
0.00153238

> <i_epik_Tot_Q>
1

> <i_epik_Tot_abs_Q>
1

> <r_epik_Metal_State_Penalty>
-0

> <b_epik_Metal_Only>
0

> <s_lp_Force_Field>
OPLS_2005

> <r_lp_Energy>
23.9078

> <b_lp_Chiralities_Consistent>
1

> <s_lp_Variant>
AV-unprocessed.smi:1029-3

> <Gold.Version>
5.8.1

> <Gold.Id.Protein>
6NUR|6NUR_protein|mol2

> <Gold.PLP.Fitness>
46.1534

> <Gold.PLP.PLP>
-33.9690

> <Gold.PLP.part.hbond>
-4.0000

> <Gold.PLP.part.metal>
0.0000

> <Gold.PLP.part.buried>
-6.8916

> <Gold.PLP.part.nonpolar>
-23.5811

> <Gold.PLP.part.repulsive>
0.2526

> <Gold.PLP.ligand.clash>
0.0000

> <Gold.PLP.ligand.torsion>
1.2135

> <Gold.PLP.Chemscore.Hbond>
4.8484

> <Gold.PLP.Chemscore.CHOScore>
0.0000

> <Gold.PLP.Chemscore.Metal>
0.0000

> <Gold.Chemscore.Hbonds>
donor molecule, donor type, donor heavy atom, donor atom, acceptor molecule, acceptor atom, score
      L1  H    11    31       P1  8028  1.00
      L1  H    13    46       P1  8028  2.00
      P1  H  6934  6947       L1    20  0.83

> <Gold.PLP.Chemscore.Internal.Correction>
0.0661

> <Gold.Rescore>
     Score         DG    S(hbond)    S(metal)    S(lipo)     H(rot)  DE(clash)    DE(int)     intcor
     18.86     -20.67       3.30        0.00      89.44       2.46       0.53       1.28       ----

> <Gold.Chemscore.Fitness>
18.8592

> <Gold.Chemscore.DG>
-20.6692

> <Gold.Chemscore.ZeroCoef>
-5.4800

> <Gold.Chemscore.Hbond>
3.3020

> <Gold.Chemscore.Metal>
0.0000

> <Gold.Chemscore.Lipo>
89.4382

> <Gold.Chemscore.Internal_Hbond>
0.0000

> <Gold.Chemscore.DEClash>
0.5254

> <Gold.Chemscore.DEInternal>
1.2846

> <Gold.Chemscore.Rot>
2.4624

> <Gold.Chemscore.Internal.Correction>
   9.000000E+99

> <Gold.Chemscore.Hbonds>
donor molecule, donor type, donor heavy atom, donor atom, acceptor molecule, acceptor atom, score
      L1  H    11    31       P1  8028  0.97
      L1  H    13    46       P1  8028  0.99
      P1  H  6931  6943       L1    20  0.02
      P1  H  6934  6947       L1    20  0.72

> <Gold.Chemscore.Hbond.Weighted>
-11.0286

> <Gold.Chemscore.Metal.Weighted>
-0.0000

> <Gold.Chemscore.Lipo.Weighted>
-10.4643

> <Gold.Chemscore.Internal_Hbond.Weighted>
0.0000

> <Gold.Chemscore.DEClash.Weighted>
0.5254

> <Gold.Chemscore.DEInternal.Weighted>
1.2846

> <Gold.Chemscore.Rot.Weighted>
6.3037

> <Gold.Chemscore.Internal.Correction.Weighted>
   9.000000E+99

> <Gold.Protein.RotatedTorsions>
[ 6907 6896 6895 6894 ] final  132.92 input  -60.11 | X-H torsion
[ 7974 7965 7964 7962 ] final  148.56 input  175.53 | X-H torsion
[ 8008 7997 7996 7995 ] final   -8.01 input   59.86 | X-H torsion
[ 10167 10162 10161 10158 ] final  106.26 input  -65.29 | X-H torsion
[ 10718 10713 10712 10709 ] final  -46.31 input   66.30 | X-H torsion
[ 10763 10752 10751 10750 ] final  157.42 input  -60.55 | X-H torsion
[ 11005 11000 10999 10996 ] final  178.89 input  -57.11 | X-H torsion

> <Gold.Protein.ActiveResidues>
 VAL166  LYS551  ARG553  GLY616  TRP617  ASP618  TYR619  PRO620  LYS621  CYS622 
 ASP623  PHE694  ASN695  SER759  ASP760  ASP761  ALA762  ILE779  LEU786  VAL792 
 PHE793  MET794  SER795  GLU796  ALA797  LYS798  CYS799  TRP800  GLU811  SER814 

> <Gold.Protein.RotatedAtoms>
  152.3274  133.5920  159.5785 H   0  0  0  0  0  0  0  0  0  0  0  0  # atno 6907 bound_to 6896
  150.7404  133.9920  159.3619 H   0  0  0  0  0  0  0  0  0  0  0  0  # atno 6908 bound_to 6896
  151.7798  135.0765  160.0423 H   0  0  0  0  0  0  0  0  0  0  0  0  # atno 6909 bound_to 6896
  144.8504  139.6169  143.5976 H   0  0  0  0  0  0  0  0  0  0  0  0  # atno 7974 bound_to 7965
  154.5783  140.2392  155.8091 H   0  0  0  0  0  0  0  0  0  0  0  0  # atno 8008 bound_to 7997
  156.2159  140.3012  155.9796 H   0  0  0  0  0  0  0  0  0  0  0  0  # atno 8009 bound_to 7997
  155.2588  140.0413  157.2985 H   0  0  0  0  0  0  0  0  0  0  0  0  # atno 8010 bound_to 7997
  139.7024  144.7092  151.1164 H   0  0  0  0  0  0  0  0  0  0  0  0  # atno 10167 bound_to 10162
  156.2196  130.4165  149.9010 H   0  0  0  0  0  0  0  0  0  0  0  0  # atno 10718 bound_to 10713
  154.2000  135.2791  155.2994 H   0  0  0  0  0  0  0  0  0  0  0  0  # atno 10763 bound_to 10752
  154.5861  135.5574  153.7236 H   0  0  0  0  0  0  0  0  0  0  0  0  # atno 10764 bound_to 10752
  153.0090  135.6357  154.2139 H   0  0  0  0  0  0  0  0  0  0  0  0  # atno 10765 bound_to 10752
  140.4001  134.6785  157.4557 H   0  0  0  0  0  0  0  0  0  0  0  0  # atno 11005 bound_to 11000
  146.2780  139.6803  142.9249 LP  0  0  0  0  0  0  0  0  0  0  0  0  # atno 17320 bound_to 7965
  145.4511  141.0428  143.2804 LP  0  0  0  0  0  0  0  0  0  0  0  0  # atno 17321 bound_to 7965
  140.7713  143.5406  150.9317 LP  0  0  0  0  0  0  0  0  0  0  0  0  # atno 17342 bound_to 10162
  139.9088  143.6745  152.3119 LP  0  0  0  0  0  0  0  0  0  0  0  0  # atno 17343 bound_to 10162
  156.6661  130.8801  151.3555 LP  0  0  0  0  0  0  0  0  0  0  0  0  # atno 17370 bound_to 10713
  157.7080  130.9408  150.0996 LP  0  0  0  0  0  0  0  0  0  0  0  0  # atno 17371 bound_to 10713
  140.0343  134.6361  155.9065 LP  0  0  0  0  0  0  0  0  0  0  0  0  # atno 17394 bound_to 11000
  141.1860  133.6556  156.5220 LP  0  0  0  0  0  0  0  0  0  0  0  0  # atno 17395 bound_to 11000

$$$$
