AV-unprocessed.smi:193|AV-procd|sdf|1515|dock7
  -GOLD-   2262019353D 1   1.00000     0.00000
 Structure written by MMmdl.
 61 65  0  0  0  0  0  0  0  0  1 V2000
  152.9178  138.3468  155.8138 C   0  0  0  0  0  0  0  0  0  0  0  0
  152.0138  139.5616  156.0746 C   0  0  1  0  0  0  0  0  0  0  0  0
  150.5619  139.2113  155.6836 C   0  0  0  0  0  0  0  0  0  0  0  0
  149.6855  140.3678  155.4900 N   0  0  0  0  0  0  0  0  0  0  0  0
  148.6676  140.2637  154.5925 C   0  0  0  0  0  0  0  0  0  0  0  0
  148.3805  141.3302  153.7986 N   0  0  0  0  0  0  0  0  0  0  0  0
  147.3908  141.2673  152.9039 C   0  0  0  0  0  0  0  0  0  0  0  0
  146.5692  140.2508  152.6397 N   0  0  0  0  0  0  0  0  0  0  0  0
  146.8454  139.1755  153.4308 C   0  0  0  0  0  0  0  0  0  0  0  0
  147.8674  139.0940  154.4207 C   0  0  0  0  0  0  0  0  0  0  0  0
  147.8306  137.8409  155.0243 N   0  0  0  0  0  0  0  0  0  0  0  0
  146.8535  137.2197  154.4238 C   0  0  0  0  0  0  0  0  0  0  0  0
  146.1998  137.9515  153.4598 N   0  0  0  0  0  0  0  0  0  0  0  0
  145.0710  137.5148  152.6520 C   0  0  0  0  0  0  0  0  0  0  0  0
  145.4246  136.4002  151.6360 C   0  0  0  0  0  0  0  0  0  0  0  0
  146.2558  136.9744  150.6414 O   0  0  0  0  0  0  0  0  0  0  0  0
  146.1822  135.2212  152.2854 C   0  0  0  0  0  0  0  0  0  0  0  0
  146.3520  134.0381  151.3160 C   0  0  0  0  0  0  0  0  0  0  0  0
  145.0855  133.6308  150.8121 O   0  0  0  0  0  0  0  0  0  0  0  0
  144.4402  134.6489  150.0566 C   0  0  0  0  0  0  0  0  0  0  0  0
  144.1498  135.8661  150.9529 C   0  0  0  0  0  0  0  0  0  0  0  0
  149.9776  141.6624  156.1070 C   0  0  0  0  0  0  0  0  0  0  0  0
  150.3000  141.5431  157.6026 C   0  0  0  0  0  0  0  0  0  0  0  0
  151.7340  141.3629  157.8090 N   0  0  0  0  0  0  0  0  0  0  0  0
  152.0386  141.6763  159.1987 C   0  0  1  0  0  0  0  0  0  0  0  0
  153.4614  142.0612  159.5391 C   0  0  0  0  0  0  0  0  0  0  0  0
  152.3757  143.1106  159.5652 C   0  0  1  0  0  0  0  0  0  0  0  0
  152.3799  144.2373  158.5499 C   0  0  0  0  0  0  0  0  0  0  0  0
  152.1314  139.9786  157.5576 C   0  0  0  0  0  0  0  0  0  0  0  0
  152.6138  137.4901  156.4162 H   0  0  0  0  0  0  0  0  0  0  0  0
  153.9582  138.5698  156.0523 H   0  0  0  0  0  0  0  0  0  0  0  0
  152.8830  138.0464  154.7662 H   0  0  0  0  0  0  0  0  0  0  0  0
  152.3834  140.3655  155.4360 H   0  0  0  0  0  0  0  0  0  0  0  0
  150.5901  138.6498  154.7487 H   0  0  0  0  0  0  0  0  0  0  0  0
  150.1228  138.5494  156.4307 H   0  0  0  0  0  0  0  0  0  0  0  0
  147.2333  142.1608  152.3178 H   0  0  0  0  0  0  0  0  0  0  0  0
  146.5728  136.2076  154.6766 H   0  0  0  0  0  0  0  0  0  0  0  0
  144.2861  137.1697  153.3262 H   0  0  0  0  0  0  0  0  0  0  0  0
  144.6642  138.3851  152.1349 H   0  0  0  0  0  0  0  0  0  0  0  0
  147.1563  136.8826  150.9135 H   0  0  0  0  0  0  0  0  0  0  0  0
  147.1600  135.5376  152.6503 H   0  0  0  0  0  0  0  0  0  0  0  0
  145.6272  134.8756  153.1586 H   0  0  0  0  0  0  0  0  0  0  0  0
  147.0175  134.2984  150.4915 H   0  0  0  0  0  0  0  0  0  0  0  0
  146.8096  133.1958  151.8347 H   0  0  0  0  0  0  0  0  0  0  0  0
  145.0561  134.9272  149.2000 H   0  0  0  0  0  0  0  0  0  0  0  0
  143.5079  134.2501  149.6565 H   0  0  0  0  0  0  0  0  0  0  0  0
  143.4296  135.5677  151.7161 H   0  0  0  0  0  0  0  0  0  0  0  0
  143.6682  136.6532  150.3713 H   0  0  0  0  0  0  0  0  0  0  0  0
  150.7768  142.1697  155.5649 H   0  0  0  0  0  0  0  0  0  0  0  0
  149.1024  142.3081  156.0285 H   0  0  0  0  0  0  0  0  0  0  0  0
  150.0111  142.4870  158.0673 H   0  0  0  0  0  0  0  0  0  0  0  0
  149.7106  140.7669  158.0936 H   0  0  0  0  0  0  0  0  0  0  0  0
  151.5204  141.1143  159.9743 H   0  0  0  0  0  0  0  0  0  0  0  0
  153.8568  141.7240  160.4949 H   0  0  0  0  0  0  0  0  0  0  0  0
  154.1853  142.1029  158.7272 H   0  0  0  0  0  0  0  0  0  0  0  0
  152.0448  143.4270  160.5525 H   0  0  0  0  0  0  0  0  0  0  0  0
  152.7676  143.8993  157.5884 H   0  0  0  0  0  0  0  0  0  0  0  0
  153.0077  145.0547  158.9043 H   0  0  0  0  0  0  0  0  0  0  0  0
  151.3677  144.6144  158.4044 H   0  0  0  0  0  0  0  0  0  0  0  0
  151.5704  139.2944  158.1964 H   0  0  0  0  0  0  0  0  0  0  0  0
  153.1767  139.8840  157.8552 H   0  0  0  0  0  0  0  0  0  0  0  0
  1  2  1  0  0  0  0
  1 30  1  0  0  0  0
  1 31  1  0  0  0  0
  1 32  1  0  0  0  0
  2 29  1  0  0  0  0
  2  3  1  0  0  0  0
  2 33  1  0  0  0  0
  3  4  1  0  0  0  0
  3 34  1  0  0  0  0
  3 35  1  0  0  0  0
  4  5  1  0  0  0  0
  4 22  1  0  0  0  0
  5 10  1  0  0  0  0
  5  6  2  0  0  0  0
  6  7  1  0  0  0  0
  7  8  2  0  0  0  0
  7 36  1  0  0  0  0
  8  9  1  0  0  0  0
  9 13  1  0  0  0  0
  9 10  2  0  0  0  0
 10 11  1  0  0  0  0
 11 12  2  0  0  0  0
 12 13  1  0  0  0  0
 12 37  1  0  0  0  0
 13 14  1  0  0  0  0
 14 15  1  0  0  0  0
 14 38  1  0  0  0  0
 14 39  1  0  0  0  0
 15 21  1  0  0  0  0
 15 16  1  0  0  0  0
 15 17  1  0  0  0  0
 16 40  1  0  0  0  0
 17 18  1  0  0  0  0
 17 41  1  0  0  0  0
 17 42  1  0  0  0  0
 18 19  1  0  0  0  0
 18 43  1  0  0  0  0
 18 44  1  0  0  0  0
 19 20  1  0  0  0  0
 20 21  1  0  0  0  0
 20 45  1  0  0  0  0
 20 46  1  0  0  0  0
 21 47  1  0  0  0  0
 21 48  1  0  0  0  0
 22 23  1  0  0  0  0
 22 49  1  0  0  0  0
 22 50  1  0  0  0  0
 23 24  1  0  0  0  0
 23 51  1  0  0  0  0
 23 52  1  0  0  0  0
 24 25  1  0  0  0  0
 24 29  1  0  0  0  0
 25 27  1  0  0  0  0
 25 26  1  0  0  0  0
 25 53  1  0  0  0  0
 26 27  1  0  0  0  0
 26 54  1  0  0  0  0
 26 55  1  0  0  0  0
 27 28  1  0  0  0  0
 27 56  1  0  0  0  0
 28 57  1  0  0  0  0
 28 58  1  0  0  0  0
 28 59  1  0  0  0  0
 29 60  1  0  0  0  0
 29 61  1  0  0  0  0
M  END
> <s_m_source_file>
AV-unprocessed.smi

> <i_m_source_file_index>
193

> <i_lp_mmshare_version>
43012

> <i_f3d_flags>
0

> <s_epik_input>
W0NIM11bQ0BASF0xW0NIMl1bQ0BIXTFOKFtDSDJdMilbQ0gyXVtDSDJdTihbQ0gyXVtDQEhdMltDSDNdKWMobltjSF1uMyljKGMzNCluW2NIXW40W0NIMl1DNShbT0hdKVtDSDJdW0NIMl1PW0NIMl1bQ0gyXTU=

> <s_epik_cmdline>
J2VwaWtfcHl0aG9uJywgJy1waCcsICc3LjAnLCAnLXRuJywgJzgnLCAnLW1hJywgJzIwMCcsICctbWV0YWxfYmluZGluZycsICctaW1hZScsICc8aW5maWxlLm1hZT4nLCAnLW9tYWUnLCAnPG91dGZpbGUubWFlPic=

> <r_lp_tautomer_probability>
1

> <r_epik_Ionization_Penalty>
1.45227

> <r_epik_Ionization_Penalty_Charging>
0

> <r_epik_Ionization_Penalty_Neutral>
1.45227

> <r_epik_State_Penalty>
2.02377

> <r_epik_Charging_Adjusted_Penalty>
2.02377

> <i_epik_Tot_Q>
0

> <i_epik_Tot_abs_Q>
0

> <r_epik_Metal_State_Penalty>
2.01937

> <b_epik_Metal_Only>
0

> <s_lp_Force_Field>
OPLS_2005

> <r_lp_Energy>
52.058

> <b_lp_Chiralities_Consistent>
1

> <s_lp_Variant>
AV-unprocessed.smi:193-20

> <Gold.Version>
5.8.1

> <Gold.Id.Protein>
6NUR|6NUR_protein|mol2

> <Gold.PLP.Fitness>
46.9544

> <Gold.PLP.PLP>
-44.7799

> <Gold.PLP.part.hbond>
-2.6217

> <Gold.PLP.part.metal>
0.0000

> <Gold.PLP.part.buried>
-2.6750

> <Gold.PLP.part.nonpolar>
-40.9339

> <Gold.PLP.part.repulsive>
2.1570

> <Gold.PLP.ligand.clash>
0.0000

> <Gold.PLP.ligand.torsion>
1.2219

> <Gold.PLP.Chemscore.Hbond>
1.1404

> <Gold.PLP.Chemscore.CHOScore>
0.0000

> <Gold.PLP.Chemscore.Metal>
0.0000

> <Gold.Chemscore.Hbonds>
donor molecule, donor type, donor heavy atom, donor atom, acceptor molecule, acceptor atom, score
      L1  H    16    40       P1  7948  0.88
      P1  H  8011  8017       L1     6  0.16

> <Gold.PLP.Chemscore.Internal.Correction>
1.1972

> <Gold.Rescore>
     Score         DG    S(hbond)    S(metal)    S(lipo)     H(rot)  DE(clash)    DE(int)     intcor
     15.02     -16.95       1.00        0.00     111.20       1.91       0.63       1.30       ----

> <Gold.Chemscore.Fitness>
15.0203

> <Gold.Chemscore.DG>
-16.9487

> <Gold.Chemscore.ZeroCoef>
-5.4800

> <Gold.Chemscore.Hbond>
1.0000

> <Gold.Chemscore.Metal>
0.0000

> <Gold.Chemscore.Lipo>
111.1974

> <Gold.Chemscore.Internal_Hbond>
0.0000

> <Gold.Chemscore.DEClash>
0.6270

> <Gold.Chemscore.DEInternal>
1.3014

> <Gold.Chemscore.Rot>
1.9068

> <Gold.Chemscore.Internal.Correction>
   9.000000E+99

> <Gold.Chemscore.Hbonds>
donor molecule, donor type, donor heavy atom, donor atom, acceptor molecule, acceptor atom, score
      L1  H    16    40       P1  7948  0.83
      P1  H  8011  8017       L1     6  0.01

> <Gold.Chemscore.Hbond.Weighted>
-3.3400

> <Gold.Chemscore.Metal.Weighted>
-0.0000

> <Gold.Chemscore.Lipo.Weighted>
-13.0101

> <Gold.Chemscore.Internal_Hbond.Weighted>
0.0000

> <Gold.Chemscore.DEClash.Weighted>
0.6270

> <Gold.Chemscore.DEInternal.Weighted>
1.3014

> <Gold.Chemscore.Rot.Weighted>
4.8814

> <Gold.Chemscore.Internal.Correction.Weighted>
   9.000000E+99

> <Gold.Protein.RotatedTorsions>
[ 6907 6896 6895 6894 ] final  -98.09 input  -60.11 | X-H torsion
[ 7974 7965 7964 7962 ] final   55.42 input  175.53 | X-H torsion
[ 8008 7997 7996 7995 ] final   33.38 input   59.86 | X-H torsion
[ 10167 10162 10161 10158 ] final   26.11 input  -65.29 | X-H torsion
[ 10718 10713 10712 10709 ] final  -11.05 input   66.30 | X-H torsion
[ 10763 10752 10751 10750 ] final  154.15 input  -60.55 | X-H torsion
[ 11005 11000 10999 10996 ] final  150.53 input  -57.11 | X-H torsion

> <Gold.Protein.ActiveResidues>
 VAL166  LYS551  ARG553  GLY616  TRP617  ASP618  TYR619  PRO620  LYS621  CYS622 
 ASP623  PHE694  ASN695  SER759  ASP760  ASP761  ALA762  ILE779  LEU786  VAL792 
 PHE793  MET794  SER795  GLU796  ALA797  LYS798  CYS799  TRP800  GLU811  SER814 

> <Gold.Protein.RotatedAtoms>
  150.7036  134.1247  159.4047 H   0  0  0  0  0  0  0  0  0  0  0  0  # atno 6907 bound_to 6896
  151.9233  135.0286  160.0533 H   0  0  0  0  0  0  0  0  0  0  0  0  # atno 6908 bound_to 6896
  152.2237  133.4968  159.5213 H   0  0  0  0  0  0  0  0  0  0  0  0  # atno 6909 bound_to 6896
  145.9505  139.3968  143.0309 H   0  0  0  0  0  0  0  0  0  0  0  0  # atno 7974 bound_to 7965
  155.1377  140.3263  155.4459 H   0  0  0  0  0  0  0  0  0  0  0  0  # atno 8008 bound_to 7997
  156.2614  140.1999  156.6443 H   0  0  0  0  0  0  0  0  0  0  0  0  # atno 8009 bound_to 7997
  154.6565  140.0552  157.0001 H   0  0  0  0  0  0  0  0  0  0  0  0  # atno 8010 bound_to 7997
  140.5050  144.0253  150.6348 H   0  0  0  0  0  0  0  0  0  0  0  0  # atno 10167 bound_to 10162
  156.6647  130.4992  149.6019 H   0  0  0  0  0  0  0  0  0  0  0  0  # atno 10718 bound_to 10713
  154.1477  135.2817  155.3144 H   0  0  0  0  0  0  0  0  0  0  0  0  # atno 10763 bound_to 10752
  154.6240  135.5457  153.7610 H   0  0  0  0  0  0  0  0  0  0  0  0  # atno 10764 bound_to 10752
  153.0230  135.6446  154.1622 H   0  0  0  0  0  0  0  0  0  0  0  0  # atno 10765 bound_to 10752
  140.1139  134.8907  157.1976 H   0  0  0  0  0  0  0  0  0  0  0  0  # atno 11005 bound_to 11000
  145.8177  140.9694  143.0915 LP  0  0  0  0  0  0  0  0  0  0  0  0  # atno 17320 bound_to 7965
  144.6795  140.0002  143.7484 LP  0  0  0  0  0  0  0  0  0  0  0  0  # atno 17321 bound_to 7965
  140.3560  143.2935  152.0436 LP  0  0  0  0  0  0  0  0  0  0  0  0  # atno 17342 bound_to 10162
  139.4881  144.6339  151.7015 LP  0  0  0  0  0  0  0  0  0  0  0  0  # atno 17343 bound_to 10162
  156.1984  130.6604  151.1140 LP  0  0  0  0  0  0  0  0  0  0  0  0  # atno 17370 bound_to 10713
  157.7098  131.0740  150.6542 LP  0  0  0  0  0  0  0  0  0  0  0  0  # atno 17371 bound_to 10713
  140.3054  134.3084  155.7279 LP  0  0  0  0  0  0  0  0  0  0  0  0  # atno 17394 bound_to 11000
  141.2136  133.7618  156.9701 LP  0  0  0  0  0  0  0  0  0  0  0  0  # atno 17395 bound_to 11000

$$$$
