AV-unprocessed.smi:1406|AV-procd|sdf|5721|dock7
  -GOLD-   22720 5353D 1   1.00000     0.00000
 Structure written by MMmdl.
 41 43  0  0  0  0  0  0  0  0  2 V2000
  148.7774  139.9780  153.2642 C   0  0  0  0  0  0  0  0  0  0  0  0
  149.4085  139.8308  154.6634 C   0  0  2  0  0  0  0  0  0  0  0  0
  149.7167  141.1830  155.3271 C   0  0  0  0  0  0  0  0  0  0  0  0
  149.4288  142.2420  154.7681 O   0  0  0  0  0  0  0  0  0  0  0  0
  150.2986  141.1339  156.5361 N   0  0  0  0  0  0  0  0  0  0  0  0
  150.6874  142.3021  157.3210 C   0  0  2  0  0  0  0  0  0  0  0  0
  151.6432  143.2337  156.5867 C   0  0  0  0  0  0  0  0  0  0  0  0
  152.2550  144.0652  157.7195 C   0  0  0  0  0  0  0  0  0  0  0  0
  152.1807  143.2382  158.9495 N   0  3  2  0  0  0  0  0  0  0  0  0
  153.4870  143.0544  159.6377 C   0  0  0  0  0  0  0  0  0  0  0  0
  153.4277  141.8813  160.6273 C   0  0  0  0  0  0  0  0  0  0  0  0
  153.1325  140.5520  159.9072 C   0  0  0  0  0  0  0  0  0  0  0  0
  152.3879  140.7565  158.5736 C   0  0  0  0  0  0  0  0  0  0  0  0
  151.4446  141.9837  158.6243 C   0  0  2  0  0  0  0  0  0  0  0  0
  150.5995  138.9906  154.6353 N   0  0  0  0  0  0  0  0  0  0  0  0
  150.7166  137.6730  154.4575 C   0  0  0  0  0  0  0  0  0  0  0  0
  151.9640  137.2293  154.5226 N   0  0  0  0  0  0  0  0  0  0  0  0
  152.6126  138.4067  154.7659 C   0  0  0  0  0  0  0  0  0  0  0  0
  151.8417  139.4906  154.8525 N   0  0  0  0  0  0  0  0  0  0  0  0
  147.8569  140.5612  153.3064 H   0  0  0  0  0  0  0  0  0  0  0  0
  148.5251  139.0020  152.8487 H   0  0  0  0  0  0  0  0  0  0  0  0
  149.4498  140.4710  152.5607 H   0  0  0  0  0  0  0  0  0  0  0  0
  148.6754  139.3259  155.2948 H   0  0  0  0  0  0  0  0  0  0  0  0
  150.5004  140.2267  156.9307 H   0  0  0  0  0  0  0  0  0  0  0  0
  149.7907  142.8754  157.5671 H   0  0  0  0  0  0  0  0  0  0  0  0
  152.4244  142.6578  156.0878 H   0  0  0  0  0  0  0  0  0  0  0  0
  151.1455  143.8473  155.8350 H   0  0  0  0  0  0  0  0  0  0  0  0
  153.2693  144.3849  157.4769 H   0  0  0  0  0  0  0  0  0  0  0  0
  151.6628  144.9657  157.8855 H   0  0  0  0  0  0  0  0  0  0  0  0
  154.2753  142.8640  158.9072 H   0  0  0  0  0  0  0  0  0  0  0  0
  153.7498  143.9792  160.1522 H   0  0  0  0  0  0  0  0  0  0  0  0
  154.3608  141.8033  161.1863 H   0  0  0  0  0  0  0  0  0  0  0  0
  152.6472  142.0778  161.3637 H   0  0  0  0  0  0  0  0  0  0  0  0
  154.0624  140.0159  159.7138 H   0  0  0  0  0  0  0  0  0  0  0  0
  152.5466  139.9130  160.5689 H   0  0  0  0  0  0  0  0  0  0  0  0
  153.1152  140.8950  157.7724 H   0  0  0  0  0  0  0  0  0  0  0  0
  151.8398  139.8460  158.3309 H   0  0  0  0  0  0  0  0  0  0  0  0
  150.7174  141.8048  159.4180 H   0  0  0  0  0  0  0  0  0  0  0  0
  149.8720  137.0243  154.2776 H   0  0  0  0  0  0  0  0  0  0  0  0
  153.6841  138.4657  154.8880 H   0  0  0  0  0  0  0  0  0  0  0  0
  151.5859  143.7424  159.5918 H   0  0  0  0  0  0  0  0  0  0  0  0
  1  2  1  0  0  0  0
  1 20  1  0  0  0  0
  1 21  1  0  0  0  0
  1 22  1  0  0  0  0
  2  3  1  0  0  0  0
  2 15  1  0  0  0  0
  2 23  1  0  0  0  0
  3  4  2  0  0  0  0
  3  5  1  0  0  0  0
  5  6  1  0  0  0  0
  5 24  1  0  0  0  0
  6 14  1  0  0  0  0
  6  7  1  0  0  0  0
  6 25  1  0  0  0  0
  7  8  1  0  0  0  0
  7 26  1  0  0  0  0
  7 27  1  0  0  0  0
  8  9  1  0  0  0  0
  8 28  1  0  0  0  0
  8 29  1  0  0  0  0
  9 14  1  0  0  0  0
  9 10  1  0  0  0  0
  9 41  1  0  0  0  0
 10 11  1  0  0  0  0
 10 30  1  0  0  0  0
 10 31  1  0  0  0  0
 11 12  1  0  0  0  0
 11 32  1  0  0  0  0
 11 33  1  0  0  0  0
 12 13  1  0  0  0  0
 12 34  1  0  0  0  0
 12 35  1  0  0  0  0
 13 14  1  0  0  0  0
 13 36  1  0  0  0  0
 13 37  1  0  0  0  0
 14 38  1  0  0  0  0
 15 19  1  0  0  0  0
 15 16  1  0  0  0  0
 16 17  2  0  0  0  0
 16 39  1  0  0  0  0
 17 18  1  0  0  0  0
 18 19  2  0  0  0  0
 18 40  1  0  0  0  0
M  CHG  1   9   1
M  END
> <s_m_source_file>
AV-unprocessed.smi

> <i_m_source_file_index>
1406

> <i_lp_mmshare_version>
43012

> <i_f3d_flags>
0

> <s_epik_input>
bjFbY0hdbltjSF1uMVtDQEhdKFtDSDNdKUMoPU8pW05IXVtDQEhdKFtDSDJdW0NIMl0yKVtDQEBIXShOMjMpW0NIMl1bQ0gyXVtDSDJdW0NIMl0z

> <s_epik_cmdline>
J2VwaWtfcHl0aG9uJywgJy1waCcsICc3LjAnLCAnLXRuJywgJzgnLCAnLW1hJywgJzIwMCcsICctbWV0YWxfYmluZGluZycsICctaW1hZScsICc8aW5maWxlLm1hZT4nLCAnLW9tYWUnLCAnPG91dGZpbGUubWFlPic=

> <r_lp_tautomer_probability>
1

> <r_epik_Ionization_Penalty>
0.00197066

> <r_epik_Ionization_Penalty_Charging>
0.00196223

> <r_epik_Ionization_Penalty_Neutral>
8.43107e-06

> <r_epik_State_Penalty>
0.00133866

> <r_epik_Charging_Adjusted_Penalty>
0.00330089

> <i_epik_Tot_Q>
1

> <i_epik_Tot_abs_Q>
1

> <r_epik_Metal_State_Penalty>
-0

> <b_epik_Metal_Only>
0

> <s_lp_Force_Field>
OPLS_2005

> <r_lp_Energy>
46.3739

> <b_lp_Chiralities_Consistent>
1

> <s_lp_Variant>
AV-unprocessed.smi:1406-13

> <Gold.Version>
5.8.1

> <Gold.Id.Protein>
6NUR|6NUR_protein|mol2

> <Gold.PLP.Fitness>
43.6253

> <Gold.PLP.PLP>
-35.6772

> <Gold.PLP.part.hbond>
-2.3672

> <Gold.PLP.part.metal>
0.0000

> <Gold.PLP.part.buried>
-0.8460

> <Gold.PLP.part.nonpolar>
-36.6577

> <Gold.PLP.part.repulsive>
3.6087

> <Gold.PLP.ligand.clash>
0.0000

> <Gold.PLP.ligand.torsion>
0.3971

> <Gold.PLP.Chemscore.Hbond>
1.8960

> <Gold.PLP.Chemscore.CHOScore>
0.9861

> <Gold.PLP.Chemscore.Metal>
0.0000

> <Gold.Chemscore.Hbonds>
donor molecule, donor type, donor heavy atom, donor atom, acceptor molecule, acceptor atom, score
      P1  H  7989  7998       L1    19  0.70
      P1  H 10752 10765       L1    17  0.93
      L1  C    16    39       P1  7948  0.59

> <Gold.PLP.Chemscore.Internal.Correction>
0.0959

> <Gold.Rescore>
     Score         DG    S(hbond)    S(metal)    S(lipo)     H(rot)  DE(clash)    DE(int)     intcor
     11.97     -17.74       1.78        0.00      95.35       1.89       3.03       2.74       ----

> <Gold.Chemscore.Fitness>
11.9710

> <Gold.Chemscore.DG>
-17.7406

> <Gold.Chemscore.ZeroCoef>
-5.4800

> <Gold.Chemscore.Hbond>
1.7766

> <Gold.Chemscore.Metal>
0.0000

> <Gold.Chemscore.Lipo>
95.3528

> <Gold.Chemscore.Internal_Hbond>
0.0000

> <Gold.Chemscore.DEClash>
3.0308

> <Gold.Chemscore.DEInternal>
2.7388

> <Gold.Chemscore.Rot>
1.8865

> <Gold.Chemscore.Internal.Correction>
   9.000000E+99

> <Gold.Chemscore.Hbonds>
donor molecule, donor type, donor heavy atom, donor atom, acceptor molecule, acceptor atom, score
      P1  H  7989  7998       L1    19  0.07
      P1  H  8011  8017       L1     4  0.01
      P1  H 10752 10765       L1    17  0.88

> <Gold.Chemscore.Hbond.Weighted>
-5.9338

> <Gold.Chemscore.Metal.Weighted>
-0.0000

> <Gold.Chemscore.Lipo.Weighted>
-11.1563

> <Gold.Chemscore.Internal_Hbond.Weighted>
0.0000

> <Gold.Chemscore.DEClash.Weighted>
3.0308

> <Gold.Chemscore.DEInternal.Weighted>
2.7388

> <Gold.Chemscore.Rot.Weighted>
4.8295

> <Gold.Chemscore.Internal.Correction.Weighted>
   9.000000E+99

> <Gold.Protein.RotatedTorsions>
[ 6907 6896 6895 6894 ] final -105.58 input  -60.11 | X-H torsion
[ 7974 7965 7964 7962 ] final  -62.40 input  175.53 | X-H torsion
[ 8008 7997 7996 7995 ] final -176.77 input   59.86 | X-H torsion
[ 10167 10162 10161 10158 ] final   81.65 input  -65.29 | X-H torsion
[ 10718 10713 10712 10709 ] final   -6.16 input   66.30 | X-H torsion
[ 10763 10752 10751 10750 ] final  156.68 input  -60.55 | X-H torsion
[ 11005 11000 10999 10996 ] final  -22.17 input  -57.11 | X-H torsion

> <Gold.Protein.ActiveResidues>
 VAL166  LYS551  ARG553  GLY616  TRP617  ASP618  TYR619  PRO620  LYS621  CYS622 
 ASP623  PHE694  ASN695  SER759  ASP760  ASP761  ALA762  ILE779  LEU786  VAL792 
 PHE793  MET794  SER795  GLU796  ALA797  LYS798  CYS799  TRP800  GLU811  SER814 

> <Gold.Protein.RotatedAtoms>
  150.7344  134.0105  159.3667 H   0  0  0  0  0  0  0  0  0  0  0  0  # atno 6907 bound_to 6896
  151.8064  135.0691  160.0416 H   0  0  0  0  0  0  0  0  0  0  0  0  # atno 6908 bound_to 6896
  152.3104  133.5710  159.5713 H   0  0  0  0  0  0  0  0  0  0  0  0  # atno 6909 bound_to 6896
  145.7917  140.8705  143.0277 H   0  0  0  0  0  0  0  0  0  0  0  0  # atno 7974 bound_to 7965
  155.9989  140.1216  157.0567 H   0  0  0  0  0  0  0  0  0  0  0  0  # atno 8008 bound_to 7997
  154.4236  140.1111  156.5738 H   0  0  0  0  0  0  0  0  0  0  0  0  # atno 8009 bound_to 7997
  155.6240  140.3472  155.4663 H   0  0  0  0  0  0  0  0  0  0  0  0  # atno 8010 bound_to 7997
  139.9371  144.6114  150.8288 H   0  0  0  0  0  0  0  0  0  0  0  0  # atno 10167 bound_to 10162
  156.7359  130.5194  149.5835 H   0  0  0  0  0  0  0  0  0  0  0  0  # atno 10718 bound_to 10713
  154.1882  135.2796  155.3030 H   0  0  0  0  0  0  0  0  0  0  0  0  # atno 10763 bound_to 10752
  154.5950  135.5548  153.7320 H   0  0  0  0  0  0  0  0  0  0  0  0  # atno 10764 bound_to 10752
  153.0119  135.6377  154.2020 H   0  0  0  0  0  0  0  0  0  0  0  0  # atno 10765 bound_to 10752
  140.8631  133.7774  156.0098 H   0  0  0  0  0  0  0  0  0  0  0  0  # atno 11005 bound_to 11000
  144.6781  140.0133  143.7484 LP  0  0  0  0  0  0  0  0  0  0  0  0  # atno 17320 bound_to 7965
  145.9970  139.3060  143.0951 LP  0  0  0  0  0  0  0  0  0  0  0  0  # atno 17321 bound_to 7965
  140.7621  143.3191  151.2664 LP  0  0  0  0  0  0  0  0  0  0  0  0  # atno 17342 bound_to 10162
  139.6735  143.9979  152.2767 LP  0  0  0  0  0  0  0  0  0  0  0  0  # atno 17343 bound_to 10162
  156.1497  130.6301  151.0579 LP  0  0  0  0  0  0  0  0  0  0  0  0  # atno 17370 bound_to 10713
  157.6839  131.0830  150.7296 LP  0  0  0  0  0  0  0  0  0  0  0  0  # atno 17371 bound_to 10713
  140.8660  134.2784  157.5213 LP  0  0  0  0  0  0  0  0  0  0  0  0  # atno 17394 bound_to 11000
  139.8708  134.9542  156.4170 LP  0  0  0  0  0  0  0  0  0  0  0  0  # atno 17395 bound_to 11000

$$$$
