AV-unprocessed.smi:2807|AV-procd|sdf|10821|dock10
  -GOLD-   2272015263D 1   1.00000     0.00000
 Structure written by MMmdl.
 31 32  0  0  0  0  0  0  0  0  2 V2000
  152.6830  140.4373  158.1516 O   0  0  0  0  0  0  0  0  0  0  0  0
  151.6992  140.4460  157.4024 C   0  0  0  0  0  0  0  0  0  0  0  0
  151.2029  139.4581  156.6040 N   0  5  0  0  0  0  0  0  0  0  0  0
  151.9740  138.7650  155.5658 C   0  0  1  0  0  0  0  0  0  0  0  0
  152.1024  137.2793  155.9345 C   0  0  0  0  0  0  0  0  0  0  0  0
  150.8639  136.5692  155.3559 C   0  0  0  0  0  0  0  0  0  0  0  0
  150.2059  137.5544  154.3776 C   0  0  0  0  0  0  0  0  0  0  0  0
  151.2090  138.7047  154.2280 C   0  0  1  0  0  0  0  0  0  0  0  0
  150.5900  139.9166  153.8392 O   0  0  0  0  0  0  0  0  0  0  0  0
  150.8794  141.7473  157.2770 C   0  0  0  0  0  0  0  0  0  0  0  0
  150.9349  142.1916  156.0168 F   0  0  0  0  0  0  0  0  0  0  0  0
  149.6000  141.4817  157.5523 F   0  0  0  0  0  0  0  0  0  0  0  0
  151.3820  142.8015  158.2633 C   0  0  0  0  0  0  0  0  0  0  0  0
  151.8296  144.0601  157.8014 C   0  0  0  0  0  0  0  0  0  0  0  0
  152.2633  145.0115  158.7440 C   0  0  0  0  0  0  0  0  0  0  0  0
  152.2382  144.6734  160.1101 C   0  0  0  0  0  0  0  0  0  0  0  0
  151.7774  143.3927  160.4732 C   0  0  0  0  0  0  0  0  0  0  0  0
  151.3612  142.4729  159.5777 N   0  0  0  0  0  0  0  0  0  0  0  0
  152.9623  139.2047  155.4224 H   0  0  0  0  0  0  0  0  0  0  0  0
  152.9951  136.8737  155.4569 H   0  0  0  0  0  0  0  0  0  0  0  0
  152.2158  137.1108  157.0064 H   0  0  0  0  0  0  0  0  0  0  0  0
  151.1521  135.6452  154.8532 H   0  0  0  0  0  0  0  0  0  0  0  0
  150.1626  136.3002  156.1474 H   0  0  0  0  0  0  0  0  0  0  0  0
  149.9709  137.0915  153.4187 H   0  0  0  0  0  0  0  0  0  0  0  0
  149.2651  137.9142  154.8011 H   0  0  0  0  0  0  0  0  0  0  0  0
  151.9229  138.4381  153.4473 H   0  0  0  0  0  0  0  0  0  0  0  0
  150.2544  139.8040  152.9631 H   0  0  0  0  0  0  0  0  0  0  0  0
  151.8284  144.2932  156.7470 H   0  0  0  0  0  0  0  0  0  0  0  0
  152.6069  145.9840  158.4244 H   0  0  0  0  0  0  0  0  0  0  0  0
  152.5615  145.3781  160.8616 H   0  0  0  0  0  0  0  0  0  0  0  0
  151.7439  143.0985  161.5119 H   0  0  0  0  0  0  0  0  0  0  0  0
  1  2  2  0  0  0  0
  2  3  1  0  0  0  0
  2 10  1  0  0  0  0
  3  4  1  0  0  0  0
  4  8  1  0  0  0  0
  4  5  1  0  0  0  0
  4 19  1  0  0  0  0
  5  6  1  0  0  0  0
  5 20  1  0  0  0  0
  5 21  1  0  0  0  0
  6  7  1  0  0  0  0
  6 22  1  0  0  0  0
  6 23  1  0  0  0  0
  7  8  1  0  0  0  0
  7 24  1  0  0  0  0
  7 25  1  0  0  0  0
  8  9  1  0  0  0  0
  8 26  1  0  0  0  0
  9 27  1  0  0  0  0
 10 11  1  0  0  0  0
 10 12  1  0  0  0  0
 10 13  1  0  0  0  0
 13 18  1  0  0  0  0
 13 14  2  0  0  0  0
 14 15  1  0  0  0  0
 14 28  1  0  0  0  0
 15 16  2  0  0  0  0
 15 29  1  0  0  0  0
 16 17  1  0  0  0  0
 16 30  1  0  0  0  0
 17 18  2  0  0  0  0
 17 31  1  0  0  0  0
M  CHG  1   3  -1
M  END
> <s_m_source_file>
AV-unprocessed.smi

> <i_m_source_file_index>
2807

> <i_lp_mmshare_version>
43012

> <i_f3d_flags>
0

> <s_epik_input>
bjFbY0hdW2NIXVtjSF1bY0hdYzFDKEYpKEYpQyg9TylbTkhdW0NAQEhdMltDSDJdW0NIMl1bQ0gyXVtDQEhdMltPSF0=

> <s_epik_cmdline>
J2VwaWtfcHl0aG9uJywgJy1waCcsICc3LjAnLCAnLXRuJywgJzgnLCAnLW1hJywgJzIwMCcsICctbWV0YWxfYmluZGluZycsICctaW1hZScsICc8aW5maWxlLm1hZT4nLCAnLW9tYWUnLCAnPG91dGZpbGUubWFlPic=

> <r_lp_tautomer_probability>
1

> <r_epik_Ionization_Penalty>
5.72231

> <r_epik_Ionization_Penalty_Charging>
5.72231

> <r_epik_Ionization_Penalty_Neutral>
5.49816e-06

> <r_epik_State_Penalty>
5.72227

> <r_epik_Charging_Adjusted_Penalty>
11.4446

> <i_epik_Tot_Q>
-1

> <i_epik_Tot_abs_Q>
1

> <r_epik_Metal_State_Penalty>
1.70075

> <b_epik_Metal_Only>
1

> <s_lp_Force_Field>
OPLS_2005

> <r_lp_Energy>
37.2022

> <b_lp_Chiralities_Consistent>
1

> <s_lp_Variant>
AV-unprocessed.smi:2807-6

> <Gold.Version>
5.8.1

> <Gold.Id.Protein>
6NUR|6NUR_protein|mol2

> <Gold.PLP.Fitness>
43.1826

> <Gold.PLP.PLP>
-36.9559

> <Gold.PLP.part.hbond>
-3.1425

> <Gold.PLP.part.metal>
0.0000

> <Gold.PLP.part.buried>
-1.9155

> <Gold.PLP.part.nonpolar>
-31.1406

> <Gold.PLP.part.repulsive>
0.0000

> <Gold.PLP.ligand.clash>
0.5674

> <Gold.PLP.ligand.torsion>
0.6555

> <Gold.PLP.Chemscore.Hbond>
2.6829

> <Gold.PLP.Chemscore.CHOScore>
0.0000

> <Gold.PLP.Chemscore.Metal>
0.0000

> <Gold.Chemscore.Hbonds>
donor molecule, donor type, donor heavy atom, donor atom, acceptor molecule, acceptor atom, score
      L1  H     9    27       P1  7957  1.00
      P1  H  7989  7998       L1     9  0.59
      P1  H  7997  8008       L1     1  0.44

> <Gold.PLP.Chemscore.Internal.Correction>
0.0563

> <Gold.Rescore>
     Score         DG    S(hbond)    S(metal)    S(lipo)     H(rot)  DE(clash)    DE(int)     intcor
     15.47     -18.15       1.80        0.00     100.61       2.00       0.54       2.14       ----

> <Gold.Chemscore.Fitness>
15.4674

> <Gold.Chemscore.DG>
-18.1469

> <Gold.Chemscore.ZeroCoef>
-5.4800

> <Gold.Chemscore.Hbond>
1.7984

> <Gold.Chemscore.Metal>
0.0000

> <Gold.Chemscore.Lipo>
100.6087

> <Gold.Chemscore.Internal_Hbond>
0.0000

> <Gold.Chemscore.DEClash>
0.5420

> <Gold.Chemscore.DEInternal>
2.1374

> <Gold.Chemscore.Rot>
1.9964

> <Gold.Chemscore.Internal.Correction>
   9.000000E+99

> <Gold.Chemscore.Hbonds>
donor molecule, donor type, donor heavy atom, donor atom, acceptor molecule, acceptor atom, score
      L1  H     9    27       P1  7957  0.99
      P1  H  7989  7998       L1     9  0.05
      P1  H  7997  8008       L1     1  0.26

> <Gold.Chemscore.Hbond.Weighted>
-6.0065

> <Gold.Chemscore.Metal.Weighted>
-0.0000

> <Gold.Chemscore.Lipo.Weighted>
-11.7712

> <Gold.Chemscore.Internal_Hbond.Weighted>
0.0000

> <Gold.Chemscore.DEClash.Weighted>
0.5420

> <Gold.Chemscore.DEInternal.Weighted>
2.1374

> <Gold.Chemscore.Rot.Weighted>
5.1108

> <Gold.Chemscore.Internal.Correction.Weighted>
   9.000000E+99

> <Gold.Protein.RotatedTorsions>
[ 6907 6896 6895 6894 ] final   77.92 input  -60.11 | X-H torsion
[ 7974 7965 7964 7962 ] final  -42.37 input  175.53 | X-H torsion
[ 8008 7997 7996 7995 ] final  -74.08 input   59.86 | X-H torsion
[ 10167 10162 10161 10158 ] final   92.40 input  -65.29 | X-H torsion
[ 10718 10713 10712 10709 ] final  -43.30 input   66.30 | X-H torsion
[ 10763 10752 10751 10750 ] final  -71.50 input  -60.55 | X-H torsion
[ 11005 11000 10999 10996 ] final  -80.94 input  -57.11 | X-H torsion

> <Gold.Protein.ActiveResidues>
 VAL166  LYS551  ARG553  GLY616  TRP617  ASP618  TYR619  PRO620  LYS621  CYS622 
 ASP623  PHE694  ASN695  SER759  ASP760  ASP761  ALA762  ILE779  LEU786  VAL792 
 PHE793  MET794  SER795  GLU796  ALA797  LYS798  CYS799  TRP800  GLU811  SER814 

> <Gold.Protein.RotatedAtoms>
  152.5138  134.3743  159.9328 H   0  0  0  0  0  0  0  0  0  0  0  0  # atno 6907 bound_to 6896
  151.3698  133.3852  159.2706 H   0  0  0  0  0  0  0  0  0  0  0  0  # atno 6908 bound_to 6896
  150.9586  134.8997  159.7775 H   0  0  0  0  0  0  0  0  0  0  0  0  # atno 6909 bound_to 6896
  146.0122  140.6950  142.9219 H   0  0  0  0  0  0  0  0  0  0  0  0  # atno 7974 bound_to 7965
  154.5300  140.0768  156.8328 H   0  0  0  0  0  0  0  0  0  0  0  0  # atno 8008 bound_to 7997
  155.3394  140.3406  155.4221 H   0  0  0  0  0  0  0  0  0  0  0  0  # atno 8009 bound_to 7997
  156.1772  140.1639  156.8328 H   0  0  0  0  0  0  0  0  0  0  0  0  # atno 8010 bound_to 7997
  139.8280  144.6700  150.9435 H   0  0  0  0  0  0  0  0  0  0  0  0  # atno 10167 bound_to 10162
  156.2504  130.4187  149.8656 H   0  0  0  0  0  0  0  0  0  0  0  0  # atno 10718 bound_to 10713
  154.4326  135.5960  153.6078 H   0  0  0  0  0  0  0  0  0  0  0  0  # atno 10763 bound_to 10752
  152.9800  135.5979  154.3820 H   0  0  0  0  0  0  0  0  0  0  0  0  # atno 10764 bound_to 10752
  154.3660  135.2841  155.2272 H   0  0  0  0  0  0  0  0  0  0  0  0  # atno 10765 bound_to 10752
  141.1667  133.7173  156.8348 H   0  0  0  0  0  0  0  0  0  0  0  0  # atno 11005 bound_to 11000
  144.6957  140.3419  143.7197 LP  0  0  0  0  0  0  0  0  0  0  0  0  # atno 17320 bound_to 7965
  145.7324  139.1740  143.2423 LP  0  0  0  0  0  0  0  0  0  0  0  0  # atno 17321 bound_to 7965
  140.7809  143.4027  151.1121 LP  0  0  0  0  0  0  0  0  0  0  0  0  # atno 17342 bound_to 10162
  139.7683  143.8532  152.3115 LP  0  0  0  0  0  0  0  0  0  0  0  0  # atno 17343 bound_to 10162
  156.6207  130.8625  151.3475 LP  0  0  0  0  0  0  0  0  0  0  0  0  # atno 17370 bound_to 10713
  157.7212  130.9561  150.1446 LP  0  0  0  0  0  0  0  0  0  0  0  0  # atno 17371 bound_to 10713
  140.2025  134.8886  157.3185 LP  0  0  0  0  0  0  0  0  0  0  0  0  # atno 17394 bound_to 11000
  140.2172  134.4067  155.7583 LP  0  0  0  0  0  0  0  0  0  0  0  0  # atno 17395 bound_to 11000

$$$$
