AV-unprocessed.smi:1929|AV-procd|sdf|7806|dock10
  -GOLD-   22720 9543D 1   1.00000     0.00000
 Structure written by MMmdl.
 42 43  0  0  0  0  0  0  0  0  3 V2000
  152.5107  138.4107  157.8554 C   0  0  0  0  0  0  0  0  0  0  0  0
  152.6067  139.3647  156.7566 N   0  5  0  0  0  0  0  0  0  0  0  0
  151.7634  139.3683  155.6895 C   0  0  0  0  0  0  0  0  0  0  0  0
  151.4979  140.2577  154.8741 O   0  0  0  0  0  0  0  0  0  0  0  0
  151.0413  138.0229  155.5524 C   0  0  0  0  0  0  0  0  0  0  0  0
  149.5828  138.2337  155.3728 N   0  3  2  0  0  0  0  0  0  0  0  0
  148.7769  137.0078  155.6232 C   0  0  0  0  0  0  0  0  0  0  0  0
  147.2697  137.3058  155.5421 C   0  0  0  0  0  0  0  0  0  0  0  0
  146.8803  137.9391  154.1921 C   0  0  2  0  0  0  0  0  0  0  0  0
  146.9918  136.9815  153.0917 N   0  0  0  0  0  0  0  0  0  0  0  0
  146.1278  135.9877  152.8374 C   0  0  0  0  0  0  0  0  0  0  0  0
  145.1198  135.7794  153.5118 O   0  0  0  0  0  0  0  0  0  0  0  0
  146.5264  135.2581  151.7809 N   0  0  0  0  0  0  0  0  0  0  0  0
  145.9158  134.1077  151.2111 C   0  0  0  0  0  0  0  0  0  0  0  0
  144.5070  134.0429  151.2195 C   0  0  0  0  0  0  0  0  0  0  0  0
  143.8755  132.9076  150.6736 C   0  0  0  0  0  0  0  0  0  0  0  0
  144.5509  131.8653  150.1458 N   0  0  0  0  0  0  0  0  0  0  0  0
  145.8995  131.9224  150.1510 C   0  0  0  0  0  0  0  0  0  0  0  0
  146.6291  133.0103  150.6712 C   0  0  0  0  0  0  0  0  0  0  0  0
  147.7670  139.1682  153.9288 C   0  0  0  0  0  0  0  0  0  0  0  0
  149.2660  138.8382  154.0536 C   0  0  0  0  0  0  0  0  0  0  0  0
  153.3450  138.5084  158.5500 H   0  0  0  0  0  0  0  0  0  0  0  0
  152.5164  137.3756  157.5116 H   0  0  0  0  0  0  0  0  0  0  0  0
  151.6012  138.5440  158.4422 H   0  0  0  0  0  0  0  0  0  0  0  0
  151.4562  137.5316  154.6713 H   0  0  0  0  0  0  0  0  0  0  0  0
  151.2296  137.3526  156.3944 H   0  0  0  0  0  0  0  0  0  0  0  0
  149.0508  136.2361  154.9023 H   0  0  0  0  0  0  0  0  0  0  0  0
  148.9987  136.6037  156.6109 H   0  0  0  0  0  0  0  0  0  0  0  0
  146.6992  136.3937  155.7196 H   0  0  0  0  0  0  0  0  0  0  0  0
  146.9996  137.9889  156.3485 H   0  0  0  0  0  0  0  0  0  0  0  0
  145.8425  138.2736  154.2442 H   0  0  0  0  0  0  0  0  0  0  0  0
  147.7918  137.0786  152.4839 H   0  0  0  0  0  0  0  0  0  0  0  0
  147.4134  135.5173  151.3750 H   0  0  0  0  0  0  0  0  0  0  0  0
  143.9158  134.8480  151.6307 H   0  0  0  0  0  0  0  0  0  0  0  0
  142.7980  132.8348  150.6621 H   0  0  0  0  0  0  0  0  0  0  0  0
  146.4155  131.0709  149.7326 H   0  0  0  0  0  0  0  0  0  0  0  0
  147.7071  132.9725  150.6551 H   0  0  0  0  0  0  0  0  0  0  0  0
  147.5551  139.5840  152.9428 H   0  0  0  0  0  0  0  0  0  0  0  0
  147.5154  139.9502  154.6467 H   0  0  0  0  0  0  0  0  0  0  0  0
  149.8428  139.7547  153.9223 H   0  0  0  0  0  0  0  0  0  0  0  0
  149.5728  138.1566  153.2588 H   0  0  0  0  0  0  0  0  0  0  0  0
  149.3129  138.9113  156.0717 H   0  0  0  0  0  0  0  0  0  0  0  0
  1  2  1  0  0  0  0
  1 22  1  0  0  0  0
  1 23  1  0  0  0  0
  1 24  1  0  0  0  0
  2  3  1  0  0  0  0
  3  4  2  0  0  0  0
  3  5  1  0  0  0  0
  5  6  1  0  0  0  0
  5 25  1  0  0  0  0
  5 26  1  0  0  0  0
  6 21  1  0  0  0  0
  6  7  1  0  0  0  0
  6 42  1  0  0  0  0
  7  8  1  0  0  0  0
  7 27  1  0  0  0  0
  7 28  1  0  0  0  0
  8  9  1  0  0  0  0
  8 29  1  0  0  0  0
  8 30  1  0  0  0  0
  9 10  1  0  0  0  0
  9 20  1  0  0  0  0
  9 31  1  0  0  0  0
 10 11  1  0  0  0  0
 10 32  1  0  0  0  0
 11 12  2  0  0  0  0
 11 13  1  0  0  0  0
 13 14  1  0  0  0  0
 13 33  1  0  0  0  0
 14 19  1  0  0  0  0
 14 15  2  0  0  0  0
 15 16  1  0  0  0  0
 15 34  1  0  0  0  0
 16 17  2  0  0  0  0
 16 35  1  0  0  0  0
 17 18  1  0  0  0  0
 18 19  2  0  0  0  0
 18 36  1  0  0  0  0
 19 37  1  0  0  0  0
 20 21  1  0  0  0  0
 20 38  1  0  0  0  0
 20 39  1  0  0  0  0
 21 40  1  0  0  0  0
 21 41  1  0  0  0  0
M  CHG  1   2  -1
M  CHG  1   6   1
M  END
> <s_m_source_file>
AV-unprocessed.smi

> <i_m_source_file_index>
1929

> <i_lp_mmshare_version>
43012

> <i_f3d_flags>
0

> <s_epik_input>
W0NIM11bTkhdQyg9TylbQ0gyXU4xW0NIMl1bQ0gyXVtDSF0oW0NIMl1bQ0gyXTEpW05IXUMoPU8pW05IXWMyW2NIXVtjSF1uW2NIXVtjSF0y

> <s_epik_cmdline>
J2VwaWtfcHl0aG9uJywgJy1waCcsICc3LjAnLCAnLXRuJywgJzgnLCAnLW1hJywgJzIwMCcsICctbWV0YWxfYmluZGluZycsICctaW1hZScsICc8aW5maWxlLm1hZT4nLCAnLW9tYWUnLCAnPG91dGZpbGUubWFlPic=

> <r_epik_Ionization_Penalty>
6.23856

> <r_epik_Ionization_Penalty_Charging>
6.13946

> <r_epik_Ionization_Penalty_Neutral>
0.0990993

> <r_epik_State_Penalty>
7.04382

> <r_epik_Charging_Adjusted_Penalty>
13.1833

> <i_epik_Tot_Q>
0

> <i_epik_Tot_abs_Q>
2

> <r_epik_Metal_State_Penalty>
3.07449

> <b_epik_Metal_Only>
1

> <s_lp_Force_Field>
OPLS_2005

> <r_lp_Energy>
14.5033

> <b_lp_Chiralities_Consistent>
1

> <s_lp_Variant>
AV-unprocessed.smi:1929-8

> <Gold.Version>
5.8.1

> <Gold.Id.Protein>
6NUR|6NUR_protein|mol2

> <Gold.PLP.Fitness>
44.9195

> <Gold.PLP.PLP>
-27.7224

> <Gold.PLP.part.hbond>
-3.7895

> <Gold.PLP.part.metal>
0.0000

> <Gold.PLP.part.buried>
-3.3604

> <Gold.PLP.part.nonpolar>
-21.0874

> <Gold.PLP.part.repulsive>
0.3438

> <Gold.PLP.ligand.clash>
0.0000

> <Gold.PLP.ligand.torsion>
0.7720

> <Gold.PLP.Chemscore.Hbond>
4.7120

> <Gold.PLP.Chemscore.CHOScore>
1.5198

> <Gold.PLP.Chemscore.Metal>
0.0000

> <Gold.Chemscore.Hbonds>
donor molecule, donor type, donor heavy atom, donor atom, acceptor molecule, acceptor atom, score
      L1  H    10    32       P1  7948  0.83
      L1  H    13    33       P1  7948  0.83
      P1  H  7989  7998       L1     4  0.94
      P1  H  7997  8008       L1     2  2.00
      L1  C    16    35       P1 10186  0.74
      L1  C    18    36       P1 10747  0.61

> <Gold.PLP.Chemscore.Internal.Correction>
0.0457

> <Gold.Rescore>
     Score         DG    S(hbond)    S(metal)    S(lipo)     H(rot)  DE(clash)    DE(int)     intcor
     17.36     -20.71       3.74        0.00      59.17       1.63       0.00       3.35       ----

> <Gold.Chemscore.Fitness>
17.3582

> <Gold.Chemscore.DG>
-20.7119

> <Gold.Chemscore.ZeroCoef>
-5.4800

> <Gold.Chemscore.Hbond>
3.7386

> <Gold.Chemscore.Metal>
0.0000

> <Gold.Chemscore.Lipo>
59.1744

> <Gold.Chemscore.Internal_Hbond>
0.0000

> <Gold.Chemscore.DEClash>
0.0000

> <Gold.Chemscore.DEInternal>
3.3536

> <Gold.Chemscore.Rot>
1.6323

> <Gold.Chemscore.Internal.Correction>
   9.000000E+99

> <Gold.Chemscore.Hbonds>
donor molecule, donor type, donor heavy atom, donor atom, acceptor molecule, acceptor atom, score
      L1  H    10    32       P1  7948  0.80
      L1  H    13    33       P1  7948  0.74
      P1  H  7989  7998       L1     4  0.87
      P1  H  7997  8008       L1     2  0.77

> <Gold.Chemscore.Hbond.Weighted>
-12.4870

> <Gold.Chemscore.Metal.Weighted>
-0.0000

> <Gold.Chemscore.Lipo.Weighted>
-6.9234

> <Gold.Chemscore.Internal_Hbond.Weighted>
0.0000

> <Gold.Chemscore.DEClash.Weighted>
0.0000

> <Gold.Chemscore.DEInternal.Weighted>
3.3536

> <Gold.Chemscore.Rot.Weighted>
4.1786

> <Gold.Chemscore.Internal.Correction.Weighted>
   9.000000E+99

> <Gold.Protein.RotatedTorsions>
[ 6907 6896 6895 6894 ] final -167.94 input  -60.11 | X-H torsion
[ 7974 7965 7964 7962 ] final   -8.02 input  175.53 | X-H torsion
[ 8008 7997 7996 7995 ] final  -59.10 input   59.86 | X-H torsion
[ 10167 10162 10161 10158 ] final   64.41 input  -65.29 | X-H torsion
[ 10718 10713 10712 10709 ] final -147.57 input   66.30 | X-H torsion
[ 10763 10752 10751 10750 ] final   26.16 input  -60.55 | X-H torsion
[ 11005 11000 10999 10996 ] final -111.28 input  -57.11 | X-H torsion

> <Gold.Protein.ActiveResidues>
 VAL166  LYS551  ARG553  GLY616  TRP617  ASP618  TYR619  PRO620  LYS621  CYS622 
 ASP623  PHE694  ASN695  SER759  ASP760  ASP761  ALA762  ILE779  LEU786  VAL792 
 PHE793  MET794  SER795  GLU796  ALA797  LYS798  CYS799  TRP800  GLU811  SER814 

> <Gold.Protein.RotatedAtoms>
  151.4675  133.3577  159.2818 H   0  0  0  0  0  0  0  0  0  0  0  0  # atno 6907 bound_to 6896
  150.8983  134.8395  159.7353 H   0  0  0  0  0  0  0  0  0  0  0  0  # atno 6908 bound_to 6896
  152.4864  134.4593  159.9652 H   0  0  0  0  0  0  0  0  0  0  0  0  # atno 6909 bound_to 6896
  146.2292  140.2405  142.8343 H   0  0  0  0  0  0  0  0  0  0  0  0  # atno 7974 bound_to 7965
  154.4337  140.1069  156.6062 H   0  0  0  0  0  0  0  0  0  0  0  0  # atno 8008 bound_to 7997
  155.5858  140.3491  155.4534 H   0  0  0  0  0  0  0  0  0  0  0  0  # atno 8009 bound_to 7997
  156.0284  140.1255  157.0274 H   0  0  0  0  0  0  0  0  0  0  0  0  # atno 8010 bound_to 7997
  140.1225  144.4718  150.6912 H   0  0  0  0  0  0  0  0  0  0  0  0  # atno 10167 bound_to 10162
  156.4092  130.7973  151.2189 H   0  0  0  0  0  0  0  0  0  0  0  0  # atno 10718 bound_to 10713
  153.0641  135.6566  154.0394 H   0  0  0  0  0  0  0  0  0  0  0  0  # atno 10763 bound_to 10752
  154.0055  135.2933  155.3399 H   0  0  0  0  0  0  0  0  0  0  0  0  # atno 10764 bound_to 10752
  154.6992  135.5251  153.8571 H   0  0  0  0  0  0  0  0  0  0  0  0  # atno 10765 bound_to 10752
  141.0743  133.9327  157.2421 H   0  0  0  0  0  0  0  0  0  0  0  0  # atno 11005 bound_to 11000
  144.9488  140.8156  143.5585 LP  0  0  0  0  0  0  0  0  0  0  0  0  # atno 17320 bound_to 7965
  145.2364  139.2092  143.5016 LP  0  0  0  0  0  0  0  0  0  0  0  0  # atno 17321 bound_to 7965
  140.6864  143.2352  151.5249 LP  0  0  0  0  0  0  0  0  0  0  0  0  # atno 17342 bound_to 10162
  139.5561  144.2272  152.1615 LP  0  0  0  0  0  0  0  0  0  0  0  0  # atno 17343 bound_to 10162
  157.7506  131.0263  150.3955 LP  0  0  0  0  0  0  0  0  0  0  0  0  # atno 17370 bound_to 10713
  156.4250  130.3960  149.6799 LP  0  0  0  0  0  0  0  0  0  0  0  0  # atno 17371 bound_to 10713
  139.9556  135.0166  156.9117 LP  0  0  0  0  0  0  0  0  0  0  0  0  # atno 17394 bound_to 11000
  140.5606  134.0538  155.7398 LP  0  0  0  0  0  0  0  0  0  0  0  0  # atno 17395 bound_to 11000

$$$$
