AV-unprocessed.smi:224|AV-procd|sdf|1720|dock9
  -GOLD-   2262020193D 1   1.00000     0.00000
 Structure written by MMmdl.
 56 59  0  0  0  0  0  0  0  0  2 V2000
  152.2339  144.2963  159.5606 C   0  0  0  0  0  0  0  0  0  0  0  0
  150.9720  144.0496  158.7236 C   0  0  1  0  0  0  0  0  0  0  0  0
  150.4550  145.3083  158.3405 O   0  0  0  0  0  0  0  0  0  0  0  0
  151.2771  143.2139  157.4640 C   0  0  0  0  0  0  0  0  0  0  0  0
  150.0689  142.5571  156.8988 N   0  3  2  0  0  0  0  0  0  0  0  0
  149.1170  142.0576  157.9278 C   0  0  0  0  0  0  0  0  0  0  0  0
  147.8287  141.5264  157.2738 C   0  0  0  0  0  0  0  0  0  0  0  0
  148.1283  140.5375  156.2401 N   0  0  0  0  0  0  0  0  0  0  0  0
  148.1652  139.2174  156.5670 C   0  0  0  0  0  0  0  0  0  0  0  0
  149.0397  138.3923  155.9313 N   0  0  0  0  0  0  0  0  0  0  0  0
  149.0769  137.0888  156.2212 C   0  0  0  0  0  0  0  0  0  0  0  0
  148.3442  136.4113  157.1053 N   0  0  0  0  0  0  0  0  0  0  0  0
  147.4778  137.2328  157.7635 C   0  0  0  0  0  0  0  0  0  0  0  0
  147.3220  138.6332  157.5563 C   0  0  0  0  0  0  0  0  0  0  0  0
  146.3461  139.1284  158.4139 N   0  0  0  0  0  0  0  0  0  0  0  0
  145.9406  138.0811  159.0783 C   0  0  0  0  0  0  0  0  0  0  0  0
  146.5759  136.9025  158.7601 N   0  0  0  0  0  0  0  0  0  0  0  0
  146.3272  135.5940  159.3452 C   0  0  0  0  0  0  0  0  0  0  0  0
  147.4813  135.0756  160.2415 C   0  0  2  0  0  0  0  0  0  0  0  0
  148.6169  134.7955  159.4454 O   0  0  0  0  0  0  0  0  0  0  0  0
  147.0877  133.8296  161.0179 C   0  0  0  0  0  0  0  0  0  0  0  0
  146.4004  134.4027  162.2556 C   0  0  0  0  0  0  0  0  0  0  0  0
  146.9737  135.6902  162.4639 O   0  0  0  0  0  0  0  0  0  0  0  0
  147.8574  136.0141  161.3953 C   0  0  0  0  0  0  0  0  0  0  0  0
  149.0662  141.0010  155.2188 C   0  0  0  0  0  0  0  0  0  0  0  0
  150.3711  141.5470  155.8407 C   0  0  2  0  0  0  0  0  0  0  0  0
  151.3057  140.4161  156.3229 C   0  0  0  0  0  0  0  0  0  0  0  0
  152.6660  143.3559  159.9035 H   0  0  0  0  0  0  0  0  0  0  0  0
  152.0096  144.8953  160.4441 H   0  0  0  0  0  0  0  0  0  0  0  0
  152.9972  144.8232  158.9866 H   0  0  0  0  0  0  0  0  0  0  0  0
  150.2365  143.5528  159.3552 H   0  0  0  0  0  0  0  0  0  0  0  0
  149.5429  145.2120  158.1147 H   0  0  0  0  0  0  0  0  0  0  0  0
  151.7241  143.8708  156.7158 H   0  0  0  0  0  0  0  0  0  0  0  0
  152.0257  142.4518  157.6869 H   0  0  0  0  0  0  0  0  0  0  0  0
  149.5922  141.2775  158.5229 H   0  0  0  0  0  0  0  0  0  0  0  0
  148.8528  142.8543  158.6215 H   0  0  0  0  0  0  0  0  0  0  0  0
  147.1495  141.1223  158.0254 H   0  0  0  0  0  0  0  0  0  0  0  0
  147.2940  142.3518  156.8022 H   0  0  0  0  0  0  0  0  0  0  0  0
  149.7960  136.5051  155.6657 H   0  0  0  0  0  0  0  0  0  0  0  0
  145.1677  138.1413  159.8311 H   0  0  0  0  0  0  0  0  0  0  0  0
  145.3997  135.6535  159.9156 H   0  0  0  0  0  0  0  0  0  0  0  0
  146.1379  134.8898  158.5339 H   0  0  0  0  0  0  0  0  0  0  0  0
  148.4123  135.0023  158.5463 H   0  0  0  0  0  0  0  0  0  0  0  0
  146.4531  133.1442  160.4549 H   0  0  0  0  0  0  0  0  0  0  0  0
  147.9766  133.2782  161.3297 H   0  0  0  0  0  0  0  0  0  0  0  0
  145.3306  134.5223  162.0818 H   0  0  0  0  0  0  0  0  0  0  0  0
  146.5296  133.7656  163.1309 H   0  0  0  0  0  0  0  0  0  0  0  0
  148.8712  135.8049  161.7404 H   0  0  0  0  0  0  0  0  0  0  0  0
  147.8167  137.0729  161.1433 H   0  0  0  0  0  0  0  0  0  0  0  0
  149.3032  140.2281  154.4897 H   0  0  0  0  0  0  0  0  0  0  0  0
  148.5731  141.7962  154.6586 H   0  0  0  0  0  0  0  0  0  0  0  0
  150.8996  142.0712  155.0433 H   0  0  0  0  0  0  0  0  0  0  0  0
  151.4793  139.6937  155.5249 H   0  0  0  0  0  0  0  0  0  0  0  0
  150.8925  139.8695  157.1696 H   0  0  0  0  0  0  0  0  0  0  0  0
  152.2817  140.7975  156.6228 H   0  0  0  0  0  0  0  0  0  0  0  0
  149.5755  143.2903  156.4101 H   0  0  0  0  0  0  0  0  0  0  0  0
  1  2  1  0  0  0  0
  1 28  1  0  0  0  0
  1 29  1  0  0  0  0
  1 30  1  0  0  0  0
  2  3  1  0  0  0  0
  2  4  1  0  0  0  0
  2 31  1  0  0  0  0
  3 32  1  0  0  0  0
  4  5  1  0  0  0  0
  4 33  1  0  0  0  0
  4 34  1  0  0  0  0
  5 26  1  0  0  0  0
  5  6  1  0  0  0  0
  5 56  1  0  0  0  0
  6  7  1  0  0  0  0
  6 35  1  0  0  0  0
  6 36  1  0  0  0  0
  7  8  1  0  0  0  0
  7 37  1  0  0  0  0
  7 38  1  0  0  0  0
  8  9  1  0  0  0  0
  8 25  1  0  0  0  0
  9 14  1  0  0  0  0
  9 10  2  0  0  0  0
 10 11  1  0  0  0  0
 11 12  2  0  0  0  0
 11 39  1  0  0  0  0
 12 13  1  0  0  0  0
 13 17  1  0  0  0  0
 13 14  2  0  0  0  0
 14 15  1  0  0  0  0
 15 16  2  0  0  0  0
 16 17  1  0  0  0  0
 16 40  1  0  0  0  0
 17 18  1  0  0  0  0
 18 19  1  0  0  0  0
 18 41  1  0  0  0  0
 18 42  1  0  0  0  0
 19 24  1  0  0  0  0
 19 20  1  0  0  0  0
 19 21  1  0  0  0  0
 20 43  1  0  0  0  0
 21 22  1  0  0  0  0
 21 44  1  0  0  0  0
 21 45  1  0  0  0  0
 22 23  1  0  0  0  0
 22 46  1  0  0  0  0
 22 47  1  0  0  0  0
 23 24  1  0  0  0  0
 24 48  1  0  0  0  0
 24 49  1  0  0  0  0
 25 26  1  0  0  0  0
 25 50  1  0  0  0  0
 25 51  1  0  0  0  0
 26 27  1  0  0  0  0
 26 52  1  0  0  0  0
 27 53  1  0  0  0  0
 27 54  1  0  0  0  0
 27 55  1  0  0  0  0
M  CHG  1   5   1
M  END
> <s_m_source_file>
AV-unprocessed.smi

> <i_m_source_file_index>
224

> <i_lp_mmshare_version>
43012

> <i_f3d_flags>
0

> <s_epik_input>
W0NIM11bQ0BIXShbT0hdKVtDSDJdTjFbQ0gyXVtDSDJdTihbQ0gyXVtDQEhdMVtDSDNdKWMobltjSF1uMiljKGMyMyluW2NIXW4zW0NIMl1bQ0BAXTQoW09IXSlbQ0gyXVtDSDJdT1tDSDJdNA==

> <s_epik_cmdline>
J2VwaWtfcHl0aG9uJywgJy1waCcsICc3LjAnLCAnLXRuJywgJzgnLCAnLW1hJywgJzIwMCcsICctbWV0YWxfYmluZGluZycsICctaW1hZScsICc8aW5maWxlLm1hZT4nLCAnLW9tYWUnLCAnPG91dGZpbGUubWFlPic=

> <r_lp_tautomer_probability>
1

> <r_epik_Ionization_Penalty>
0.00516958

> <r_epik_Ionization_Penalty_Charging>
0.00509693

> <r_epik_Ionization_Penalty_Neutral>
7.26542e-05

> <r_epik_State_Penalty>
-0

> <r_epik_Charging_Adjusted_Penalty>
0.00509693

> <i_epik_Tot_Q>
1

> <i_epik_Tot_abs_Q>
1

> <r_epik_Metal_State_Penalty>
-0

> <b_epik_Metal_Only>
0

> <s_lp_Force_Field>
OPLS_2005

> <r_lp_Energy>
52.1704

> <b_lp_Chiralities_Consistent>
1

> <s_lp_Variant>
AV-unprocessed.smi:224-14

> <Gold.Version>
5.8.1

> <Gold.Id.Protein>
6NUR|6NUR_protein|mol2

> <Gold.PLP.Fitness>
47.2871

> <Gold.PLP.PLP>
-36.4073

> <Gold.PLP.part.hbond>
-4.9986

> <Gold.PLP.part.metal>
0.0000

> <Gold.PLP.part.buried>
-4.4381

> <Gold.PLP.part.nonpolar>
-27.9299

> <Gold.PLP.part.repulsive>
0.0466

> <Gold.PLP.ligand.clash>
0.0000

> <Gold.PLP.ligand.torsion>
0.7126

> <Gold.PLP.Chemscore.Hbond>
3.9920

> <Gold.PLP.Chemscore.CHOScore>
0.0000

> <Gold.PLP.Chemscore.Metal>
0.0000

> <Gold.Chemscore.Hbonds>
donor molecule, donor type, donor heavy atom, donor atom, acceptor molecule, acceptor atom, score
      L1  H     3    32       P1  8029  0.98
      L1  H     5    56       P1  8028  2.00
      P1  H  6896  6909       L1    20  0.96

> <Gold.PLP.Chemscore.Internal.Correction>
0.3290

> <Gold.Rescore>
     Score         DG    S(hbond)    S(metal)    S(lipo)     H(rot)  DE(clash)    DE(int)     intcor
     15.13     -16.93       2.80        0.00      84.09       3.02       0.04       1.76       ----

> <Gold.Chemscore.Fitness>
15.1284

> <Gold.Chemscore.DG>
-16.9252

> <Gold.Chemscore.ZeroCoef>
-5.4800

> <Gold.Chemscore.Hbond>
2.7980

> <Gold.Chemscore.Metal>
0.0000

> <Gold.Chemscore.Lipo>
84.0930

> <Gold.Chemscore.Internal_Hbond>
0.0000

> <Gold.Chemscore.DEClash>
0.0358

> <Gold.Chemscore.DEInternal>
1.7610

> <Gold.Chemscore.Rot>
3.0231

> <Gold.Chemscore.Internal.Correction>
   9.000000E+99

> <Gold.Chemscore.Hbonds>
donor molecule, donor type, donor heavy atom, donor atom, acceptor molecule, acceptor atom, score
      L1  H     3    32       P1  8029  0.27
      L1  H     5    56       P1  8028  1.00
      P1  H  6896  6909       L1    20  0.49

> <Gold.Chemscore.Hbond.Weighted>
-9.3454

> <Gold.Chemscore.Metal.Weighted>
-0.0000

> <Gold.Chemscore.Lipo.Weighted>
-9.8389

> <Gold.Chemscore.Internal_Hbond.Weighted>
0.0000

> <Gold.Chemscore.DEClash.Weighted>
0.0358

> <Gold.Chemscore.DEInternal.Weighted>
1.7610

> <Gold.Chemscore.Rot.Weighted>
7.7391

> <Gold.Chemscore.Internal.Correction.Weighted>
   9.000000E+99

> <Gold.Protein.RotatedTorsions>
[ 6907 6896 6895 6894 ] final   35.98 input  -60.11 | X-H torsion
[ 7974 7965 7964 7962 ] final -146.42 input  175.53 | X-H torsion
[ 8008 7997 7996 7995 ] final   14.93 input   59.86 | X-H torsion
[ 10167 10162 10161 10158 ] final  165.91 input  -65.29 | X-H torsion
[ 10718 10713 10712 10709 ] final  150.48 input   66.30 | X-H torsion
[ 10763 10752 10751 10750 ] final   72.59 input  -60.55 | X-H torsion
[ 11005 11000 10999 10996 ] final   36.61 input  -57.11 | X-H torsion

> <Gold.Protein.ActiveResidues>
 VAL166  LYS551  ARG553  GLY616  TRP617  ASP618  TYR619  PRO620  LYS621  CYS622 
 ASP623  PHE694  ASN695  SER759  ASP760  ASP761  ALA762  ILE779  LEU786  VAL792 
 PHE793  MET794  SER795  GLU796  ALA797  LYS798  CYS799  TRP800  GLU811  SER814 

> <Gold.Protein.RotatedAtoms>
  152.1236  134.9187  160.0561 H   0  0  0  0  0  0  0  0  0  0  0  0  # atno 6907 bound_to 6896
  152.0319  133.3936  159.4309 H   0  0  0  0  0  0  0  0  0  0  0  0  # atno 6908 bound_to 6896
  150.6851  134.3432  159.4921 H   0  0  0  0  0  0  0  0  0  0  0  0  # atno 6909 bound_to 6896
  144.8160  140.5458  143.5610 H   0  0  0  0  0  0  0  0  0  0  0  0  # atno 7974 bound_to 7965
  154.8555  140.2936  155.5572 H   0  0  0  0  0  0  0  0  0  0  0  0  # atno 8008 bound_to 7997
  156.3018  140.2488  156.3453 H   0  0  0  0  0  0  0  0  0  0  0  0  # atno 8009 bound_to 7997
  154.8975  140.0392  157.1863 H   0  0  0  0  0  0  0  0  0  0  0  0  # atno 8010 bound_to 7997
  139.4914  144.4082  151.9330 H   0  0  0  0  0  0  0  0  0  0  0  0  # atno 10167 bound_to 10162
  157.2830  131.0839  151.1518 H   0  0  0  0  0  0  0  0  0  0  0  0  # atno 10718 bound_to 10713
  153.0468  135.5094  154.7766 H   0  0  0  0  0  0  0  0  0  0  0  0  # atno 10763 bound_to 10752
  154.6660  135.2946  154.9807 H   0  0  0  0  0  0  0  0  0  0  0  0  # atno 10764 bound_to 10752
  154.0641  135.6686  153.4868 H   0  0  0  0  0  0  0  0  0  0  0  0  # atno 10765 bound_to 10752
  140.2308  134.3529  155.7964 H   0  0  0  0  0  0  0  0  0  0  0  0  # atno 11005 bound_to 11000
  145.5213  139.1476  143.3551 LP  0  0  0  0  0  0  0  0  0  0  0  0  # atno 17320 bound_to 7965
  146.2463  140.5353  142.8912 LP  0  0  0  0  0  0  0  0  0  0  0  0  # atno 17321 bound_to 7965
  140.3523  144.3074  150.5947 LP  0  0  0  0  0  0  0  0  0  0  0  0  # atno 17342 bound_to 10162
  140.5475  143.2212  151.7983 LP  0  0  0  0  0  0  0  0  0  0  0  0  # atno 17343 bound_to 10162
  157.2944  130.6812  149.6131 LP  0  0  0  0  0  0  0  0  0  0  0  0  # atno 17370 bound_to 10713
  155.9665  130.4411  150.5326 LP  0  0  0  0  0  0  0  0  0  0  0  0  # atno 17371 bound_to 10713
  141.2218  133.7244  156.8729 LP  0  0  0  0  0  0  0  0  0  0  0  0  # atno 17394 bound_to 11000
  140.1752  134.9072  157.2882 LP  0  0  0  0  0  0  0  0  0  0  0  0  # atno 17395 bound_to 11000

$$$$
