AV-unprocessed.smi:2877|AV-procd|sdf|11043|dock5
  -GOLD-   2272015513D 1   1.00000     0.00000
 Structure written by MMmdl.
 41 42  0  0  0  0  0  0  0  0  1 V2000
  152.8138  140.0789  158.0276 O   0  0  0  0  0  0  0  0  0  0  0  0
  152.1339  141.1006  158.1388 C   0  0  0  0  0  0  0  0  0  0  0  0
  150.7768  141.1741  157.4171 C   0  0  0  0  0  0  0  0  0  0  0  0
  150.7911  142.0391  156.1395 C   0  0  0  0  0  0  0  0  0  0  0  0
  149.4500  142.2026  155.5892 N   0  0  0  0  0  0  0  0  0  0  0  0
  148.5977  141.2021  155.3115 C   0  0  0  0  0  0  0  0  0  0  0  0
  148.8788  140.0165  155.4958 O   0  0  0  0  0  0  0  0  0  0  0  0
  147.2193  141.6165  154.7681 C   0  0  0  0  0  0  0  0  0  0  0  0
  147.4160  142.3878  153.6970 F   0  0  0  0  0  0  0  0  0  0  0  0
  146.5661  140.5232  154.3663 F   0  0  0  0  0  0  0  0  0  0  0  0
  146.3855  142.3619  155.8101 C   0  0  0  0  0  0  0  0  0  0  0  0
  145.1141  142.8882  155.4850 C   0  0  0  0  0  0  0  0  0  0  0  0
  144.3926  143.5751  156.4800 C   0  0  0  0  0  0  0  0  0  0  0  0
  144.9636  143.7127  157.7593 C   0  0  0  0  0  0  0  0  0  0  0  0
  146.2378  143.1569  157.9868 C   0  0  0  0  0  0  0  0  0  0  0  0
  146.9380  142.4968  157.0398 N   0  0  0  0  0  0  0  0  0  0  0  0
  152.5444  142.1638  158.8734 N   0  0  0  0  0  0  0  0  0  0  0  0
  151.7140  143.3599  159.0694 C   0  0  0  0  0  0  0  0  0  0  0  0
  151.2404  143.4035  160.5341 C   0  0  0  0  0  0  0  0  0  0  0  0
  152.4375  143.3631  161.5026 C   0  0  0  0  0  0  0  0  0  0  0  0
  153.4016  142.2098  161.1668 C   0  0  0  0  0  0  0  0  0  0  0  0
  153.7763  142.2251  159.6737 C   0  0  0  0  0  0  0  0  0  0  0  0
  150.4663  140.1611  157.1593 H   0  0  0  0  0  0  0  0  0  0  0  0
  150.0368  141.5745  158.1114 H   0  0  0  0  0  0  0  0  0  0  0  0
  151.1793  143.0341  156.3612 H   0  0  0  0  0  0  0  0  0  0  0  0
  151.4508  141.6060  155.3853 H   0  0  0  0  0  0  0  0  0  0  0  0
  149.1430  143.1478  155.4098 H   0  0  0  0  0  0  0  0  0  0  0  0
  144.6992  142.7761  154.4943 H   0  0  0  0  0  0  0  0  0  0  0  0
  143.4190  143.9903  156.2649 H   0  0  0  0  0  0  0  0  0  0  0  0
  144.4384  144.2331  158.5464 H   0  0  0  0  0  0  0  0  0  0  0  0
  146.7072  143.2449  158.9554 H   0  0  0  0  0  0  0  0  0  0  0  0
  152.3015  144.2496  158.8381 H   0  0  0  0  0  0  0  0  0  0  0  0
  150.8526  143.3936  158.4010 H   0  0  0  0  0  0  0  0  0  0  0  0
  150.6472  144.3010  160.7110 H   0  0  0  0  0  0  0  0  0  0  0  0
  150.5838  142.5543  160.7283 H   0  0  0  0  0  0  0  0  0  0  0  0
  152.9784  144.3081  161.4390 H   0  0  0  0  0  0  0  0  0  0  0  0
  152.0886  143.2768  162.5319 H   0  0  0  0  0  0  0  0  0  0  0  0
  154.2997  142.2842  161.7806 H   0  0  0  0  0  0  0  0  0  0  0  0
  152.9337  141.2563  161.4153 H   0  0  0  0  0  0  0  0  0  0  0  0
  154.4805  141.4218  159.4639 H   0  0  0  0  0  0  0  0  0  0  0  0
  154.3107  143.1457  159.4347 H   0  0  0  0  0  0  0  0  0  0  0  0
  1  2  2  0  0  0  0
  2  3  1  0  0  0  0
  2 17  1  0  0  0  0
  3  4  1  0  0  0  0
  3 23  1  0  0  0  0
  3 24  1  0  0  0  0
  4  5  1  0  0  0  0
  4 25  1  0  0  0  0
  4 26  1  0  0  0  0
  5  6  1  0  0  0  0
  5 27  1  0  0  0  0
  6  7  2  0  0  0  0
  6  8  1  0  0  0  0
  8  9  1  0  0  0  0
  8 10  1  0  0  0  0
  8 11  1  0  0  0  0
 11 16  1  0  0  0  0
 11 12  2  0  0  0  0
 12 13  1  0  0  0  0
 12 28  1  0  0  0  0
 13 14  2  0  0  0  0
 13 29  1  0  0  0  0
 14 15  1  0  0  0  0
 14 30  1  0  0  0  0
 15 16  2  0  0  0  0
 15 31  1  0  0  0  0
 17 22  1  0  0  0  0
 17 18  1  0  0  0  0
 18 19  1  0  0  0  0
 18 32  1  0  0  0  0
 18 33  1  0  0  0  0
 19 20  1  0  0  0  0
 19 34  1  0  0  0  0
 19 35  1  0  0  0  0
 20 21  1  0  0  0  0
 20 36  1  0  0  0  0
 20 37  1  0  0  0  0
 21 22  1  0  0  0  0
 21 38  1  0  0  0  0
 21 39  1  0  0  0  0
 22 40  1  0  0  0  0
 22 41  1  0  0  0  0
M  END
> <s_m_source_file>
AV-unprocessed.smi

> <i_m_source_file_index>
2877

> <i_lp_mmshare_version>
43012

> <i_f3d_flags>
0

> <s_epik_input>
W0NIMl0xW0NIMl1bQ0gyXVtDSDJdW0NIMl1OMUMoPU8pW0NIMl1bQ0gyXVtOSF1DKD1PKUMoRikoRiljMltjSF1bY0hdW2NIXVtjSF1uMg==

> <s_epik_cmdline>
J2VwaWtfcHl0aG9uJywgJy1waCcsICc3LjAnLCAnLXRuJywgJzgnLCAnLW1hJywgJzIwMCcsICctbWV0YWxfYmluZGluZycsICctaW1hZScsICc8aW5maWxlLm1hZT4nLCAnLW9tYWUnLCAnPG91dGZpbGUubWFlPic=

> <r_lp_tautomer_probability>
1

> <r_epik_Ionization_Penalty>
7.88991e-05

> <r_epik_Ionization_Penalty_Charging>
0

> <r_epik_Ionization_Penalty_Neutral>
7.88991e-05

> <r_epik_State_Penalty>
-0

> <r_epik_Charging_Adjusted_Penalty>
0

> <i_epik_Tot_Q>
0

> <i_epik_Tot_abs_Q>
0

> <r_epik_Metal_State_Penalty>
0.0639978

> <b_epik_Metal_Only>
0

> <s_lp_Force_Field>
OPLS_2005

> <r_lp_Energy>
32.8241

> <b_lp_Chiralities_Consistent>
1

> <s_lp_Variant>
AV-unprocessed.smi:2877-1

> <Gold.Version>
5.8.1

> <Gold.Id.Protein>
6NUR|6NUR_protein|mol2

> <Gold.PLP.Fitness>
44.2912

> <Gold.PLP.PLP>
-39.1958

> <Gold.PLP.part.hbond>
-2.0000

> <Gold.PLP.part.metal>
0.0000

> <Gold.PLP.part.buried>
-5.3951

> <Gold.PLP.part.nonpolar>
-32.1215

> <Gold.PLP.part.repulsive>
0.3510

> <Gold.PLP.ligand.clash>
0.0000

> <Gold.PLP.ligand.torsion>
0.4579

> <Gold.PLP.Chemscore.Hbond>
1.9913

> <Gold.PLP.Chemscore.CHOScore>
0.0000

> <Gold.PLP.Chemscore.Metal>
0.0000

> <Gold.Chemscore.Hbonds>
donor molecule, donor type, donor heavy atom, donor atom, acceptor molecule, acceptor atom, score
      L1  H     5    27       P1  8028  1.00
      P1  H  7997  8010       L1     1  1.00

> <Gold.PLP.Chemscore.Internal.Correction>
0.0375

> <Gold.Rescore>
     Score         DG    S(hbond)    S(metal)    S(lipo)     H(rot)  DE(clash)    DE(int)     intcor
     14.99     -16.70       1.88        0.00      84.93       1.95       0.02       1.69       ----

> <Gold.Chemscore.Fitness>
14.9861

> <Gold.Chemscore.DG>
-16.7013

> <Gold.Chemscore.ZeroCoef>
-5.4800

> <Gold.Chemscore.Hbond>
1.8783

> <Gold.Chemscore.Metal>
0.0000

> <Gold.Chemscore.Lipo>
84.9258

> <Gold.Chemscore.Internal_Hbond>
0.0000

> <Gold.Chemscore.DEClash>
0.0236

> <Gold.Chemscore.DEInternal>
1.6916

> <Gold.Chemscore.Rot>
1.9487

> <Gold.Chemscore.Internal.Correction>
   9.000000E+99

> <Gold.Chemscore.Hbonds>
donor molecule, donor type, donor heavy atom, donor atom, acceptor molecule, acceptor atom, score
      L1  H     5    27       P1  8028  0.98
      P1  H  7997  8010       L1     1  0.90

> <Gold.Chemscore.Hbond.Weighted>
-6.2736

> <Gold.Chemscore.Metal.Weighted>
-0.0000

> <Gold.Chemscore.Lipo.Weighted>
-9.9363

> <Gold.Chemscore.Internal_Hbond.Weighted>
0.0000

> <Gold.Chemscore.DEClash.Weighted>
0.0236

> <Gold.Chemscore.DEInternal.Weighted>
1.6916

> <Gold.Chemscore.Rot.Weighted>
4.9886

> <Gold.Chemscore.Internal.Correction.Weighted>
   9.000000E+99

> <Gold.Protein.RotatedTorsions>
[ 6907 6896 6895 6894 ] final  167.93 input  -60.11 | X-H torsion
[ 7974 7965 7964 7962 ] final  -79.78 input  175.53 | X-H torsion
[ 8008 7997 7996 7995 ] final   40.92 input   59.86 | X-H torsion
[ 10167 10162 10161 10158 ] final -104.02 input  -65.29 | X-H torsion
[ 10718 10713 10712 10709 ] final  -69.83 input   66.30 | X-H torsion
[ 10763 10752 10751 10750 ] final   11.77 input  -60.55 | X-H torsion
[ 11005 11000 10999 10996 ] final   84.39 input  -57.11 | X-H torsion

> <Gold.Protein.ActiveResidues>
 VAL166  LYS551  ARG553  GLY616  TRP617  ASP618  TYR619  PRO620  LYS621  CYS622 
 ASP623  PHE694  ASN695  SER759  ASP760  ASP761  ALA762  ILE779  LEU786  VAL792 
 PHE793  MET794  SER795  GLU796  ALA797  LYS798  CYS799  TRP800  GLU811  SER814 

> <Gold.Protein.RotatedAtoms>
  151.8555  133.3447  159.3686 H   0  0  0  0  0  0  0  0  0  0  0  0  # atno 6907 bound_to 6896
  150.7194  134.5257  159.5685 H   0  0  0  0  0  0  0  0  0  0  0  0  # atno 6908 bound_to 6896
  152.2759  134.7882  160.0456 H   0  0  0  0  0  0  0  0  0  0  0  0  # atno 6909 bound_to 6896
  145.5687  140.9470  143.1407 H   0  0  0  0  0  0  0  0  0  0  0  0  # atno 7974 bound_to 7965
  155.2610  140.3359  155.4273 H   0  0  0  0  0  0  0  0  0  0  0  0  # atno 8008 bound_to 7997
  156.2174  140.1795  156.7599 H   0  0  0  0  0  0  0  0  0  0  0  0  # atno 8009 bound_to 7997
  154.5774  140.0659  156.9039 H   0  0  0  0  0  0  0  0  0  0  0  0  # atno 8010 bound_to 7997
  140.2138  143.3727  152.1028 H   0  0  0  0  0  0  0  0  0  0  0  0  # atno 10167 bound_to 10162
  156.0437  130.4320  150.2205 H   0  0  0  0  0  0  0  0  0  0  0  0  # atno 10718 bound_to 10713
  153.1891  135.6839  153.8376 H   0  0  0  0  0  0  0  0  0  0  0  0  # atno 10763 bound_to 10752
  153.7681  135.3200  155.3349 H   0  0  0  0  0  0  0  0  0  0  0  0  # atno 10764 bound_to 10752
  154.8106  135.4719  154.0605 H   0  0  0  0  0  0  0  0  0  0  0  0  # atno 10765 bound_to 10752
  139.9002  134.8213  156.2438 H   0  0  0  0  0  0  0  0  0  0  0  0  # atno 11005 bound_to 11000
  144.7448  139.7350  143.7296 LP  0  0  0  0  0  0  0  0  0  0  0  0  # atno 17320 bound_to 7965
  146.1799  139.4987  142.9873 LP  0  0  0  0  0  0  0  0  0  0  0  0  # atno 17321 bound_to 7965
  139.5170  144.6985  151.5561 LP  0  0  0  0  0  0  0  0  0  0  0  0  # atno 17342 bound_to 10162
  140.6304  143.9086  150.6601 LP  0  0  0  0  0  0  0  0  0  0  0  0  # atno 17343 bound_to 10162
  157.0297  131.0004  151.3316 LP  0  0  0  0  0  0  0  0  0  0  0  0  # atno 17370 bound_to 10713
  157.5286  130.8044  149.7890 LP  0  0  0  0  0  0  0  0  0  0  0  0  # atno 17371 bound_to 10713
  141.0268  133.7011  156.1361 LP  0  0  0  0  0  0  0  0  0  0  0  0  # atno 17394 bound_to 11000
  140.7155  134.4415  157.5579 LP  0  0  0  0  0  0  0  0  0  0  0  0  # atno 17395 bound_to 11000

$$$$
