#       Name:                AV-unprocessed.smi:227
#       Creating user name   scv26
#       Creation time:       Thu Mar 26 20:21:23 2020


#       File generated by GOLD software.
#

@<TRIPOS>MOLECULE
AV-unprocessed.smi:227
    64    68     1
SMALL
NO_CHARGES


@<TRIPOS>ATOM
      1 ****        -1.0531   3.8115  -2.0325 O.3            1 S1                 0.0000
      2 ****        -1.6462   3.1130  -0.9577 C.3            1 S1                 0.0000
      3 ****        -1.0879   3.5958   0.4056 C.3            1 S1                 0.0000
      4 ****         0.4528   3.3822   0.4792 C.3            1 S1                 0.0000
      5 ****         0.8647   1.9854   0.4851 N.pl3          1 S1                 0.0000
      6 ****         1.0158   1.1724   1.5848 C.2            1 S1                 0.0000
      7 ****         1.3940  -0.0481   1.3254 N.2            1 S1                 0.0000
      8 ****         1.5282  -0.0858  -0.0578 C.ar           1 S1                 0.0000
      9 ****         1.9005  -1.0877  -1.0037 C.ar           1 S1                 0.0000
     10 ****         2.2331  -2.3712  -0.6892 N.3            1 S1                 0.0000
     11 ****         1.6348  -3.0581   0.4464 C.3            1 S1                 0.0000
     12 ****         2.4495  -4.3613   0.5078 C.3            1 S1                 0.0000
     13 ****         2.7074  -4.6267  -0.9819 C.3            1 S1                 0.0000
     14 ****         1.9587  -3.4485  -1.6325 C.3            1 S1                 0.0000
     15 ****         0.4212  -3.6248  -1.5293 C.3            1 S1                 0.0000
     16 ****        -0.1541  -4.9434  -2.0786 C.3            1 S1                 0.0000
     17 ****        -1.5633  -4.8734  -2.1178 O.3            1 S1                 0.0000
     18 ****         0.2026  -3.3876  -0.0225 C.3            1 S1                 0.0000
     19 ****         1.9469  -0.7173  -2.3111 N.ar           1 S1                 0.0000
     20 ****         1.6345   0.5276  -2.6787 C.ar           1 S1                 0.0000
     21 ****         1.2581   1.5515  -1.9130 N.ar           1 S1                 0.0000
     22 ****         1.2167   1.1965  -0.5975 C.ar           1 S1                 0.0000
     23 ****        -1.8560   2.9445   1.5988 C.3            1 S1                 0.0000
     24 ****        -3.3358   3.3106   1.6869 C.3            1 S1                 0.0000
     25 ****        -3.3422   4.6339   2.4518 C.3            1 S1                 0.0000
     26 ****        -2.1201   4.6690   3.1795 O.3            1 S1                 0.0000
     27 ****        -1.4222   3.4475   2.9837 C.3            1 S1                 0.0000
     28 ****        -0.1325   3.5975  -2.0560 H              1 S1                 0.0000
     29 ****        -2.7162   3.2867  -1.0416 H              1 S1                 0.0000
     30 ****        -1.4948   2.0419  -1.0913 H              1 S1                 0.0000
     31 ****        -1.2563   4.6725   0.4572 H              1 S1                 0.0000
     32 ****         0.9442   3.8763  -0.3591 H              1 S1                 0.0000
     33 ****         0.8745   3.8651   1.3592 H              1 S1                 0.0000
     34 ****         0.8313   1.5097   2.5940 H              1 S1                 0.0000
     35 ****         1.6687  -2.5269   1.3955 H              1 S1                 0.0000
     36 ****         3.3909  -4.2092   1.0374 H              1 S1                 0.0000
     37 ****         1.9110  -5.1730   0.9980 H              1 S1                 0.0000
     38 ****         3.7752  -4.5618  -1.1955 H              1 S1                 0.0000
     39 ****         2.3679  -5.6073  -1.3126 H              1 S1                 0.0000
     40 ****         2.2999  -3.2600  -2.6510 H              1 S1                 0.0000
     41 ****        -0.0430  -2.8055  -2.0813 H              1 S1                 0.0000
     42 ****         0.2121  -5.1256  -3.0892 H              1 S1                 0.0000
     43 ****         0.1340  -5.7968  -1.4654 H              1 S1                 0.0000
     44 ****        -1.8815  -4.7384  -1.2383 H              1 S1                 0.0000
     45 ****        -0.2151  -4.2505   0.4977 H              1 S1                 0.0000
     46 ****        -0.4687  -2.5431   0.1383 H              1 S1                 0.0000
     47 ****         1.6933   0.7312  -3.7377 H              1 S1                 0.0000
     48 ****        -1.7470   1.8612   1.5384 H              1 S1                 0.0000
     49 ****        -3.8671   3.3748   0.7401 H              1 S1                 0.0000
     50 ****        -3.8514   2.5552   2.2819 H              1 S1                 0.0000
     51 ****        -3.3674   5.4821   1.7669 H              1 S1                 0.0000
     52 ****        -4.2007   4.7116   3.1195 H              1 S1                 0.0000
     53 ****        -1.7478   2.7431   3.7507 H              1 S1                 0.0000
     54 ****        -0.3509   3.5817   3.1149 H              1 S1                 0.0000
     55 ****        -1.1677   4.7960  -1.8997 LP             1 S1                 0.0000
     56 ****        -1.4853   3.5387  -2.8921 LP             1 S1                 0.0000
     57 ****         1.5521  -0.7909   1.9759 LP             1 S1                 0.0000
     58 ****         3.1801  -2.0693  -0.5795 LP             1 S1                 0.0000
     59 ****        -1.9334  -5.7276  -2.4830 LP             1 S1                 0.0000
     60 ****        -1.8471  -4.1114  -2.6999 LP             1 S1                 0.0000
     61 ****         2.2179  -1.3846  -3.0049 LP             1 S1                 0.0000
     62 ****         1.0348   2.4628  -2.2590 LP             1 S1                 0.0000
     63 ****        -2.3143   4.7905   4.1529 LP             1 S1                 0.0000
     64 ****        -1.5592   5.4302   2.8539 LP             1 S1                 0.0000
@<TRIPOS>BOND
    1    1    2 1     
    2    1   28 1     
    3    2    3 1     
    4    2   29 1     
    5    2   30 1     
    6    3    4 1     
    7    3   23 1     
    8    3   31 1     
    9    4    5 1     
   10    4   32 1     
   11    4   33 1     
   12    5   22 1     
   13    5    6 1     
   14    6    7 2     
   15    6   34 1     
   16    7    8 1     
   17    8   22 ar    
   18    8    9 ar    
   19    9   10 1     
   20    9   19 ar    
   21   10   14 1     
   22   10   11 1     
   23   11   18 1     
   24   11   12 1     
   25   11   35 1     
   26   12   13 1     
   27   12   36 1     
   28   12   37 1     
   29   13   14 1     
   30   13   38 1     
   31   13   39 1     
   32   14   15 1     
   33   14   40 1     
   34   15   16 1     
   35   15   18 1     
   36   15   41 1     
   37   16   17 1     
   38   16   42 1     
   39   16   43 1     
   40   17   44 1     
   41   18   45 1     
   42   18   46 1     
   43   19   20 ar    
   44   20   21 ar    
   45   20   47 1     
   46   21   22 ar    
   47   23   27 1     
   48   23   24 1     
   49   23   48 1     
   50   24   25 1     
   51   24   49 1     
   52   24   50 1     
   53   25   26 1     
   54   25   51 1     
   55   25   52 1     
   56   26   27 1     
   57   27   53 1     
   58   27   54 1     
   59    1   55 1     
   60    1   56 1     
   61    7   57 1     
   62   10   58 1     
   63   17   59 1     
   64   17   60 1     
   65   19   61 1     
   66   21   62 1     
   67   26   63 1     
   68   26   64 1     
@<TRIPOS>SUBSTRUCTURE
      1 S1             1
@<TRIPOS>SET
LONE_PAIRS      STATIC     ATOMS    <user>   **** ""
10 55 56 57 58 59 60 61 62 63 64
DONOR_HYDROGENS      STATIC     ATOMS    <user>   **** ""
2 28 44
ATOM$BLUE        STATIC     ATOMS    COLORGROUP SYSTEM
10 55 56 57 58 59 60 61 62 63 64
ATOM$RED        STATIC     ATOMS    COLORGROUP SYSTEM
2 28 44
