AV-unprocessed.smi:2226|AV-procd|sdf|9018|dock8
  -GOLD-   2272012223D 1   1.00000     0.00000
 Structure written by MMmdl.
 39 41  0  0  0  0  0  0  0  0  3 V2000
  148.2645  140.1271  154.6998 C   0  0  0  0  0  0  0  0  0  0  0  0
  149.6714  139.6749  154.8151 N   0  3  2  0  0  0  0  0  0  0  0  0
  149.8446  138.2082  154.9497 C   0  0  1  0  0  0  0  0  0  0  0  0
  151.3125  137.8453  154.6244 C   0  0  0  0  0  0  0  0  0  0  0  0
  152.3463  138.6410  155.4468 C   0  0  0  0  0  0  0  0  0  0  0  0
  151.9732  140.1322  155.5736 C   0  0  0  0  0  0  0  0  0  0  0  0
  150.4710  140.3798  155.8466 C   0  0  2  0  0  0  0  0  0  0  0  0
  150.0013  140.0061  157.2741 C   0  0  0  0  0  0  0  0  0  0  0  0
  149.8998  138.4871  157.5429 C   0  0  1  0  0  0  0  0  0  0  0  0
  149.0502  138.2699  158.7117 N   0  0  0  0  0  0  0  0  0  0  0  0
  148.8742  137.1083  159.3593 C   0  0  0  0  0  0  0  0  0  0  0  0
  149.4601  136.0982  158.9648 O   0  0  0  0  0  0  0  0  0  0  0  0
  148.0289  137.2109  160.4142 N   0  5  0  0  0  0  0  0  0  0  0  0
  147.5541  136.1604  161.1174 C   0  0  0  0  0  0  0  0  0  0  0  0
  147.6886  134.8491  160.8819 N   0  0  0  0  0  0  0  0  0  0  0  0
  147.0149  134.1953  161.9008 C   0  0  0  0  0  0  0  0  0  0  0  0
  146.4888  135.1474  162.7280 C   0  0  0  0  0  0  0  0  0  0  0  0
  146.8210  136.3828  162.2457 O   0  0  0  0  0  0  0  0  0  0  0  0
  149.3428  137.7066  156.3260 C   0  0  0  0  0  0  0  0  0  0  0  0
  147.6860  139.9165  155.5991 H   0  0  0  0  0  0  0  0  0  0  0  0
  147.7751  139.6320  153.8605 H   0  0  0  0  0  0  0  0  0  0  0  0
  148.2250  141.2013  154.5170 H   0  0  0  0  0  0  0  0  0  0  0  0
  149.2314  137.7277  154.1859 H   0  0  0  0  0  0  0  0  0  0  0  0
  151.4778  136.7748  154.7502 H   0  0  0  0  0  0  0  0  0  0  0  0
  151.4882  138.0510  153.5675 H   0  0  0  0  0  0  0  0  0  0  0  0
  152.4709  138.1960  156.4302 H   0  0  0  0  0  0  0  0  0  0  0  0
  153.3280  138.5506  154.9810 H   0  0  0  0  0  0  0  0  0  0  0  0
  152.5841  140.6072  156.3418 H   0  0  0  0  0  0  0  0  0  0  0  0
  152.2351  140.6279  154.6379 H   0  0  0  0  0  0  0  0  0  0  0  0
  150.3066  141.4510  155.7211 H   0  0  0  0  0  0  0  0  0  0  0  0
  150.6546  140.4686  158.0148 H   0  0  0  0  0  0  0  0  0  0  0  0
  149.0222  140.4592  157.4356 H   0  0  0  0  0  0  0  0  0  0  0  0
  150.8904  138.1140  157.7921 H   0  0  0  0  0  0  0  0  0  0  0  0
  148.5549  139.0729  159.0708 H   0  0  0  0  0  0  0  0  0  0  0  0
  146.9648  133.1181  161.9551 H   0  0  0  0  0  0  0  0  0  0  0  0
  145.8992  135.1178  163.6319 H   0  0  0  0  0  0  0  0  0  0  0  0
  148.2542  137.7746  156.3342 H   0  0  0  0  0  0  0  0  0  0  0  0
  149.5623  136.6439  156.4342 H   0  0  0  0  0  0  0  0  0  0  0  0
  150.0923  139.9189  153.9300 H   0  0  0  0  0  0  0  0  0  0  0  0
  1  2  1  0  0  0  0
  1 20  1  0  0  0  0
  1 21  1  0  0  0  0
  1 22  1  0  0  0  0
  2  7  1  0  0  0  0
  2  3  1  0  0  0  0
  2 39  1  0  0  0  0
  3 19  1  0  0  0  0
  3  4  1  0  0  0  0
  3 23  1  0  0  0  0
  4  5  1  0  0  0  0
  4 24  1  0  0  0  0
  4 25  1  0  0  0  0
  5  6  1  0  0  0  0
  5 26  1  0  0  0  0
  5 27  1  0  0  0  0
  6  7  1  0  0  0  0
  6 28  1  0  0  0  0
  6 29  1  0  0  0  0
  7  8  1  0  0  0  0
  7 30  1  0  0  0  0
  8  9  1  0  0  0  0
  8 31  1  0  0  0  0
  8 32  1  0  0  0  0
  9 10  1  0  0  0  0
  9 19  1  0  0  0  0
  9 33  1  0  0  0  0
 10 34  1  0  0  0  0
 10 11  1  0  0  0  0
 11 13  1  0  0  0  0
 11 12  2  0  0  0  0
 13 14  1  0  0  0  0
 14 18  1  0  0  0  0
 14 15  2  0  0  0  0
 15 16  1  0  0  0  0
 16 35  1  0  0  0  0
 16 17  2  0  0  0  0
 17 36  1  0  0  0  0
 17 18  1  0  0  0  0
 19 37  1  0  0  0  0
 19 38  1  0  0  0  0
M  CHG  1   2   1
M  CHG  1  13  -1
M  END
> <s_m_source_file>
AV-unprocessed.smi

> <i_m_source_file_index>
2226

> <i_lp_mmshare_version>
43012

> <i_f3d_flags>
0

> <s_epik_input>
W0NIMl0xW0NIMl1bQ0gyXVtDQEhdKE4oW0NIM10pW0NIXTEyKVtDSDJdW0NASF0oW0NIMl0yKVtOSF1DKD1PKVtOSF1jM25bY0hdW2NIXW8z

> <s_epik_cmdline>
J2VwaWtfcHl0aG9uJywgJy1waCcsICc3LjAnLCAnLXRuJywgJzgnLCAnLW1hJywgJzIwMCcsICctbWV0YWxfYmluZGluZycsICctaW1hZScsICc8aW5maWxlLm1hZT4nLCAnLW9tYWUnLCAnPG91dGZpbGUubWFlPic=

> <r_lp_tautomer_probability>
0.107061

> <r_epik_Ionization_Penalty>
10.5612

> <r_epik_Ionization_Penalty_Charging>
7.48913

> <r_epik_Ionization_Penalty_Neutral>
3.07202

> <r_epik_State_Penalty>
5.6431

> <r_epik_Charging_Adjusted_Penalty>
13.1322

> <i_epik_Tot_Q>
0

> <i_epik_Tot_abs_Q>
2

> <r_epik_Metal_State_Penalty>
1.58163

> <b_epik_Metal_Only>
1

> <s_lp_Force_Field>
OPLS_2005

> <r_lp_Energy>
28.9751

> <b_lp_Chiralities_Consistent>
1

> <s_lp_Variant>
AV-unprocessed.smi:2226-18

> <Gold.Version>
5.8.1

> <Gold.Id.Protein>
6NUR|6NUR_protein|mol2

> <Gold.PLP.Fitness>
41.3107

> <Gold.PLP.PLP>
-30.0653

> <Gold.PLP.part.hbond>
-3.0000

> <Gold.PLP.part.metal>
0.0000

> <Gold.PLP.part.buried>
-4.3512

> <Gold.PLP.part.nonpolar>
-24.3287

> <Gold.PLP.part.repulsive>
0.2999

> <Gold.PLP.ligand.clash>
0.0000

> <Gold.PLP.ligand.torsion>
0.0902

> <Gold.PLP.Chemscore.Hbond>
3.8058

> <Gold.PLP.Chemscore.CHOScore>
0.0000

> <Gold.PLP.Chemscore.Metal>
0.0000

> <Gold.Chemscore.Hbonds>
donor molecule, donor type, donor heavy atom, donor atom, acceptor molecule, acceptor atom, score
      P1  H  6896  6907       L1    12  1.00
      P1  H  6931  6943       L1    13  1.31
      P1  H  6934  6947       L1    13  1.36

> <Gold.PLP.Chemscore.Internal.Correction>
0.0085

> <Gold.Rescore>
     Score         DG    S(hbond)    S(metal)    S(lipo)     H(rot)  DE(clash)    DE(int)     intcor
     14.58     -16.04       1.68        0.00      64.10       1.00       0.07       1.39       ----

> <Gold.Chemscore.Fitness>
14.5794

> <Gold.Chemscore.DG>
-16.0380

> <Gold.Chemscore.ZeroCoef>
-5.4800

> <Gold.Chemscore.Hbond>
1.6820

> <Gold.Chemscore.Metal>
0.0000

> <Gold.Chemscore.Lipo>
64.1043

> <Gold.Chemscore.Internal_Hbond>
0.0000

> <Gold.Chemscore.DEClash>
0.0679

> <Gold.Chemscore.DEInternal>
1.3906

> <Gold.Chemscore.Rot>
1.0000

> <Gold.Chemscore.Internal.Correction>
   9.000000E+99

> <Gold.Chemscore.Hbonds>
donor molecule, donor type, donor heavy atom, donor atom, acceptor molecule, acceptor atom, score
      P1  H  6896  6907       L1    12  0.97
      P1  H  6931  6943       L1    13  0.13
      P1  H  6934  6947       L1    13  0.58

> <Gold.Chemscore.Hbond.Weighted>
-5.6178

> <Gold.Chemscore.Metal.Weighted>
-0.0000

> <Gold.Chemscore.Lipo.Weighted>
-7.5002

> <Gold.Chemscore.Internal_Hbond.Weighted>
0.0000

> <Gold.Chemscore.DEClash.Weighted>
0.0679

> <Gold.Chemscore.DEInternal.Weighted>
1.3906

> <Gold.Chemscore.Rot.Weighted>
2.5600

> <Gold.Chemscore.Internal.Correction.Weighted>
   9.000000E+99

> <Gold.Protein.RotatedTorsions>
[ 6907 6896 6895 6894 ] final  -52.67 input  -60.11 | X-H torsion
[ 7974 7965 7964 7962 ] final  101.07 input  175.53 | X-H torsion
[ 8008 7997 7996 7995 ] final  166.56 input   59.86 | X-H torsion
[ 10167 10162 10161 10158 ] final   81.01 input  -65.29 | X-H torsion
[ 10718 10713 10712 10709 ] final  -47.42 input   66.30 | X-H torsion
[ 10763 10752 10751 10750 ] final   47.93 input  -60.55 | X-H torsion
[ 11005 11000 10999 10996 ] final  -10.93 input  -57.11 | X-H torsion

> <Gold.Protein.ActiveResidues>
 VAL166  LYS551  ARG553  GLY616  TRP617  ASP618  TYR619  PRO620  LYS621  CYS622 
 ASP623  PHE694  ASN695  SER759  ASP760  ASP761  ALA762  ILE779  LEU786  VAL792 
 PHE793  MET794  SER795  GLU796  ALA797  LYS798  CYS799  TRP800  GLU811  SER814 

> <Gold.Protein.RotatedAtoms>
  150.8497  134.7817  159.6998 H   0  0  0  0  0  0  0  0  0  0  0  0  # atno 6907 bound_to 6896
  152.4565  134.5277  159.9811 H   0  0  0  0  0  0  0  0  0  0  0  0  # atno 6908 bound_to 6896
  151.5401  133.3396  159.2969 H   0  0  0  0  0  0  0  0  0  0  0  0  # atno 6909 bound_to 6896
  145.3772  139.2386  143.3423 H   0  0  0  0  0  0  0  0  0  0  0  0  # atno 7974 bound_to 7965
  156.1708  140.1640  156.8450 H   0  0  0  0  0  0  0  0  0  0  0  0  # atno 8008 bound_to 7997
  154.5255  140.0768  156.8284 H   0  0  0  0  0  0  0  0  0  0  0  0  # atno 8009 bound_to 7997
  155.3516  140.3390  155.4241 H   0  0  0  0  0  0  0  0  0  0  0  0  # atno 8010 bound_to 7997
  139.9437  144.6072  150.8227 H   0  0  0  0  0  0  0  0  0  0  0  0  # atno 10167 bound_to 10162
  156.2086  130.4159  149.9144 H   0  0  0  0  0  0  0  0  0  0  0  0  # atno 10718 bound_to 10713
  152.9795  135.5960  154.3844 H   0  0  0  0  0  0  0  0  0  0  0  0  # atno 10763 bound_to 10752
  154.3505  135.2767  155.2376 H   0  0  0  0  0  0  0  0  0  0  0  0  # atno 10764 bound_to 10752
  154.4417  135.6011  153.6189 H   0  0  0  0  0  0  0  0  0  0  0  0  # atno 10765 bound_to 10752
  140.7500  133.8600  155.9037 H   0  0  0  0  0  0  0  0  0  0  0  0  # atno 11005 bound_to 11000
  146.2858  140.4434  142.8758 LP  0  0  0  0  0  0  0  0  0  0  0  0  # atno 17320 bound_to 7965
  144.8533  140.7034  143.6154 LP  0  0  0  0  0  0  0  0  0  0  0  0  # atno 17321 bound_to 7965
  140.7603  143.3149  151.2757 LP  0  0  0  0  0  0  0  0  0  0  0  0  # atno 17342 bound_to 10162
  139.6684  144.0065  152.2737 LP  0  0  0  0  0  0  0  0  0  0  0  0  # atno 17343 bound_to 10162
  156.6830  130.8865  151.3578 LP  0  0  0  0  0  0  0  0  0  0  0  0  # atno 17370 bound_to 10713
  157.7026  130.9350  150.0832 LP  0  0  0  0  0  0  0  0  0  0  0  0  # atno 17371 bound_to 10713
  140.9760  134.1469  157.4536 LP  0  0  0  0  0  0  0  0  0  0  0  0  # atno 17394 bound_to 11000
  139.8789  134.9994  156.5955 LP  0  0  0  0  0  0  0  0  0  0  0  0  # atno 17395 bound_to 11000

$$$$
