AV-unprocessed.smi:2233|AV-procd|sdf|9041|dock7
  -GOLD-   2272012253D 1   1.00000     0.00000
 Structure written by MMmdl.
 42 43  0  0  0  0  0  0  0  0  1 V2000
  154.0000  142.0859  162.5801 C   0  0  0  0  0  0  0  0  0  0  0  0
  153.6838  142.2463  161.4116 C   0  0  0  0  0  0  0  0  0  0  0  0
  153.2867  142.4472  160.0069 C   0  0  0  0  0  0  0  0  0  0  0  0
  152.1209  143.4321  159.8025 C   0  0  0  0  0  0  0  0  0  0  0  0
  151.2933  143.1786  158.5293 C   0  0  0  0  0  0  0  0  0  0  0  0
  150.4436  141.8987  158.6295 C   0  0  0  0  0  0  0  0  0  0  0  0
  149.2758  141.8629  157.6377 C   0  0  0  0  0  0  0  0  0  0  0  0
  148.1945  142.3708  157.9344 O   0  0  0  0  0  0  0  0  0  0  0  0
  149.5386  141.2661  156.4616 N   0  0  0  0  0  0  0  0  0  0  0  0
  148.6704  141.0685  155.3502 C   0  0  0  0  0  0  0  0  0  0  0  0
  147.5272  141.8706  155.1091 C   0  0  0  0  0  0  0  0  0  0  0  0
  146.6829  141.6759  154.0745 N   0  0  0  0  0  0  0  0  0  0  0  0
  146.9423  140.6579  153.2297 C   0  0  0  0  0  0  0  0  0  0  0  0
  148.0387  139.7886  153.3813 C   0  0  0  0  0  0  0  0  0  0  0  0
  148.9207  139.9896  154.4668 C   0  0  0  0  0  0  0  0  0  0  0  0
  150.0311  139.1522  154.6634 N   0  0  0  0  0  0  0  0  0  0  0  0
  149.7194  137.7289  154.6877 C   0  0  0  0  0  0  0  0  0  0  0  0
  150.9775  136.9281  155.0648 C   0  0  0  0  0  0  0  0  0  0  0  0
  152.0288  137.2371  154.1535 O   0  0  0  0  0  0  0  0  0  0  0  0
  152.3760  138.6194  154.1827 C   0  0  0  0  0  0  0  0  0  0  0  0
  151.1541  139.4690  153.7917 C   0  0  0  0  0  0  0  0  0  0  0  0
  154.2725  141.9486  163.6025 H   0  0  0  0  0  0  0  0  0  0  0  0
  154.1663  142.7837  159.4574 H   0  0  0  0  0  0  0  0  0  0  0  0
  153.0188  141.4699  159.6045 H   0  0  0  0  0  0  0  0  0  0  0  0
  151.4618  143.3707  160.6693 H   0  0  0  0  0  0  0  0  0  0  0  0
  152.5048  144.4533  159.7903 H   0  0  0  0  0  0  0  0  0  0  0  0
  150.6407  144.0319  158.3406 H   0  0  0  0  0  0  0  0  0  0  0  0
  151.9649  143.1063  157.6726 H   0  0  0  0  0  0  0  0  0  0  0  0
  151.0792  141.0276  158.4636 H   0  0  0  0  0  0  0  0  0  0  0  0
  150.0374  141.8020  159.6370 H   0  0  0  0  0  0  0  0  0  0  0  0
  150.4965  140.9819  156.3141 H   0  0  0  0  0  0  0  0  0  0  0  0
  147.2517  142.6805  155.7665 H   0  0  0  0  0  0  0  0  0  0  0  0
  146.2518  140.5282  152.4094 H   0  0  0  0  0  0  0  0  0  0  0  0
  148.1951  138.9880  152.6735 H   0  0  0  0  0  0  0  0  0  0  0  0
  148.9214  137.5368  155.4058 H   0  0  0  0  0  0  0  0  0  0  0  0
  149.3600  137.4084  153.7091 H   0  0  0  0  0  0  0  0  0  0  0  0
  151.2895  137.1523  156.0862 H   0  0  0  0  0  0  0  0  0  0  0  0
  150.7708  135.8588  155.0214 H   0  0  0  0  0  0  0  0  0  0  0  0
  152.7372  138.8929  155.1755 H   0  0  0  0  0  0  0  0  0  0  0  0
  153.1953  138.7951  153.4855 H   0  0  0  0  0  0  0  0  0  0  0  0
  150.8810  139.2718  152.7542 H   0  0  0  0  0  0  0  0  0  0  0  0
  151.3959  140.5300  153.8668 H   0  0  0  0  0  0  0  0  0  0  0  0
  1  2  3  0  0  0  0
  1 22  1  0  0  0  0
  2  3  1  0  0  0  0
  3  4  1  0  0  0  0
  3 23  1  0  0  0  0
  3 24  1  0  0  0  0
  4  5  1  0  0  0  0
  4 25  1  0  0  0  0
  4 26  1  0  0  0  0
  5  6  1  0  0  0  0
  5 27  1  0  0  0  0
  5 28  1  0  0  0  0
  6  7  1  0  0  0  0
  6 29  1  0  0  0  0
  6 30  1  0  0  0  0
  7  8  2  0  0  0  0
  7  9  1  0  0  0  0
  9 10  1  0  0  0  0
  9 31  1  0  0  0  0
 10 15  1  0  0  0  0
 10 11  2  0  0  0  0
 11 12  1  0  0  0  0
 11 32  1  0  0  0  0
 12 13  2  0  0  0  0
 13 14  1  0  0  0  0
 13 33  1  0  0  0  0
 14 15  2  0  0  0  0
 14 34  1  0  0  0  0
 15 16  1  0  0  0  0
 16 21  1  0  0  0  0
 16 17  1  0  0  0  0
 17 18  1  0  0  0  0
 17 35  1  0  0  0  0
 17 36  1  0  0  0  0
 18 19  1  0  0  0  0
 18 37  1  0  0  0  0
 18 38  1  0  0  0  0
 19 20  1  0  0  0  0
 20 21  1  0  0  0  0
 20 39  1  0  0  0  0
 20 40  1  0  0  0  0
 21 41  1  0  0  0  0
 21 42  1  0  0  0  0
M  END
> <s_m_source_file>
AV-unprocessed.smi

> <i_m_source_file_index>
2233

> <i_lp_mmshare_version>
43012

> <i_f3d_flags>
0

> <s_epik_input>
W0NIXSNDW0NIMl1bQ0gyXVtDSDJdW0NIMl1DKD1PKVtOSF1jMVtjSF1uW2NIXVtjSF1jMU4yW0NIMl1bQ0gyXU9bQ0gyXVtDSDJdMg==

> <s_epik_cmdline>
J2VwaWtfcHl0aG9uJywgJy1waCcsICc3LjAnLCAnLXRuJywgJzgnLCAnLW1hJywgJzIwMCcsICctbWV0YWxfYmluZGluZycsICctaW1hZScsICc8aW5maWxlLm1hZT4nLCAnLW9tYWUnLCAnPG91dGZpbGUubWFlPic=

> <r_lp_tautomer_probability>
1

> <r_epik_Ionization_Penalty>
0.8765

> <r_epik_Ionization_Penalty_Charging>
0

> <r_epik_Ionization_Penalty_Neutral>
0.8765

> <r_epik_State_Penalty>
0.914306

> <r_epik_Charging_Adjusted_Penalty>
0.914306

> <i_epik_Tot_Q>
0

> <i_epik_Tot_abs_Q>
0

> <r_epik_Metal_State_Penalty>
0.361009

> <b_epik_Metal_Only>
0

> <s_lp_Force_Field>
OPLS_2005

> <r_lp_Energy>
23.7364

> <b_lp_Chiralities_Consistent>
1

> <s_lp_Variant>
AV-unprocessed.smi:2233-2

> <Gold.Version>
5.8.1

> <Gold.Id.Protein>
6NUR|6NUR_protein|mol2

> <Gold.PLP.Fitness>
41.7342

> <Gold.PLP.PLP>
-35.0511

> <Gold.PLP.part.hbond>
-1.0000

> <Gold.PLP.part.metal>
0.0000

> <Gold.PLP.part.buried>
-2.4417

> <Gold.PLP.part.nonpolar>
-33.5690

> <Gold.PLP.part.repulsive>
1.2788

> <Gold.PLP.ligand.clash>
0.0000

> <Gold.PLP.ligand.torsion>
1.1034

> <Gold.PLP.Chemscore.Hbond>
1.0000

> <Gold.PLP.Chemscore.CHOScore>
1.9133

> <Gold.PLP.Chemscore.Metal>
0.0000

> <Gold.Chemscore.Hbonds>
donor molecule, donor type, donor heavy atom, donor atom, acceptor molecule, acceptor atom, score
      P1  H 10752 10763       L1    19  0.26
      L1  C    11    32       P1  8028  0.56
      L1  C    13    33       P1 10175  0.92

> <Gold.PLP.Chemscore.Internal.Correction>
0.1502

> <Gold.Rescore>
     Score         DG    S(hbond)    S(metal)    S(lipo)     H(rot)  DE(clash)    DE(int)     intcor
     15.00     -17.31       0.95        0.00     106.69       1.49       0.44       1.87       ----

> <Gold.Chemscore.Fitness>
15.0021

> <Gold.Chemscore.DG>
-17.3141

> <Gold.Chemscore.ZeroCoef>
-5.4800

> <Gold.Chemscore.Hbond>
0.9464

> <Gold.Chemscore.Metal>
0.0000

> <Gold.Chemscore.Lipo>
106.6916

> <Gold.Chemscore.Internal_Hbond>
0.0000

> <Gold.Chemscore.DEClash>
0.4440

> <Gold.Chemscore.DEInternal>
1.8680

> <Gold.Chemscore.Rot>
1.4882

> <Gold.Chemscore.Internal.Correction>
   9.000000E+99

> <Gold.Chemscore.Hbonds>
donor molecule, donor type, donor heavy atom, donor atom, acceptor molecule, acceptor atom, score
      P1  H 10752 10763       L1    19  0.01

> <Gold.Chemscore.Hbond.Weighted>
-3.1611

> <Gold.Chemscore.Metal.Weighted>
-0.0000

> <Gold.Chemscore.Lipo.Weighted>
-12.4829

> <Gold.Chemscore.Internal_Hbond.Weighted>
0.0000

> <Gold.Chemscore.DEClash.Weighted>
0.4440

> <Gold.Chemscore.DEInternal.Weighted>
1.8680

> <Gold.Chemscore.Rot.Weighted>
3.8099

> <Gold.Chemscore.Internal.Correction.Weighted>
   9.000000E+99

> <Gold.Protein.RotatedTorsions>
[ 6907 6896 6895 6894 ] final  -58.98 input  -60.11 | X-H torsion
[ 7974 7965 7964 7962 ] final -119.35 input  175.53 | X-H torsion
[ 8008 7997 7996 7995 ] final   38.70 input   59.86 | X-H torsion
[ 10167 10162 10161 10158 ] final -134.34 input  -65.29 | X-H torsion
[ 10718 10713 10712 10709 ] final  170.12 input   66.30 | X-H torsion
[ 10763 10752 10751 10750 ] final   71.04 input  -60.55 | X-H torsion
[ 11005 11000 10999 10996 ] final   56.98 input  -57.11 | X-H torsion

> <Gold.Protein.ActiveResidues>
 VAL166  LYS551  ARG553  GLY616  TRP617  ASP618  TYR619  PRO620  LYS621  CYS622 
 ASP623  PHE694  ASN695  SER759  ASP760  ASP761  ALA762  ILE779  LEU786  VAL792 
 PHE793  MET794  SER795  GLU796  ALA797  LYS798  CYS799  TRP800  GLU811  SER814 

> <Gold.Protein.RotatedAtoms>
  150.7965  134.7029  159.6559 H   0  0  0  0  0  0  0  0  0  0  0  0  # atno 6907 bound_to 6896
  152.4078  134.6173  160.0051 H   0  0  0  0  0  0  0  0  0  0  0  0  # atno 6908 bound_to 6896
  151.6425  133.3288  159.3169 H   0  0  0  0  0  0  0  0  0  0  0  0  # atno 6909 bound_to 6896
  145.0635  140.8307  143.4138 H   0  0  0  0  0  0  0  0  0  0  0  0  # atno 7974 bound_to 7965
  155.2246  140.3333  155.4311 H   0  0  0  0  0  0  0  0  0  0  0  0  # atno 8008 bound_to 7997
  156.2319  140.1855  156.7266 H   0  0  0  0  0  0  0  0  0  0  0  0  # atno 8009 bound_to 7997
  154.5993  140.0625  156.9332 H   0  0  0  0  0  0  0  0  0  0  0  0  # atno 8010 bound_to 7997
  139.8890  143.6746  152.2615 H   0  0  0  0  0  0  0  0  0  0  0  0  # atno 10167 bound_to 10162
  157.0128  131.0209  151.2798 H   0  0  0  0  0  0  0  0  0  0  0  0  # atno 10718 bound_to 10713
  153.0376  135.5152  154.7532 H   0  0  0  0  0  0  0  0  0  0  0  0  # atno 10763 bound_to 10752
  154.6496  135.2923  155.0005 H   0  0  0  0  0  0  0  0  0  0  0  0  # atno 10764 bound_to 10752
  154.0894  135.6652  153.4902 H   0  0  0  0  0  0  0  0  0  0  0  0  # atno 10765 bound_to 10752
  140.0488  134.5767  155.9290 H   0  0  0  0  0  0  0  0  0  0  0  0  # atno 11005 bound_to 11000
  145.1380  139.2590  143.5505 LP  0  0  0  0  0  0  0  0  0  0  0  0  # atno 17320 bound_to 7965
  146.3525  140.1049  142.8606 LP  0  0  0  0  0  0  0  0  0  0  0  0  # atno 17321 bound_to 7965
  139.7127  144.7617  151.1086 LP  0  0  0  0  0  0  0  0  0  0  0  0  # atno 17342 bound_to 10162
  140.7730  143.5310  150.9423 LP  0  0  0  0  0  0  0  0  0  0  0  0  # atno 17343 bound_to 10162
  157.5308  130.8057  149.7914 LP  0  0  0  0  0  0  0  0  0  0  0  0  # atno 17370 bound_to 10713
  156.0130  130.3825  150.2202 LP  0  0  0  0  0  0  0  0  0  0  0  0  # atno 17371 bound_to 10713
  141.1920  133.6573  156.5481 LP  0  0  0  0  0  0  0  0  0  0  0  0  # atno 17394 bound_to 11000
  140.3951  134.7406  157.4745 LP  0  0  0  0  0  0  0  0  0  0  0  0  # atno 17395 bound_to 11000

$$$$
