AV-unprocessed.smi:678|AV-procd|sdf|3318|dock3
  -GOLD-   22720 0283D 1   1.00000     0.00000
 Structure written by MMmdl.
 50 51  0  0  0  0  0  0  0  0  1 V2000
  147.5005  136.4290  163.6493 C   0  0  0  0  0  0  0  0  0  0  0  0
  147.3396  135.4492  162.4999 C   0  0  0  0  0  0  0  0  0  0  0  0
  147.0661  134.1445  162.7181 C   0  0  0  0  0  0  0  0  0  0  0  0
  146.9139  133.2208  161.6202 C   0  0  0  0  0  0  0  0  0  0  0  0
  147.0568  133.6905  160.3728 C   0  0  0  0  0  0  0  0  0  0  0  0
  147.3460  135.0440  160.1184 N   0  0  0  0  0  0  0  0  0  0  0  0
  147.4778  135.4449  158.7073 C   0  0  0  0  0  0  0  0  0  0  0  0
  148.8846  135.9438  158.3493 C   0  0  0  0  0  0  0  0  0  0  0  0
  149.7210  135.1779  157.8684 O   0  0  0  0  0  0  0  0  0  0  0  0
  149.1374  137.2338  158.6190 N   0  0  0  0  0  0  0  0  0  0  0  0
  150.4041  137.9180  158.3758 C   0  0  0  0  0  0  0  0  0  0  0  0
  150.2303  139.1655  157.4911 C   0  0  1  0  0  0  0  0  0  0  0  0
  150.3849  140.4958  158.2609 C   0  0  0  0  0  0  0  0  0  0  0  0
  150.3032  141.6572  157.3782 N   0  0  0  0  0  0  0  0  0  0  0  0
  150.4706  142.9247  158.0915 C   0  0  0  0  0  0  0  0  0  0  0  0
  151.9269  143.3572  158.3695 C   0  0  0  0  0  0  0  0  0  0  0  0
  152.6380  142.3894  159.3294 C   0  0  0  0  0  0  0  0  0  0  0  0
  151.9622  144.7882  158.9252 C   0  0  0  0  0  0  0  0  0  0  0  0
  151.2988  141.5199  156.3221 C   0  0  0  0  0  0  0  0  0  0  0  0
  151.1412  140.1985  155.5532 C   0  0  0  0  0  0  0  0  0  0  0  0
  151.2176  139.1079  156.4647 O   0  0  0  0  0  0  0  0  0  0  0  0
  147.4902  135.9611  161.1248 C   0  0  0  0  0  0  0  0  0  0  0  0
  147.7339  137.1455  160.8856 O   0  0  0  0  0  0  0  0  0  0  0  0
  147.3886  135.9333  164.6141 H   0  0  0  0  0  0  0  0  0  0  0  0
  146.7497  137.2172  163.5860 H   0  0  0  0  0  0  0  0  0  0  0  0
  148.4878  136.8912  163.6217 H   0  0  0  0  0  0  0  0  0  0  0  0
  146.9568  133.7788  163.7287 H   0  0  0  0  0  0  0  0  0  0  0  0
  146.6875  132.1800  161.7985 H   0  0  0  0  0  0  0  0  0  0  0  0
  146.9512  133.0681  159.4960 H   0  0  0  0  0  0  0  0  0  0  0  0
  147.2072  134.6135  158.0534 H   0  0  0  0  0  0  0  0  0  0  0  0
  146.7674  136.2371  158.4670 H   0  0  0  0  0  0  0  0  0  0  0  0
  148.3942  137.7863  159.0214 H   0  0  0  0  0  0  0  0  0  0  0  0
  150.8976  138.1813  159.3129 H   0  0  0  0  0  0  0  0  0  0  0  0
  151.0655  137.2104  157.8753 H   0  0  0  0  0  0  0  0  0  0  0  0
  149.2441  139.1300  157.0241 H   0  0  0  0  0  0  0  0  0  0  0  0
  149.6036  140.5519  159.0168 H   0  0  0  0  0  0  0  0  0  0  0  0
  151.3376  140.5010  158.7929 H   0  0  0  0  0  0  0  0  0  0  0  0
  149.9618  143.7157  157.5384 H   0  0  0  0  0  0  0  0  0  0  0  0
  149.9558  142.8590  159.0512 H   0  0  0  0  0  0  0  0  0  0  0  0
  152.4831  143.3746  157.4326 H   0  0  0  0  0  0  0  0  0  0  0  0
  152.1215  142.3309  160.2879 H   0  0  0  0  0  0  0  0  0  0  0  0
  153.6625  142.7090  159.5220 H   0  0  0  0  0  0  0  0  0  0  0  0
  152.6852  141.3823  158.9142 H   0  0  0  0  0  0  0  0  0  0  0  0
  151.4300  144.8585  159.8743 H   0  0  0  0  0  0  0  0  0  0  0  0
  151.4992  145.4905  158.2313 H   0  0  0  0  0  0  0  0  0  0  0  0
  152.9871  145.1212  159.0926 H   0  0  0  0  0  0  0  0  0  0  0  0
  151.2153  142.3533  155.6235 H   0  0  0  0  0  0  0  0  0  0  0  0
  152.3016  141.5707  156.7496 H   0  0  0  0  0  0  0  0  0  0  0  0
  150.1903  140.1715  155.0191 H   0  0  0  0  0  0  0  0  0  0  0  0
  151.9307  140.0967  154.8086 H   0  0  0  0  0  0  0  0  0  0  0  0
  1  2  1  0  0  0  0
  1 24  1  0  0  0  0
  1 25  1  0  0  0  0
  1 26  1  0  0  0  0
  2 22  1  0  0  0  0
  2  3  2  0  0  0  0
  3  4  1  0  0  0  0
  3 27  1  0  0  0  0
  4  5  2  0  0  0  0
  4 28  1  0  0  0  0
  5  6  1  0  0  0  0
  5 29  1  0  0  0  0
  6  7  1  0  0  0  0
  6 22  1  0  0  0  0
  7  8  1  0  0  0  0
  7 30  1  0  0  0  0
  7 31  1  0  0  0  0
  8  9  2  0  0  0  0
  8 10  1  0  0  0  0
 10 11  1  0  0  0  0
 10 32  1  0  0  0  0
 11 12  1  0  0  0  0
 11 33  1  0  0  0  0
 11 34  1  0  0  0  0
 12 21  1  0  0  0  0
 12 13  1  0  0  0  0
 12 35  1  0  0  0  0
 13 14  1  0  0  0  0
 13 36  1  0  0  0  0
 13 37  1  0  0  0  0
 14 15  1  0  0  0  0
 14 19  1  0  0  0  0
 15 16  1  0  0  0  0
 15 38  1  0  0  0  0
 15 39  1  0  0  0  0
 16 17  1  0  0  0  0
 16 18  1  0  0  0  0
 16 40  1  0  0  0  0
 17 41  1  0  0  0  0
 17 42  1  0  0  0  0
 17 43  1  0  0  0  0
 18 44  1  0  0  0  0
 18 45  1  0  0  0  0
 18 46  1  0  0  0  0
 19 20  1  0  0  0  0
 19 47  1  0  0  0  0
 19 48  1  0  0  0  0
 20 21  1  0  0  0  0
 20 49  1  0  0  0  0
 20 50  1  0  0  0  0
 22 23  2  0  0  0  0
M  END
> <s_m_source_file>
AV-unprocessed.smi

> <i_m_source_file_index>
678

> <i_lp_mmshare_version>
43012

> <i_f3d_flags>
0

> <s_epik_input>
W0NIM11jMVtjSF1bY0hdW2NIXW4oYzE9TylbQ0gyXUMoPU8pW05IXVtDSDJdW0NAQEhdMltDSDJdTihbQ0gyXVtDSDJdTzIpW0NIMl1bQ0hdKFtDSDNdKVtDSDNd

> <s_epik_cmdline>
J2VwaWtfcHl0aG9uJywgJy1waCcsICc3LjAnLCAnLXRuJywgJzgnLCAnLW1hJywgJzIwMCcsICctbWV0YWxfYmluZGluZycsICctaW1hZScsICc8aW5maWxlLm1hZT4nLCAnLW9tYWUnLCAnPG91dGZpbGUubWFlPic=

> <r_lp_tautomer_probability>
1

> <r_epik_Ionization_Penalty>
1.11669

> <r_epik_Ionization_Penalty_Charging>
7.32459e-07

> <r_epik_Ionization_Penalty_Neutral>
1.11669

> <r_epik_State_Penalty>
1.17516

> <r_epik_Charging_Adjusted_Penalty>
1.17516

> <i_epik_Tot_Q>
0

> <i_epik_Tot_abs_Q>
0

> <r_epik_Metal_State_Penalty>
1.17513

> <b_epik_Metal_Only>
0

> <s_lp_Force_Field>
OPLS_2005

> <r_lp_Energy>
33.1266

> <b_lp_Chiralities_Consistent>
1

> <s_lp_Variant>
AV-unprocessed.smi:678-6

> <Gold.Version>
5.8.1

> <Gold.Id.Protein>
6NUR|6NUR_protein|mol2

> <Gold.PLP.Fitness>
50.0692

> <Gold.PLP.PLP>
-44.3481

> <Gold.PLP.part.hbond>
-3.0000

> <Gold.PLP.part.metal>
0.0000

> <Gold.PLP.part.buried>
-4.9386

> <Gold.PLP.part.nonpolar>
-37.5417

> <Gold.PLP.part.repulsive>
0.2278

> <Gold.PLP.ligand.clash>
0.0000

> <Gold.PLP.ligand.torsion>
1.2824

> <Gold.PLP.Chemscore.Hbond>
2.7360

> <Gold.PLP.Chemscore.CHOScore>
0.0000

> <Gold.PLP.Chemscore.Metal>
0.0000

> <Gold.Chemscore.Hbonds>
donor molecule, donor type, donor heavy atom, donor atom, acceptor molecule, acceptor atom, score
      P1  H  6896  6909       L1     9  0.99
      P1  H  6931  6943       L1    23  0.88
      P1  H  6934  6947       L1    23  0.90

> <Gold.PLP.Chemscore.Internal.Correction>
0.0779

> <Gold.Rescore>
     Score         DG    S(hbond)    S(metal)    S(lipo)     H(rot)  DE(clash)    DE(int)     intcor
     17.06     -22.40       2.53        0.00     112.39       1.82       1.03       4.31       ----

> <Gold.Chemscore.Fitness>
17.0620

> <Gold.Chemscore.DG>
-22.4022

> <Gold.Chemscore.ZeroCoef>
-5.4800

> <Gold.Chemscore.Hbond>
2.5279

> <Gold.Chemscore.Metal>
0.0000

> <Gold.Chemscore.Lipo>
112.3858

> <Gold.Chemscore.Internal_Hbond>
0.0000

> <Gold.Chemscore.DEClash>
1.0316

> <Gold.Chemscore.DEInternal>
4.3085

> <Gold.Chemscore.Rot>
1.8243

> <Gold.Chemscore.Internal.Correction>
   9.000000E+99

> <Gold.Chemscore.Hbonds>
donor molecule, donor type, donor heavy atom, donor atom, acceptor molecule, acceptor atom, score
      P1  H  6896  6909       L1     9  0.46
      P1  H  6931  6943       L1    23  0.84
      P1  H  6934  6947       L1    23  0.87

> <Gold.Chemscore.Hbond.Weighted>
-8.4433

> <Gold.Chemscore.Metal.Weighted>
-0.0000

> <Gold.Chemscore.Lipo.Weighted>
-13.1491

> <Gold.Chemscore.Internal_Hbond.Weighted>
0.0000

> <Gold.Chemscore.DEClash.Weighted>
1.0316

> <Gold.Chemscore.DEInternal.Weighted>
4.3085

> <Gold.Chemscore.Rot.Weighted>
4.6703

> <Gold.Chemscore.Internal.Correction.Weighted>
   9.000000E+99

> <Gold.Protein.RotatedTorsions>
[ 6907 6896 6895 6894 ] final   36.19 input  -60.11 | X-H torsion
[ 7974 7965 7964 7962 ] final -124.37 input  175.53 | X-H torsion
[ 8008 7997 7996 7995 ] final    0.09 input   59.86 | X-H torsion
[ 10167 10162 10161 10158 ] final  -76.51 input  -65.29 | X-H torsion
[ 10718 10713 10712 10709 ] final  -87.28 input   66.30 | X-H torsion
[ 10763 10752 10751 10750 ] final -103.16 input  -60.55 | X-H torsion
[ 11005 11000 10999 10996 ] final  -93.69 input  -57.11 | X-H torsion

> <Gold.Protein.ActiveResidues>
 VAL166  LYS551  ARG553  GLY616  TRP617  ASP618  TYR619  PRO620  LYS621  CYS622 
 ASP623  PHE694  ASN695  SER759  ASP760  ASP761  ALA762  ILE779  LEU786  VAL792 
 PHE793  MET794  SER795  GLU796  ALA797  LYS798  CYS799  TRP800  GLU811  SER814 

> <Gold.Protein.RotatedAtoms>
  152.1264  134.9167  160.0560 H   0  0  0  0  0  0  0  0  0  0  0  0  # atno 6907 bound_to 6896
  152.0288  133.3924  159.4297 H   0  0  0  0  0  0  0  0  0  0  0  0  # atno 6908 bound_to 6896
  150.6853  134.3465  159.4934 H   0  0  0  0  0  0  0  0  0  0  0  0  # atno 6909 bound_to 6896
  145.0088  140.7887  143.4451 H   0  0  0  0  0  0  0  0  0  0  0  0  # atno 7974 bound_to 7965
  154.6641  140.2597  155.7077 H   0  0  0  0  0  0  0  0  0  0  0  0  # atno 8008 bound_to 7997
  156.2631  140.2842  156.1047 H   0  0  0  0  0  0  0  0  0  0  0  0  # atno 8009 bound_to 7997
  155.1264  140.0378  157.2754 H   0  0  0  0  0  0  0  0  0  0  0  0  # atno 8010 bound_to 7997
  140.4850  143.2393  151.7998 H   0  0  0  0  0  0  0  0  0  0  0  0  # atno 10167 bound_to 10162
  155.9986  130.4794  150.4843 H   0  0  0  0  0  0  0  0  0  0  0  0  # atno 10718 bound_to 10713
  154.7787  135.4834  153.9798 H   0  0  0  0  0  0  0  0  0  0  0  0  # atno 10763 bound_to 10752
  153.1464  135.6782  153.8956 H   0  0  0  0  0  0  0  0  0  0  0  0  # atno 10764 bound_to 10752
  153.8614  135.3155  155.3416 H   0  0  0  0  0  0  0  0  0  0  0  0  # atno 10765 bound_to 10752
  141.1490  133.7905  157.0195 H   0  0  0  0  0  0  0  0  0  0  0  0  # atno 11005 bound_to 11000
  145.2051  139.2232  143.5172 LP  0  0  0  0  0  0  0  0  0  0  0  0  # atno 17320 bound_to 7965
  146.3466  140.1877  142.8589 LP  0  0  0  0  0  0  0  0  0  0  0  0  # atno 17321 bound_to 7965
  139.4840  144.4723  151.9410 LP  0  0  0  0  0  0  0  0  0  0  0  0  # atno 17342 bound_to 10162
  140.3809  144.2737  150.5909 LP  0  0  0  0  0  0  0  0  0  0  0  0  # atno 17343 bound_to 10162
  157.2845  131.0613  151.2175 LP  0  0  0  0  0  0  0  0  0  0  0  0  # atno 17370 bound_to 10713
  157.3210  130.6937  149.6269 LP  0  0  0  0  0  0  0  0  0  0  0  0  # atno 17371 bound_to 10713
  140.0825  134.9640  157.1647 LP  0  0  0  0  0  0  0  0  0  0  0  0  # atno 17394 bound_to 11000
  140.3557  134.2549  155.7193 LP  0  0  0  0  0  0  0  0  0  0  0  0  # atno 17395 bound_to 11000

$$$$
