AV-unprocessed.smi:1845|AV-procd|sdf|7513|dock3
  -GOLD-   22720 9223D 1   1.00000     0.00000
 Structure written by MMmdl.
 44 45  0  0  0  0  0  0  0  0  2 V2000
  150.1480  130.3020  154.3409 C   0  0  0  0  0  0  0  0  0  0  0  0
  148.7558  131.4936  154.5475 S   0  0  0  0  0  0  0  0  0  0  0  0
  148.6397  132.1719  153.2477 O   0  0  0  0  0  0  0  0  0  0  0  0
  147.5947  130.7002  154.9849 O   0  0  0  0  0  0  0  0  0  0  0  0
  149.3273  132.5071  155.6849 N   0  5  0  0  0  0  0  0  0  0  0  0
  150.3299  133.5166  155.3715 C   0  0  0  0  0  0  0  0  0  0  0  0
  149.6928  134.9219  155.4363 C   0  0  0  0  0  0  0  0  0  0  0  0
  150.7072  136.0650  155.2783 C   0  0  0  0  0  0  0  0  0  0  0  0
  151.6915  136.1383  156.0176 O   0  0  0  0  0  0  0  0  0  0  0  0
  150.4763  136.9328  154.2783 N   0  0  0  0  0  0  0  0  0  0  0  0
  151.2962  138.0970  153.9554 C   0  0  0  0  0  0  0  0  0  0  0  0
  151.3832  139.1419  155.0596 C   0  0  0  0  0  0  0  0  0  0  0  0
  150.5554  140.2845  155.0963 C   0  0  0  0  0  0  0  0  0  0  0  0
  150.7085  141.2078  156.1486 C   0  0  0  0  0  0  0  0  0  0  0  0
  151.6873  140.9688  157.1427 C   0  0  0  0  0  0  0  0  0  0  0  0
  151.8567  141.8775  158.2111 N   0  0  0  0  0  0  0  0  0  0  0  0
  152.8640  141.5121  159.2046 C   0  0  0  0  0  0  0  0  0  0  0  0
  152.7365  142.4038  160.4519 C   0  0  0  0  0  0  0  0  0  0  0  0
  152.8054  143.7747  160.0746 O   0  0  0  0  0  0  0  0  0  0  0  0
  151.7441  144.1345  159.1969 C   0  0  0  0  0  0  0  0  0  0  0  0
  151.8383  143.3072  157.9039 C   0  0  0  0  0  0  0  0  0  0  0  0
  152.4897  139.8767  157.0953 N   0  0  0  0  0  0  0  0  0  0  0  0
  152.3396  138.9962  156.0839 C   0  0  0  0  0  0  0  0  0  0  0  0
  149.9137  129.6171  153.5268 H   0  0  0  0  0  0  0  0  0  0  0  0
  150.2906  129.7303  155.2574 H   0  0  0  0  0  0  0  0  0  0  0  0
  151.0614  130.8461  154.1021 H   0  0  0  0  0  0  0  0  0  0  0  0
  151.1716  133.4859  156.0643 H   0  0  0  0  0  0  0  0  0  0  0  0
  150.7586  133.3534  154.3823 H   0  0  0  0  0  0  0  0  0  0  0  0
  148.9423  135.0241  154.6511 H   0  0  0  0  0  0  0  0  0  0  0  0
  149.1618  135.0442  156.3821 H   0  0  0  0  0  0  0  0  0  0  0  0
  149.6521  136.7884  153.7130 H   0  0  0  0  0  0  0  0  0  0  0  0
  152.3013  137.7347  153.7371 H   0  0  0  0  0  0  0  0  0  0  0  0
  150.9450  138.5809  153.0426 H   0  0  0  0  0  0  0  0  0  0  0  0
  149.8151  140.4668  154.3319 H   0  0  0  0  0  0  0  0  0  0  0  0
  150.0875  142.0907  156.1690 H   0  0  0  0  0  0  0  0  0  0  0  0
  152.7764  140.4700  159.5074 H   0  0  0  0  0  0  0  0  0  0  0  0
  153.8533  141.6312  158.7611 H   0  0  0  0  0  0  0  0  0  0  0  0
  151.8004  142.2063  160.9766 H   0  0  0  0  0  0  0  0  0  0  0  0
  153.5442  142.1880  161.1513 H   0  0  0  0  0  0  0  0  0  0  0  0
  150.7822  143.9804  159.6888 H   0  0  0  0  0  0  0  0  0  0  0  0
  151.8175  145.1977  158.9678 H   0  0  0  0  0  0  0  0  0  0  0  0
  152.7450  143.5707  157.3577 H   0  0  0  0  0  0  0  0  0  0  0  0
  150.9888  143.5459  157.2625 H   0  0  0  0  0  0  0  0  0  0  0  0
  153.0057  138.1462  156.0955 H   0  0  0  0  0  0  0  0  0  0  0  0
  1  2  1  0  0  0  0
  1 24  1  0  0  0  0
  1 25  1  0  0  0  0
  1 26  1  0  0  0  0
  2  3  2  0  0  0  0
  2  4  2  0  0  0  0
  2  5  1  0  0  0  0
  5  6  1  0  0  0  0
  6  7  1  0  0  0  0
  6 27  1  0  0  0  0
  6 28  1  0  0  0  0
  7  8  1  0  0  0  0
  7 29  1  0  0  0  0
  7 30  1  0  0  0  0
  8  9  2  0  0  0  0
  8 10  1  0  0  0  0
 10 11  1  0  0  0  0
 10 31  1  0  0  0  0
 11 12  1  0  0  0  0
 11 32  1  0  0  0  0
 11 33  1  0  0  0  0
 12 23  1  0  0  0  0
 12 13  2  0  0  0  0
 13 14  1  0  0  0  0
 13 34  1  0  0  0  0
 14 15  2  0  0  0  0
 14 35  1  0  0  0  0
 15 16  1  0  0  0  0
 15 22  1  0  0  0  0
 16 21  1  0  0  0  0
 16 17  1  0  0  0  0
 17 18  1  0  0  0  0
 17 36  1  0  0  0  0
 17 37  1  0  0  0  0
 18 19  1  0  0  0  0
 18 38  1  0  0  0  0
 18 39  1  0  0  0  0
 19 20  1  0  0  0  0
 20 21  1  0  0  0  0
 20 40  1  0  0  0  0
 20 41  1  0  0  0  0
 21 42  1  0  0  0  0
 21 43  1  0  0  0  0
 22 23  2  0  0  0  0
 23 44  1  0  0  0  0
M  CHG  1   5  -1
M  END
> <s_m_source_file>
AV-unprocessed.smi

> <i_m_source_file_index>
1845

> <i_lp_mmshare_version>
43012

> <i_f3d_flags>
0

> <s_epik_input>
W0NIM11TKD1PKSg9TylbTkhdW0NIMl1bQ0gyXUMoPU8pW05IXVtDSDJdYzFbY0hdW2NIXWMobltjSF0xKU4yW0NIMl1bQ0gyXU9bQ0gyXVtDSDJdMg==

> <s_epik_cmdline>
J2VwaWtfcHl0aG9uJywgJy1waCcsICc3LjAnLCAnLXRuJywgJzgnLCAnLW1hJywgJzIwMCcsICctbWV0YWxfYmluZGluZycsICctaW1hZScsICc8aW5maWxlLm1hZT4nLCAnLW9tYWUnLCAnPG91dGZpbGUubWFlPic=

> <r_lp_tautomer_probability>
1

> <r_epik_Ionization_Penalty>
6.31253

> <r_epik_Ionization_Penalty_Charging>
6.30704

> <r_epik_Ionization_Penalty_Neutral>
0.00548995

> <r_epik_State_Penalty>
6.31049

> <r_epik_Charging_Adjusted_Penalty>
12.6175

> <i_epik_Tot_Q>
-1

> <i_epik_Tot_abs_Q>
1

> <r_epik_Metal_State_Penalty>
2.24651

> <b_epik_Metal_Only>
1

> <s_lp_Force_Field>
OPLS_2005

> <r_lp_Energy>
11.4109

> <b_lp_Chiralities_Consistent>
1

> <s_lp_Variant>
AV-unprocessed.smi:1845-2

> <Gold.Version>
5.8.1

> <Gold.Id.Protein>
6NUR|6NUR_protein|mol2

> <Gold.PLP.Fitness>
49.2298

> <Gold.PLP.PLP>
-42.2807

> <Gold.PLP.part.hbond>
-4.0000

> <Gold.PLP.part.metal>
0.0000

> <Gold.PLP.part.buried>
-4.7562

> <Gold.PLP.part.nonpolar>
-33.7255

> <Gold.PLP.part.repulsive>
0.2604

> <Gold.PLP.ligand.clash>
0.0000

> <Gold.PLP.ligand.torsion>
1.1409

> <Gold.PLP.Chemscore.Hbond>
2.6116

> <Gold.PLP.Chemscore.CHOScore>
0.0000

> <Gold.PLP.Chemscore.Metal>
0.0000

> <Gold.Chemscore.Hbonds>
donor molecule, donor type, donor heavy atom, donor atom, acceptor molecule, acceptor atom, score
      L1  H    10    31       P1  7948  0.86
      P1  H  7997  8008       L1    22  0.76
      P1  H 10752 10765       L1     9  1.00

> <Gold.PLP.Chemscore.Internal.Correction>
1.3959

> <Gold.Rescore>
     Score         DG    S(hbond)    S(metal)    S(lipo)     H(rot)  DE(clash)    DE(int)     intcor
     14.37     -15.78       1.54        0.00      98.07       2.46       0.14       1.27       ----

> <Gold.Chemscore.Fitness>
14.3691

> <Gold.Chemscore.DG>
-15.7778

> <Gold.Chemscore.ZeroCoef>
-5.4800

> <Gold.Chemscore.Hbond>
1.5353

> <Gold.Chemscore.Metal>
0.0000

> <Gold.Chemscore.Lipo>
98.0677

> <Gold.Chemscore.Internal_Hbond>
0.0000

> <Gold.Chemscore.DEClash>
0.1353

> <Gold.Chemscore.DEInternal>
1.2734

> <Gold.Chemscore.Rot>
2.4625

> <Gold.Chemscore.Internal.Correction>
   9.000000E+99

> <Gold.Chemscore.Hbonds>
donor molecule, donor type, donor heavy atom, donor atom, acceptor molecule, acceptor atom, score
      L1  H    10    31       P1  7948  0.57
      P1  H  7997  8008       L1    22  0.10
      P1  H 10752 10765       L1     9  0.35

> <Gold.Chemscore.Hbond.Weighted>
-5.1279

> <Gold.Chemscore.Metal.Weighted>
-0.0000

> <Gold.Chemscore.Lipo.Weighted>
-11.4739

> <Gold.Chemscore.Internal_Hbond.Weighted>
0.0000

> <Gold.Chemscore.DEClash.Weighted>
0.1353

> <Gold.Chemscore.DEInternal.Weighted>
1.2734

> <Gold.Chemscore.Rot.Weighted>
6.3040

> <Gold.Chemscore.Internal.Correction.Weighted>
   9.000000E+99

> <Gold.Protein.RotatedTorsions>
[ 6907 6896 6895 6894 ] final  -59.77 input  -60.11 | X-H torsion
[ 7974 7965 7964 7962 ] final   16.38 input  175.53 | X-H torsion
[ 8008 7997 7996 7995 ] final  -78.11 input   59.86 | X-H torsion
[ 10167 10162 10161 10158 ] final  124.91 input  -65.29 | X-H torsion
[ 10718 10713 10712 10709 ] final  107.11 input   66.30 | X-H torsion
[ 10763 10752 10751 10750 ] final -160.55 input  -60.55 | X-H torsion
[ 11005 11000 10999 10996 ] final   78.77 input  -57.11 | X-H torsion

> <Gold.Protein.ActiveResidues>
 VAL166  LYS551  ARG553  GLY616  TRP617  ASP618  TYR619  PRO620  LYS621  CYS622 
 ASP623  PHE694  ASN695  SER759  ASP760  ASP761  ALA762  ILE779  LEU786  VAL792 
 PHE793  MET794  SER795  GLU796  ALA797  LYS798  CYS799  TRP800  GLU811  SER814 

> <Gold.Protein.RotatedAtoms>
  150.7905  134.6925  159.6504 H   0  0  0  0  0  0  0  0  0  0  0  0  # atno 6907 bound_to 6896
  152.4010  134.6283  160.0078 H   0  0  0  0  0  0  0  0  0  0  0  0  # atno 6908 bound_to 6896
  151.6554  133.3282  159.3198 H   0  0  0  0  0  0  0  0  0  0  0  0  # atno 6909 bound_to 6896
  146.2251  139.8757  142.8579 H   0  0  0  0  0  0  0  0  0  0  0  0  # atno 7974 bound_to 7965
  154.5658  140.0699  156.8890 H   0  0  0  0  0  0  0  0  0  0  0  0  # atno 8008 bound_to 7997
  155.2725  140.3366  155.4246 H   0  0  0  0  0  0  0  0  0  0  0  0  # atno 8009 bound_to 7997
  156.2079  140.1747  156.7744 H   0  0  0  0  0  0  0  0  0  0  0  0  # atno 8010 bound_to 7997
  139.5715  144.6941  151.3767 H   0  0  0  0  0  0  0  0  0  0  0  0  # atno 10167 bound_to 10162
  157.6641  131.0865  150.6107 H   0  0  0  0  0  0  0  0  0  0  0  0  # atno 10718 bound_to 10713
  154.7381  135.3062  154.8777 H   0  0  0  0  0  0  0  0  0  0  0  0  # atno 10763 bound_to 10752
  153.9600  135.6754  153.4749 H   0  0  0  0  0  0  0  0  0  0  0  0  # atno 10764 bound_to 10752
  153.0982  135.4925  154.8741 H   0  0  0  0  0  0  0  0  0  0  0  0  # atno 10765 bound_to 10752
  139.9199  134.7790  156.1692 H   0  0  0  0  0  0  0  0  0  0  0  0  # atno 11005 bound_to 11000
  145.2563  141.0062  143.3852 LP  0  0  0  0  0  0  0  0  0  0  0  0  # atno 17320 bound_to 7965
  144.9334  139.4272  143.6484 LP  0  0  0  0  0  0  0  0  0  0  0  0  # atno 17321 bound_to 7965
  140.6999  143.7658  150.7386 LP  0  0  0  0  0  0  0  0  0  0  0  0  # atno 17342 bound_to 10162
  140.1165  143.4651  152.2339 LP  0  0  0  0  0  0  0  0  0  0  0  0  # atno 17343 bound_to 10162
  156.6409  130.4458  149.5753 LP  0  0  0  0  0  0  0  0  0  0  0  0  # atno 17370 bound_to 10713
  156.2210  130.6737  151.1368 LP  0  0  0  0  0  0  0  0  0  0  0  0  # atno 17371 bound_to 10713
  141.0710  133.6797  156.2141 LP  0  0  0  0  0  0  0  0  0  0  0  0  # atno 17394 bound_to 11000
  140.6506  134.5071  157.5577 LP  0  0  0  0  0  0  0  0  0  0  0  0  # atno 17395 bound_to 11000

$$$$
