AV-unprocessed.smi:1381|AV-procd|sdf|5618|dock3
  -GOLD-   22720 5233D 1   1.00000     0.00000
 Structure written by MMmdl.
 42 43  0  0  0  0  0  0  0  0  3 V2000
  147.6388  135.3040  162.3270 C   0  0  0  0  0  0  0  0  0  0  0  0
  147.9967  135.6715  160.9278 C   0  0  0  0  0  0  0  0  0  0  0  0
  148.3433  134.9327  159.8320 C   0  0  0  0  0  0  0  0  0  0  0  0
  148.5522  135.9197  158.8320 C   0  0  0  0  0  0  0  0  0  0  0  0
  148.9332  135.5453  157.5164 N   0  0  0  0  0  0  0  0  0  0  0  0
  149.5818  134.4394  157.1075 C   0  0  0  0  0  0  0  0  0  0  0  0
  149.9142  133.5719  157.9241 O   0  0  0  0  0  0  0  0  0  0  0  0
  149.7919  134.4362  155.7625 N   0  5  0  0  0  0  0  0  0  0  0  0
  148.8014  134.8392  154.7674 C   0  0  0  0  0  0  0  0  0  0  0  0
  148.4675  133.6415  153.8572 C   0  0  0  0  0  0  0  0  0  0  0  0
  147.4515  133.9867  152.8275 N   0  3  1  0  0  0  0  0  0  0  0  0
  147.2237  132.8948  151.8520 C   0  0  0  0  0  0  0  0  0  0  0  0
  146.2662  133.3590  150.7398 C   0  0  1  0  0  0  0  0  0  0  0  0
  145.9350  132.2291  149.7585 C   0  0  0  0  0  0  0  0  0  0  0  0
  145.0438  133.8088  151.3190 O   0  0  0  0  0  0  0  0  0  0  0  0
  145.1825  134.8646  152.2702 C   0  0  2  0  0  0  0  0  0  0  0  0
  145.5522  136.2039  151.6082 C   0  0  0  0  0  0  0  0  0  0  0  0
  146.1540  134.4458  153.3901 C   0  0  0  0  0  0  0  0  0  0  0  0
  148.3500  137.1504  159.2788 N   0  0  0  0  0  0  0  0  0  0  0  0
  147.9932  136.9975  160.6238 O   0  0  0  0  0  0  0  0  0  0  0  0
  147.6961  134.2252  162.4735 H   0  0  0  0  0  0  0  0  0  0  0  0
  146.6236  135.6235  162.5623 H   0  0  0  0  0  0  0  0  0  0  0  0
  148.3173  135.7780  163.0365 H   0  0  0  0  0  0  0  0  0  0  0  0
  148.4325  133.8593  159.7587 H   0  0  0  0  0  0  0  0  0  0  0  0
  148.6896  136.2018  156.7898 H   0  0  0  0  0  0  0  0  0  0  0  0
  147.8812  135.1968  155.2311 H   0  0  0  0  0  0  0  0  0  0  0  0
  149.1633  135.6624  154.1501 H   0  0  0  0  0  0  0  0  0  0  0  0
  149.3907  133.3268  153.3674 H   0  0  0  0  0  0  0  0  0  0  0  0
  148.1303  132.7845  154.4430 H   0  0  0  0  0  0  0  0  0  0  0  0
  148.1737  132.5925  151.4086 H   0  0  0  0  0  0  0  0  0  0  0  0
  146.8179  132.0238  152.3692 H   0  0  0  0  0  0  0  0  0  0  0  0
  146.7267  134.1707  150.1762 H   0  0  0  0  0  0  0  0  0  0  0  0
  146.8369  131.8485  149.2784 H   0  0  0  0  0  0  0  0  0  0  0  0
  145.2640  132.5791  148.9735 H   0  0  0  0  0  0  0  0  0  0  0  0
  145.4479  131.3953  150.2649 H   0  0  0  0  0  0  0  0  0  0  0  0
  144.1974  134.9970  152.7188 H   0  0  0  0  0  0  0  0  0  0  0  0
  145.5173  137.0153  152.3355 H   0  0  0  0  0  0  0  0  0  0  0  0
  144.8532  136.4487  150.8083 H   0  0  0  0  0  0  0  0  0  0  0  0
  146.5561  136.1941  151.1846 H   0  0  0  0  0  0  0  0  0  0  0  0
  145.7126  133.6351  153.9721 H   0  0  0  0  0  0  0  0  0  0  0  0
  146.3033  135.2780  154.0789 H   0  0  0  0  0  0  0  0  0  0  0  0
  147.8407  134.7573  152.3030 H   0  0  0  0  0  0  0  0  0  0  0  0
  1  2  1  0  0  0  0
  1 21  1  0  0  0  0
  1 22  1  0  0  0  0
  1 23  1  0  0  0  0
  2 20  1  0  0  0  0
  2  3  2  0  0  0  0
  3  4  1  0  0  0  0
  3 24  1  0  0  0  0
  4  5  1  0  0  0  0
  4 19  2  0  0  0  0
  5  6  1  0  0  0  0
  5 25  1  0  0  0  0
  6  7  2  0  0  0  0
  6  8  1  0  0  0  0
  8  9  1  0  0  0  0
  9 10  1  0  0  0  0
  9 26  1  0  0  0  0
  9 27  1  0  0  0  0
 10 11  1  0  0  0  0
 10 28  1  0  0  0  0
 10 29  1  0  0  0  0
 11 18  1  0  0  0  0
 11 12  1  0  0  0  0
 11 42  1  0  0  0  0
 12 13  1  0  0  0  0
 12 30  1  0  0  0  0
 12 31  1  0  0  0  0
 13 14  1  0  0  0  0
 13 15  1  0  0  0  0
 13 32  1  0  0  0  0
 14 33  1  0  0  0  0
 14 34  1  0  0  0  0
 14 35  1  0  0  0  0
 15 16  1  0  0  0  0
 16 17  1  0  0  0  0
 16 18  1  0  0  0  0
 16 36  1  0  0  0  0
 17 37  1  0  0  0  0
 17 38  1  0  0  0  0
 17 39  1  0  0  0  0
 18 40  1  0  0  0  0
 18 41  1  0  0  0  0
 19 20  1  0  0  0  0
M  CHG  1   8  -1
M  CHG  1  11   1
M  END
> <s_m_source_file>
AV-unprocessed.smi

> <i_m_source_file_index>
1381

> <i_lp_mmshare_version>
43012

> <i_f3d_flags>
0

> <s_epik_input>
W0NIM11jMVtjSF1jKG5vMSlbTkhdQyg9TylbTkhdW0NIMl1bQ0gyXU4yW0NIMl1bQ0BASF0oW0NIM10pT1tDQEBIXShbQ0gzXSlbQ0gyXTI=

> <s_epik_cmdline>
J2VwaWtfcHl0aG9uJywgJy1waCcsICc3LjAnLCAnLXRuJywgJzgnLCAnLW1hJywgJzIwMCcsICctbWV0YWxfYmluZGluZycsICctaW1hZScsICc8aW5maWxlLm1hZT4nLCAnLW9tYWUnLCAnPG91dGZpbGUubWFlPic=

> <r_epik_Ionization_Penalty>
6.8073

> <r_epik_Ionization_Penalty_Charging>
6.80729

> <r_epik_Ionization_Penalty_Neutral>
5.65391e-06

> <r_epik_State_Penalty>
7.47323

> <r_epik_Charging_Adjusted_Penalty>
14.2805

> <i_epik_Tot_Q>
0

> <i_epik_Tot_abs_Q>
2

> <r_epik_Metal_State_Penalty>
3.40035

> <b_epik_Metal_Only>
1

> <s_lp_Force_Field>
OPLS_2005

> <r_lp_Energy>
14.8512

> <b_lp_Chiralities_Consistent>
1

> <s_lp_Variant>
AV-unprocessed.smi:1381-17

> <Gold.Version>
5.8.1

> <Gold.Id.Protein>
6NUR|6NUR_protein|mol2

> <Gold.PLP.Fitness>
43.9170

> <Gold.PLP.PLP>
-31.1126

> <Gold.PLP.part.hbond>
-4.0287

> <Gold.PLP.part.metal>
0.0000

> <Gold.PLP.part.buried>
-3.3642

> <Gold.PLP.part.nonpolar>
-23.9344

> <Gold.PLP.part.repulsive>
0.2160

> <Gold.PLP.ligand.clash>
0.0000

> <Gold.PLP.ligand.torsion>
0.4949

> <Gold.PLP.Chemscore.Hbond>
4.5840

> <Gold.PLP.Chemscore.CHOScore>
0.0000

> <Gold.PLP.Chemscore.Metal>
0.0000

> <Gold.Chemscore.Hbonds>
donor molecule, donor type, donor heavy atom, donor atom, acceptor molecule, acceptor atom, score
      L1  H    11    42       P1  7948  2.00
      P1  H  6896  6907       L1     7  1.00
      P1  H  6931  6943       L1    20  0.80
      P1  H  6934  6947       L1    20  0.40

> <Gold.PLP.Chemscore.Internal.Correction>
0.0421

> <Gold.Rescore>
     Score         DG    S(hbond)    S(metal)    S(lipo)     H(rot)  DE(clash)    DE(int)     intcor
     17.05     -18.88       2.95        0.00      64.92       1.58       0.00       1.83       ----

> <Gold.Chemscore.Fitness>
17.0538

> <Gold.Chemscore.DG>
-18.8847

> <Gold.Chemscore.ZeroCoef>
-5.4800

> <Gold.Chemscore.Hbond>
2.9498

> <Gold.Chemscore.Metal>
0.0000

> <Gold.Chemscore.Lipo>
64.9164

> <Gold.Chemscore.Internal_Hbond>
0.0000

> <Gold.Chemscore.DEClash>
0.0000

> <Gold.Chemscore.DEInternal>
1.8309

> <Gold.Chemscore.Rot>
1.5792

> <Gold.Chemscore.Internal.Correction>
   9.000000E+99

> <Gold.Chemscore.Hbonds>
donor molecule, donor type, donor heavy atom, donor atom, acceptor molecule, acceptor atom, score
      L1  H    11    42       P1  7948  0.70
      P1  H  6896  6907       L1     7  0.98
      P1  H  6931  6943       L1    20  0.61
      P1  H  6934  6947       L1    20  0.07

> <Gold.Chemscore.Hbond.Weighted>
-9.8523

> <Gold.Chemscore.Metal.Weighted>
-0.0000

> <Gold.Chemscore.Lipo.Weighted>
-7.5952

> <Gold.Chemscore.Internal_Hbond.Weighted>
0.0000

> <Gold.Chemscore.DEClash.Weighted>
0.0000

> <Gold.Chemscore.DEInternal.Weighted>
1.8309

> <Gold.Chemscore.Rot.Weighted>
4.0428

> <Gold.Chemscore.Internal.Correction.Weighted>
   9.000000E+99

> <Gold.Protein.RotatedTorsions>
[ 6907 6896 6895 6894 ] final -130.99 input  -60.11 | X-H torsion
[ 7974 7965 7964 7962 ] final  -53.33 input  175.53 | X-H torsion
[ 8008 7997 7996 7995 ] final  -78.68 input   59.86 | X-H torsion
[ 10167 10162 10161 10158 ] final  113.16 input  -65.29 | X-H torsion
[ 10718 10713 10712 10709 ] final  -10.29 input   66.30 | X-H torsion
[ 10763 10752 10751 10750 ] final -122.82 input  -60.55 | X-H torsion
[ 11005 11000 10999 10996 ] final   28.78 input  -57.11 | X-H torsion

> <Gold.Protein.ActiveResidues>
 VAL166  LYS551  ARG553  GLY616  TRP617  ASP618  TYR619  PRO620  LYS621  CYS622 
 ASP623  PHE694  ASN695  SER759  ASP760  ASP761  ALA762  ILE779  LEU786  VAL792 
 PHE793  MET794  SER795  GLU796  ALA797  LYS798  CYS799  TRP800  GLU811  SER814 

> <Gold.Protein.RotatedAtoms>
  150.9459  133.6604  159.2781 H   0  0  0  0  0  0  0  0  0  0  0  0  # atno 6907 bound_to 6896
  151.3977  135.0965  159.9556 H   0  0  0  0  0  0  0  0  0  0  0  0  # atno 6908 bound_to 6896
  152.5089  133.8959  159.7472 H   0  0  0  0  0  0  0  0  0  0  0  0  # atno 6909 bound_to 6896
  145.8980  140.8017  142.9758 H   0  0  0  0  0  0  0  0  0  0  0  0  # atno 7974 bound_to 7965
  154.5713  140.0690  156.8968 H   0  0  0  0  0  0  0  0  0  0  0  0  # atno 8008 bound_to 7997
  155.2630  140.3360  155.4253 H   0  0  0  0  0  0  0  0  0  0  0  0  # atno 8009 bound_to 7997
  156.2120  140.1763  156.7659 H   0  0  0  0  0  0  0  0  0  0  0  0  # atno 8010 bound_to 7997
  139.6482  144.7127  151.2100 H   0  0  0  0  0  0  0  0  0  0  0  0  # atno 10167 bound_to 10162
  156.6757  130.5022  149.5986 H   0  0  0  0  0  0  0  0  0  0  0  0  # atno 10718 bound_to 10713
  154.8696  135.4120  154.2843 H   0  0  0  0  0  0  0  0  0  0  0  0  # atno 10763 bound_to 10752
  153.3730  135.7008  153.6629 H   0  0  0  0  0  0  0  0  0  0  0  0  # atno 10764 bound_to 10752
  153.5482  135.3634  155.2720 H   0  0  0  0  0  0  0  0  0  0  0  0  # atno 10765 bound_to 10752
  140.3119  134.2640  155.7732 H   0  0  0  0  0  0  0  0  0  0  0  0  # atno 11005 bound_to 11000
  144.6734  140.1632  143.7420 LP  0  0  0  0  0  0  0  0  0  0  0  0  # atno 17320 bound_to 7965
  145.8826  139.2331  143.1596 LP  0  0  0  0  0  0  0  0  0  0  0  0  # atno 17321 bound_to 7965
  140.7525  143.6195  150.8527 LP  0  0  0  0  0  0  0  0  0  0  0  0  # atno 17342 bound_to 10162
  139.9840  143.5920  152.2933 LP  0  0  0  0  0  0  0  0  0  0  0  0  # atno 17343 bound_to 10162
  156.1905  130.6557  151.1056 LP  0  0  0  0  0  0  0  0  0  0  0  0  # atno 17370 bound_to 10713
  157.7062  131.0755  150.6660 LP  0  0  0  0  0  0  0  0  0  0  0  0  # atno 17371 bound_to 10713
  141.2106  133.7714  156.9920 LP  0  0  0  0  0  0  0  0  0  0  0  0  # atno 17394 bound_to 11000
  140.1017  134.9531  157.1933 LP  0  0  0  0  0  0  0  0  0  0  0  0  # atno 17395 bound_to 11000

$$$$
