AV-unprocessed.smi:3030|AV-procd|sdf|11534|dock7
  -GOLD-   2272016483D 1   1.00000     0.00000
 Structure written by MMmdl.
 52 53  0  0  0  0  0  0  0  0  1 V2000
  145.7385  131.5097  161.5642 C   0  0  0  0  0  0  0  0  0  0  0  0
  147.2229  131.7796  161.2947 C   0  0  0  0  0  0  0  0  0  0  0  0
  147.5294  133.2024  161.3366 N   0  0  0  0  0  0  0  0  0  0  0  0
  147.2623  133.9649  162.4689 C   0  0  0  0  0  0  0  0  0  0  0  0
  147.4671  135.2938  162.5499 C   0  0  0  0  0  0  0  0  0  0  0  0
  148.0032  136.0162  161.3787 C   0  0  0  0  0  0  0  0  0  0  0  0
  148.1990  137.2309  161.4165 O   0  0  0  0  0  0  0  0  0  0  0  0
  148.2874  135.2019  160.1678 C   0  0  0  0  0  0  0  0  0  0  0  0
  148.7814  135.8963  159.0518 N   0  0  0  0  0  0  0  0  0  0  0  0
  148.4492  137.1183  158.5980 C   0  0  0  0  0  0  0  0  0  0  0  0
  147.5831  137.8527  159.0731 O   0  0  0  0  0  0  0  0  0  0  0  0
  149.1825  137.4437  157.5237 N   0  0  0  0  0  0  0  0  0  0  0  0
  149.0692  138.6844  156.7628 C   0  0  1  0  0  0  0  0  0  0  0  0
  149.9374  139.7955  157.3827 C   0  0  0  0  0  0  0  0  0  0  0  0
  149.6557  141.1550  156.7109 C   0  0  1  0  0  0  0  0  0  0  0  0
  150.5509  142.2625  157.2840 C   0  0  0  0  0  0  0  0  0  0  0  0
  149.7891  141.0562  155.1772 C   0  0  0  0  0  0  0  0  0  0  0  0
  148.9524  139.8962  154.6025 C   0  0  0  0  0  0  0  0  0  0  0  0
  149.3339  138.5332  155.2338 C   0  0  1  0  0  0  0  0  0  0  0  0
  150.7621  138.0366  154.8113 C   0  0  0  0  0  0  0  0  0  0  0  0
  151.0536  136.6013  155.2949 C   0  0  0  0  0  0  0  0  0  0  0  0
  151.9124  138.9425  155.2935 C   0  0  0  0  0  0  0  0  0  0  0  0
  148.0294  133.8700  160.2203 C   0  0  0  0  0  0  0  0  0  0  0  0
  145.5264  130.4412  161.5273 H   0  0  0  0  0  0  0  0  0  0  0  0
  145.1075  131.9999  160.8222 H   0  0  0  0  0  0  0  0  0  0  0  0
  145.4442  131.8744  162.5489 H   0  0  0  0  0  0  0  0  0  0  0  0
  147.8341  131.2527  162.0286 H   0  0  0  0  0  0  0  0  0  0  0  0
  147.5015  131.3764  160.3202 H   0  0  0  0  0  0  0  0  0  0  0  0
  146.8737  133.4005  163.3045 H   0  0  0  0  0  0  0  0  0  0  0  0
  147.2483  135.8444  163.4528 H   0  0  0  0  0  0  0  0  0  0  0  0
  149.4685  135.3889  158.5134 H   0  0  0  0  0  0  0  0  0  0  0  0
  149.8674  136.7770  157.1993 H   0  0  0  0  0  0  0  0  0  0  0  0
  148.0333  139.0086  156.8854 H   0  0  0  0  0  0  0  0  0  0  0  0
  149.7258  139.8731  158.4502 H   0  0  0  0  0  0  0  0  0  0  0  0
  150.9947  139.5422  157.3017 H   0  0  0  0  0  0  0  0  0  0  0  0
  148.6221  141.4247  156.9333 H   0  0  0  0  0  0  0  0  0  0  0  0
  151.6055  142.0539  157.1013 H   0  0  0  0  0  0  0  0  0  0  0  0
  150.4130  142.3611  158.3611 H   0  0  0  0  0  0  0  0  0  0  0  0
  150.3191  143.2275  156.8327 H   0  0  0  0  0  0  0  0  0  0  0  0
  149.4695  141.9933  154.7206 H   0  0  0  0  0  0  0  0  0  0  0  0
  150.8360  140.9290  154.9009 H   0  0  0  0  0  0  0  0  0  0  0  0
  147.8982  140.0967  154.7996 H   0  0  0  0  0  0  0  0  0  0  0  0
  149.0261  139.8752  153.5166 H   0  0  0  0  0  0  0  0  0  0  0  0
  148.6215  137.8025  154.8475 H   0  0  0  0  0  0  0  0  0  0  0  0
  150.8202  138.0109  153.7239 H   0  0  0  0  0  0  0  0  0  0  0  0
  150.9130  136.5090  156.3722 H   0  0  0  0  0  0  0  0  0  0  0  0
  152.0796  136.3079  155.0707 H   0  0  0  0  0  0  0  0  0  0  0  0
  150.4182  135.8656  154.8036 H   0  0  0  0  0  0  0  0  0  0  0  0
  151.8284  139.1624  156.3583 H   0  0  0  0  0  0  0  0  0  0  0  0
  151.9469  139.8834  154.7478 H   0  0  0  0  0  0  0  0  0  0  0  0
  152.8828  138.4728  155.1316 H   0  0  0  0  0  0  0  0  0  0  0  0
  148.1851  133.2093  159.3822 H   0  0  0  0  0  0  0  0  0  0  0  0
  1  2  1  0  0  0  0
  1 24  1  0  0  0  0
  1 25  1  0  0  0  0
  1 26  1  0  0  0  0
  2  3  1  0  0  0  0
  2 27  1  0  0  0  0
  2 28  1  0  0  0  0
  3 23  1  0  0  0  0
  3  4  1  0  0  0  0
  4  5  2  0  0  0  0
  4 29  1  0  0  0  0
  5  6  1  0  0  0  0
  5 30  1  0  0  0  0
  6  7  2  0  0  0  0
  6  8  1  0  0  0  0
  8  9  1  0  0  0  0
  8 23  2  0  0  0  0
  9 10  1  0  0  0  0
  9 31  1  0  0  0  0
 10 11  2  0  0  0  0
 10 12  1  0  0  0  0
 12 13  1  0  0  0  0
 12 32  1  0  0  0  0
 13 19  1  0  0  0  0
 13 14  1  0  0  0  0
 13 33  1  0  0  0  0
 14 15  1  0  0  0  0
 14 34  1  0  0  0  0
 14 35  1  0  0  0  0
 15 16  1  0  0  0  0
 15 17  1  0  0  0  0
 15 36  1  0  0  0  0
 16 37  1  0  0  0  0
 16 38  1  0  0  0  0
 16 39  1  0  0  0  0
 17 18  1  0  0  0  0
 17 40  1  0  0  0  0
 17 41  1  0  0  0  0
 18 19  1  0  0  0  0
 18 42  1  0  0  0  0
 18 43  1  0  0  0  0
 19 20  1  0  0  0  0
 19 44  1  0  0  0  0
 20 21  1  0  0  0  0
 20 22  1  0  0  0  0
 20 45  1  0  0  0  0
 21 46  1  0  0  0  0
 21 47  1  0  0  0  0
 21 48  1  0  0  0  0
 22 49  1  0  0  0  0
 22 50  1  0  0  0  0
 22 51  1  0  0  0  0
 23 52  1  0  0  0  0
M  END
> <s_m_source_file>
AV-unprocessed.smi

> <i_m_source_file_index>
3030

> <i_lp_mmshare_version>
43012

> <i_f3d_flags>
0

> <s_epik_input>
W0NIM11bQ0gyXW4xW2NIXVtjSF1jKD1PKWMoW2NIXTEpW05IXUMoPU8pW05IXVtDQEBIXTJbQ0gyXVtDQEBIXShbQ0gzXSlbQ0gyXVtDSDJdW0NASF0yW0NIXShbQ0gzXSlbQ0gzXQ==

> <s_epik_cmdline>
J2VwaWtfcHl0aG9uJywgJy1waCcsICc3LjAnLCAnLXRuJywgJzgnLCAnLW1hJywgJzIwMCcsICctbWV0YWxfYmluZGluZycsICctaW1hZScsICc8aW5maWxlLm1hZT4nLCAnLW9tYWUnLCAnPG91dGZpbGUubWFlPic=

> <r_lp_tautomer_probability>
1

> <r_epik_Ionization_Penalty>
0.00147933

> <r_epik_Ionization_Penalty_Charging>
0.00145753

> <r_epik_Ionization_Penalty_Neutral>
2.17987e-05

> <r_epik_State_Penalty>
0.00097457

> <r_epik_Charging_Adjusted_Penalty>
0.0024321

> <i_epik_Tot_Q>
0

> <i_epik_Tot_abs_Q>
0

> <r_epik_Metal_State_Penalty>
-0

> <b_epik_Metal_Only>
0

> <s_lp_Force_Field>
OPLS_2005

> <r_lp_Energy>
13.818

> <b_lp_Chiralities_Consistent>
1

> <s_lp_Variant>
AV-unprocessed.smi:3030-2

> <Gold.Version>
5.8.1

> <Gold.Id.Protein>
6NUR|6NUR_protein|mol2

> <Gold.PLP.Fitness>
43.0160

> <Gold.PLP.PLP>
-39.4549

> <Gold.PLP.part.hbond>
-2.8173

> <Gold.PLP.part.metal>
0.0000

> <Gold.PLP.part.buried>
-4.2282

> <Gold.PLP.part.nonpolar>
-33.5010

> <Gold.PLP.part.repulsive>
0.1524

> <Gold.PLP.ligand.clash>
0.0946

> <Gold.PLP.ligand.torsion>
0.6761

> <Gold.PLP.Chemscore.Hbond>
1.6473

> <Gold.PLP.Chemscore.CHOScore>
0.0000

> <Gold.PLP.Chemscore.Metal>
0.0000

> <Gold.Chemscore.Hbonds>
donor molecule, donor type, donor heavy atom, donor atom, acceptor molecule, acceptor atom, score
      P1  H  6931  6943       L1     7  0.68
      P1  H  6934  6947       L1     7  0.46

> <Gold.PLP.Chemscore.Internal.Correction>
0.0661

> <Gold.Rescore>
     Score         DG    S(hbond)    S(metal)    S(lipo)     H(rot)  DE(clash)    DE(int)     intcor
     12.58     -17.50       1.68        0.00      82.45       1.27       0.05       4.87       ----

> <Gold.Chemscore.Fitness>
12.5847

> <Gold.Chemscore.DG>
-17.5047

> <Gold.Chemscore.ZeroCoef>
-5.4800

> <Gold.Chemscore.Hbond>
1.6842

> <Gold.Chemscore.Metal>
0.0000

> <Gold.Chemscore.Lipo>
82.4529

> <Gold.Chemscore.Internal_Hbond>
0.0000

> <Gold.Chemscore.DEClash>
0.0476

> <Gold.Chemscore.DEInternal>
4.8724

> <Gold.Chemscore.Rot>
1.2685

> <Gold.Chemscore.Internal.Correction>
   9.000000E+99

> <Gold.Chemscore.Hbonds>
donor molecule, donor type, donor heavy atom, donor atom, acceptor molecule, acceptor atom, score
      P1  H  6931  6943       L1     7  0.68
      P1  H  6934  6947       L1     7  0.45

> <Gold.Chemscore.Hbond.Weighted>
-5.6251

> <Gold.Chemscore.Metal.Weighted>
-0.0000

> <Gold.Chemscore.Lipo.Weighted>
-9.6470

> <Gold.Chemscore.Internal_Hbond.Weighted>
0.0000

> <Gold.Chemscore.DEClash.Weighted>
0.0476

> <Gold.Chemscore.DEInternal.Weighted>
4.8724

> <Gold.Chemscore.Rot.Weighted>
3.2474

> <Gold.Chemscore.Internal.Correction.Weighted>
   9.000000E+99

> <Gold.Protein.RotatedTorsions>
[ 6907 6896 6895 6894 ] final  149.87 input  -60.11 | X-H torsion
[ 7974 7965 7964 7962 ] final   90.19 input  175.53 | X-H torsion
[ 8008 7997 7996 7995 ] final   51.67 input   59.86 | X-H torsion
[ 10167 10162 10161 10158 ] final  163.77 input  -65.29 | X-H torsion
[ 10718 10713 10712 10709 ] final   21.37 input   66.30 | X-H torsion
[ 10763 10752 10751 10750 ] final  143.74 input  -60.55 | X-H torsion
[ 11005 11000 10999 10996 ] final   88.53 input  -57.11 | X-H torsion

> <Gold.Protein.ActiveResidues>
 VAL166  LYS551  ARG553  GLY616  TRP617  ASP618  TYR619  PRO620  LYS621  CYS622 
 ASP623  PHE694  ASN695  SER759  ASP760  ASP761  ALA762  ILE779  LEU786  VAL792 
 PHE793  MET794  SER795  GLU796  ALA797  LYS798  CYS799  TRP800  GLU811  SER814 

> <Gold.Protein.RotatedAtoms>
  152.1222  133.4359  159.4680 H   0  0  0  0  0  0  0  0  0  0  0  0  # atno 6907 bound_to 6896
  150.6872  134.2521  159.4524 H   0  0  0  0  0  0  0  0  0  0  0  0  # atno 6908 bound_to 6896
  152.0399  134.9717  160.0624 H   0  0  0  0  0  0  0  0  0  0  0  0  # atno 6909 bound_to 6896
  145.5223  139.2280  143.2664 H   0  0  0  0  0  0  0  0  0  0  0  0  # atno 7974 bound_to 7965
  155.4390  140.3453  155.4288 H   0  0  0  0  0  0  0  0  0  0  0  0  # atno 8008 bound_to 7997
  156.1290  140.1508  156.9124 H   0  0  0  0  0  0  0  0  0  0  0  0  # atno 8009 bound_to 7997
  154.4880  140.0849  156.7510 H   0  0  0  0  0  0  0  0  0  0  0  0  # atno 8010 bound_to 7997
  139.4878  144.4303  151.9078 H   0  0  0  0  0  0  0  0  0  0  0  0  # atno 10167 bound_to 10162
  157.1375  130.6618  149.5970 H   0  0  0  0  0  0  0  0  0  0  0  0  # atno 10718 bound_to 10713
  153.9774  135.2944  155.3423 H   0  0  0  0  0  0  0  0  0  0  0  0  # atno 10763 bound_to 10752
  154.7288  135.5077  153.8933 H   0  0  0  0  0  0  0  0  0  0  0  0  # atno 10764 bound_to 10752
  153.0871  135.6696  154.0042 H   0  0  0  0  0  0  0  0  0  0  0  0  # atno 10765 bound_to 10752
  139.8894  134.8493  156.3013 H   0  0  0  0  0  0  0  0  0  0  0  0  # atno 11005 bound_to 11000
  146.2098  140.6036  142.9065 LP  0  0  0  0  0  0  0  0  0  0  0  0  # atno 17320 bound_to 7965
  144.7669  140.5551  143.6697 LP  0  0  0  0  0  0  0  0  0  0  0  0  # atno 17321 bound_to 7965
  140.3751  144.2807  150.5915 LP  0  0  0  0  0  0  0  0  0  0  0  0  # atno 17342 bound_to 10162
  140.5284  143.2249  151.8278 LP  0  0  0  0  0  0  0  0  0  0  0  0  # atno 17343 bound_to 10162
  155.9795  130.4789  150.6720 LP  0  0  0  0  0  0  0  0  0  0  0  0  # atno 17370 bound_to 10713
  157.4337  131.0852  151.1013 LP  0  0  0  0  0  0  0  0  0  0  0  0  # atno 17371 bound_to 10713
  140.9911  133.7208  156.0816 LP  0  0  0  0  0  0  0  0  0  0  0  0  # atno 17394 bound_to 11000
  140.7623  134.3925  157.5523 LP  0  0  0  0  0  0  0  0  0  0  0  0  # atno 17395 bound_to 11000

$$$$
