AV-unprocessed.smi:3234|AV-procd|sdf|12354|dock7
  -GOLD-   2272018213D 1   1.00000     0.00000
 Structure written by MMmdl.
 38 40  0  0  0  0  0  0  0  0  3 V2000
  145.3580  138.5395  152.7816 O   0  0  0  0  0  0  0  0  0  0  0  0
  146.4144  137.9948  152.4627 C   0  0  0  0  0  0  0  0  0  0  0  0
  147.6442  138.4479  152.7634 N   0  0  0  0  0  0  0  0  0  0  0  0
  148.0034  139.6289  153.4696 C   0  0  0  0  0  0  0  0  0  0  0  0
  147.0993  140.7139  153.4324 C   0  0  0  0  0  0  0  0  0  0  0  0
  147.4061  141.8999  154.1303 C   0  0  0  0  0  0  0  0  0  0  0  0
  148.5534  141.9867  154.8367 N   0  3  0  0  0  0  0  0  0  0  0  0
  149.4412  140.9721  154.9144 C   0  0  0  0  0  0  0  0  0  0  0  0
  149.1892  139.7618  154.2366 C   0  0  0  0  0  0  0  0  0  0  0  0
  146.4704  136.8436  151.7773 N   0  0  0  0  0  0  0  0  0  0  0  0
  145.3037  136.0958  151.3184 C   0  0  2  0  0  0  0  0  0  0  0  0
  144.2782  135.7879  152.4132 C   0  0  0  0  0  0  0  0  0  0  0  0
  143.6251  134.4669  151.9707 C   0  0  0  0  0  0  0  0  0  0  0  0
  144.4022  133.9707  150.8107 N   0  3  2  0  0  0  0  0  0  0  0  0
  144.5499  132.5007  150.7594 C   0  0  0  0  0  0  0  0  0  0  0  0
  145.8548  132.0046  151.3353 C   0  0  0  0  0  0  0  0  0  0  0  0
  145.6505  132.0358  149.8361 C   0  0  0  0  0  0  0  0  0  0  0  0
  145.6794  134.7058  150.8139 C   0  0  0  0  0  0  0  0  0  0  0  0
  148.4136  137.8463  152.5075 H   0  0  0  0  0  0  0  0  0  0  0  0
  146.1795  140.6449  152.8695 H   0  0  0  0  0  0  0  0  0  0  0  0
  146.7719  142.7742  154.1460 H   0  0  0  0  0  0  0  0  0  0  0  0
  150.3188  141.1550  155.5171 H   0  0  0  0  0  0  0  0  0  0  0  0
  149.9034  138.9579  154.3290 H   0  0  0  0  0  0  0  0  0  0  0  0
  147.3781  136.4591  151.5586 H   0  0  0  0  0  0  0  0  0  0  0  0
  144.8139  136.6389  150.5073 H   0  0  0  0  0  0  0  0  0  0  0  0
  144.7762  135.6435  153.3733 H   0  0  0  0  0  0  0  0  0  0  0  0
  143.5518  136.5921  152.5350 H   0  0  0  0  0  0  0  0  0  0  0  0
  143.6367  133.7490  152.7923 H   0  0  0  0  0  0  0  0  0  0  0  0
  142.5863  134.6122  151.6732 H   0  0  0  0  0  0  0  0  0  0  0  0
  143.6383  131.9160  150.8705 H   0  0  0  0  0  0  0  0  0  0  0  0
  146.5401  132.7336  151.7640 H   0  0  0  0  0  0  0  0  0  0  0  0
  145.8523  131.0293  151.8180 H   0  0  0  0  0  0  0  0  0  0  0  0
  145.5141  131.0809  149.3324 H   0  0  0  0  0  0  0  0  0  0  0  0
  146.1998  132.7857  149.2693 H   0  0  0  0  0  0  0  0  0  0  0  0
  146.1318  134.7271  149.8218 H   0  0  0  0  0  0  0  0  0  0  0  0
  146.3796  134.2245  151.4997 H   0  0  0  0  0  0  0  0  0  0  0  0
  143.9032  134.2626  149.9824 H   0  0  0  0  0  0  0  0  0  0  0  0
  148.7560  142.8531  155.3365 H   0  0  0  0  0  0  0  0  0  0  0  0
  1  2  2  0  0  0  0
  2  3  1  0  0  0  0
  2 10  1  0  0  0  0
  3  4  1  0  0  0  0
  3 19  1  0  0  0  0
  4  9  1  0  0  0  0
  4  5  2  0  0  0  0
  5  6  1  0  0  0  0
  5 20  1  0  0  0  0
  6  7  2  0  0  0  0
  6 21  1  0  0  0  0
  7  8  1  0  0  0  0
  7 38  1  0  0  0  0
  8  9  2  0  0  0  0
  8 22  1  0  0  0  0
  9 23  1  0  0  0  0
 10 11  1  0  0  0  0
 10 24  1  0  0  0  0
 11 18  1  0  0  0  0
 11 12  1  0  0  0  0
 11 25  1  0  0  0  0
 12 13  1  0  0  0  0
 12 26  1  0  0  0  0
 12 27  1  0  0  0  0
 13 14  1  0  0  0  0
 13 28  1  0  0  0  0
 13 29  1  0  0  0  0
 14 15  1  0  0  0  0
 14 18  1  0  0  0  0
 14 37  1  0  0  0  0
 15 17  1  0  0  0  0
 15 16  1  0  0  0  0
 15 30  1  0  0  0  0
 16 17  1  0  0  0  0
 16 31  1  0  0  0  0
 16 32  1  0  0  0  0
 17 33  1  0  0  0  0
 17 34  1  0  0  0  0
 18 35  1  0  0  0  0
 18 36  1  0  0  0  0
M  CHG  1   7   1
M  CHG  1  14   1
M  END
> <s_m_source_file>
AV-unprocessed.smi

> <i_m_source_file_index>
3234

> <i_lp_mmshare_version>
43012

> <i_f3d_flags>
0

> <s_epik_input>
W2NIXTFbY0hdbltjSF1bY0hdYzFbTkhdQyg9TylbTkhdW0NAQEhdMltDSDJdW0NIMl1OKFtDSDJdMilbQ0hdM1tDSDJdW0NIMl0z

> <s_epik_cmdline>
J2VwaWtfcHl0aG9uJywgJy1waCcsICc3LjAnLCAnLXRuJywgJzgnLCAnLW1hJywgJzIwMCcsICctbWV0YWxfYmluZGluZycsICctaW1hZScsICc8aW5maWxlLm1hZT4nLCAnLW9tYWUnLCAnPG91dGZpbGUubWFlPic=

> <r_epik_Ionization_Penalty>
1.14489

> <r_epik_Ionization_Penalty_Charging>
1.14487

> <r_epik_Ionization_Penalty_Neutral>
1.95212e-05

> <r_epik_State_Penalty>
1.205

> <r_epik_Charging_Adjusted_Penalty>
2.34987

> <i_epik_Tot_Q>
2

> <i_epik_Tot_abs_Q>
2

> <r_epik_Metal_State_Penalty>
1.28709

> <b_epik_Metal_Only>
0

> <s_lp_Force_Field>
OPLS_2005

> <r_lp_Energy>
48.7284

> <b_lp_Chiralities_Consistent>
1

> <s_lp_Variant>
AV-unprocessed.smi:3234-7

> <Gold.Version>
5.8.1

> <Gold.Id.Protein>
6NUR|6NUR_protein|mol2

> <Gold.PLP.Fitness>
44.9976

> <Gold.PLP.PLP>
-33.5787

> <Gold.PLP.part.hbond>
-3.9988

> <Gold.PLP.part.metal>
0.0000

> <Gold.PLP.part.buried>
-2.4296

> <Gold.PLP.part.nonpolar>
-31.5023

> <Gold.PLP.part.repulsive>
4.1316

> <Gold.PLP.ligand.clash>
0.0000

> <Gold.PLP.ligand.torsion>
0.8862

> <Gold.PLP.Chemscore.Hbond>
3.9760

> <Gold.PLP.Chemscore.CHOScore>
0.0000

> <Gold.PLP.Chemscore.Metal>
0.0000

> <Gold.Chemscore.Hbonds>
donor molecule, donor type, donor heavy atom, donor atom, acceptor molecule, acceptor atom, score
      L1  H     3    19       P1  7948  0.98
      L1  H     7    38       P1  8028  2.00
      L1  H    10    24       P1  7948  1.00

> <Gold.PLP.Chemscore.Internal.Correction>
1.2632

> <Gold.Rescore>
     Score         DG    S(hbond)    S(metal)    S(lipo)     H(rot)  DE(clash)    DE(int)     intcor
     16.08     -21.85       2.88        0.00      84.42       1.22       2.62       3.15       ----

> <Gold.Chemscore.Fitness>
16.0780

> <Gold.Chemscore.DG>
-21.8452

> <Gold.Chemscore.ZeroCoef>
-5.4800

> <Gold.Chemscore.Hbond>
2.8812

> <Gold.Chemscore.Metal>
0.0000

> <Gold.Chemscore.Lipo>
84.4228

> <Gold.Chemscore.Internal_Hbond>
0.0000

> <Gold.Chemscore.DEClash>
2.6218

> <Gold.Chemscore.DEInternal>
3.1454

> <Gold.Chemscore.Rot>
1.2248

> <Gold.Chemscore.Internal.Correction>
   9.000000E+99

> <Gold.Chemscore.Hbonds>
donor molecule, donor type, donor heavy atom, donor atom, acceptor molecule, acceptor atom, score
      L1  H     3    19       P1  7948  0.93
      L1  H     7    38       P1  8028  0.99
      L1  H    10    24       P1  7948  0.95

> <Gold.Chemscore.Hbond.Weighted>
-9.6232

> <Gold.Chemscore.Metal.Weighted>
-0.0000

> <Gold.Chemscore.Lipo.Weighted>
-9.8775

> <Gold.Chemscore.Internal_Hbond.Weighted>
0.0000

> <Gold.Chemscore.DEClash.Weighted>
2.6218

> <Gold.Chemscore.DEInternal.Weighted>
3.1454

> <Gold.Chemscore.Rot.Weighted>
3.1355

> <Gold.Chemscore.Internal.Correction.Weighted>
   9.000000E+99

> <Gold.Protein.RotatedTorsions>
[ 6907 6896 6895 6894 ] final  119.53 input  -60.11 | X-H torsion
[ 7974 7965 7964 7962 ] final  123.33 input  175.53 | X-H torsion
[ 8008 7997 7996 7995 ] final   -5.48 input   59.86 | X-H torsion
[ 10167 10162 10161 10158 ] final  141.95 input  -65.29 | X-H torsion
[ 10718 10713 10712 10709 ] final   42.95 input   66.30 | X-H torsion
[ 10763 10752 10751 10750 ] final   39.85 input  -60.55 | X-H torsion
[ 11005 11000 10999 10996 ] final  -63.17 input  -57.11 | X-H torsion

> <Gold.Protein.ActiveResidues>
 VAL166  LYS551  ARG553  GLY616  TRP617  ASP618  TYR619  PRO620  LYS621  CYS622 
 ASP623  PHE694  ASN695  SER759  ASP760  ASP761  ALA762  ILE779  LEU786  VAL792 
 PHE793  MET794  SER795  GLU796  ALA797  LYS798  CYS799  TRP800  GLU811  SER814 

> <Gold.Protein.RotatedAtoms>
  152.4465  133.7546  159.6712 H   0  0  0  0  0  0  0  0  0  0  0  0  # atno 6907 bound_to 6896
  150.8366  133.7993  159.3083 H   0  0  0  0  0  0  0  0  0  0  0  0  # atno 6908 bound_to 6896
  151.5631  135.1067  160.0029 H   0  0  0  0  0  0  0  0  0  0  0  0  # atno 6909 bound_to 6896
  145.0971  139.3545  143.4831 H   0  0  0  0  0  0  0  0  0  0  0  0  # atno 7974 bound_to 7965
  154.6035  140.2457  155.7761 H   0  0  0  0  0  0  0  0  0  0  0  0  # atno 8008 bound_to 7997
  156.2326  140.2961  156.0180 H   0  0  0  0  0  0  0  0  0  0  0  0  # atno 8009 bound_to 7997
  155.2171  140.0399  157.2933 H   0  0  0  0  0  0  0  0  0  0  0  0  # atno 8010 bound_to 7997
  139.5007  144.6139  151.6209 H   0  0  0  0  0  0  0  0  0  0  0  0  # atno 10167 bound_to 10162
  157.4105  130.7911  149.7426 H   0  0  0  0  0  0  0  0  0  0  0  0  # atno 10718 bound_to 10713
  152.9954  135.6208  154.2532 H   0  0  0  0  0  0  0  0  0  0  0  0  # atno 10763 bound_to 10752
  154.2270  135.2793  155.2906 H   0  0  0  0  0  0  0  0  0  0  0  0  # atno 10764 bound_to 10752
  154.5481  135.5741  153.6956 H   0  0  0  0  0  0  0  0  0  0  0  0  # atno 10765 bound_to 10752
  141.1384  133.6648  156.5639 H   0  0  0  0  0  0  0  0  0  0  0  0  # atno 11005 bound_to 11000
  146.3530  140.0832  142.8616 LP  0  0  0  0  0  0  0  0  0  0  0  0  # atno 17320 bound_to 7965
  145.0998  140.9338  143.4719 LP  0  0  0  0  0  0  0  0  0  0  0  0  # atno 17321 bound_to 7965
  140.5821  143.9928  150.6274 LP  0  0  0  0  0  0  0  0  0  0  0  0  # atno 17342 bound_to 10162
  140.3080  143.3216  152.0906 LP  0  0  0  0  0  0  0  0  0  0  0  0  # atno 17343 bound_to 10162
  155.9849  130.3987  150.3287 LP  0  0  0  0  0  0  0  0  0  0  0  0  # atno 17370 bound_to 10713
  157.1425  131.0300  151.2921 LP  0  0  0  0  0  0  0  0  0  0  0  0  # atno 17371 bound_to 10713
  140.3966  134.7393  157.4754 LP  0  0  0  0  0  0  0  0  0  0  0  0  # atno 17394 bound_to 11000
  140.0526  134.6108  155.8843 LP  0  0  0  0  0  0  0  0  0  0  0  0  # atno 17395 bound_to 11000

$$$$
