AV-unprocessed.smi:690|AV-procd|sdf|3361|dock2
  -GOLD-   22720 0343D 1   1.00000     0.00000
 Structure written by MMmdl.
 46 48  0  0  0  0  0  0  0  0  1 V2000
  153.2310  138.6884  154.6059 C   0  0  0  0  0  0  0  0  0  0  0  0
  151.8323  138.1161  154.3680 C   0  0  0  0  0  0  0  0  0  0  0  0
  150.9035  139.1864  154.3305 O   0  0  0  0  0  0  0  0  0  0  0  0
  149.5712  138.7822  154.6192 C   0  0  1  0  0  0  0  0  0  0  0  0
  149.5459  137.9942  155.9330 C   0  0  0  0  0  0  0  0  0  0  0  0
  149.2055  139.3003  156.6575 C   0  0  1  0  0  0  0  0  0  0  0  0
  150.4150  139.9609  157.1479 N   0  0  0  0  0  0  0  0  0  0  0  0
  150.4551  141.1879  157.6854 C   0  0  0  0  0  0  0  0  0  0  0  0
  149.4593  141.9014  157.8132 O   0  0  0  0  0  0  0  0  0  0  0  0
  151.8398  141.6912  158.1148 C   0  0  0  0  0  0  0  0  0  0  0  0
  151.7804  142.9459  158.8825 N   0  0  0  0  0  0  0  0  0  0  0  0
  151.1639  144.0516  158.2631 C   0  0  0  0  0  0  0  0  0  0  0  0
  151.0529  145.2393  158.8789 C   0  0  0  0  0  0  0  0  0  0  0  0
  151.5859  145.3682  160.2145 C   0  0  0  0  0  0  0  0  0  0  0  0
  152.1756  144.3165  160.8168 C   0  0  0  0  0  0  0  0  0  0  0  0
  152.2996  143.0166  160.1474 C   0  0  0  0  0  0  0  0  0  0  0  0
  152.8370  142.0506  160.6902 O   0  0  0  0  0  0  0  0  0  0  0  0
  148.6995  139.8684  155.3069 C   0  0  0  0  0  0  0  0  0  0  0  0
  147.1987  139.7555  155.0403 C   0  0  0  0  0  0  0  0  0  0  0  0
  146.8926  140.6431  153.8331 C   0  0  0  0  0  0  0  0  0  0  0  0
  147.9756  141.7240  153.8367 C   0  0  0  0  0  0  0  0  0  0  0  0
  148.9385  141.3436  154.9667 C   0  0  0  0  0  0  0  0  0  0  0  0
  153.9762  137.8937  154.6470 H   0  0  0  0  0  0  0  0  0  0  0  0
  153.2746  139.2378  155.5465 H   0  0  0  0  0  0  0  0  0  0  0  0
  153.5138  139.3716  153.8044 H   0  0  0  0  0  0  0  0  0  0  0  0
  151.8148  137.5566  153.4329 H   0  0  0  0  0  0  0  0  0  0  0  0
  151.5679  137.4243  155.1688 H   0  0  0  0  0  0  0  0  0  0  0  0
  149.0851  138.2463  153.8016 H   0  0  0  0  0  0  0  0  0  0  0  0
  148.7302  137.2708  155.9709 H   0  0  0  0  0  0  0  0  0  0  0  0
  150.4946  137.5356  156.2157 H   0  0  0  0  0  0  0  0  0  0  0  0
  148.4235  139.1761  157.4087 H   0  0  0  0  0  0  0  0  0  0  0  0
  151.2805  139.4470  157.0637 H   0  0  0  0  0  0  0  0  0  0  0  0
  152.3494  140.9203  158.6965 H   0  0  0  0  0  0  0  0  0  0  0  0
  152.4458  141.8174  157.2167 H   0  0  0  0  0  0  0  0  0  0  0  0
  150.7844  143.8700  157.2681 H   0  0  0  0  0  0  0  0  0  0  0  0
  150.5736  146.0751  158.3907 H   0  0  0  0  0  0  0  0  0  0  0  0
  151.5099  146.3120  160.7341 H   0  0  0  0  0  0  0  0  0  0  0  0
  152.5670  144.4311  161.8171 H   0  0  0  0  0  0  0  0  0  0  0  0
  146.8765  138.7282  154.8676 H   0  0  0  0  0  0  0  0  0  0  0  0
  146.6404  140.1181  155.9046 H   0  0  0  0  0  0  0  0  0  0  0  0
  146.9620  140.0580  152.9153 H   0  0  0  0  0  0  0  0  0  0  0  0
  145.8873  141.0628  153.8815 H   0  0  0  0  0  0  0  0  0  0  0  0
  148.4897  141.7441  152.8756 H   0  0  0  0  0  0  0  0  0  0  0  0
  147.5540  142.7160  154.0018 H   0  0  0  0  0  0  0  0  0  0  0  0
  148.7149  141.9605  155.8382 H   0  0  0  0  0  0  0  0  0  0  0  0
  149.9728  141.5589  154.6996 H   0  0  0  0  0  0  0  0  0  0  0  0
  1  2  1  0  0  0  0
  1 23  1  0  0  0  0
  1 24  1  0  0  0  0
  1 25  1  0  0  0  0
  2  3  1  0  0  0  0
  2 26  1  0  0  0  0
  2 27  1  0  0  0  0
  3  4  1  0  0  0  0
  4 18  1  0  0  0  0
  4  5  1  0  0  0  0
  4 28  1  0  0  0  0
  5  6  1  0  0  0  0
  5 29  1  0  0  0  0
  5 30  1  0  0  0  0
  6  7  1  0  0  0  0
  6 18  1  0  0  0  0
  6 31  1  0  0  0  0
  7  8  1  0  0  0  0
  7 32  1  0  0  0  0
  8  9  2  0  0  0  0
  8 10  1  0  0  0  0
 10 11  1  0  0  0  0
 10 33  1  0  0  0  0
 10 34  1  0  0  0  0
 11 16  1  0  0  0  0
 11 12  1  0  0  0  0
 12 13  2  0  0  0  0
 12 35  1  0  0  0  0
 13 14  1  0  0  0  0
 13 36  1  0  0  0  0
 14 15  2  0  0  0  0
 14 37  1  0  0  0  0
 15 16  1  0  0  0  0
 15 38  1  0  0  0  0
 16 17  2  0  0  0  0
 18 22  1  0  0  0  0
 18 19  1  0  0  0  0
 19 20  1  0  0  0  0
 19 39  1  0  0  0  0
 19 40  1  0  0  0  0
 20 21  1  0  0  0  0
 20 41  1  0  0  0  0
 20 42  1  0  0  0  0
 21 22  1  0  0  0  0
 21 43  1  0  0  0  0
 21 44  1  0  0  0  0
 22 45  1  0  0  0  0
 22 46  1  0  0  0  0
M  END
> <s_m_source_file>
AV-unprocessed.smi

> <i_m_source_file_index>
690

> <i_lp_mmshare_version>
43012

> <i_f3d_flags>
0

> <s_epik_input>
W0NIMl0xW0NIMl1bQ0gyXVtDSDJdQzEyW0NASF0oT1tDSDJdW0NIM10pW0NIMl1bQ0BIXTJbTkhdQyg9TylbQ0gyXW4zW2NIXVtjSF1bY0hdW2NIXWMzPU8=

> <s_epik_cmdline>
J2VwaWtfcHl0aG9uJywgJy1waCcsICc3LjAnLCAnLXRuJywgJzgnLCAnLW1hJywgJzIwMCcsICctbWV0YWxfYmluZGluZycsICctaW1hZScsICc8aW5maWxlLm1hZT4nLCAnLW9tYWUnLCAnPG91dGZpbGUubWFlPic=

> <r_lp_tautomer_probability>
1

> <r_epik_Ionization_Penalty>
4.11691e-07

> <r_epik_Ionization_Penalty_Charging>
3.92797e-07

> <r_epik_Ionization_Penalty_Neutral>
1.88943e-08

> <r_epik_State_Penalty>
-0

> <r_epik_Charging_Adjusted_Penalty>
3.92797e-07

> <i_epik_Tot_Q>
0

> <i_epik_Tot_abs_Q>
0

> <r_epik_Metal_State_Penalty>
-0

> <b_epik_Metal_Only>
0

> <s_lp_Force_Field>
OPLS_2005

> <r_lp_Energy>
47.4249

> <b_lp_Chiralities_Consistent>
1

> <s_lp_Variant>
AV-unprocessed.smi:690-2

> <Gold.Version>
5.8.1

> <Gold.Id.Protein>
6NUR|6NUR_protein|mol2

> <Gold.PLP.Fitness>
49.1761

> <Gold.PLP.PLP>
-43.8323

> <Gold.PLP.part.hbond>
-1.0000

> <Gold.PLP.part.metal>
0.0000

> <Gold.PLP.part.buried>
-6.5327

> <Gold.PLP.part.nonpolar>
-35.7336

> <Gold.PLP.part.repulsive>
0.2923

> <Gold.PLP.ligand.clash>
0.0000

> <Gold.PLP.ligand.torsion>
0.5337

> <Gold.PLP.Chemscore.Hbond>
1.0000

> <Gold.PLP.Chemscore.CHOScore>
0.9996

> <Gold.PLP.Chemscore.Metal>
0.0000

> <Gold.Chemscore.Hbonds>
donor molecule, donor type, donor heavy atom, donor atom, acceptor molecule, acceptor atom, score
      P1  H  7989  7998       L1     3  1.00
      L1  C    12    35       P1  8028  0.81

> <Gold.PLP.Chemscore.Internal.Correction>
0.4124

> <Gold.Rescore>
     Score         DG    S(hbond)    S(metal)    S(lipo)     H(rot)  DE(clash)    DE(int)     intcor
     15.27     -17.20       0.89        0.00     111.83       1.69       0.07       1.86       ----

> <Gold.Chemscore.Fitness>
15.2714

> <Gold.Chemscore.DG>
-17.1962

> <Gold.Chemscore.ZeroCoef>
-5.4800

> <Gold.Chemscore.Hbond>
0.8858

> <Gold.Chemscore.Metal>
0.0000

> <Gold.Chemscore.Lipo>
111.8287

> <Gold.Chemscore.Internal_Hbond>
0.0000

> <Gold.Chemscore.DEClash>
0.0677

> <Gold.Chemscore.DEInternal>
1.8571

> <Gold.Chemscore.Rot>
1.6900

> <Gold.Chemscore.Internal.Correction>
   9.000000E+99

> <Gold.Chemscore.Hbonds>
donor molecule, donor type, donor heavy atom, donor atom, acceptor molecule, acceptor atom, score
      P1  H  7989  7998       L1     3  0.81

> <Gold.Chemscore.Hbond.Weighted>
-2.9587

> <Gold.Chemscore.Metal.Weighted>
-0.0000

> <Gold.Chemscore.Lipo.Weighted>
-13.0840

> <Gold.Chemscore.Internal_Hbond.Weighted>
0.0000

> <Gold.Chemscore.DEClash.Weighted>
0.0677

> <Gold.Chemscore.DEInternal.Weighted>
1.8571

> <Gold.Chemscore.Rot.Weighted>
4.3265

> <Gold.Chemscore.Internal.Correction.Weighted>
   9.000000E+99

> <Gold.Protein.RotatedTorsions>
[ 6907 6896 6895 6894 ] final  145.74 input  -60.11 | X-H torsion
[ 7974 7965 7964 7962 ] final   19.90 input  175.53 | X-H torsion
[ 8008 7997 7996 7995 ] final  -15.38 input   59.86 | X-H torsion
[ 10167 10162 10161 10158 ] final   35.75 input  -65.29 | X-H torsion
[ 10718 10713 10712 10709 ] final -148.57 input   66.30 | X-H torsion
[ 10763 10752 10751 10750 ] final -141.28 input  -60.55 | X-H torsion
[ 11005 11000 10999 10996 ] final   65.41 input  -57.11 | X-H torsion

> <Gold.Protein.ActiveResidues>
 VAL166  LYS551  ARG553  GLY616  TRP617  ASP618  TYR619  PRO620  LYS621  CYS622 
 ASP623  PHE694  ASN695  SER759  ASP760  ASP761  ALA762  ILE779  LEU786  VAL792 
 PHE793  MET794  SER795  GLU796  ALA797  LYS798  CYS799  TRP800  GLU811  SER814 

> <Gold.Protein.RotatedAtoms>
  152.1770  133.4681  159.4938 H   0  0  0  0  0  0  0  0  0  0  0  0  # atno 6907 bound_to 6896
  150.6928  134.1881  159.4284 H   0  0  0  0  0  0  0  0  0  0  0  0  # atno 6908 bound_to 6896
  151.9791  135.0037  160.0607 H   0  0  0  0  0  0  0  0  0  0  0  0  # atno 6909 bound_to 6896
  146.2132  139.8246  142.8672 H   0  0  0  0  0  0  0  0  0  0  0  0  # atno 7974 bound_to 7965
  154.5135  140.2198  155.9111 H   0  0  0  0  0  0  0  0  0  0  0  0  # atno 8008 bound_to 7997
  156.1580  140.3148  155.8724 H   0  0  0  0  0  0  0  0  0  0  0  0  # atno 8009 bound_to 7997
  155.3809  140.0472  157.3034 H   0  0  0  0  0  0  0  0  0  0  0  0  # atno 8010 bound_to 7997
  140.4192  144.1483  150.6146 H   0  0  0  0  0  0  0  0  0  0  0  0  # atno 10167 bound_to 10162
  156.4219  130.8033  151.2256 H   0  0  0  0  0  0  0  0  0  0  0  0  # atno 10718 bound_to 10713
  154.8550  135.3529  154.5843 H   0  0  0  0  0  0  0  0  0  0  0  0  # atno 10763 bound_to 10752
  153.6453  135.6996  153.5232 H   0  0  0  0  0  0  0  0  0  0  0  0  # atno 10764 bound_to 10752
  153.2938  135.4227  155.1149 H   0  0  0  0  0  0  0  0  0  0  0  0  # atno 10765 bound_to 10752
  139.9896  134.6612  156.0114 H   0  0  0  0  0  0  0  0  0  0  0  0  # atno 11005 bound_to 11000
  145.3060  141.0207  143.3581 LP  0  0  0  0  0  0  0  0  0  0  0  0  # atno 17320 bound_to 7965
  144.8970  139.4698  143.6650 LP  0  0  0  0  0  0  0  0  0  0  0  0  # atno 17321 bound_to 7965
  140.4552  143.2470  151.9294 LP  0  0  0  0  0  0  0  0  0  0  0  0  # atno 17342 bound_to 10162
  139.4782  144.5523  151.8367 LP  0  0  0  0  0  0  0  0  0  0  0  0  # atno 17343 bound_to 10162
  157.7508  131.0225  150.3795 LP  0  0  0  0  0  0  0  0  0  0  0  0  # atno 17370 bound_to 10713
  156.4115  130.3935  149.6888 LP  0  0  0  0  0  0  0  0  0  0  0  0  # atno 17371 bound_to 10713
  141.1555  133.6543  156.4147 LP  0  0  0  0  0  0  0  0  0  0  0  0  # atno 17394 bound_to 11000
  140.4934  134.6554  157.5220 LP  0  0  0  0  0  0  0  0  0  0  0  0  # atno 17395 bound_to 11000

$$$$
