AV-unprocessed.smi:1648|AV-procd|sdf|6627|dock1
  -GOLD-   22720 7323D 1   1.00000     0.00000
 Structure written by MMmdl.
 42 42  0  0  0  0  0  0  0  0  2 V2000
  150.1006  138.6952  154.1906 C   0  0  0  0  0  0  0  0  0  0  0  0
  150.6801  137.3047  154.4578 C   0  0  0  0  0  0  0  0  0  0  0  0
  151.8984  137.1472  154.4437 O   0  0  0  0  0  0  0  0  0  0  0  0
  149.8462  136.2787  154.7005 N   0  0  0  0  0  0  0  0  0  0  0  0
  150.2085  134.8860  154.9760 C   0  0  2  0  0  0  0  0  0  0  0  0
  148.9861  134.0190  154.6239 C   0  0  0  0  0  0  0  0  0  0  0  0
  148.6110  133.1303  155.3902 O   0  0  0  0  0  0  0  0  0  0  0  0
  148.3672  134.3018  153.4664 N   0  0  0  0  0  0  0  0  0  0  0  0
  147.1635  133.6430  152.9608 C   0  0  2  0  0  0  0  0  0  0  0  0
  147.4343  132.1370  152.8461 C   0  0  0  0  0  0  0  0  0  0  0  0
  146.7331  134.2401  151.6020 C   0  0  0  0  0  0  0  0  0  0  0  0
  145.6033  133.5286  150.9920 N   0  0  0  0  0  0  0  0  0  0  0  0
  145.6183  132.2830  150.4181 C   0  0  0  0  0  0  0  0  0  0  0  0
  144.3367  132.0281  150.0028 C   0  0  0  0  0  0  0  0  0  0  0  0
  143.5961  133.1320  150.3298 N   0  3  0  0  0  0  0  0  0  0  0  0
  144.3701  134.0476  150.9208 C   0  0  0  0  0  0  0  0  0  0  0  0
  150.5476  134.7414  156.4886 C   0  0  0  0  0  0  0  0  0  0  0  0
  149.3123  134.9858  157.3773 C   0  0  0  0  0  0  0  0  0  0  0  0
  151.6871  135.6791  156.9396 C   0  0  0  0  0  0  0  0  0  0  0  0
  149.5550  138.7039  153.2468 H   0  0  0  0  0  0  0  0  0  0  0  0
  150.8974  139.4370  154.1255 H   0  0  0  0  0  0  0  0  0  0  0  0
  149.4233  139.0022  154.9868 H   0  0  0  0  0  0  0  0  0  0  0  0
  148.8567  136.4706  154.6387 H   0  0  0  0  0  0  0  0  0  0  0  0
  151.0751  134.5823  154.3861 H   0  0  0  0  0  0  0  0  0  0  0  0
  148.7525  135.0408  152.8961 H   0  0  0  0  0  0  0  0  0  0  0  0
  146.3486  133.7682  153.6761 H   0  0  0  0  0  0  0  0  0  0  0  0
  146.5470  131.6039  152.5036 H   0  0  0  0  0  0  0  0  0  0  0  0
  147.7185  131.7144  153.8104 H   0  0  0  0  0  0  0  0  0  0  0  0
  148.2397  131.9294  152.1406 H   0  0  0  0  0  0  0  0  0  0  0  0
  146.4689  135.2939  151.7071 H   0  0  0  0  0  0  0  0  0  0  0  0
  147.5586  134.1919  150.8910 H   0  0  0  0  0  0  0  0  0  0  0  0
  146.5139  131.6817  150.3600 H   0  0  0  0  0  0  0  0  0  0  0  0
  143.9076  131.1664  149.5125 H   0  0  0  0  0  0  0  0  0  0  0  0
  144.0551  135.0107  151.2801 H   0  0  0  0  0  0  0  0  0  0  0  0
  150.8771  133.7181  156.6780 H   0  0  0  0  0  0  0  0  0  0  0  0
  148.9045  135.9849  157.2202 H   0  0  0  0  0  0  0  0  0  0  0  0
  149.5645  134.8940  158.4342 H   0  0  0  0  0  0  0  0  0  0  0  0
  148.5171  134.2671  157.1785 H   0  0  0  0  0  0  0  0  0  0  0  0
  151.4416  136.7228  156.7406 H   0  0  0  0  0  0  0  0  0  0  0  0
  152.6282  135.4560  156.4367 H   0  0  0  0  0  0  0  0  0  0  0  0
  151.8729  135.5823  158.0098 H   0  0  0  0  0  0  0  0  0  0  0  0
  142.6057  133.2422  150.1505 H   0  0  0  0  0  0  0  0  0  0  0  0
  1  2  1  0  0  0  0
  1 20  1  0  0  0  0
  1 21  1  0  0  0  0
  1 22  1  0  0  0  0
  2  3  2  0  0  0  0
  2  4  1  0  0  0  0
  4  5  1  0  0  0  0
  4 23  1  0  0  0  0
  5  6  1  0  0  0  0
  5 17  1  0  0  0  0
  5 24  1  0  0  0  0
  6  7  2  0  0  0  0
  6  8  1  0  0  0  0
  8  9  1  0  0  0  0
  8 25  1  0  0  0  0
  9 10  1  0  0  0  0
  9 11  1  0  0  0  0
  9 26  1  0  0  0  0
 10 27  1  0  0  0  0
 10 28  1  0  0  0  0
 10 29  1  0  0  0  0
 11 12  1  0  0  0  0
 11 30  1  0  0  0  0
 11 31  1  0  0  0  0
 12 16  1  0  0  0  0
 12 13  1  0  0  0  0
 13 14  2  0  0  0  0
 13 32  1  0  0  0  0
 14 15  1  0  0  0  0
 14 33  1  0  0  0  0
 15 16  2  0  0  0  0
 15 42  1  0  0  0  0
 16 34  1  0  0  0  0
 17 18  1  0  0  0  0
 17 19  1  0  0  0  0
 17 35  1  0  0  0  0
 18 36  1  0  0  0  0
 18 37  1  0  0  0  0
 18 38  1  0  0  0  0
 19 39  1  0  0  0  0
 19 40  1  0  0  0  0
 19 41  1  0  0  0  0
M  CHG  1  15   1
M  END
> <s_m_source_file>
AV-unprocessed.smi

> <i_m_source_file_index>
1648

> <i_lp_mmshare_version>
43012

> <i_f3d_flags>
0

> <s_epik_input>
W0NIM11DKD1PKVtOSF1bQ0BASF0oW0NIXShbQ0gzXSlbQ0gzXSlDKD1PKVtOSF1bQ0BIXShbQ0gzXSlbQ0gyXW4xW2NIXVtjSF1uW2NIXTE=

> <s_epik_cmdline>
J2VwaWtfcHl0aG9uJywgJy1waCcsICc3LjAnLCAnLXRuJywgJzgnLCAnLW1hJywgJzIwMCcsICctbWV0YWxfYmluZGluZycsICctaW1hZScsICc8aW5maWxlLm1hZT4nLCAnLW9tYWUnLCAnPG91dGZpbGUubWFlPic=

> <r_lp_tautomer_probability>
1

> <r_epik_Ionization_Penalty>
0.251562

> <r_epik_Ionization_Penalty_Charging>
0

> <r_epik_Ionization_Penalty_Neutral>
0.251562

> <r_epik_State_Penalty>
0.242926

> <r_epik_Charging_Adjusted_Penalty>
0.242926

> <i_epik_Tot_Q>
1

> <i_epik_Tot_abs_Q>
1

> <r_epik_Metal_State_Penalty>
0.53388

> <b_epik_Metal_Only>
0

> <s_lp_Force_Field>
OPLS_2005

> <r_lp_Energy>
9.98337

> <b_lp_Chiralities_Consistent>
1

> <s_lp_Variant>
AV-unprocessed.smi:1648-1

> <Gold.Version>
5.8.1

> <Gold.Id.Protein>
6NUR|6NUR_protein|mol2

> <Gold.PLP.Fitness>
43.9266

> <Gold.PLP.PLP>
-31.3541

> <Gold.PLP.part.hbond>
-4.0000

> <Gold.PLP.part.metal>
0.0000

> <Gold.PLP.part.buried>
-2.1604

> <Gold.PLP.part.nonpolar>
-25.7176

> <Gold.PLP.part.repulsive>
0.2379

> <Gold.PLP.ligand.clash>
0.0000

> <Gold.PLP.ligand.torsion>
0.9132

> <Gold.PLP.Chemscore.Hbond>
4.0000

> <Gold.PLP.Chemscore.CHOScore>
0.6952

> <Gold.PLP.Chemscore.Metal>
0.0000

> <Gold.Chemscore.Hbonds>
donor molecule, donor type, donor heavy atom, donor atom, acceptor molecule, acceptor atom, score
      L1  H     8    25       P1  7948  1.00
      L1  H    15    42       P1 10186  1.79
      P1  H 10752 10765       L1     3  1.00
      L1  C    13    32       P1 10747  0.85

> <Gold.PLP.Chemscore.Internal.Correction>
0.3135

> <Gold.Rescore>
     Score         DG    S(hbond)    S(metal)    S(lipo)     H(rot)  DE(clash)    DE(int)     intcor
     10.90     -14.50       2.75        0.00      55.65       2.61       0.19       3.41       ----

> <Gold.Chemscore.Fitness>
10.8992

> <Gold.Chemscore.DG>
-14.4973

> <Gold.Chemscore.ZeroCoef>
-5.4800

> <Gold.Chemscore.Hbond>
2.7536

> <Gold.Chemscore.Metal>
0.0000

> <Gold.Chemscore.Lipo>
55.6479

> <Gold.Chemscore.Internal_Hbond>
0.0000

> <Gold.Chemscore.DEClash>
0.1931

> <Gold.Chemscore.DEInternal>
3.4051

> <Gold.Chemscore.Rot>
2.6135

> <Gold.Chemscore.Internal.Correction>
   9.000000E+99

> <Gold.Chemscore.Hbonds>
donor molecule, donor type, donor heavy atom, donor atom, acceptor molecule, acceptor atom, score
      L1  H     8    25       P1  7948  0.33
      L1  H    15    42       P1 10186  0.82
      P1  H 10752 10765       L1     3  0.96

> <Gold.Chemscore.Hbond.Weighted>
-9.1971

> <Gold.Chemscore.Metal.Weighted>
-0.0000

> <Gold.Chemscore.Lipo.Weighted>
-6.5108

> <Gold.Chemscore.Internal_Hbond.Weighted>
0.0000

> <Gold.Chemscore.DEClash.Weighted>
0.1931

> <Gold.Chemscore.DEInternal.Weighted>
3.4051

> <Gold.Chemscore.Rot.Weighted>
6.6906

> <Gold.Chemscore.Internal.Correction.Weighted>
   9.000000E+99

> <Gold.Protein.RotatedTorsions>
[ 6907 6896 6895 6894 ] final   45.17 input  -60.11 | X-H torsion
[ 7974 7965 7964 7962 ] final  -75.75 input  175.53 | X-H torsion
[ 8008 7997 7996 7995 ] final -125.46 input   59.86 | X-H torsion
[ 10167 10162 10161 10158 ] final   39.02 input  -65.29 | X-H torsion
[ 10718 10713 10712 10709 ] final   80.61 input   66.30 | X-H torsion
[ 10763 10752 10751 10750 ] final  162.62 input  -60.55 | X-H torsion
[ 11005 11000 10999 10996 ] final  -61.46 input  -57.11 | X-H torsion

> <Gold.Protein.ActiveResidues>
 VAL166  LYS551  ARG553  GLY616  TRP617  ASP618  TYR619  PRO620  LYS621  CYS622 
 ASP623  PHE694  ASN695  SER759  ASP760  ASP761  ALA762  ILE779  LEU786  VAL792 
 PHE793  MET794  SER795  GLU796  ALA797  LYS798  CYS799  TRP800  GLU811  SER814 

> <Gold.Protein.RotatedAtoms>
  152.2414  134.8225  160.0459 H   0  0  0  0  0  0  0  0  0  0  0  0  # atno 6907 bound_to 6896
  151.8938  133.3517  159.3815 H   0  0  0  0  0  0  0  0  0  0  0  0  # atno 6908 bound_to 6896
  150.7055  134.4823  159.5520 H   0  0  0  0  0  0  0  0  0  0  0  0  # atno 6909 bound_to 6896
  145.6218  140.9361  143.1134 H   0  0  0  0  0  0  0  0  0  0  0  0  # atno 7974 bound_to 7965
  155.2137  140.0419  157.2937 H   0  0  0  0  0  0  0  0  0  0  0  0  # atno 8008 bound_to 7997
  154.5995  140.2448  155.7783 H   0  0  0  0  0  0  0  0  0  0  0  0  # atno 8009 bound_to 7997
  156.2312  140.2937  156.0202 H   0  0  0  0  0  0  0  0  0  0  0  0  # atno 8010 bound_to 7997
  140.3880  144.1890  150.6130 H   0  0  0  0  0  0  0  0  0  0  0  0  # atno 10167 bound_to 10162
  157.6811  130.9967  150.2105 H   0  0  0  0  0  0  0  0  0  0  0  0  # atno 10718 bound_to 10713
  154.2811  135.2763  155.2696 H   0  0  0  0  0  0  0  0  0  0  0  0  # atno 10763 bound_to 10752
  154.5217  135.5754  153.6690 H   0  0  0  0  0  0  0  0  0  0  0  0  # atno 10764 bound_to 10752
  152.9929  135.6206  154.2970 H   0  0  0  0  0  0  0  0  0  0  0  0  # atno 10765 bound_to 10752
  141.1325  133.6630  156.5378 H   0  0  0  0  0  0  0  0  0  0  0  0  # atno 11005 bound_to 11000
  144.7228  139.7974  143.7376 LP  0  0  0  0  0  0  0  0  0  0  0  0  # atno 17320 bound_to 7965
  146.1425  139.4485  143.0100 LP  0  0  0  0  0  0  0  0  0  0  0  0  # atno 17321 bound_to 7965
  140.4869  143.2360  151.8875 LP  0  0  0  0  0  0  0  0  0  0  0  0  # atno 17342 bound_to 10162
  139.4791  144.5209  151.8803 LP  0  0  0  0  0  0  0  0  0  0  0  0  # atno 17343 bound_to 10162
  156.2777  130.3729  149.7967 LP  0  0  0  0  0  0  0  0  0  0  0  0  # atno 17370 bound_to 10713
  156.5665  130.8406  151.3344 LP  0  0  0  0  0  0  0  0  0  0  0  0  # atno 17371 bound_to 10713
  140.4164  134.7226  157.4865 LP  0  0  0  0  0  0  0  0  0  0  0  0  # atno 17394 bound_to 11000
  140.0391  134.6294  155.9005 LP  0  0  0  0  0  0  0  0  0  0  0  0  # atno 17395 bound_to 11000

$$$$
