AV-unprocessed.smi:3170|AV-procd|sdf|12109|dock10
  -GOLD-   2272017543D 1   1.00000     0.00000
 Structure written by MMmdl.
 35 36  0  0  0  0  0  0  0  0  1 V2000
  145.0702  137.9150  153.4529 O   0  0  0  0  0  0  0  0  0  0  0  0
  146.1519  137.5409  152.9998 C   0  0  0  0  0  0  0  0  0  0  0  0
  146.3627  136.3350  152.4555 N   0  0  0  0  0  0  0  0  0  0  0  0
  145.3400  135.3136  152.2494 C   0  0  0  0  0  0  0  0  0  0  0  0
  145.1357  134.9697  150.7600 C   0  0  0  0  0  0  0  0  0  0  0  0
  144.7087  133.5968  150.5632 N   0  0  0  0  0  0  0  0  0  0  0  0
  144.7052  132.5750  151.5029 C   0  0  0  0  0  0  0  0  0  0  0  0
  144.2286  131.4538  150.8615 C   0  0  0  0  0  0  0  0  0  0  0  0
  143.9337  131.7612  149.5352 N   0  0  0  0  0  0  0  0  0  0  0  0
  144.2398  133.0481  149.4336 C   0  0  0  0  0  0  0  0  0  0  0  0
  147.2534  138.3021  152.9580 N   0  0  0  0  0  0  0  0  0  0  0  0
  147.3184  139.7000  153.3698 C   0  0  0  0  0  0  0  0  0  0  0  0
  148.4285  139.9384  154.4120 C   0  0  2  0  0  0  0  0  0  0  0  0
  148.7557  141.3960  154.6733 C   0  0  0  0  0  0  0  0  0  0  0  0
  150.1308  141.2927  155.3246 C   0  0  0  0  0  0  0  0  0  0  0  0
  150.7555  140.1587  154.7293 O   0  0  0  0  0  0  0  0  0  0  0  0
  149.7969  139.3965  154.0002 C   0  0  0  0  0  0  0  0  0  0  0  0
  147.2881  136.1249  152.1108 H   0  0  0  0  0  0  0  0  0  0  0  0
  145.6391  134.4201  152.7979 H   0  0  0  0  0  0  0  0  0  0  0  0
  144.3989  135.6457  152.6901 H   0  0  0  0  0  0  0  0  0  0  0  0
  144.3823  135.6280  150.3267 H   0  0  0  0  0  0  0  0  0  0  0  0
  146.0528  135.1368  150.1935 H   0  0  0  0  0  0  0  0  0  0  0  0
  145.0359  132.7251  152.5200 H   0  0  0  0  0  0  0  0  0  0  0  0
  144.0778  130.4569  151.2487 H   0  0  0  0  0  0  0  0  0  0  0  0
  144.1294  133.6029  148.5132 H   0  0  0  0  0  0  0  0  0  0  0  0
  148.0946  137.9027  152.5679 H   0  0  0  0  0  0  0  0  0  0  0  0
  147.4734  140.3384  152.4984 H   0  0  0  0  0  0  0  0  0  0  0  0
  146.3480  139.9744  153.7841 H   0  0  0  0  0  0  0  0  0  0  0  0
  148.1483  139.4726  155.3584 H   0  0  0  0  0  0  0  0  0  0  0  0
  148.8263  141.9461  153.7337 H   0  0  0  0  0  0  0  0  0  0  0  0
  148.0234  141.8956  155.3085 H   0  0  0  0  0  0  0  0  0  0  0  0
  150.7265  142.1955  155.1889 H   0  0  0  0  0  0  0  0  0  0  0  0
  150.0303  141.1109  156.3954 H   0  0  0  0  0  0  0  0  0  0  0  0
  149.9000  138.3302  154.2030 H   0  0  0  0  0  0  0  0  0  0  0  0
  149.9729  139.5558  152.9354 H   0  0  0  0  0  0  0  0  0  0  0  0
  1  2  2  0  0  0  0
  2  3  1  0  0  0  0
  2 11  1  0  0  0  0
  3  4  1  0  0  0  0
  3 18  1  0  0  0  0
  4  5  1  0  0  0  0
  4 19  1  0  0  0  0
  4 20  1  0  0  0  0
  5  6  1  0  0  0  0
  5 21  1  0  0  0  0
  5 22  1  0  0  0  0
  6 10  1  0  0  0  0
  6  7  1  0  0  0  0
  7  8  2  0  0  0  0
  7 23  1  0  0  0  0
  8  9  1  0  0  0  0
  8 24  1  0  0  0  0
  9 10  2  0  0  0  0
 10 25  1  0  0  0  0
 11 12  1  0  0  0  0
 11 26  1  0  0  0  0
 12 13  1  0  0  0  0
 12 27  1  0  0  0  0
 12 28  1  0  0  0  0
 13 17  1  0  0  0  0
 13 14  1  0  0  0  0
 13 29  1  0  0  0  0
 14 15  1  0  0  0  0
 14 30  1  0  0  0  0
 14 31  1  0  0  0  0
 15 16  1  0  0  0  0
 15 32  1  0  0  0  0
 15 33  1  0  0  0  0
 16 17  1  0  0  0  0
 17 34  1  0  0  0  0
 17 35  1  0  0  0  0
M  END
> <s_m_source_file>
AV-unprocessed.smi

> <i_m_source_file_index>
3170

> <i_lp_mmshare_version>
43012

> <i_f3d_flags>
0

> <s_epik_input>
W0NIMl0xT1tDSDJdW0NIMl1bQ0BIXTFbQ0gyXVtOSF1DKD1PKVtOSF1bQ0gyXVtDSDJdbjJbY0hdW2NIXW5bY0hdMg==

> <s_epik_cmdline>
J2VwaWtfcHl0aG9uJywgJy1waCcsICc3LjAnLCAnLXRuJywgJzgnLCAnLW1hJywgJzIwMCcsICctbWV0YWxfYmluZGluZycsICctaW1hZScsICc8aW5maWxlLm1hZT4nLCAnLW9tYWUnLCAnPG91dGZpbGUubWFlPic=

> <r_lp_tautomer_probability>
1

> <r_epik_Ionization_Penalty>
0.621287

> <r_epik_Ionization_Penalty_Charging>
0.621234

> <r_epik_Ionization_Penalty_Neutral>
5.30999e-05

> <r_epik_State_Penalty>
0.637278

> <r_epik_Charging_Adjusted_Penalty>
1.25851

> <i_epik_Tot_Q>
0

> <i_epik_Tot_abs_Q>
0

> <r_epik_Metal_State_Penalty>
0.306756

> <b_epik_Metal_Only>
0

> <s_lp_Force_Field>
OPLS_2005

> <r_lp_Energy>
17.5777

> <b_lp_Chiralities_Consistent>
1

> <s_lp_Variant>
AV-unprocessed.smi:3170-3

> <Gold.Version>
5.8.1

> <Gold.Id.Protein>
6NUR|6NUR_protein|mol2

> <Gold.PLP.Fitness>
44.8279

> <Gold.PLP.PLP>
-31.8373

> <Gold.PLP.part.hbond>
-4.0000

> <Gold.PLP.part.metal>
0.0000

> <Gold.PLP.part.buried>
-3.7401

> <Gold.PLP.part.nonpolar>
-25.8023

> <Gold.PLP.part.repulsive>
1.5230

> <Gold.PLP.ligand.clash>
0.0000

> <Gold.PLP.ligand.torsion>
0.3901

> <Gold.PLP.Chemscore.Hbond>
3.8080

> <Gold.PLP.Chemscore.CHOScore>
0.7785

> <Gold.PLP.Chemscore.Metal>
0.0000

> <Gold.Chemscore.Hbonds>
donor molecule, donor type, donor heavy atom, donor atom, acceptor molecule, acceptor atom, score
      L1  H     3    18       P1  7948  1.00
      L1  H    11    26       P1  7948  0.93
      P1  H  7989  7998       L1    16  1.00
      P1  H 10785 10796       L1     9  0.75
      L1  C    10    25       P1  7921  0.77

> <Gold.PLP.Chemscore.Internal.Correction>
0.0114

> <Gold.Rescore>
     Score         DG    S(hbond)    S(metal)    S(lipo)     H(rot)  DE(clash)    DE(int)     intcor
     14.97     -15.60       2.64        0.00      60.27       2.25       0.23       0.40       ----

> <Gold.Chemscore.Fitness>
14.9667

> <Gold.Chemscore.DG>
-15.6037

> <Gold.Chemscore.ZeroCoef>
-5.4800

> <Gold.Chemscore.Hbond>
2.6424

> <Gold.Chemscore.Metal>
0.0000

> <Gold.Chemscore.Lipo>
60.2665

> <Gold.Chemscore.Internal_Hbond>
0.0000

> <Gold.Chemscore.DEClash>
0.2325

> <Gold.Chemscore.DEInternal>
0.4046

> <Gold.Chemscore.Rot>
2.2474

> <Gold.Chemscore.Internal.Correction>
   9.000000E+99

> <Gold.Chemscore.Hbonds>
donor molecule, donor type, donor heavy atom, donor atom, acceptor molecule, acceptor atom, score
      L1  H     3    18       P1  7948  1.00
      L1  H    11    26       P1  7948  0.87
      P1  H  7989  7998       L1    16  0.10
      P1  H 10785 10796       L1     9  0.41

> <Gold.Chemscore.Hbond.Weighted>
-8.8258

> <Gold.Chemscore.Metal.Weighted>
-0.0000

> <Gold.Chemscore.Lipo.Weighted>
-7.0512

> <Gold.Chemscore.Internal_Hbond.Weighted>
0.0000

> <Gold.Chemscore.DEClash.Weighted>
0.2325

> <Gold.Chemscore.DEInternal.Weighted>
0.4046

> <Gold.Chemscore.Rot.Weighted>
5.7532

> <Gold.Chemscore.Internal.Correction.Weighted>
   9.000000E+99

> <Gold.Protein.RotatedTorsions>
[ 6907 6896 6895 6894 ] final   76.84 input  -60.11 | X-H torsion
[ 7974 7965 7964 7962 ] final -170.62 input  175.53 | X-H torsion
[ 8008 7997 7996 7995 ] final   91.77 input   59.86 | X-H torsion
[ 10167 10162 10161 10158 ] final  -79.96 input  -65.29 | X-H torsion
[ 10718 10713 10712 10709 ] final  111.77 input   66.30 | X-H torsion
[ 10763 10752 10751 10750 ] final   65.90 input  -60.55 | X-H torsion
[ 11005 11000 10999 10996 ] final  -86.20 input  -57.11 | X-H torsion

> <Gold.Protein.ActiveResidues>
 VAL166  LYS551  ARG553  GLY616  TRP617  ASP618  TYR619  PRO620  LYS621  CYS622 
 ASP623  PHE694  ASN695  SER759  ASP760  ASP761  ALA762  ILE779  LEU786  VAL792 
 PHE793  MET794  SER795  GLU796  ALA797  LYS798  CYS799  TRP800  GLU811  SER814 

> <Gold.Protein.RotatedAtoms>
  152.5091  134.3907  159.9382 H   0  0  0  0  0  0  0  0  0  0  0  0  # atno 6907 bound_to 6896
  151.3867  133.3796  159.2724 H   0  0  0  0  0  0  0  0  0  0  0  0  # atno 6908 bound_to 6896
  150.9463  134.8888  159.7703 H   0  0  0  0  0  0  0  0  0  0  0  0  # atno 6909 bound_to 6896
  144.7167  140.2044  143.6334 H   0  0  0  0  0  0  0  0  0  0  0  0  # atno 7974 bound_to 7965
  156.0276  140.3333  155.7105 H   0  0  0  0  0  0  0  0  0  0  0  0  # atno 8008 bound_to 7997
  155.5932  140.0648  157.2771 H   0  0  0  0  0  0  0  0  0  0  0  0  # atno 8009 bound_to 7997
  154.4340  140.1823  156.1084 H   0  0  0  0  0  0  0  0  0  0  0  0  # atno 8010 bound_to 7997
  140.4546  143.2472  151.8439 H   0  0  0  0  0  0  0  0  0  0  0  0  # atno 10167 bound_to 10162
  157.6427  131.0956  150.6798 H   0  0  0  0  0  0  0  0  0  0  0  0  # atno 10718 bound_to 10713
  153.0116  135.5340  154.6740 H   0  0  0  0  0  0  0  0  0  0  0  0  # atno 10763 bound_to 10752
  154.5917  135.2859  155.0631 H   0  0  0  0  0  0  0  0  0  0  0  0  # atno 10764 bound_to 10752
  154.1721  135.6530  153.5064 H   0  0  0  0  0  0  0  0  0  0  0  0  # atno 10765 bound_to 10752
  141.1633  133.7441  156.9126 H   0  0  0  0  0  0  0  0  0  0  0  0  # atno 11005 bound_to 11000
  145.8649  139.2242  143.1695 LP  0  0  0  0  0  0  0  0  0  0  0  0  # atno 17320 bound_to 7965
  146.0139  140.8410  142.9957 LP  0  0  0  0  0  0  0  0  0  0  0  0  # atno 17321 bound_to 7965
  139.4800  144.5080  151.8971 LP  0  0  0  0  0  0  0  0  0  0  0  0  # atno 17342 bound_to 10162
  140.4166  144.2298  150.5887 LP  0  0  0  0  0  0  0  0  0  0  0  0  # atno 17343 bound_to 10162
  156.7119  130.4654  149.5545 LP  0  0  0  0  0  0  0  0  0  0  0  0  # atno 17370 bound_to 10713
  156.1724  130.6446  151.0853 LP  0  0  0  0  0  0  0  0  0  0  0  0  # atno 17371 bound_to 10713
  140.1506  134.9232  157.2588 LP  0  0  0  0  0  0  0  0  0  0  0  0  # atno 17394 bound_to 11000
  140.2727  134.3441  155.7368 LP  0  0  0  0  0  0  0  0  0  0  0  0  # atno 17395 bound_to 11000

$$$$
