AV-unprocessed.smi:109|AV-procd|sdf|1040|dock9
  -GOLD-   2262018 63D 1   1.00000     0.00000
 Structure written by MMmdl.
 58 61  0  0  0  0  0  0  0  0  1 V2000
  154.3675  138.3194  161.9562 O   0  0  0  0  0  0  0  0  0  0  0  0
  155.1118  139.4903  162.2130 C   0  0  0  0  0  0  0  0  0  0  0  0
  155.5721  140.1193  160.8882 C   0  0  0  0  0  0  0  0  0  0  0  0
  154.3993  140.6222  160.0219 C   0  0  1  0  0  0  0  0  0  0  0  0
  153.4106  139.5564  159.8487 N   0  0  0  0  0  0  0  0  0  0  0  0
  152.6037  139.4840  158.7667 C   0  0  0  0  0  0  0  0  0  0  0  0
  152.7311  140.3439  157.7223 N   0  0  0  0  0  0  0  0  0  0  0  0
  151.9185  140.2415  156.6659 C   0  0  0  0  0  0  0  0  0  0  0  0
  150.9324  139.3670  156.4525 N   0  0  0  0  0  0  0  0  0  0  0  0
  150.8022  138.5022  157.4998 C   0  0  0  0  0  0  0  0  0  0  0  0
  151.5908  138.4946  158.6831 C   0  0  0  0  0  0  0  0  0  0  0  0
  151.1716  137.4685  159.5205 N   0  0  0  0  0  0  0  0  0  0  0  0
  150.1963  136.9014  158.8616 C   0  0  0  0  0  0  0  0  0  0  0  0
  149.9105  137.4623  157.6346 N   0  0  0  0  0  0  0  0  0  0  0  0
  148.8841  137.0592  156.6273 C   0  0  2  0  0  0  0  0  0  0  0  0
  148.3352  135.8444  157.0444 O   0  0  0  0  0  0  0  0  0  0  0  0
  148.4530  134.8585  156.0232 C   0  0  2  0  0  0  0  0  0  0  0  0
  148.5537  133.4460  156.6257 C   0  0  0  0  0  0  0  0  0  0  0  0
  149.6751  133.3619  157.4784 O   0  0  0  0  0  0  0  0  0  0  0  0
  149.6604  135.3134  155.1926 C   0  0  2  0  0  0  0  0  0  0  0  0
  150.8802  134.8638  155.7556 O   0  0  0  0  0  0  0  0  0  0  0  0
  149.5660  136.8294  155.2696 C   0  0  1  0  0  0  0  0  0  0  0  0
  148.7821  137.3418  154.2110 O   0  0  0  0  0  0  0  0  0  0  0  0
  153.7549  141.9154  160.5876 C   0  0  0  0  0  0  0  0  0  0  0  0
  153.1311  141.7420  161.9928 C   0  0  0  0  0  0  0  0  0  0  0  0
  152.5579  143.0656  162.5257 C   0  0  0  0  0  0  0  0  0  0  0  0
  151.5399  143.6702  161.5471 C   0  0  0  0  0  0  0  0  0  0  0  0
  152.1565  143.8546  160.1524 C   0  0  0  0  0  0  0  0  0  0  0  0
  152.7236  142.5305  159.6164 C   0  0  0  0  0  0  0  0  0  0  0  0
  148.1501  137.8665  156.6396 H   0  0  0  0  0  0  0  0  0  0  0  0
  147.5689  134.9301  155.3867 H   0  0  0  0  0  0  0  0  0  0  0  0
  149.6106  134.9443  154.1673 H   0  0  0  0  0  0  0  0  0  0  0  0
  150.5428  137.3146  155.2257 H   0  0  0  0  0  0  0  0  0  0  0  0
  153.4513  138.5488  161.9201 H   0  0  0  0  0  0  0  0  0  0  0  0
  154.4927  140.1885  162.7771 H   0  0  0  0  0  0  0  0  0  0  0  0
  155.9657  139.2319  162.8398 H   0  0  0  0  0  0  0  0  0  0  0  0
  156.2654  140.9351  161.0955 H   0  0  0  0  0  0  0  0  0  0  0  0
  156.1374  139.3721  160.3298 H   0  0  0  0  0  0  0  0  0  0  0  0
  154.8413  140.8866  159.0614 H   0  0  0  0  0  0  0  0  0  0  0  0
  153.3806  138.8725  160.5913 H   0  0  0  0  0  0  0  0  0  0  0  0
  152.0839  140.9624  155.8788 H   0  0  0  0  0  0  0  0  0  0  0  0
  149.6623  136.0486  159.2547 H   0  0  0  0  0  0  0  0  0  0  0  0
  147.6709  133.2307  157.2282 H   0  0  0  0  0  0  0  0  0  0  0  0
  148.6123  132.6845  155.8473 H   0  0  0  0  0  0  0  0  0  0  0  0
  149.8621  132.4500  157.6412 H   0  0  0  0  0  0  0  0  0  0  0  0
  151.5667  134.9789  155.1166 H   0  0  0  0  0  0  0  0  0  0  0  0
  149.1179  136.9983  153.3970 H   0  0  0  0  0  0  0  0  0  0  0  0
  154.5580  142.6482  160.6822 H   0  0  0  0  0  0  0  0  0  0  0  0
  152.3364  140.9956  161.9614 H   0  0  0  0  0  0  0  0  0  0  0  0
  153.8744  141.3715  162.6981 H   0  0  0  0  0  0  0  0  0  0  0  0
  152.0881  142.9022  163.4962 H   0  0  0  0  0  0  0  0  0  0  0  0
  153.3702  143.7745  162.6914 H   0  0  0  0  0  0  0  0  0  0  0  0
  150.6673  143.0194  161.4784 H   0  0  0  0  0  0  0  0  0  0  0  0
  151.1832  144.6286  161.9255 H   0  0  0  0  0  0  0  0  0  0  0  0
  151.4059  144.2421  159.4631 H   0  0  0  0  0  0  0  0  0  0  0  0
  152.9498  144.6016  160.1983 H   0  0  0  0  0  0  0  0  0  0  0  0
  153.1833  142.7006  158.6424 H   0  0  0  0  0  0  0  0  0  0  0  0
  151.9010  141.8337  159.4522 H   0  0  0  0  0  0  0  0  0  0  0  0
  1  2  1  0  0  0  0
  1 34  1  0  0  0  0
  2  3  1  0  0  0  0
  2 35  1  0  0  0  0
  2 36  1  0  0  0  0
  3  4  1  0  0  0  0
  3 37  1  0  0  0  0
  3 38  1  0  0  0  0
  4  5  1  0  0  0  0
  4 24  1  0  0  0  0
  4 39  1  0  0  0  0
  5  6  1  0  0  0  0
  5 40  1  0  0  0  0
  6 11  1  0  0  0  0
  6  7  2  0  0  0  0
  7  8  1  0  0  0  0
  8  9  2  0  0  0  0
  8 41  1  0  0  0  0
  9 10  1  0  0  0  0
 10 14  1  0  0  0  0
 10 11  2  0  0  0  0
 11 12  1  0  0  0  0
 12 13  2  0  0  0  0
 13 14  1  0  0  0  0
 13 42  1  0  0  0  0
 14 15  1  0  0  0  0
 15 30  1  0  0  0  0
 15 22  1  0  0  0  0
 15 16  1  0  0  0  0
 16 17  1  0  0  0  0
 17 31  1  0  0  0  0
 17 18  1  0  0  0  0
 17 20  1  0  0  0  0
 18 19  1  0  0  0  0
 18 43  1  0  0  0  0
 18 44  1  0  0  0  0
 19 45  1  0  0  0  0
 20 32  1  0  0  0  0
 20 21  1  0  0  0  0
 20 22  1  0  0  0  0
 21 46  1  0  0  0  0
 22 33  1  0  0  0  0
 22 23  1  0  0  0  0
 23 47  1  0  0  0  0
 24 29  1  0  0  0  0
 24 25  1  0  0  0  0
 24 48  1  0  0  0  0
 25 26  1  0  0  0  0
 25 49  1  0  0  0  0
 25 50  1  0  0  0  0
 26 27  1  0  0  0  0
 26 51  1  0  0  0  0
 26 52  1  0  0  0  0
 27 28  1  0  0  0  0
 27 53  1  0  0  0  0
 27 54  1  0  0  0  0
 28 29  1  0  0  0  0
 28 55  1  0  0  0  0
 28 56  1  0  0  0  0
 29 57  1  0  0  0  0
 29 58  1  0  0  0  0
M  END
> <s_m_source_file>
AV-unprocessed.smi

> <i_m_source_file_index>
109

> <i_lp_mmshare_version>
43012

> <i_f3d_flags>
0

> <s_epik_input>
W0NIMl0xW0NIMl1bQ0gyXVtDSDJdW0NIMl1bQ0hdMVtDQEhdKFtDSDJdW0NIMl1bT0hdKVtOSF1jKG5bY0hdbjIpYyhjMjMpbltjSF1uM1tDQEBIXTRPW0NASF0oW0NIMl1bT0hdKVtDQEBIXShbT0hdKVtDQEhdNFtPSF0=

> <s_epik_cmdline>
J2VwaWtfcHl0aG9uJywgJy1waCcsICc3LjAnLCAnLXRuJywgJzgnLCAnLW1hJywgJzIwMCcsICctbWV0YWxfYmluZGluZycsICctaW1hZScsICc8aW5maWxlLm1hZT4nLCAnLW9tYWUnLCAnPG91dGZpbGUubWFlPic=

> <r_lp_tautomer_probability>
1

> <r_epik_Ionization_Penalty>
0.000793976

> <r_epik_Ionization_Penalty_Charging>
0

> <r_epik_Ionization_Penalty_Neutral>
0.000793976

> <r_epik_State_Penalty>
-0

> <r_epik_Charging_Adjusted_Penalty>
0

> <i_epik_Tot_Q>
0

> <i_epik_Tot_abs_Q>
0

> <r_epik_Metal_State_Penalty>
-0

> <b_epik_Metal_Only>
0

> <s_epik_Chemistry_Notes>
This compound contains an acetal/aminal-like group ( X-CH(R)-Y where X, Y are N, S, or O) that may be acid/base labile, releasing an aldehyde.

> <s_lp_Force_Field>
OPLS_2005

> <r_lp_Energy>
47.8615

> <b_lp_Chiralities_Consistent>
1

> <s_lp_Variant>
AV-unprocessed.smi:109-10

> <Gold.Version>
5.8.1

> <Gold.Id.Protein>
6NUR|6NUR_protein|mol2

> <Gold.PLP.Fitness>
51.5458

> <Gold.PLP.PLP>
-43.9247

> <Gold.PLP.part.hbond>
-3.7046

> <Gold.PLP.part.metal>
0.0000

> <Gold.PLP.part.buried>
-5.2834

> <Gold.PLP.part.nonpolar>
-34.7532

> <Gold.PLP.part.repulsive>
0.0771

> <Gold.PLP.ligand.clash>
0.0000

> <Gold.PLP.ligand.torsion>
0.5489

> <Gold.PLP.Chemscore.Hbond>
2.8432

> <Gold.PLP.Chemscore.CHOScore>
0.0000

> <Gold.PLP.Chemscore.Metal>
0.0000

> <Gold.Chemscore.Hbonds>
donor molecule, donor type, donor heavy atom, donor atom, acceptor molecule, acceptor atom, score
      L1  H    23    47       P1  7948  1.00
      P1  H  6896  6909       L1    19  0.18
      P1  H  7997  8010       L1     7  0.86

> <Gold.PLP.Chemscore.Internal.Correction>
0.1892

> <Gold.Rescore>
     Score         DG    S(hbond)    S(metal)    S(lipo)     H(rot)  DE(clash)    DE(int)     intcor
      8.01      -9.69       1.85        0.00     102.70       5.47       0.05       1.64       ----

> <Gold.Chemscore.Fitness>
8.0058

> <Gold.Chemscore.DG>
-9.6927

> <Gold.Chemscore.ZeroCoef>
-5.4800

> <Gold.Chemscore.Hbond>
1.8532

> <Gold.Chemscore.Metal>
0.0000

> <Gold.Chemscore.Lipo>
102.7044

> <Gold.Chemscore.Internal_Hbond>
0.0000

> <Gold.Chemscore.DEClash>
0.0495

> <Gold.Chemscore.DEInternal>
1.6375

> <Gold.Chemscore.Rot>
5.4662

> <Gold.Chemscore.Internal.Correction>
   9.000000E+99

> <Gold.Chemscore.Hbonds>
donor molecule, donor type, donor heavy atom, donor atom, acceptor molecule, acceptor atom, score
      L1  H    23    47       P1  7948  0.98
      P1  H  6896  6909       L1    19  0.04
      P1  H  7997  8010       L1     7  0.22

> <Gold.Chemscore.Hbond.Weighted>
-6.1898

> <Gold.Chemscore.Metal.Weighted>
-0.0000

> <Gold.Chemscore.Lipo.Weighted>
-12.0164

> <Gold.Chemscore.Internal_Hbond.Weighted>
0.0000

> <Gold.Chemscore.DEClash.Weighted>
0.0495

> <Gold.Chemscore.DEInternal.Weighted>
1.6375

> <Gold.Chemscore.Rot.Weighted>
13.9935

> <Gold.Chemscore.Internal.Correction.Weighted>
   9.000000E+99

> <Gold.Protein.RotatedTorsions>
[ 6907 6896 6895 6894 ] final   29.59 input  -60.11 | X-H torsion
[ 7974 7965 7964 7962 ] final  -92.09 input  175.53 | X-H torsion
[ 8008 7997 7996 7995 ] final   39.29 input   59.86 | X-H torsion
[ 10167 10162 10161 10158 ] final   31.62 input  -65.29 | X-H torsion
[ 10718 10713 10712 10709 ] final    9.24 input   66.30 | X-H torsion
[ 10763 10752 10751 10750 ] final   53.47 input  -60.55 | X-H torsion
[ 11005 11000 10999 10996 ] final -114.36 input  -57.11 | X-H torsion

> <Gold.Protein.ActiveResidues>
 VAL166  LYS551  ARG553  GLY616  TRP617  ASP618  TYR619  PRO620  LYS621  CYS622 
 ASP623  PHE694  ASN695  SER759  ASP760  ASP761  ALA762  ILE779  LEU786  VAL792 
 PHE793  MET794  SER795  GLU796  ALA797  LYS798  CYS799  TRP800  GLU811  SER814 

> <Gold.Protein.RotatedAtoms>
  152.0337  134.9752  160.0572 H   0  0  0  0  0  0  0  0  0  0  0  0  # atno 6907 bound_to 6896
  152.1219  133.4353  159.4688 H   0  0  0  0  0  0  0  0  0  0  0  0  # atno 6908 bound_to 6896
  150.6849  134.2443  159.4528 H   0  0  0  0  0  0  0  0  0  0  0  0  # atno 6909 bound_to 6896
  145.4044  140.9540  143.2269 H   0  0  0  0  0  0  0  0  0  0  0  0  # atno 7974 bound_to 7965
  155.2341  140.3340  155.4300 H   0  0  0  0  0  0  0  0  0  0  0  0  # atno 8008 bound_to 7997
  156.2283  140.1839  156.7354 H   0  0  0  0  0  0  0  0  0  0  0  0  # atno 8009 bound_to 7997
  154.5935  140.0634  156.9256 H   0  0  0  0  0  0  0  0  0  0  0  0  # atno 8010 bound_to 7997
  140.4572  144.0961  150.6204 H   0  0  0  0  0  0  0  0  0  0  0  0  # atno 10167 bound_to 10162
  156.9634  130.5941  149.5663 H   0  0  0  0  0  0  0  0  0  0  0  0  # atno 10718 bound_to 10713
  152.9795  135.5777  154.4747 H   0  0  0  0  0  0  0  0  0  0  0  0  # atno 10763 bound_to 10752
  154.4304  135.2773  155.1918 H   0  0  0  0  0  0  0  0  0  0  0  0  # atno 10764 bound_to 10752
  154.3628  135.6185  153.5753 H   0  0  0  0  0  0  0  0  0  0  0  0  # atno 10765 bound_to 10752
  141.0557  133.9616  157.2758 H   0  0  0  0  0  0  0  0  0  0  0  0  # atno 11005 bound_to 11000
  144.8352  139.5563  143.6926 LP  0  0  0  0  0  0  0  0  0  0  0  0  # atno 17320 bound_to 7965
  146.2736  139.6696  142.9279 LP  0  0  0  0  0  0  0  0  0  0  0  0  # atno 17321 bound_to 7965
  140.4137  143.2644  151.9801 LP  0  0  0  0  0  0  0  0  0  0  0  0  # atno 17342 bound_to 10162
  139.4802  144.5893  151.7800 LP  0  0  0  0  0  0  0  0  0  0  0  0  # atno 17343 bound_to 10162
  156.0312  130.5404  150.8540 LP  0  0  0  0  0  0  0  0  0  0  0  0  # atno 17370 bound_to 10713
  157.5642  131.0946  150.9514 LP  0  0  0  0  0  0  0  0  0  0  0  0  # atno 17371 bound_to 10713
  139.9388  135.0193  156.8642 LP  0  0  0  0  0  0  0  0  0  0  0  0  # atno 17394 bound_to 11000
  140.5969  134.0209  155.7521 LP  0  0  0  0  0  0  0  0  0  0  0  0  # atno 17395 bound_to 11000

$$$$
