#       Name:                AV-unprocessed.smi:743
#       Creating user name   scv26
#       Creation time:       Fri Mar 27 00:56:05 2020


#       File generated by GOLD software.
#

@<TRIPOS>MOLECULE
AV-unprocessed.smi:743
    32    33     1
SMALL
NO_CHARGES


@<TRIPOS>ATOM
      1 ****        -4.3192   0.7700   0.6455 C.3            1 S1                 0.0000
      2 ****        -3.0794   0.0653   0.3995 N.pl3          1 S1                 0.0000
      3 ****        -1.7925   0.4634   0.6889 C.2            1 S1                 0.0000
      4 ****        -0.9494  -0.5325   0.2770 C.2            1 S1                 0.0000
      5 ****         0.5573  -0.6022   0.3508 C.3            1 S1                 0.0000
      6 ****         1.0501   0.1084   1.5338 N.am           1 S1                 0.0000
      7 ****         2.1986   0.8006   1.6395 C.2            1 S1                 0.0000
      8 ****         2.5463   1.3051   2.7039 O.2            1 S1                 0.0000
      9 ****         3.0741   0.9946   0.3917 C.3            1 S1                 0.0000
     10 ****         2.7250   0.0423  -0.7641 C.3            1 S1                 0.0000
     11 ****         1.2066  -0.0654  -0.9462 C.3            1 S1                 0.0000
     12 ****         0.8681  -0.9007  -2.1130 N.4            1 S1                 1.0000
     13 ****        -1.8384  -1.5111  -0.2548 C.2            1 S1                 0.0000
     14 ****        -3.1082  -1.1502  -0.1833 N.2            1 S1                 0.0000
     15 ****         0.8170   0.9334  -1.1509 H              1 S1                 0.0000
     16 ****        -4.1181   1.8260   0.8286 H              1 S1                 0.0000
     17 ****        -4.8149   0.3452   1.5190 H              1 S1                 0.0000
     18 ****        -4.9782   0.6811  -0.2190 H              1 S1                 0.0000
     19 ****        -1.5846   1.4142   1.1581 H              1 S1                 0.0000
     20 ****         0.8683  -1.6398   0.4833 H              1 S1                 0.0000
     21 ****         0.4886   0.0246   2.3694 H              1 S1                 0.0000
     22 ****         2.9461   2.0259   0.0614 H              1 S1                 0.0000
     23 ****         4.1246   0.8839   0.6633 H              1 S1                 0.0000
     24 ****         3.1911   0.4023  -1.6821 H              1 S1                 0.0000
     25 ****         3.1493  -0.9439  -0.5686 H              1 S1                 0.0000
     26 ****         1.2204  -1.8369  -1.9729 H              1 S1                 0.0000
     27 ****         1.2854  -0.5048  -2.9433 H              1 S1                 0.0000
     28 ****        -1.5978  -2.4687  -0.6925 H              1 S1                 0.0000
     29 ****        -0.1355  -0.9309  -2.2234 H              1 S1                 0.0000
     30 ****         1.9711   1.2056   3.5159 LP             1 S1                 0.0000
     31 ****         3.4045   1.8154   2.7586 LP             1 S1                 0.0000
     32 ****        -3.9094  -1.6630  -0.4918 LP             1 S1                 0.0000
@<TRIPOS>BOND
    1    1    2 1     
    2    1   16 1     
    3    1   17 1     
    4    1   18 1     
    5    2   14 1     
    6    2    3 1     
    7    3    4 2     
    8    3   19 1     
    9    4    5 1     
   10    4   13 1     
   11    5   11 1     
   12    5    6 1     
   13    5   20 1     
   14    6    7 am    
   15    6   21 1     
   16    7    8 2     
   17    7    9 1     
   18    9   10 1     
   19    9   22 1     
   20    9   23 1     
   21   10   11 1     
   22   10   24 1     
   23   10   25 1     
   24   11   15 1     
   25   11   12 1     
   26   12   26 1     
   27   12   27 1     
   28   12   29 1     
   29   13   14 2     
   30   13   28 1     
   31    8   30 1     
   32    8   31 1     
   33   14   32 1     
@<TRIPOS>SUBSTRUCTURE
      1 S1             1
@<TRIPOS>SET
LONE_PAIRS      STATIC     ATOMS    <user>   **** ""
3 30 31 32
DONOR_HYDROGENS      STATIC     ATOMS    <user>   **** ""
4 21 26 27 29
ATOM$BLUE        STATIC     ATOMS    COLORGROUP SYSTEM
3 30 31 32
ATOM$RED        STATIC     ATOMS    COLORGROUP SYSTEM
4 21 26 27 29
