#       Name:                AV-unprocessed.smi:1762
#       Creating user name   scv26
#       Creation time:       Fri Mar 27 08:33:15 2020


#       File generated by GOLD software.
#

@<TRIPOS>MOLECULE
AV-unprocessed.smi:1762
    58    59     1
SMALL
NO_CHARGES


@<TRIPOS>ATOM
      1 ****        -5.2241  -1.6762   2.1278 C.3            1 S1                 0.0000
      2 ****        -3.7057  -1.6981   1.9180 C.3            1 S1                 0.0000
      3 ****        -3.2932  -1.1122   0.5536 C.3            1 S1                 0.0000
      4 ****        -1.8371  -1.0626   0.3730 N.3            1 S1                 0.0000
      5 ****        -1.4325  -0.5296  -0.9584 C.3            1 S1                 0.0000
      6 ****         0.0932  -0.3068  -1.0858 C.2            1 S1                 0.0000
      7 ****         0.8762  -1.2411  -0.9104 O.2            1 S1                 0.0000
      8 ****         0.5010   0.9420  -1.3628 N.am           1 S1                 0.0000
      9 ****         1.8940   1.3511  -1.4942 C.3            1 S1                 0.0000
     10 ****         2.5574   1.5428  -0.1199 C.3            1 S1                 0.0000
     11 ****         4.0157   1.9403  -0.2372 C.ar           1 S1                 0.0000
     12 ****         5.0619   1.0050  -0.0817 C.ar           1 S1                 0.0000
     13 ****         6.3982   1.4381  -0.2095 C.ar           1 S1                 0.0000
     14 ****         6.6598   2.7950  -0.4913 C.ar           1 S1                 0.0000
     15 ****         5.5769   3.6857  -0.6390 C.ar           1 S1                 0.0000
     16 ****         4.3105   3.2325  -0.5087 N.pl3          1 S1                 1.0000
     17 ****        -1.9785  -1.3328  -2.1866 C.3            1 S1                 0.0000
     18 ****        -1.6025  -2.8276  -2.1726 C.3            1 S1                 0.0000
     19 ****        -1.6131  -0.7013  -3.5451 C.3            1 S1                 0.0000
     20 ****        -1.2507  -0.3447   1.5183 C.3            1 S1                 0.0000
     21 ****        -1.6814  -0.9332   2.8755 C.3            1 S1                 0.0000
     22 ****        -1.1369  -0.1261   4.0593 C.3            1 S1                 0.0000
     23 ****        -3.1010  -0.9362   2.9550 O.3            1 S1                 0.0000
     24 ****        -5.7343  -2.2633   1.3638 H              1 S1                 0.0000
     25 ****        -5.6146  -0.6591   2.0854 H              1 S1                 0.0000
     26 ****        -5.4888  -2.0945   3.0992 H              1 S1                 0.0000
     27 ****        -3.3603  -2.7309   1.9901 H              1 S1                 0.0000
     28 ****        -3.7557  -1.7360  -0.2084 H              1 S1                 0.0000
     29 ****        -3.7150  -0.1118   0.4415 H              1 S1                 0.0000
     30 ****        -1.8783   0.4642  -1.0400 H              1 S1                 0.0000
     31 ****        -0.2032   1.6548  -1.4897 H              1 S1                 0.0000
     32 ****         2.4422   0.6141  -2.0838 H              1 S1                 0.0000
     33 ****         1.9231   2.2836  -2.0582 H              1 S1                 0.0000
     34 ****         2.0249   2.3053   0.4502 H              1 S1                 0.0000
     35 ****         2.4917   0.6236   0.4638 H              1 S1                 0.0000
     36 ****         4.8451  -0.0318   0.1314 H              1 S1                 0.0000
     37 ****         7.2129   0.7381  -0.0937 H              1 S1                 0.0000
     38 ****         7.6760   3.1468  -0.5934 H              1 S1                 0.0000
     39 ****         5.6846   4.7386  -0.8561 H              1 S1                 0.0000
     40 ****        -3.0655  -1.2799  -2.1606 H              1 S1                 0.0000
     41 ****        -0.5313  -2.9801  -2.3020 H              1 S1                 0.0000
     42 ****        -2.1047  -3.3602  -2.9805 H              1 S1                 0.0000
     43 ****        -1.8969  -3.3073  -1.2391 H              1 S1                 0.0000
     44 ****        -0.5483  -0.7856  -3.7646 H              1 S1                 0.0000
     45 ****        -1.8790   0.3558  -3.5720 H              1 S1                 0.0000
     46 ****        -2.1492  -1.1925  -4.3575 H              1 S1                 0.0000
     47 ****        -0.1622  -0.3796   1.4945 H              1 S1                 0.0000
     48 ****        -1.5301   0.7095   1.4720 H              1 S1                 0.0000
     49 ****        -1.3193  -1.9594   2.9585 H              1 S1                 0.0000
     50 ****        -0.0470  -0.1059   4.0527 H              1 S1                 0.0000
     51 ****        -1.4548  -0.5622   5.0067 H              1 S1                 0.0000
     52 ****        -1.4918   0.9044   4.0314 H              1 S1                 0.0000
     53 ****         3.5424   3.8947  -0.6201 H              1 S1                 0.0000
     54 ****        -1.4678  -1.9918   0.3652 LP             1 S1                 0.0000
     55 ****         0.5269  -2.1504  -0.6841 LP             1 S1                 0.0000
     56 ****         1.8612  -1.0904  -0.9942 LP             1 S1                 0.0000
     57 ****        -3.3715  -1.3236   3.8364 LP             1 S1                 0.0000
     58 ****        -3.4272   0.0070   2.8913 LP             1 S1                 0.0000
@<TRIPOS>BOND
    1    1    2 1     
    2    1   24 1     
    3    1   25 1     
    4    1   26 1     
    5    2   23 1     
    6    2    3 1     
    7    2   27 1     
    8    3    4 1     
    9    3   28 1     
   10    3   29 1     
   11    4    5 1     
   12    4   20 1     
   13    5    6 1     
   14    5   17 1     
   15    5   30 1     
   16    6    7 2     
   17    6    8 am    
   18    8    9 1     
   19    8   31 1     
   20    9   10 1     
   21    9   32 1     
   22    9   33 1     
   23   10   11 1     
   24   10   34 1     
   25   10   35 1     
   26   11   16 ar    
   27   11   12 ar    
   28   12   13 ar    
   29   12   36 1     
   30   13   14 ar    
   31   13   37 1     
   32   14   15 ar    
   33   14   38 1     
   34   15   16 ar    
   35   15   39 1     
   36   16   53 1     
   37   17   18 1     
   38   17   19 1     
   39   17   40 1     
   40   18   41 1     
   41   18   42 1     
   42   18   43 1     
   43   19   44 1     
   44   19   45 1     
   45   19   46 1     
   46   20   21 1     
   47   20   47 1     
   48   20   48 1     
   49   21   22 1     
   50   21   23 1     
   51   21   49 1     
   52   22   50 1     
   53   22   51 1     
   54   22   52 1     
   55    4   54 1     
   56    7   55 1     
   57    7   56 1     
   58   23   57 1     
   59   23   58 1     
@<TRIPOS>SUBSTRUCTURE
      1 S1             1
@<TRIPOS>SET
LONE_PAIRS      STATIC     ATOMS    <user>   **** ""
5 54 55 56 57 58
DONOR_HYDROGENS      STATIC     ATOMS    <user>   **** ""
2 31 53
ATOM$BLUE        STATIC     ATOMS    COLORGROUP SYSTEM
5 54 55 56 57 58
ATOM$RED        STATIC     ATOMS    COLORGROUP SYSTEM
2 31 53
