AV-unprocessed.smi:2514|AV-procd|sdf|9895|dock6
  -GOLD-   2272013533D 1   1.00000     0.00000
 Structure written by MMmdl.
 24 25  0  0  0  0  0  0  0  0  1 V2000
  152.4160  144.7361  159.4711 C   0  0  0  0  0  0  0  0  0  0  0  0
  151.3444  144.5240  158.3944 C   0  0  2  0  0  0  0  0  0  0  0  0
  150.0618  144.7136  158.9569 O   0  0  0  0  0  0  0  0  0  0  0  0
  151.3730  143.1376  157.8140 C   0  0  0  0  0  0  0  0  0  0  0  0
  150.5619  142.5973  156.8566 C   0  0  0  0  0  0  0  0  0  0  0  0
  151.0542  141.3183  156.7031 N   0  0  0  0  0  0  0  0  0  0  0  0
  150.5332  140.2742  155.8712 C   0  0  0  0  0  0  0  0  0  0  0  0
  151.3502  139.7029  154.7091 C   0  0  0  0  0  0  0  0  0  0  0  0
  150.0921  139.5710  153.9944 N   0  0  0  0  0  0  0  0  0  0  0  0
  149.4601  140.5816  154.8256 C   0  0  0  0  0  0  0  0  0  0  0  0
  152.0786  141.0726  157.5532 N   0  0  0  0  0  0  0  0  0  0  0  0
  152.2963  142.1671  158.2120 N   0  0  0  0  0  0  0  0  0  0  0  0
  153.4155  144.5969  159.0588 H   0  0  0  0  0  0  0  0  0  0  0  0
  152.2958  144.0340  160.2969 H   0  0  0  0  0  0  0  0  0  0  0  0
  152.3650  145.7450  159.8814 H   0  0  0  0  0  0  0  0  0  0  0  0
  151.4777  145.2644  157.6050 H   0  0  0  0  0  0  0  0  0  0  0  0
  149.4625  144.9433  158.2633 H   0  0  0  0  0  0  0  0  0  0  0  0
  149.7244  142.9903  156.2995 H   0  0  0  0  0  0  0  0  0  0  0  0
  150.2065  139.4804  156.5469 H   0  0  0  0  0  0  0  0  0  0  0  0
  152.0201  140.4188  154.2306 H   0  0  0  0  0  0  0  0  0  0  0  0
  151.8381  138.7526  154.9275 H   0  0  0  0  0  0  0  0  0  0  0  0
  150.1662  139.8577  153.0286 H   0  0  0  0  0  0  0  0  0  0  0  0
  148.4458  140.3306  155.1365 H   0  0  0  0  0  0  0  0  0  0  0  0
  149.5301  141.5779  154.3862 H   0  0  0  0  0  0  0  0  0  0  0  0
  1  2  1  0  0  0  0
  1 13  1  0  0  0  0
  1 14  1  0  0  0  0
  1 15  1  0  0  0  0
  2  3  1  0  0  0  0
  2  4  1  0  0  0  0
  2 16  1  0  0  0  0
  3 17  1  0  0  0  0
  4 12  1  0  0  0  0
  4  5  2  0  0  0  0
  5  6  1  0  0  0  0
  5 18  1  0  0  0  0
  6  7  1  0  0  0  0
  6 11  1  0  0  0  0
  7 10  1  0  0  0  0
  7  8  1  0  0  0  0
  7 19  1  0  0  0  0
  8  9  1  0  0  0  0
  8 20  1  0  0  0  0
  8 21  1  0  0  0  0
  9 10  1  0  0  0  0
  9 22  1  0  0  0  0
 10 23  1  0  0  0  0
 10 24  1  0  0  0  0
 11 12  2  0  0  0  0
M  END
> <s_m_source_file>
AV-unprocessed.smi

> <i_m_source_file_index>
2514

> <i_lp_mmshare_version>
43012

> <i_f3d_flags>
0

> <s_epik_input>
W0NIM11bQ0BIXShbT0hdKWMxW2NIXW4obm4xKVtDSF0yW0NIMl1bTkhdW0NIMl0y

> <s_epik_cmdline>
J2VwaWtfcHl0aG9uJywgJy1waCcsICc3LjAnLCAnLXRuJywgJzgnLCAnLW1hJywgJzIwMCcsICctbWV0YWxfYmluZGluZycsICctaW1hZScsICc8aW5maWxlLm1hZT4nLCAnLW9tYWUnLCAnPG91dGZpbGUubWFlPic=

> <r_lp_tautomer_probability>
1

> <r_epik_Ionization_Penalty>
0.704859

> <r_epik_Ionization_Penalty_Charging>
0

> <r_epik_Ionization_Penalty_Neutral>
0.704859

> <r_epik_State_Penalty>
0.727806

> <r_epik_Charging_Adjusted_Penalty>
0.727806

> <i_epik_Tot_Q>
0

> <i_epik_Tot_abs_Q>
0

> <r_epik_Metal_State_Penalty>
0.727738

> <b_epik_Metal_Only>
0

> <s_lp_Force_Field>
OPLS_2005

> <r_lp_Energy>
11.6004

> <b_lp_Chiralities_Consistent>
1

> <s_lp_Variant>
AV-unprocessed.smi:2514-3

> <Gold.Version>
5.8.1

> <Gold.Id.Protein>
6NUR|6NUR_protein|mol2

> <Gold.PLP.Fitness>
33.5631

> <Gold.PLP.PLP>
-24.5711

> <Gold.PLP.part.hbond>
-3.0033

> <Gold.PLP.part.metal>
0.0000

> <Gold.PLP.part.buried>
1.1914

> <Gold.PLP.part.nonpolar>
-23.1369

> <Gold.PLP.part.repulsive>
0.0000

> <Gold.PLP.ligand.clash>
0.0000

> <Gold.PLP.ligand.torsion>
0.1263

> <Gold.PLP.Chemscore.Hbond>
2.0000

> <Gold.PLP.Chemscore.CHOScore>
1.0000

> <Gold.PLP.Chemscore.Metal>
0.0000

> <Gold.Chemscore.Hbonds>
donor molecule, donor type, donor heavy atom, donor atom, acceptor molecule, acceptor atom, score
      L1  H     3    17       P1  8029  0.83
      L1  H     9    22       P1  7957  1.00
      L1  C     5    18       P1  8028  0.99

> <Gold.PLP.Chemscore.Internal.Correction>
0.2446

> <Gold.Rescore>
     Score         DG    S(hbond)    S(metal)    S(lipo)     H(rot)  DE(clash)    DE(int)     intcor
     11.56     -13.45       1.49        0.00      64.69       1.78       1.75       0.15       ----

> <Gold.Chemscore.Fitness>
11.5580

> <Gold.Chemscore.DG>
-13.4515

> <Gold.Chemscore.ZeroCoef>
-5.4800

> <Gold.Chemscore.Hbond>
1.4867

> <Gold.Chemscore.Metal>
0.0000

> <Gold.Chemscore.Lipo>
64.6904

> <Gold.Chemscore.Internal_Hbond>
0.0000

> <Gold.Chemscore.DEClash>
1.7482

> <Gold.Chemscore.DEInternal>
0.1453

> <Gold.Chemscore.Rot>
1.7823

> <Gold.Chemscore.Internal.Correction>
   9.000000E+99

> <Gold.Chemscore.Hbonds>
donor molecule, donor type, donor heavy atom, donor atom, acceptor molecule, acceptor atom, score
      L1  H     3    17       P1  8029  0.32
      L1  H     9    22       P1  7957  0.98

> <Gold.Chemscore.Hbond.Weighted>
-4.9655

> <Gold.Chemscore.Metal.Weighted>
-0.0000

> <Gold.Chemscore.Lipo.Weighted>
-7.5688

> <Gold.Chemscore.Internal_Hbond.Weighted>
0.0000

> <Gold.Chemscore.DEClash.Weighted>
1.7482

> <Gold.Chemscore.DEInternal.Weighted>
0.1453

> <Gold.Chemscore.Rot.Weighted>
4.5627

> <Gold.Chemscore.Internal.Correction.Weighted>
   9.000000E+99

> <Gold.Protein.RotatedTorsions>
[ 6907 6896 6895 6894 ] final -135.06 input  -60.11 | X-H torsion
[ 7974 7965 7964 7962 ] final -106.91 input  175.53 | X-H torsion
[ 8008 7997 7996 7995 ] final  100.60 input   59.86 | X-H torsion
[ 10167 10162 10161 10158 ] final -161.30 input  -65.29 | X-H torsion
[ 10718 10713 10712 10709 ] final  -68.91 input   66.30 | X-H torsion
[ 10763 10752 10751 10750 ] final  -54.55 input  -60.55 | X-H torsion
[ 11005 11000 10999 10996 ] final  146.80 input  -57.11 | X-H torsion

> <Gold.Protein.ActiveResidues>
 VAL166  LYS551  ARG553  GLY616  TRP617  ASP618  TYR619  PRO620  LYS621  CYS622 
 ASP623  PHE694  ASN695  SER759  ASP760  ASP761  ALA762  ILE779  LEU786  VAL792 
 PHE793  MET794  SER795  GLU796  ALA797  LYS798  CYS799  TRP800  GLU811  SER814 

> <Gold.Protein.RotatedAtoms>
  150.9933  133.6128  159.2704 H   0  0  0  0  0  0  0  0  0  0  0  0  # atno 6907 bound_to 6896
  151.3341  135.0847  159.9358 H   0  0  0  0  0  0  0  0  0  0  0  0  # atno 6908 bound_to 6896
  152.5252  133.9557  159.7747 H   0  0  0  0  0  0  0  0  0  0  0  0  # atno 6909 bound_to 6896
  145.2120  140.9100  143.3309 H   0  0  0  0  0  0  0  0  0  0  0  0  # atno 7974 bound_to 7965
  156.1219  140.3210  155.8221 H   0  0  0  0  0  0  0  0  0  0  0  0  # atno 8008 bound_to 7997
  155.4489  140.0531  157.3020 H   0  0  0  0  0  0  0  0  0  0  0  0  # atno 8009 bound_to 7997
  154.4834  140.2062  155.9725 H   0  0  0  0  0  0  0  0  0  0  0  0  # atno 8010 bound_to 7997
  139.6476  144.0144  152.2138 H   0  0  0  0  0  0  0  0  0  0  0  0  # atno 10167 bound_to 10162
  156.0481  130.4303  150.2070 H   0  0  0  0  0  0  0  0  0  0  0  0  # atno 10718 bound_to 10713
  154.1767  135.6450  153.5023 H   0  0  0  0  0  0  0  0  0  0  0  0  # atno 10763 bound_to 10752
  153.0070  135.5396  154.6556 H   0  0  0  0  0  0  0  0  0  0  0  0  # atno 10764 bound_to 10752
  154.5910  135.2934  155.0608 H   0  0  0  0  0  0  0  0  0  0  0  0  # atno 10765 bound_to 10752
  140.0823  134.9090  157.1521 H   0  0  0  0  0  0  0  0  0  0  0  0  # atno 11005 bound_to 11000
  144.9847  139.3748  143.6244 LP  0  0  0  0  0  0  0  0  0  0  0  0  # atno 17320 bound_to 7965
  146.3395  139.9003  142.8795 LP  0  0  0  0  0  0  0  0  0  0  0  0  # atno 17321 bound_to 7965
  139.9850  144.6402  150.7866 LP  0  0  0  0  0  0  0  0  0  0  0  0  # atno 17342 bound_to 10162
  140.7522  143.2986  151.3140 LP  0  0  0  0  0  0  0  0  0  0  0  0  # atno 17343 bound_to 10162
  157.0157  130.9964  151.3353 LP  0  0  0  0  0  0  0  0  0  0  0  0  # atno 17370 bound_to 10713
  157.5379  130.8101  149.7994 LP  0  0  0  0  0  0  0  0  0  0  0  0  # atno 17371 bound_to 10713
  140.3470  134.2641  155.7204 LP  0  0  0  0  0  0  0  0  0  0  0  0  # atno 17394 bound_to 11000
  141.2051  133.7869  157.0252 LP  0  0  0  0  0  0  0  0  0  0  0  0  # atno 17395 bound_to 11000

$$$$
