AV-unprocessed.smi:1466|AV-procd|sdf|5953|dock2
  -GOLD-   22720 6 33D 1   1.00000     0.00000
 Structure written by MMmdl.
 49 50  0  0  0  0  0  0  0  0  2 V2000
  144.4116  132.2762  149.9304 C   0  0  0  0  0  0  0  0  0  0  0  0
  145.1134  132.7440  151.1182 N   0  0  0  0  0  0  0  0  0  0  0  0
  145.7391  131.7903  152.0275 C   0  0  0  0  0  0  0  0  0  0  0  0
  145.1950  134.1274  151.3868 C   0  0  0  0  0  0  0  0  0  0  0  0
  144.7449  135.1205  150.4824 C   0  0  0  0  0  0  0  0  0  0  0  0
  144.8609  136.4851  150.8190 C   0  0  0  0  0  0  0  0  0  0  0  0
  145.4376  136.8527  152.0591 C   0  0  0  0  0  0  0  0  0  0  0  0
  145.5885  138.1954  152.4997 N   0  0  0  0  0  0  0  0  0  0  0  0
  146.4911  138.6938  153.3622 C   0  0  0  0  0  0  0  0  0  0  0  0
  147.3593  138.0392  153.9388 O   0  0  0  0  0  0  0  0  0  0  0  0
  146.3178  140.0110  153.5411 N   0  0  0  0  0  0  0  0  0  0  0  0
  147.1190  140.8433  154.4310 C   0  0  0  0  0  0  0  0  0  0  0  0
  148.6221  140.7144  154.1218 C   0  0  0  0  0  0  0  0  0  0  0  0
  149.4335  140.8509  155.3367 N   0  0  0  0  0  0  0  0  0  0  0  0
  148.8536  141.6703  156.4122 C   0  0  0  0  0  0  0  0  0  0  0  0
  148.4023  140.8521  157.6440 C   0  0  0  0  0  0  0  0  0  0  0  0
  149.2017  139.5670  157.9373 C   0  0  0  0  0  0  0  0  0  0  0  0
  150.7326  139.7497  158.0057 C   0  0  0  0  0  0  0  0  0  0  0  0
  151.4069  140.4137  156.7809 C   0  0  0  0  0  0  0  0  0  0  0  0
  150.6393  140.2437  155.4596 C   0  0  0  0  0  0  0  0  0  0  0  0
  151.1433  139.5657  154.5636 O   0  0  0  0  0  0  0  0  0  0  0  0
  145.8544  135.8262  152.9298 C   0  0  0  0  0  0  0  0  0  0  0  0
  145.7248  134.5319  152.5672 N   0  3  0  0  0  0  0  0  0  0  0  0
  144.8482  132.7099  149.0302 H   0  0  0  0  0  0  0  0  0  0  0  0
  143.3577  132.5519  149.9756 H   0  0  0  0  0  0  0  0  0  0  0  0
  144.4688  131.1916  149.8377 H   0  0  0  0  0  0  0  0  0  0  0  0
  146.8178  131.9453  152.0611 H   0  0  0  0  0  0  0  0  0  0  0  0
  145.5586  130.7629  151.7106 H   0  0  0  0  0  0  0  0  0  0  0  0
  145.3398  131.9021  153.0362 H   0  0  0  0  0  0  0  0  0  0  0  0
  144.3048  134.8594  149.5320 H   0  0  0  0  0  0  0  0  0  0  0  0
  144.4915  137.2209  150.1216 H   0  0  0  0  0  0  0  0  0  0  0  0
  144.8873  138.8423  152.1697 H   0  0  0  0  0  0  0  0  0  0  0  0
  145.5779  140.4713  153.0311 H   0  0  0  0  0  0  0  0  0  0  0  0
  146.7933  141.8827  154.3606 H   0  0  0  0  0  0  0  0  0  0  0  0
  146.9233  140.5274  155.4559 H   0  0  0  0  0  0  0  0  0  0  0  0
  148.8218  139.7564  153.6396 H   0  0  0  0  0  0  0  0  0  0  0  0
  148.9239  141.4674  153.3913 H   0  0  0  0  0  0  0  0  0  0  0  0
  149.5795  142.4241  156.7177 H   0  0  0  0  0  0  0  0  0  0  0  0
  148.0102  142.2553  156.0430 H   0  0  0  0  0  0  0  0  0  0  0  0
  148.4178  141.5002  158.5210 H   0  0  0  0  0  0  0  0  0  0  0  0
  147.3583  140.5683  157.5074 H   0  0  0  0  0  0  0  0  0  0  0  0
  148.8553  139.1470  158.8821 H   0  0  0  0  0  0  0  0  0  0  0  0
  148.9589  138.8119  157.1884 H   0  0  0  0  0  0  0  0  0  0  0  0
  150.9791  140.3312  158.8945 H   0  0  0  0  0  0  0  0  0  0  0  0
  151.1849  138.7702  158.1648 H   0  0  0  0  0  0  0  0  0  0  0  0
  151.5568  141.4768  156.9665 H   0  0  0  0  0  0  0  0  0  0  0  0
  152.4128  140.0083  156.6637 H   0  0  0  0  0  0  0  0  0  0  0  0
  146.2938  135.9984  153.9019 H   0  0  0  0  0  0  0  0  0  0  0  0
  146.0451  133.8170  153.2206 H   0  0  0  0  0  0  0  0  0  0  0  0
  1  2  1  0  0  0  0
  1 24  1  0  0  0  0
  1 25  1  0  0  0  0
  1 26  1  0  0  0  0
  2  3  1  0  0  0  0
  2  4  1  0  0  0  0
  3 27  1  0  0  0  0
  3 28  1  0  0  0  0
  3 29  1  0  0  0  0
  4 23  1  0  0  0  0
  4  5  2  0  0  0  0
  5  6  1  0  0  0  0
  5 30  1  0  0  0  0
  6  7  2  0  0  0  0
  6 31  1  0  0  0  0
  7  8  1  0  0  0  0
  7 22  1  0  0  0  0
  8  9  1  0  0  0  0
  8 32  1  0  0  0  0
  9 10  2  0  0  0  0
  9 11  1  0  0  0  0
 11 12  1  0  0  0  0
 11 33  1  0  0  0  0
 12 13  1  0  0  0  0
 12 34  1  0  0  0  0
 12 35  1  0  0  0  0
 13 14  1  0  0  0  0
 13 36  1  0  0  0  0
 13 37  1  0  0  0  0
 14 20  1  0  0  0  0
 14 15  1  0  0  0  0
 15 16  1  0  0  0  0
 15 38  1  0  0  0  0
 15 39  1  0  0  0  0
 16 17  1  0  0  0  0
 16 40  1  0  0  0  0
 16 41  1  0  0  0  0
 17 18  1  0  0  0  0
 17 42  1  0  0  0  0
 17 43  1  0  0  0  0
 18 19  1  0  0  0  0
 18 44  1  0  0  0  0
 18 45  1  0  0  0  0
 19 20  1  0  0  0  0
 19 46  1  0  0  0  0
 19 47  1  0  0  0  0
 20 21  2  0  0  0  0
 22 23  2  0  0  0  0
 22 48  1  0  0  0  0
 23 49  1  0  0  0  0
M  CHG  1  23   1
M  END
> <s_m_source_file>
AV-unprocessed.smi

> <i_m_source_file_index>
1466

> <i_lp_mmshare_version>
43012

> <i_f3d_flags>
0

> <s_epik_input>
W0NIM11OKFtDSDNdKWMxW2NIXVtjSF1jKFtjSF1uMSlbTkhdQyg9TylbTkhdW0NIMl1bQ0gyXU4yW0NIMl1bQ0gyXVtDSDJdW0NIMl1bQ0gyXUMyPU8=

> <s_epik_cmdline>
J2VwaWtfcHl0aG9uJywgJy1waCcsICc3LjAnLCAnLXRuJywgJzgnLCAnLW1hJywgJzIwMCcsICctbWV0YWxfYmluZGluZycsICctaW1hZScsICc8aW5maWxlLm1hZT4nLCAnLW9tYWUnLCAnPG91dGZpbGUubWFlPic=

> <r_lp_tautomer_probability>
0.999994

> <r_epik_Ionization_Penalty>
0.269687

> <r_epik_Ionization_Penalty_Charging>
0.269668

> <r_epik_Ionization_Penalty_Neutral>
1.89217e-05

> <r_epik_State_Penalty>
0.261755

> <r_epik_Charging_Adjusted_Penalty>
0.531423

> <i_epik_Tot_Q>
1

> <i_epik_Tot_abs_Q>
1

> <r_epik_Metal_State_Penalty>
0.546954

> <b_epik_Metal_Only>
0

> <s_lp_Force_Field>
OPLS_2005

> <r_lp_Energy>
31.5815

> <b_lp_Chiralities_Consistent>
1

> <s_lp_Variant>
AV-unprocessed.smi:1466-1

> <Gold.Version>
5.8.1

> <Gold.Id.Protein>
6NUR|6NUR_protein|mol2

> <Gold.PLP.Fitness>
42.5840

> <Gold.PLP.PLP>
-35.1008

> <Gold.PLP.part.hbond>
-3.3631

> <Gold.PLP.part.metal>
0.0000

> <Gold.PLP.part.buried>
1.6510

> <Gold.PLP.part.nonpolar>
-32.5877

> <Gold.PLP.part.repulsive>
0.2915

> <Gold.PLP.ligand.clash>
0.0000

> <Gold.PLP.ligand.torsion>
0.7793

> <Gold.PLP.Chemscore.Hbond>
3.0000

> <Gold.PLP.Chemscore.CHOScore>
0.0000

> <Gold.PLP.Chemscore.Metal>
0.0000

> <Gold.Chemscore.Hbonds>
donor molecule, donor type, donor heavy atom, donor atom, acceptor molecule, acceptor atom, score
      L1  H     8    32       P1 10175  0.99
      L1  H    11    33       P1 10175  0.98
      P1  H  7989  7998       L1    21  0.95

> <Gold.PLP.Chemscore.Internal.Correction>
0.0417

> <Gold.Rescore>
     Score         DG    S(hbond)    S(metal)    S(lipo)     H(rot)  DE(clash)    DE(int)     intcor
     14.48     -19.37       2.94        0.00      67.84       1.50       1.63       3.26       ----

> <Gold.Chemscore.Fitness>
14.4837

> <Gold.Chemscore.DG>
-19.3745

> <Gold.Chemscore.ZeroCoef>
-5.4800

> <Gold.Chemscore.Hbond>
2.9371

> <Gold.Chemscore.Metal>
0.0000

> <Gold.Chemscore.Lipo>
67.8369

> <Gold.Chemscore.Internal_Hbond>
0.0000

> <Gold.Chemscore.DEClash>
1.6289

> <Gold.Chemscore.DEInternal>
3.2619

> <Gold.Chemscore.Rot>
1.5047

> <Gold.Chemscore.Internal.Correction>
   9.000000E+99

> <Gold.Chemscore.Hbonds>
donor molecule, donor type, donor heavy atom, donor atom, acceptor molecule, acceptor atom, score
      L1  H     8    32       P1 10175  0.89
      L1  H    11    33       P1 10175  0.81
      P1  H  7989  7998       L1    21  0.22

> <Gold.Chemscore.Hbond.Weighted>
-9.8098

> <Gold.Chemscore.Metal.Weighted>
-0.0000

> <Gold.Chemscore.Lipo.Weighted>
-7.9369

> <Gold.Chemscore.Internal_Hbond.Weighted>
0.0000

> <Gold.Chemscore.DEClash.Weighted>
1.6289

> <Gold.Chemscore.DEInternal.Weighted>
3.2619

> <Gold.Chemscore.Rot.Weighted>
3.8522

> <Gold.Chemscore.Internal.Correction.Weighted>
   9.000000E+99

> <Gold.Protein.RotatedTorsions>
[ 6907 6896 6895 6894 ] final  145.48 input  -60.11 | X-H torsion
[ 7974 7965 7964 7962 ] final  -96.81 input  175.53 | X-H torsion
[ 8008 7997 7996 7995 ] final -155.53 input   59.86 | X-H torsion
[ 10167 10162 10161 10158 ] final  178.73 input  -65.29 | X-H torsion
[ 10718 10713 10712 10709 ] final  -80.37 input   66.30 | X-H torsion
[ 10763 10752 10751 10750 ] final -170.61 input  -60.55 | X-H torsion
[ 11005 11000 10999 10996 ] final -163.87 input  -57.11 | X-H torsion

> <Gold.Protein.ActiveResidues>
 VAL166  LYS551  ARG553  GLY616  TRP617  ASP618  TYR619  PRO620  LYS621  CYS622 
 ASP623  PHE694  ASN695  SER759  ASP760  ASP761  ALA762  ILE779  LEU786  VAL792 
 PHE793  MET794  SER795  GLU796  ALA797  LYS798  CYS799  TRP800  GLU811  SER814 

> <Gold.Protein.RotatedAtoms>
  152.1803  133.4703  159.4954 H   0  0  0  0  0  0  0  0  0  0  0  0  # atno 6907 bound_to 6896
  150.6933  134.1842  159.4269 H   0  0  0  0  0  0  0  0  0  0  0  0  # atno 6908 bound_to 6896
  151.9752  135.0056  160.0605 H   0  0  0  0  0  0  0  0  0  0  0  0  # atno 6909 bound_to 6896
  145.3420  140.9461  143.2603 H   0  0  0  0  0  0  0  0  0  0  0  0  # atno 7974 bound_to 7965
  155.7032  140.0769  157.2401 H   0  0  0  0  0  0  0  0  0  0  0  0  # atno 8008 bound_to 7997
  154.4070  140.1643  156.2267 H   0  0  0  0  0  0  0  0  0  0  0  0  # atno 8009 bound_to 7997
  155.9349  140.3388  155.6282 H   0  0  0  0  0  0  0  0  0  0  0  0  # atno 8010 bound_to 7997
  139.5306  144.2645  152.0679 H   0  0  0  0  0  0  0  0  0  0  0  0  # atno 10167 bound_to 10162
  156.0072  130.4572  150.3790 H   0  0  0  0  0  0  0  0  0  0  0  0  # atno 10718 bound_to 10713
  154.6396  135.2897  155.0119 H   0  0  0  0  0  0  0  0  0  0  0  0  # atno 10763 bound_to 10752
  154.1250  135.6542  153.4914 H   0  0  0  0  0  0  0  0  0  0  0  0  # atno 10764 bound_to 10752
  153.0320  135.5297  154.7258 H   0  0  0  0  0  0  0  0  0  0  0  0  # atno 10765 bound_to 10752
  140.5932  134.5023  157.5196 H   0  0  0  0  0  0  0  0  0  0  0  0  # atno 11005 bound_to 11000
  144.8783  139.4940  143.6735 LP  0  0  0  0  0  0  0  0  0  0  0  0  # atno 17320 bound_to 7965
  146.3003  139.7407  142.9096 LP  0  0  0  0  0  0  0  0  0  0  0  0  # atno 17321 bound_to 7965
  140.2108  144.4565  150.6387 LP  0  0  0  0  0  0  0  0  0  0  0  0  # atno 17342 bound_to 10162
  140.6482  143.2218  151.6138 LP  0  0  0  0  0  0  0  0  0  0  0  0  # atno 17343 bound_to 10162
  157.1870  131.0406  151.2719 LP  0  0  0  0  0  0  0  0  0  0  0  0  # atno 17370 bound_to 10713
  157.4095  130.7377  149.6828 LP  0  0  0  0  0  0  0  0  0  0  0  0  # atno 17371 bound_to 10713
  139.9265  134.8047  156.1055 LP  0  0  0  0  0  0  0  0  0  0  0  0  # atno 17394 bound_to 11000
  141.0921  133.6710  156.2563 LP  0  0  0  0  0  0  0  0  0  0  0  0  # atno 17395 bound_to 11000

$$$$
