AV-unprocessed.smi:464|AV-procd|sdf|2638|dock7
  -GOLD-   2262023 43D 1   1.00000     0.00000
 Structure written by MMmdl.
 24 25  0  0  0  0  0  0  0  0  2 V2000
  150.1036  140.6134  154.8215 O   0  0  0  0  0  0  0  0  0  0  0  0
  150.6746  141.0590  155.8143 C   0  0  0  0  0  0  0  0  0  0  0  0
  150.3719  142.3195  156.1944 N   0  0  0  0  0  0  0  0  0  0  0  0
  150.9691  142.9144  157.3074 C   0  0  0  0  0  0  0  0  0  0  0  0
  151.8776  142.2518  158.0533 C   0  0  0  0  0  0  0  0  0  0  0  0
  152.4906  142.8162  159.1619 N   0  0  0  0  0  0  0  0  0  0  0  0
  152.8427  142.0549  160.3521 C   0  0  0  0  0  0  0  0  0  0  0  0
  152.0784  142.5968  161.5732 C   0  0  0  0  0  0  0  0  0  0  0  0
  152.3352  143.9913  161.7169 O   0  0  0  0  0  0  0  0  0  0  0  0
  151.9078  144.7352  160.5789 C   0  0  0  0  0  0  0  0  0  0  0  0
  152.6679  144.2515  159.3309 C   0  0  0  0  0  0  0  0  0  0  0  0
  152.2160  140.8766  157.6540 C   0  0  0  0  0  0  0  0  0  0  0  0
  153.0368  140.2299  158.3052 O   0  0  0  0  0  0  0  0  0  0  0  0
  151.5912  140.3603  156.5521 N   0  5  0  0  0  0  0  0  0  0  0  0
  149.6995  142.8588  155.6686 H   0  0  0  0  0  0  0  0  0  0  0  0
  150.6414  143.9249  157.5008 H   0  0  0  0  0  0  0  0  0  0  0  0
  152.6164  140.9979  160.2060 H   0  0  0  0  0  0  0  0  0  0  0  0
  153.9182  142.1293  160.5159 H   0  0  0  0  0  0  0  0  0  0  0  0
  151.0062  142.4221  161.4720 H   0  0  0  0  0  0  0  0  0  0  0  0
  152.4002  142.0808  162.4778 H   0  0  0  0  0  0  0  0  0  0  0  0
  150.8301  144.6286  160.4452 H   0  0  0  0  0  0  0  0  0  0  0  0
  152.1035  145.7934  160.7522 H   0  0  0  0  0  0  0  0  0  0  0  0
  153.7321  144.4694  159.4280 H   0  0  0  0  0  0  0  0  0  0  0  0
  152.3144  144.7833  158.4465 H   0  0  0  0  0  0  0  0  0  0  0  0
  1  2  2  0  0  0  0
  2 14  1  0  0  0  0
  2  3  1  0  0  0  0
  3 15  1  0  0  0  0
  3  4  1  0  0  0  0
  4  5  2  0  0  0  0
  4 16  1  0  0  0  0
  5  6  1  0  0  0  0
  5 12  1  0  0  0  0
  6 11  1  0  0  0  0
  6  7  1  0  0  0  0
  7  8  1  0  0  0  0
  7 17  1  0  0  0  0
  7 18  1  0  0  0  0
  8  9  1  0  0  0  0
  8 19  1  0  0  0  0
  8 20  1  0  0  0  0
  9 10  1  0  0  0  0
 10 11  1  0  0  0  0
 10 21  1  0  0  0  0
 10 22  1  0  0  0  0
 11 23  1  0  0  0  0
 11 24  1  0  0  0  0
 12 13  2  0  0  0  0
 12 14  1  0  0  0  0
M  CHG  1  14  -1
M  END
> <s_m_source_file>
AV-unprocessed.smi

> <i_m_source_file_index>
464

> <i_lp_mmshare_version>
43012

> <i_f3d_flags>
0

> <s_epik_input>
Tz1jMVtuSF1bY0hdYyhjKD1PKVtuSF0xKU4yW0NIMl1bQ0gyXU9bQ0gyXVtDSDJdMg==

> <s_epik_cmdline>
J2VwaWtfcHl0aG9uJywgJy1waCcsICc3LjAnLCAnLXRuJywgJzgnLCAnLW1hJywgJzIwMCcsICctbWV0YWxfYmluZGluZycsICctaW1hZScsICc8aW5maWxlLm1hZT4nLCAnLW9tYWUnLCAnPG91dGZpbGUubWFlPic=

> <r_lp_tautomer_probability>
0.999801

> <r_epik_Ionization_Penalty>
3.03283

> <r_epik_Ionization_Penalty_Charging>
1.33068e-05

> <r_epik_Ionization_Penalty_Neutral>
3.03282

> <r_epik_State_Penalty>
3.03418

> <r_epik_Charging_Adjusted_Penalty>
3.03419

> <i_epik_Tot_Q>
-1

> <i_epik_Tot_abs_Q>
1

> <r_epik_Metal_State_Penalty>
0.478531

> <b_epik_Metal_Only>
1

> <s_lp_Force_Field>
OPLS_2005

> <r_lp_Energy>
27.0677

> <b_lp_Chiralities_Consistent>
1

> <s_lp_Variant>
AV-unprocessed.smi:464-3

> <Gold.Version>
5.8.1

> <Gold.Id.Protein>
6NUR|6NUR_protein|mol2

> <Gold.PLP.Fitness>
38.8691

> <Gold.PLP.PLP>
-29.8550

> <Gold.PLP.part.hbond>
-3.0000

> <Gold.PLP.part.metal>
0.0000

> <Gold.PLP.part.buried>
-2.3517

> <Gold.PLP.part.nonpolar>
-23.9914

> <Gold.PLP.part.repulsive>
0.3618

> <Gold.PLP.ligand.clash>
0.0265

> <Gold.PLP.ligand.torsion>
0.3909

> <Gold.PLP.Chemscore.Hbond>
2.5520

> <Gold.PLP.Chemscore.CHOScore>
0.4600

> <Gold.PLP.Chemscore.Metal>
0.0000

> <Gold.Chemscore.Hbonds>
donor molecule, donor type, donor heavy atom, donor atom, acceptor molecule, acceptor atom, score
      L1  H     3    15       P1  8028  0.78
      P1  H  7989  7998       L1     1  0.79
      P1  H  7997  8008       L1    13  0.96
      L1  C     4    16       P1  8028  0.46

> <Gold.PLP.Chemscore.Internal.Correction>
0.7863

> <Gold.Rescore>
     Score         DG    S(hbond)    S(metal)    S(lipo)     H(rot)  DE(clash)    DE(int)     intcor
     17.63     -19.67       1.91        0.00      66.77       0.00       0.19       1.85       ----

> <Gold.Chemscore.Fitness>
17.6277

> <Gold.Chemscore.DG>
-19.6739

> <Gold.Chemscore.ZeroCoef>
-5.4800

> <Gold.Chemscore.Hbond>
1.9106

> <Gold.Chemscore.Metal>
0.0000

> <Gold.Chemscore.Lipo>
66.7732

> <Gold.Chemscore.Internal_Hbond>
0.0000

> <Gold.Chemscore.DEClash>
0.1916

> <Gold.Chemscore.DEInternal>
1.8546

> <Gold.Chemscore.Rot>
0.0000

> <Gold.Chemscore.Internal.Correction>
   9.000000E+99

> <Gold.Chemscore.Hbonds>
donor molecule, donor type, donor heavy atom, donor atom, acceptor molecule, acceptor atom, score
      L1  H     3    15       P1  8028  0.74
      P1  H  7989  7998       L1     1  0.14
      P1  H  7997  8008       L1    13  0.35

> <Gold.Chemscore.Hbond.Weighted>
-6.3814

> <Gold.Chemscore.Metal.Weighted>
-0.0000

> <Gold.Chemscore.Lipo.Weighted>
-7.8125

> <Gold.Chemscore.Internal_Hbond.Weighted>
0.0000

> <Gold.Chemscore.DEClash.Weighted>
0.1916

> <Gold.Chemscore.DEInternal.Weighted>
1.8546

> <Gold.Chemscore.Rot.Weighted>
0.0000

> <Gold.Chemscore.Internal.Correction.Weighted>
   9.000000E+99

> <Gold.Protein.RotatedTorsions>
[ 6907 6896 6895 6894 ] final  146.32 input  -60.11 | X-H torsion
[ 7974 7965 7964 7962 ] final  143.91 input  175.53 | X-H torsion
[ 8008 7997 7996 7995 ] final  -86.28 input   59.86 | X-H torsion
[ 10167 10162 10161 10158 ] final  115.63 input  -65.29 | X-H torsion
[ 10718 10713 10712 10709 ] final -169.84 input   66.30 | X-H torsion
[ 10763 10752 10751 10750 ] final   -4.27 input  -60.55 | X-H torsion
[ 11005 11000 10999 10996 ] final  -93.73 input  -57.11 | X-H torsion

> <Gold.Protein.ActiveResidues>
 VAL166  LYS551  ARG553  GLY616  TRP617  ASP618  TYR619  PRO620  LYS621  CYS622 
 ASP623  PHE694  ASN695  SER759  ASP760  ASP761  ALA762  ILE779  LEU786  VAL792 
 PHE793  MET794  SER795  GLU796  ALA797  LYS798  CYS799  TRP800  GLU811  SER814 

> <Gold.Protein.RotatedAtoms>
  152.1694  133.4633  159.4900 H   0  0  0  0  0  0  0  0  0  0  0  0  # atno 6907 bound_to 6896
  150.6917  134.1972  159.4317 H   0  0  0  0  0  0  0  0  0  0  0  0  # atno 6908 bound_to 6896
  151.9878  134.9994  160.0611 H   0  0  0  0  0  0  0  0  0  0  0  0  # atno 6909 bound_to 6896
  144.8880  139.5600  143.5812 H   0  0  0  0  0  0  0  0  0  0  0  0  # atno 7974 bound_to 7965
  154.6501  140.0580  156.9945 H   0  0  0  0  0  0  0  0  0  0  0  0  # atno 8008 bound_to 7997
  155.1385  140.3263  155.4439 H   0  0  0  0  0  0  0  0  0  0  0  0  # atno 8009 bound_to 7997
  156.2572  140.1968  156.6501 H   0  0  0  0  0  0  0  0  0  0  0  0  # atno 8010 bound_to 7997
  139.6304  144.7114  151.2445 H   0  0  0  0  0  0  0  0  0  0  0  0  # atno 10167 bound_to 10162
  156.7174  130.9257  151.3094 H   0  0  0  0  0  0  0  0  0  0  0  0  # atno 10718 bound_to 10713
  153.3826  135.6999  153.6554 H   0  0  0  0  0  0  0  0  0  0  0  0  # atno 10763 bound_to 10752
  153.5159  135.3622  155.2609 H   0  0  0  0  0  0  0  0  0  0  0  0  # atno 10764 bound_to 10752
  154.8694  135.4146  154.3127 H   0  0  0  0  0  0  0  0  0  0  0  0  # atno 10765 bound_to 10752
  141.1489  133.7908  157.0201 H   0  0  0  0  0  0  0  0  0  0  0  0  # atno 11005 bound_to 11000
  146.3036  139.7507  142.9073 LP  0  0  0  0  0  0  0  0  0  0  0  0  # atno 17320 bound_to 7965
  145.3834  141.0361  143.3165 LP  0  0  0  0  0  0  0  0  0  0  0  0  # atno 17321 bound_to 7965
  140.7435  143.6491  150.8265 LP  0  0  0  0  0  0  0  0  0  0  0  0  # atno 17342 bound_to 10162
  140.0115  143.5637  152.2837 LP  0  0  0  0  0  0  0  0  0  0  0  0  # atno 17343 bound_to 10162
  157.6912  130.9235  150.0518 LP  0  0  0  0  0  0  0  0  0  0  0  0  # atno 17370 bound_to 10713
  156.1618  130.3644  149.9288 LP  0  0  0  0  0  0  0  0  0  0  0  0  # atno 17371 bound_to 10713
  140.0821  134.9642  157.1642 LP  0  0  0  0  0  0  0  0  0  0  0  0  # atno 17394 bound_to 11000
  140.3562  134.2545  155.7192 LP  0  0  0  0  0  0  0  0  0  0  0  0  # atno 17395 bound_to 11000

$$$$
