AV-unprocessed.smi:3331|AV-procd|sdf|12819|dock3
  -GOLD-   2272019193D 1   1.00000     0.00000
 Structure written by MMmdl.
 47 48  0  0  0  0  0  0  0  0  2 V2000
  146.1748  140.7459  154.7289 C   0  0  0  0  0  0  0  0  0  0  0  0
  147.3367  140.9404  153.7386 C   0  0  1  0  0  0  0  0  0  0  0  0
  148.5308  141.6831  154.3784 C   0  0  0  0  0  0  0  0  0  0  0  0
  149.3739  140.7791  155.3059 C   0  0  2  0  0  0  0  0  0  0  0  0
  150.6232  141.5098  155.8170 C   0  0  0  0  0  0  0  0  0  0  0  0
  149.7395  139.4654  154.5842 C   0  0  0  0  0  0  0  0  0  0  0  0
  148.5081  138.8041  154.1294 N   0  0  0  0  0  0  0  0  0  0  0  0
  148.0686  137.6354  154.6634 C   0  0  0  0  0  0  0  0  0  0  0  0
  148.7146  137.0292  155.5196 O   0  0  0  0  0  0  0  0  0  0  0  0
  146.7385  137.0229  154.1794 C   0  0  2  0  0  0  0  0  0  0  0  0
  145.6590  137.0402  155.2827 C   0  0  0  0  0  0  0  0  0  0  0  0
  146.9792  135.6460  153.6925 N   0  3  0  0  0  0  0  0  0  0  0  0
  145.8921  135.0601  152.8825 C   0  0  0  0  0  0  0  0  0  0  0  0
  146.0739  133.5416  152.7460 C   0  0  0  0  0  0  0  0  0  0  0  0
  145.2895  132.9982  151.6540 N   0  0  0  0  0  0  0  0  0  0  0  0
  145.7333  132.3684  150.5103 C   0  0  0  0  0  0  0  0  0  0  0  0
  144.6312  132.0388  149.7749 C   0  0  0  0  0  0  0  0  0  0  0  0
  143.5453  132.5205  150.5580 C   0  0  0  0  0  0  0  0  0  0  0  0
  143.9430  133.0966  151.6814 N   0  0  0  0  0  0  0  0  0  0  0  0
  147.8158  139.6121  153.1134 C   0  0  0  0  0  0  0  0  0  0  0  0
  146.4591  140.1234  155.5773 H   0  0  0  0  0  0  0  0  0  0  0  0
  145.3223  140.2722  154.2418 H   0  0  0  0  0  0  0  0  0  0  0  0
  145.8342  141.7036  155.1236 H   0  0  0  0  0  0  0  0  0  0  0  0
  146.9553  141.5676  152.9319 H   0  0  0  0  0  0  0  0  0  0  0  0
  149.1716  142.0584  153.5790 H   0  0  0  0  0  0  0  0  0  0  0  0
  148.1829  142.5632  154.9206 H   0  0  0  0  0  0  0  0  0  0  0  0
  148.7686  140.5259  156.1773 H   0  0  0  0  0  0  0  0  0  0  0  0
  151.2872  141.7840  154.9966 H   0  0  0  0  0  0  0  0  0  0  0  0
  151.1886  140.8841  156.5083 H   0  0  0  0  0  0  0  0  0  0  0  0
  150.3531  142.4239  156.3466 H   0  0  0  0  0  0  0  0  0  0  0  0
  150.3767  139.6720  153.7228 H   0  0  0  0  0  0  0  0  0  0  0  0
  150.3380  138.8364  155.2447 H   0  0  0  0  0  0  0  0  0  0  0  0
  146.3600  137.6357  153.3616 H   0  0  0  0  0  0  0  0  0  0  0  0
  145.5349  138.0413  155.6981 H   0  0  0  0  0  0  0  0  0  0  0  0
  145.9093  136.3672  156.1037 H   0  0  0  0  0  0  0  0  0  0  0  0
  144.6859  136.7396  154.8949 H   0  0  0  0  0  0  0  0  0  0  0  0
  147.8051  135.6729  153.1117 H   0  0  0  0  0  0  0  0  0  0  0  0
  144.9296  135.2752  153.3469 H   0  0  0  0  0  0  0  0  0  0  0  0
  145.8881  135.5255  151.8956 H   0  0  0  0  0  0  0  0  0  0  0  0
  147.1229  133.2952  152.5746 H   0  0  0  0  0  0  0  0  0  0  0  0
  145.7763  133.0400  153.6678 H   0  0  0  0  0  0  0  0  0  0  0  0
  146.7836  132.2073  150.3166 H   0  0  0  0  0  0  0  0  0  0  0  0
  144.6050  131.5329  148.8210 H   0  0  0  0  0  0  0  0  0  0  0  0
  142.4878  132.4696  150.3447 H   0  0  0  0  0  0  0  0  0  0  0  0
  146.9842  139.1044  152.6290 H   0  0  0  0  0  0  0  0  0  0  0  0
  148.5169  139.8250  152.3049 H   0  0  0  0  0  0  0  0  0  0  0  0
  147.1669  135.0483  154.4847 H   0  0  0  0  0  0  0  0  0  0  0  0
  1  2  1  0  0  0  0
  1 21  1  0  0  0  0
  1 22  1  0  0  0  0
  1 23  1  0  0  0  0
  2 20  1  0  0  0  0
  2  3  1  0  0  0  0
  2 24  1  0  0  0  0
  3  4  1  0  0  0  0
  3 25  1  0  0  0  0
  3 26  1  0  0  0  0
  4  5  1  0  0  0  0
  4  6  1  0  0  0  0
  4 27  1  0  0  0  0
  5 28  1  0  0  0  0
  5 29  1  0  0  0  0
  5 30  1  0  0  0  0
  6  7  1  0  0  0  0
  6 31  1  0  0  0  0
  6 32  1  0  0  0  0
  7  8  1  0  0  0  0
  7 20  1  0  0  0  0
  8  9  2  0  0  0  0
  8 10  1  0  0  0  0
 10 11  1  0  0  0  0
 10 12  1  0  0  0  0
 10 33  1  0  0  0  0
 11 34  1  0  0  0  0
 11 35  1  0  0  0  0
 11 36  1  0  0  0  0
 12 13  1  0  0  0  0
 12 37  1  0  0  0  0
 12 47  1  0  0  0  0
 13 14  1  0  0  0  0
 13 38  1  0  0  0  0
 13 39  1  0  0  0  0
 14 15  1  0  0  0  0
 14 40  1  0  0  0  0
 14 41  1  0  0  0  0
 15 19  1  0  0  0  0
 15 16  1  0  0  0  0
 16 17  2  0  0  0  0
 16 42  1  0  0  0  0
 17 18  1  0  0  0  0
 17 43  1  0  0  0  0
 18 19  2  0  0  0  0
 18 44  1  0  0  0  0
 20 45  1  0  0  0  0
 20 46  1  0  0  0  0
M  CHG  1  12   1
M  END
> <s_m_source_file>
AV-unprocessed.smi

> <i_m_source_file_index>
3331

> <i_lp_mmshare_version>
43012

> <i_f3d_flags>
0

> <s_epik_input>
W0NIM11bQ0BASF0xW0NIMl1bQ0BASF0oW0NIM10pW0NIMl1OKFtDSDJdMSlDKD1PKVtDQEhdKFtDSDNdKVtOSF1bQ0gyXVtDSDJdbjJbY0hdW2NIXVtjSF1uMg==

> <s_epik_cmdline>
J2VwaWtfcHl0aG9uJywgJy1waCcsICc3LjAnLCAnLXRuJywgJzgnLCAnLW1hJywgJzIwMCcsICctbWV0YWxfYmluZGluZycsICctaW1hZScsICc8aW5maWxlLm1hZT4nLCAnLW9tYWUnLCAnPG91dGZpbGUubWFlPic=

> <r_lp_tautomer_probability>
1

> <r_epik_Ionization_Penalty>
0.189706

> <r_epik_Ionization_Penalty_Charging>
0.189703

> <r_epik_Ionization_Penalty_Neutral>
2.45875e-06

> <r_epik_State_Penalty>
0.179341

> <r_epik_Charging_Adjusted_Penalty>
0.369044

> <i_epik_Tot_Q>
1

> <i_epik_Tot_abs_Q>
1

> <r_epik_Metal_State_Penalty>
0.179578

> <b_epik_Metal_Only>
0

> <s_lp_Force_Field>
OPLS_2005

> <r_lp_Energy>
29.8768

> <b_lp_Chiralities_Consistent>
1

> <s_lp_Variant>
AV-unprocessed.smi:3331-3

> <Gold.Version>
5.8.1

> <Gold.Id.Protein>
6NUR|6NUR_protein|mol2

> <Gold.PLP.Fitness>
43.3500

> <Gold.PLP.PLP>
-31.3621

> <Gold.PLP.part.hbond>
-1.0000

> <Gold.PLP.part.metal>
0.0000

> <Gold.PLP.part.buried>
-0.4313

> <Gold.PLP.part.nonpolar>
-30.7951

> <Gold.PLP.part.repulsive>
0.2326

> <Gold.PLP.ligand.clash>
0.0000

> <Gold.PLP.ligand.torsion>
0.2973

> <Gold.PLP.Chemscore.Hbond>
2.0000

> <Gold.PLP.Chemscore.CHOScore>
2.1700

> <Gold.PLP.Chemscore.Metal>
0.0000

> <Gold.Chemscore.Hbonds>
donor molecule, donor type, donor heavy atom, donor atom, acceptor molecule, acceptor atom, score
      L1  H    12    37       P1  7948  2.00
      L1  C    16    42       P1 10747  0.91
      L1  C    18    44       P1 10186  0.85
      L1  C    18    44       P1 10952  0.33

> <Gold.PLP.Chemscore.Internal.Correction>
0.0724

> <Gold.Rescore>
     Score         DG    S(hbond)    S(metal)    S(lipo)     H(rot)  DE(clash)    DE(int)     intcor
     13.25     -14.98       0.99        0.00      90.70       1.73       1.44       0.30       ----

> <Gold.Chemscore.Fitness>
13.2457

> <Gold.Chemscore.DG>
-14.9830

> <Gold.Chemscore.ZeroCoef>
-5.4800

> <Gold.Chemscore.Hbond>
0.9903

> <Gold.Chemscore.Metal>
0.0000

> <Gold.Chemscore.Lipo>
90.7030

> <Gold.Chemscore.Internal_Hbond>
0.0000

> <Gold.Chemscore.DEClash>
1.4382

> <Gold.Chemscore.DEInternal>
0.2991

> <Gold.Chemscore.Rot>
1.7254

> <Gold.Chemscore.Internal.Correction>
   9.000000E+99

> <Gold.Chemscore.Hbonds>
donor molecule, donor type, donor heavy atom, donor atom, acceptor molecule, acceptor atom, score
      L1  H    12    37       P1  7948  1.00

> <Gold.Chemscore.Hbond.Weighted>
-3.3077

> <Gold.Chemscore.Metal.Weighted>
-0.0000

> <Gold.Chemscore.Lipo.Weighted>
-10.6123

> <Gold.Chemscore.Internal_Hbond.Weighted>
0.0000

> <Gold.Chemscore.DEClash.Weighted>
1.4382

> <Gold.Chemscore.DEInternal.Weighted>
0.2991

> <Gold.Chemscore.Rot.Weighted>
4.4170

> <Gold.Chemscore.Internal.Correction.Weighted>
   9.000000E+99

> <Gold.Protein.RotatedTorsions>
[ 6907 6896 6895 6894 ] final -115.19 input  -60.11 | X-H torsion
[ 7974 7965 7964 7962 ] final  -64.53 input  175.53 | X-H torsion
[ 8008 7997 7996 7995 ] final  161.41 input   59.86 | X-H torsion
[ 10167 10162 10161 10158 ] final -149.81 input  -65.29 | X-H torsion
[ 10718 10713 10712 10709 ] final -132.53 input   66.30 | X-H torsion
[ 10763 10752 10751 10750 ] final  -57.31 input  -60.55 | X-H torsion
[ 11005 11000 10999 10996 ] final  172.39 input  -57.11 | X-H torsion

> <Gold.Protein.ActiveResidues>
 VAL166  LYS551  ARG553  GLY616  TRP617  ASP618  TYR619  PRO620  LYS621  CYS622 
 ASP623  PHE694  ASN695  SER759  ASP760  ASP761  ALA762  ILE779  LEU786  VAL792 
 PHE793  MET794  SER795  GLU796  ALA797  LYS798  CYS799  TRP800  GLU811  SER814 

> <Gold.Protein.RotatedAtoms>
  150.7959  133.8694  159.3254 H   0  0  0  0  0  0  0  0  0  0  0  0  # atno 6907 bound_to 6896
  151.6519  135.0998  160.0172 H   0  0  0  0  0  0  0  0  0  0  0  0  # atno 6908 bound_to 6896
  152.4040  133.6822  159.6376 H   0  0  0  0  0  0  0  0  0  0  0  0  # atno 6909 bound_to 6896
  145.7655  140.8840  143.0407 H   0  0  0  0  0  0  0  0  0  0  0  0  # atno 7974 bound_to 7965
  156.2105  140.1778  156.7706 H   0  0  0  0  0  0  0  0  0  0  0  0  # atno 8008 bound_to 7997
  154.5715  140.0681  156.9001 H   0  0  0  0  0  0  0  0  0  0  0  0  # atno 8009 bound_to 7997
  155.2664  140.3339  155.4271 H   0  0  0  0  0  0  0  0  0  0  0  0  # atno 8010 bound_to 7997
  139.7410  143.8662  152.2562 H   0  0  0  0  0  0  0  0  0  0  0  0  # atno 10167 bound_to 10162
  156.2355  130.7064  151.0903 H   0  0  0  0  0  0  0  0  0  0  0  0  # atno 10718 bound_to 10713
  154.2204  135.6379  153.5143 H   0  0  0  0  0  0  0  0  0  0  0  0  # atno 10763 bound_to 10752
  152.9970  135.5495  154.6120 H   0  0  0  0  0  0  0  0  0  0  0  0  # atno 10764 bound_to 10752
  154.5579  135.2906  155.0921 H   0  0  0  0  0  0  0  0  0  0  0  0  # atno 10765 bound_to 10752
  140.3292  134.7371  157.4122 H   0  0  0  0  0  0  0  0  0  0  0  0  # atno 11005 bound_to 11000
  144.6822  139.9782  143.7483 LP  0  0  0  0  0  0  0  0  0  0  0  0  # atno 17320 bound_to 7965
  146.0222  139.3261  143.0806 LP  0  0  0  0  0  0  0  0  0  0  0  0  # atno 17321 bound_to 7965
  139.8613  144.7116  150.9096 LP  0  0  0  0  0  0  0  0  0  0  0  0  # atno 17342 bound_to 10162
  140.7786  143.3815  151.1468 LP  0  0  0  0  0  0  0  0  0  0  0  0  # atno 17343 bound_to 10162
  157.7152  131.0713  150.6352 LP  0  0  0  0  0  0  0  0  0  0  0  0  # atno 17370 bound_to 10713
  156.6422  130.4461  149.5748 LP  0  0  0  0  0  0  0  0  0  0  0  0  # atno 17371 bound_to 10713
  140.0875  134.5647  155.8478 LP  0  0  0  0  0  0  0  0  0  0  0  0  # atno 17394 bound_to 11000
  141.2067  133.6658  156.6262 LP  0  0  0  0  0  0  0  0  0  0  0  0  # atno 17395 bound_to 11000

$$$$
