AV-unprocessed.smi:2960|AV-procd|sdf|11311|dock1
  -GOLD-   2272016213D 1   1.00000     0.00000
 Structure written by MMmdl.
 48 50  0  0  0  0  0  0  0  0  1 V2000
  150.6646  138.2678  154.0625 C   0  0  0  0  0  0  0  0  0  0  0  0
  151.5216  137.6583  155.1659 C   0  0  0  0  0  0  0  0  0  0  0  0
  151.3793  136.4766  155.4784 O   0  0  0  0  0  0  0  0  0  0  0  0
  152.4009  138.4807  155.7562 N   0  0  0  0  0  0  0  0  0  0  0  0
  153.3082  138.1014  156.8346 C   0  0  0  0  0  0  0  0  0  0  0  0
  152.7109  138.3453  158.2341 C   0  0  0  0  0  0  0  0  0  0  0  0
  152.5765  139.7990  158.5911 C   0  0  0  0  0  0  0  0  0  0  0  0
  151.9977  140.6647  157.7577 N   0  0  0  0  0  0  0  0  0  0  0  0
  152.0840  141.8581  158.4468 C   0  0  0  0  0  0  0  0  0  0  0  0
  151.6479  143.1554  158.0942 C   0  0  0  0  0  0  0  0  0  0  0  0
  151.8534  144.2403  158.9714 C   0  0  0  0  0  0  0  0  0  0  0  0
  152.4974  144.0442  160.2103 C   0  0  0  0  0  0  0  0  0  0  0  0
  152.9379  142.7594  160.5813 C   0  0  0  0  0  0  0  0  0  0  0  0
  152.7279  141.6788  159.7032 C   0  0  0  0  0  0  0  0  0  0  0  0
  153.0315  140.3216  159.7595 N   0  0  0  0  0  0  0  0  0  0  0  0
  153.7107  139.6461  160.8564 C   0  0  0  0  0  0  0  0  0  0  0  0
  154.8964  140.4608  161.3915 C   0  0  0  0  0  0  0  0  0  0  0  0
  155.1193  140.1282  162.7557 O   0  0  0  0  0  0  0  0  0  0  0  0
  155.1210  141.1457  163.6846 C   0  0  0  0  0  0  0  0  0  0  0  0
  154.3118  142.2662  163.4062 C   0  0  0  0  0  0  0  0  0  0  0  0
  154.2510  143.3519  164.3006 C   0  0  0  0  0  0  0  0  0  0  0  0
  155.0029  143.3295  165.4916 C   0  0  0  0  0  0  0  0  0  0  0  0
  154.9316  144.4982  166.4528 C   0  0  0  0  0  0  0  0  0  0  0  0
  155.8139  142.2138  165.7810 C   0  0  0  0  0  0  0  0  0  0  0  0
  155.8748  141.1287  164.8852 C   0  0  0  0  0  0  0  0  0  0  0  0
  151.2941  138.7048  153.2869 H   0  0  0  0  0  0  0  0  0  0  0  0
  150.0231  139.0496  154.4703 H   0  0  0  0  0  0  0  0  0  0  0  0
  150.0300  137.5103  153.6011 H   0  0  0  0  0  0  0  0  0  0  0  0
  152.4457  139.4379  155.4372 H   0  0  0  0  0  0  0  0  0  0  0  0
  153.6083  137.0578  156.7288 H   0  0  0  0  0  0  0  0  0  0  0  0
  154.2173  138.6925  156.7207 H   0  0  0  0  0  0  0  0  0  0  0  0
  151.7488  137.8424  158.3171 H   0  0  0  0  0  0  0  0  0  0  0  0
  153.3490  137.8719  158.9810 H   0  0  0  0  0  0  0  0  0  0  0  0
  151.1558  143.3163  157.1466 H   0  0  0  0  0  0  0  0  0  0  0  0
  151.5169  145.2278  158.6915 H   0  0  0  0  0  0  0  0  0  0  0  0
  152.6534  144.8807  160.8756 H   0  0  0  0  0  0  0  0  0  0  0  0
  153.4342  142.6071  161.5282 H   0  0  0  0  0  0  0  0  0  0  0  0
  152.9906  139.4736  161.6564 H   0  0  0  0  0  0  0  0  0  0  0  0
  154.0392  138.6604  160.5325 H   0  0  0  0  0  0  0  0  0  0  0  0
  155.7844  140.2391  160.7980 H   0  0  0  0  0  0  0  0  0  0  0  0
  154.6844  141.5265  161.2956 H   0  0  0  0  0  0  0  0  0  0  0  0
  153.7316  142.2938  162.4952 H   0  0  0  0  0  0  0  0  0  0  0  0
  153.6251  144.2016  164.0701 H   0  0  0  0  0  0  0  0  0  0  0  0
  155.6855  144.4149  167.2362 H   0  0  0  0  0  0  0  0  0  0  0  0
  153.9500  144.5368  166.9257 H   0  0  0  0  0  0  0  0  0  0  0  0
  155.0955  145.4369  165.9231 H   0  0  0  0  0  0  0  0  0  0  0  0
  156.3932  142.1840  166.6923 H   0  0  0  0  0  0  0  0  0  0  0  0
  156.5065  140.2926  165.1442 H   0  0  0  0  0  0  0  0  0  0  0  0
  1  2  1  0  0  0  0
  1 26  1  0  0  0  0
  1 27  1  0  0  0  0
  1 28  1  0  0  0  0
  2  3  2  0  0  0  0
  2  4  1  0  0  0  0
  4  5  1  0  0  0  0
  4 29  1  0  0  0  0
  5  6  1  0  0  0  0
  5 30  1  0  0  0  0
  5 31  1  0  0  0  0
  6  7  1  0  0  0  0
  6 32  1  0  0  0  0
  6 33  1  0  0  0  0
  7 15  1  0  0  0  0
  7  8  2  0  0  0  0
  8  9  1  0  0  0  0
  9 14  2  0  0  0  0
  9 10  1  0  0  0  0
 10 11  2  0  0  0  0
 10 34  1  0  0  0  0
 11 12  1  0  0  0  0
 11 35  1  0  0  0  0
 12 13  2  0  0  0  0
 12 36  1  0  0  0  0
 13 14  1  0  0  0  0
 13 37  1  0  0  0  0
 14 15  1  0  0  0  0
 15 16  1  0  0  0  0
 16 17  1  0  0  0  0
 16 38  1  0  0  0  0
 16 39  1  0  0  0  0
 17 18  1  0  0  0  0
 17 40  1  0  0  0  0
 17 41  1  0  0  0  0
 18 19  1  0  0  0  0
 19 25  1  0  0  0  0
 19 20  2  0  0  0  0
 20 21  1  0  0  0  0
 20 42  1  0  0  0  0
 21 22  2  0  0  0  0
 21 43  1  0  0  0  0
 22 23  1  0  0  0  0
 22 24  1  0  0  0  0
 23 44  1  0  0  0  0
 23 45  1  0  0  0  0
 23 46  1  0  0  0  0
 24 25  2  0  0  0  0
 24 47  1  0  0  0  0
 25 48  1  0  0  0  0
M  END
> <s_m_source_file>
AV-unprocessed.smi

> <i_m_source_file_index>
2960

> <i_lp_mmshare_version>
43012

> <i_f3d_flags>
0

> <s_epik_input>
W0NIM11DKD1PKVtOSF1bQ0gyXVtDSDJdYyhuMSluKGMoYzEyKVtjSF1bY0hdW2NIXVtjSF0yKVtDSDJdW0NIMl1PYzNbY0hdW2NIXWMoW0NIM10pW2NIXVtjSF0z

> <s_epik_cmdline>
J2VwaWtfcHl0aG9uJywgJy1waCcsICc3LjAnLCAnLXRuJywgJzgnLCAnLW1hJywgJzIwMCcsICctbWV0YWxfYmluZGluZycsICctaW1hZScsICc8aW5maWxlLm1hZT4nLCAnLW9tYWUnLCAnPG91dGZpbGUubWFlPic=

> <r_lp_tautomer_probability>
1

> <r_epik_Ionization_Penalty>
0.0990099

> <r_epik_Ionization_Penalty_Charging>
0

> <r_epik_Ionization_Penalty_Neutral>
0.0990099

> <r_epik_State_Penalty>
0.0890759

> <r_epik_Charging_Adjusted_Penalty>
0.0890759

> <i_epik_Tot_Q>
0

> <i_epik_Tot_abs_Q>
0

> <r_epik_Metal_State_Penalty>
0.0762215

> <b_epik_Metal_Only>
0

> <s_lp_Force_Field>
OPLS_2005

> <r_lp_Energy>
13.2598

> <b_lp_Chiralities_Consistent>
1

> <s_lp_Variant>
AV-unprocessed.smi:2960-1

> <Gold.Version>
5.8.1

> <Gold.Id.Protein>
6NUR|6NUR_protein|mol2

> <Gold.PLP.Fitness>
50.9654

> <Gold.PLP.PLP>
-50.6256

> <Gold.PLP.part.hbond>
-1.0000

> <Gold.PLP.part.metal>
0.0000

> <Gold.PLP.part.buried>
-0.6356

> <Gold.PLP.part.nonpolar>
-47.6168

> <Gold.PLP.part.repulsive>
0.2554

> <Gold.PLP.ligand.clash>
0.0000

> <Gold.PLP.ligand.torsion>
1.4370

> <Gold.PLP.Chemscore.Hbond>
1.0000

> <Gold.PLP.Chemscore.CHOScore>
0.0000

> <Gold.PLP.Chemscore.Metal>
0.0000

> <Gold.Chemscore.Hbonds>
donor molecule, donor type, donor heavy atom, donor atom, acceptor molecule, acceptor atom, score
      P1  H 10752 10764       L1     3  1.00

> <Gold.PLP.Chemscore.Internal.Correction>
0.2138

> <Gold.Rescore>
     Score         DG    S(hbond)    S(metal)    S(lipo)     H(rot)  DE(clash)    DE(int)     intcor
     19.09     -21.93       0.97        0.00     159.14       2.11       0.42       2.42       ----

> <Gold.Chemscore.Fitness>
19.0880

> <Gold.Chemscore.DG>
-21.9294

> <Gold.Chemscore.ZeroCoef>
-5.4800

> <Gold.Chemscore.Hbond>
0.9658

> <Gold.Chemscore.Metal>
0.0000

> <Gold.Chemscore.Lipo>
159.1434

> <Gold.Chemscore.Internal_Hbond>
0.0000

> <Gold.Chemscore.DEClash>
0.4232

> <Gold.Chemscore.DEInternal>
2.4181

> <Gold.Chemscore.Rot>
2.1078

> <Gold.Chemscore.Internal.Correction>
   9.000000E+99

> <Gold.Chemscore.Hbonds>
donor molecule, donor type, donor heavy atom, donor atom, acceptor molecule, acceptor atom, score
      P1  H 10752 10764       L1     3  0.57

> <Gold.Chemscore.Hbond.Weighted>
-3.2257

> <Gold.Chemscore.Metal.Weighted>
-0.0000

> <Gold.Chemscore.Lipo.Weighted>
-18.6198

> <Gold.Chemscore.Internal_Hbond.Weighted>
0.0000

> <Gold.Chemscore.DEClash.Weighted>
0.4232

> <Gold.Chemscore.DEInternal.Weighted>
2.4181

> <Gold.Chemscore.Rot.Weighted>
5.3961

> <Gold.Chemscore.Internal.Correction.Weighted>
   9.000000E+99

> <Gold.Protein.RotatedTorsions>
[ 6907 6896 6895 6894 ] final   73.88 input  -60.11 | X-H torsion
[ 7974 7965 7964 7962 ] final  124.19 input  175.53 | X-H torsion
[ 8008 7997 7996 7995 ] final -170.34 input   59.86 | X-H torsion
[ 10167 10162 10161 10158 ] final   55.86 input  -65.29 | X-H torsion
[ 10718 10713 10712 10709 ] final  -83.11 input   66.30 | X-H torsion
[ 10763 10752 10751 10750 ] final  -37.94 input  -60.55 | X-H torsion
[ 11005 11000 10999 10996 ] final  116.81 input  -57.11 | X-H torsion

> <Gold.Protein.ActiveResidues>
 VAL166  LYS551  ARG553  GLY616  TRP617  ASP618  TYR619  PRO620  LYS621  CYS622 
 ASP623  PHE694  ASN695  SER759  ASP760  ASP761  ALA762  ILE779  LEU786  VAL792 
 PHE793  MET794  SER795  GLU796  ALA797  LYS798  CYS799  TRP800  GLU811  SER814 

> <Gold.Protein.RotatedAtoms>
  152.4947  134.4355  159.9525 H   0  0  0  0  0  0  0  0  0  0  0  0  # atno 6907 bound_to 6896
  151.4335  133.3657  159.2780 H   0  0  0  0  0  0  0  0  0  0  0  0  # atno 6908 bound_to 6896
  150.9137  134.8578  159.7503 H   0  0  0  0  0  0  0  0  0  0  0  0  # atno 6909 bound_to 6896
  145.0872  139.3613  143.4879 H   0  0  0  0  0  0  0  0  0  0  0  0  # atno 7974 bound_to 7965
  155.9171  140.1067  157.1235 H   0  0  0  0  0  0  0  0  0  0  0  0  # atno 8008 bound_to 7997
  154.4048  140.1263  156.4696 H   0  0  0  0  0  0  0  0  0  0  0  0  # atno 8009 bound_to 7997
  155.7241  140.3469  155.5031 H   0  0  0  0  0  0  0  0  0  0  0  0  # atno 8010 bound_to 7997
  140.2149  144.3850  150.6474 H   0  0  0  0  0  0  0  0  0  0  0  0  # atno 10167 bound_to 10162
  156.0023  130.4655  150.4207 H   0  0  0  0  0  0  0  0  0  0  0  0  # atno 10718 bound_to 10713
  153.9046  135.6799  153.4753 H   0  0  0  0  0  0  0  0  0  0  0  0  # atno 10763 bound_to 10752
  153.1111  135.4783  154.9034 H   0  0  0  0  0  0  0  0  0  0  0  0  # atno 10764 bound_to 10752
  154.7558  135.3197  154.8427 H   0  0  0  0  0  0  0  0  0  0  0  0  # atno 10765 bound_to 10752
  139.9053  134.9602  156.7255 H   0  0  0  0  0  0  0  0  0  0  0  0  # atno 11005 bound_to 11000
  146.3531  140.0690  142.8624 LP  0  0  0  0  0  0  0  0  0  0  0  0  # atno 17320 bound_to 7965
  145.1108  140.9404  143.4657 LP  0  0  0  0  0  0  0  0  0  0  0  0  # atno 17321 bound_to 7965
  140.6297  143.2186  151.6522 LP  0  0  0  0  0  0  0  0  0  0  0  0  # atno 17342 bound_to 10162
  139.5166  144.3342  152.0799 LP  0  0  0  0  0  0  0  0  0  0  0  0  # atno 17343 bound_to 10162
  157.2263  131.0494  151.2518 LP  0  0  0  0  0  0  0  0  0  0  0  0  # atno 17370 bound_to 10713
  157.3753  130.7202  149.6593 LP  0  0  0  0  0  0  0  0  0  0  0  0  # atno 17371 bound_to 10713
  140.6967  133.9342  155.7999 LP  0  0  0  0  0  0  0  0  0  0  0  0  # atno 17394 bound_to 11000
  141.0402  134.0632  157.3911 LP  0  0  0  0  0  0  0  0  0  0  0  0  # atno 17395 bound_to 11000

$$$$
