#       Name:                AV-unprocessed.smi:3017
#       Creating user name   scv26
#       Creation time:       Fri Mar 27 16:41:23 2020


#       File generated by GOLD software.
#

@<TRIPOS>MOLECULE
AV-unprocessed.smi:3017
    43    44     1
SMALL
NO_CHARGES


@<TRIPOS>ATOM
      1 ****        -2.8298   2.9168   2.7503 C.3            1 S1                 0.0000
      2 ****        -2.0509   2.7824   1.4341 C.3            1 S1                 0.0000
      3 ****        -2.9932   2.8272   0.2158 C.3            1 S1                 0.0000
      4 ****        -2.2160   2.6872  -1.1024 C.3            1 S1                 0.0000
      5 ****        -1.3698   1.4055  -1.1126 C.3            1 S1                 0.0000
      6 ****        -0.4134   1.3565   0.0905 C.3            1 S1                 0.0000
      7 ****         0.2664   0.1097   0.0361 O.3            1 S1                 0.0000
      8 ****         1.4995   0.0771   0.7440 C.3            1 S1                 0.0000
      9 ****         2.1346  -1.3043   0.5842 C.2            1 S1                 0.0000
     10 ****         2.7274  -1.8089   1.5377 O.2            1 S1                 0.0000
     11 ****         2.0111  -1.8753  -0.6288 N.am           1 S1                 0.0000
     12 ****         2.4817  -3.1447  -1.0545 C.ar           1 S1                 0.0000
     13 ****         2.1858  -3.4915  -2.3940 C.ar           1 S1                 0.0000
     14 ****         2.5636  -4.6671  -2.9437 N.ar           1 S1                 0.0000
     15 ****         3.2486  -5.5139  -2.1461 C.ar           1 S1                 0.0000
     16 ****         3.5530  -5.1852  -0.8100 C.ar           1 S1                 0.0000
     17 ****         3.1725  -4.0083  -0.2668 N.ar           1 S1                 0.0000
     18 ****        -1.1979   1.4982   1.4119 C.3            1 S1                 0.0000
     19 ****        -3.5257   2.0884   2.8858 H              1 S1                 0.0000
     20 ****        -3.4057   3.8424   2.7726 H              1 S1                 0.0000
     21 ****        -2.1550   2.9286   3.6066 H              1 S1                 0.0000
     22 ****        -1.3743   3.6356   1.3656 H              1 S1                 0.0000
     23 ****        -3.7303   2.0263   0.2897 H              1 S1                 0.0000
     24 ****        -3.5541   3.7624   0.2110 H              1 S1                 0.0000
     25 ****        -2.9094   2.6812  -1.9438 H              1 S1                 0.0000
     26 ****        -1.5690   3.5544  -1.2404 H              1 S1                 0.0000
     27 ****        -2.0277   0.5354  -1.0951 H              1 S1                 0.0000
     28 ****        -0.8018   1.3447  -2.0416 H              1 S1                 0.0000
     29 ****         0.3017   2.1758  -0.0060 H              1 S1                 0.0000
     30 ****         2.1858   0.8281   0.3500 H              1 S1                 0.0000
     31 ****         1.3482   0.2847   1.8036 H              1 S1                 0.0000
     32 ****         1.5041  -1.3424  -1.3207 H              1 S1                 0.0000
     33 ****         1.6369  -2.8177  -3.0360 H              1 S1                 0.0000
     34 ****         3.5548  -6.4567  -2.5748 H              1 S1                 0.0000
     35 ****         4.1016  -5.8664  -0.1768 H              1 S1                 0.0000
     36 ****        -0.5124   1.5073   2.2590 H              1 S1                 0.0000
     37 ****        -1.8418   0.6279   1.5464 H              1 S1                 0.0000
     38 ****         0.4517  -0.1032  -0.9233 LP             1 S1                 0.0000
     39 ****        -0.3340  -0.5903   0.4228 LP             1 S1                 0.0000
     40 ****         2.7898  -1.3158   2.4054 LP             1 S1                 0.0000
     41 ****         3.1467  -2.7120   1.4446 LP             1 S1                 0.0000
     42 ****         2.3469  -4.8977  -3.8923 LP             1 S1                 0.0000
     43 ****         3.3919  -3.7812   0.6820 LP             1 S1                 0.0000
@<TRIPOS>BOND
    1    1    2 1     
    2    1   19 1     
    3    1   20 1     
    4    1   21 1     
    5    2   18 1     
    6    2    3 1     
    7    2   22 1     
    8    3    4 1     
    9    3   23 1     
   10    3   24 1     
   11    4    5 1     
   12    4   25 1     
   13    4   26 1     
   14    5    6 1     
   15    5   27 1     
   16    5   28 1     
   17    6    7 1     
   18    6   18 1     
   19    6   29 1     
   20    7    8 1     
   21    8    9 1     
   22    8   30 1     
   23    8   31 1     
   24    9   10 2     
   25    9   11 am    
   26   11   12 1     
   27   11   32 1     
   28   12   17 ar    
   29   12   13 ar    
   30   13   14 ar    
   31   13   33 1     
   32   14   15 ar    
   33   15   16 ar    
   34   15   34 1     
   35   16   17 ar    
   36   16   35 1     
   37   18   36 1     
   38   18   37 1     
   39    7   38 1     
   40    7   39 1     
   41   10   40 1     
   42   10   41 1     
   43   14   42 1     
   44   17   43 1     
@<TRIPOS>SUBSTRUCTURE
      1 S1             1
@<TRIPOS>SET
LONE_PAIRS      STATIC     ATOMS    <user>   **** ""
6 38 39 40 41 42 43
DONOR_HYDROGENS      STATIC     ATOMS    <user>   **** ""
1 32
ATOM$BLUE        STATIC     ATOMS    COLORGROUP SYSTEM
6 38 39 40 41 42 43
ATOM$RED        STATIC     ATOMS    COLORGROUP SYSTEM
1 32
