#       Name:                AV-unprocessed.smi:919
#       Creating user name   scv26
#       Creation time:       Fri Mar 27 02:07:31 2020


#       File generated by GOLD software.
#

@<TRIPOS>MOLECULE
AV-unprocessed.smi:919
    48    50     1
SMALL
NO_CHARGES


@<TRIPOS>ATOM
      1 ****        -4.3237   3.0495  -0.4782 C.3            1 S1                 0.0000
      2 ****        -4.7061   1.6026  -0.6029 C.2            1 S1                 0.0000
      3 ****        -5.9838   1.2648  -0.6538 N.2            1 S1                 0.0000
      4 ****        -6.0067  -0.1290  -0.7651 O.3            1 S1                 0.0000
      5 ****        -4.7266  -0.5806  -0.7780 C.2            1 S1                 0.0000
      6 ****        -4.5421  -2.0562  -0.8881 C.3            1 S1                 0.0000
      7 ****        -3.8517   0.4662  -0.6823 C.2            1 S1                 0.0000
      8 ****        -2.3479   0.4426  -0.6587 C.3            1 S1                 0.0000
      9 ****        -1.8124   0.3169   0.7762 C.3            1 S1                 0.0000
     10 ****        -0.3552   0.3138   0.8033 N.am           1 S1                 0.0000
     11 ****         0.4188   1.4118   0.7655 C.2            1 S1                 0.0000
     12 ****        -0.0295   2.5559   0.7176 O.2            1 S1                 0.0000
     13 ****         1.7410   1.1672   0.7814 N.am           1 S1                 0.0000
     14 ****         2.8354   2.1400   0.7499 C.3            1 S1                 0.0000
     15 ****         3.0332   2.8732   2.0981 C.3            1 S1                 0.0000
     16 ****         4.4940   2.5443   2.4568 C.3            1 S1                 0.0000
     17 ****         5.4408   3.2705   1.4815 C.3            1 S1                 0.0000
     18 ****         5.2502   2.4837   0.1696 C.3            1 S1                 0.0000
     19 ****         4.1946   1.4322   0.5596 C.3            1 S1                 0.0000
     20 ****         4.6084   1.0996   1.9903 C.3            1 S1                 0.0000
     21 ****        -3.4502   3.1702   0.1633 H              1 S1                 0.0000
     22 ****        -5.1312   3.6437  -0.0489 H              1 S1                 0.0000
     23 ****        -4.0801   3.4724  -1.4528 H              1 S1                 0.0000
     24 ****        -3.5195  -2.3428  -0.6422 H              1 S1                 0.0000
     25 ****        -4.7550  -2.3966  -1.9015 H              1 S1                 0.0000
     26 ****        -5.2110  -2.5818  -0.2063 H              1 S1                 0.0000
     27 ****        -1.9671  -0.3838  -1.2600 H              1 S1                 0.0000
     28 ****        -1.9490   1.3469  -1.1198 H              1 S1                 0.0000
     29 ****        -2.1958   1.1257   1.4010 H              1 S1                 0.0000
     30 ****        -2.1628  -0.6134   1.2243 H              1 S1                 0.0000
     31 ****         0.0998  -0.5865   0.8438 H              1 S1                 0.0000
     32 ****         2.0187   0.1976   0.8326 H              1 S1                 0.0000
     33 ****         2.6642   2.8452  -0.0656 H              1 S1                 0.0000
     34 ****         2.8606   3.9469   2.0137 H              1 S1                 0.0000
     35 ****         2.3600   2.4905   2.8668 H              1 S1                 0.0000
     36 ****         4.7345   2.7099   3.5074 H              1 S1                 0.0000
     37 ****         5.1908   4.3267   1.3741 H              1 S1                 0.0000
     38 ****         6.4755   3.2041   1.8205 H              1 S1                 0.0000
     39 ****         4.9253   3.1185  -0.6555 H              1 S1                 0.0000
     40 ****         6.1834   2.0031  -0.1270 H              1 S1                 0.0000
     41 ****         4.1625   0.5812  -0.1220 H              1 S1                 0.0000
     42 ****         5.6204   0.6979   2.0670 H              1 S1                 0.0000
     43 ****         3.9165   0.4247   2.4974 H              1 S1                 0.0000
     44 ****        -6.7716   1.8797  -0.6197 LP             1 S1                 0.0000
     45 ****        -6.4659  -0.3922  -1.6135 LP             1 S1                 0.0000
     46 ****        -6.4952  -0.5217   0.0141 LP             1 S1                 0.0000
     47 ****        -1.0182   2.7054   0.7050 LP             1 S1                 0.0000
     48 ****         0.5947   3.3368   0.6912 LP             1 S1                 0.0000
@<TRIPOS>BOND
    1    1    2 1     
    2    1   21 1     
    3    1   22 1     
    4    1   23 1     
    5    2    7 1     
    6    2    3 2     
    7    3    4 1     
    8    4    5 1     
    9    5    6 1     
   10    5    7 2     
   11    6   24 1     
   12    6   25 1     
   13    6   26 1     
   14    7    8 1     
   15    8    9 1     
   16    8   27 1     
   17    8   28 1     
   18    9   10 1     
   19    9   29 1     
   20    9   30 1     
   21   10   11 am    
   22   10   31 1     
   23   11   12 2     
   24   11   13 am    
   25   13   14 1     
   26   13   32 1     
   27   14   19 1     
   28   14   15 1     
   29   14   33 1     
   30   15   16 1     
   31   15   34 1     
   32   15   35 1     
   33   16   20 1     
   34   16   17 1     
   35   16   36 1     
   36   17   18 1     
   37   17   37 1     
   38   17   38 1     
   39   18   19 1     
   40   18   39 1     
   41   18   40 1     
   42   19   20 1     
   43   19   41 1     
   44   20   42 1     
   45   20   43 1     
   46    3   44 1     
   47    4   45 1     
   48    4   46 1     
   49   12   47 1     
   50   12   48 1     
@<TRIPOS>SUBSTRUCTURE
      1 S1             1
@<TRIPOS>SET
LONE_PAIRS      STATIC     ATOMS    <user>   **** ""
5 44 45 46 47 48
DONOR_HYDROGENS      STATIC     ATOMS    <user>   **** ""
2 31 32
ATOM$BLUE        STATIC     ATOMS    COLORGROUP SYSTEM
5 44 45 46 47 48
ATOM$RED        STATIC     ATOMS    COLORGROUP SYSTEM
2 31 32
