AV-unprocessed.smi:155|AV-procd|sdf|1275|dock1
  -GOLD-   2262018533D 1   1.00000     0.00000
 Structure written by MMmdl.
 63 66  0  0  0  0  0  0  0  0  2 V2000
  143.9513  132.9980  148.3036 C   0  0  0  0  0  0  0  0  0  0  0  0
  143.7432  133.2358  149.7501 N   0  3  0  0  0  0  0  0  0  0  0  0
  143.9559  132.0012  150.5377 C   0  0  0  0  0  0  0  0  0  0  0  0
  144.5284  134.3777  150.2839 C   0  0  0  0  0  0  0  0  0  0  0  0
  143.8984  135.0085  151.5475 C   0  0  0  0  0  0  0  0  0  0  0  0
  144.8793  135.7028  152.3857 N   0  0  0  0  0  0  0  0  0  0  0  0
  145.6797  134.7493  153.1654 C   0  0  0  0  0  0  0  0  0  0  0  0
  146.9276  135.3198  153.8748 C   0  0  0  0  0  0  0  0  0  0  0  0
  146.7900  136.7417  154.4372 C   0  0  0  0  0  0  0  0  0  0  0  0
  146.9994  137.7436  153.3962 N   0  0  0  0  0  0  0  0  0  0  0  0
  147.4359  138.9261  153.8786 C   0  0  0  0  0  0  0  0  0  0  0  0
  146.6483  140.0292  153.7821 N   0  0  0  0  0  0  0  0  0  0  0  0
  147.0800  141.1978  154.2672 C   0  0  0  0  0  0  0  0  0  0  0  0
  148.2372  141.4749  154.8738 N   0  0  0  0  0  0  0  0  0  0  0  0
  149.0246  140.3645  154.9714 C   0  0  0  0  0  0  0  0  0  0  0  0
  148.7031  139.0614  154.5017 C   0  0  0  0  0  0  0  0  0  0  0  0
  149.7432  138.1828  154.7750 N   0  0  0  0  0  0  0  0  0  0  0  0
  150.6297  138.9246  155.3820 C   0  0  0  0  0  0  0  0  0  0  0  0
  150.2752  140.2445  155.5518 N   0  0  0  0  0  0  0  0  0  0  0  0
  151.0600  141.2809  156.2011 C   0  0  0  0  0  0  0  0  0  0  0  0
  150.4790  141.7589  157.5508 C   0  0  2  0  0  0  0  0  0  0  0  0
  149.2498  142.4316  157.3594 O   0  0  0  0  0  0  0  0  0  0  0  0
  151.4330  142.6208  158.4084 C   0  0  2  0  0  0  0  0  0  0  0  0
  152.6580  141.9060  158.9776 C   0  0  0  0  0  0  0  0  0  0  0  0
  153.0775  142.8131  160.1241 C   0  0  0  0  0  0  0  0  0  0  0  0
  151.8373  143.6708  160.4045 C   0  0  0  0  0  0  0  0  0  0  0  0
  150.8126  143.1486  159.5698 O   0  0  0  0  0  0  0  0  0  0  0  0
  145.9643  137.8898  152.3795 C   0  0  0  0  0  0  0  0  0  0  0  0
  145.7132  136.5977  151.5833 C   0  0  0  0  0  0  0  0  0  0  0  0
  145.0000  132.7911  148.0861 H   0  0  0  0  0  0  0  0  0  0  0  0
  143.6390  133.8573  147.7125 H   0  0  0  0  0  0  0  0  0  0  0  0
  143.3602  132.1462  147.9651 H   0  0  0  0  0  0  0  0  0  0  0  0
  144.9956  131.6758  150.4813 H   0  0  0  0  0  0  0  0  0  0  0  0
  143.3243  131.1925  150.1685 H   0  0  0  0  0  0  0  0  0  0  0  0
  143.7033  132.1612  151.5865 H   0  0  0  0  0  0  0  0  0  0  0  0
  145.5244  134.0247  150.5560 H   0  0  0  0  0  0  0  0  0  0  0  0
  144.6918  135.1079  149.4903 H   0  0  0  0  0  0  0  0  0  0  0  0
  143.0782  135.6841  151.3013 H   0  0  0  0  0  0  0  0  0  0  0  0
  143.4476  134.1945  152.1171 H   0  0  0  0  0  0  0  0  0  0  0  0
  145.0354  134.2963  153.9180 H   0  0  0  0  0  0  0  0  0  0  0  0
  146.0135  133.9395  152.5163 H   0  0  0  0  0  0  0  0  0  0  0  0
  147.1793  134.6442  154.6928 H   0  0  0  0  0  0  0  0  0  0  0  0
  147.7862  135.2826  153.2027 H   0  0  0  0  0  0  0  0  0  0  0  0
  145.8165  136.8792  154.9101 H   0  0  0  0  0  0  0  0  0  0  0  0
  147.5398  136.8811  155.2180 H   0  0  0  0  0  0  0  0  0  0  0  0
  146.4008  142.0297  154.1544 H   0  0  0  0  0  0  0  0  0  0  0  0
  151.5706  138.5253  155.7320 H   0  0  0  0  0  0  0  0  0  0  0  0
  152.0728  140.9017  156.3435 H   0  0  0  0  0  0  0  0  0  0  0  0
  151.1468  142.1262  155.5174 H   0  0  0  0  0  0  0  0  0  0  0  0
  150.2429  140.8643  158.1281 H   0  0  0  0  0  0  0  0  0  0  0  0
  149.4088  143.1877  156.8150 H   0  0  0  0  0  0  0  0  0  0  0  0
  151.7727  143.4651  157.8049 H   0  0  0  0  0  0  0  0  0  0  0  0
  152.3891  140.9261  159.3735 H   0  0  0  0  0  0  0  0  0  0  0  0
  153.4456  141.7651  158.2369 H   0  0  0  0  0  0  0  0  0  0  0  0
  153.3783  142.2325  160.9969 H   0  0  0  0  0  0  0  0  0  0  0  0
  153.9180  143.4456  159.8364 H   0  0  0  0  0  0  0  0  0  0  0  0
  151.5349  143.6393  161.4514 H   0  0  0  0  0  0  0  0  0  0  0  0
  152.0219  144.7120  160.1359 H   0  0  0  0  0  0  0  0  0  0  0  0
  145.0381  138.2451  152.8344 H   0  0  0  0  0  0  0  0  0  0  0  0
  146.2816  138.6661  151.6811 H   0  0  0  0  0  0  0  0  0  0  0  0
  146.6356  136.1212  151.2474 H   0  0  0  0  0  0  0  0  0  0  0  0
  145.1797  136.8899  150.6784 H   0  0  0  0  0  0  0  0  0  0  0  0
  142.7695  133.4769  149.8690 H   0  0  0  0  0  0  0  0  0  0  0  0
  1  2  1  0  0  0  0
  1 30  1  0  0  0  0
  1 31  1  0  0  0  0
  1 32  1  0  0  0  0
  2  3  1  0  0  0  0
  2  4  1  0  0  0  0
  2 63  1  0  0  0  0
  3 33  1  0  0  0  0
  3 34  1  0  0  0  0
  3 35  1  0  0  0  0
  4  5  1  0  0  0  0
  4 36  1  0  0  0  0
  4 37  1  0  0  0  0
  5  6  1  0  0  0  0
  5 38  1  0  0  0  0
  5 39  1  0  0  0  0
  6 29  1  0  0  0  0
  6  7  1  0  0  0  0
  7  8  1  0  0  0  0
  7 40  1  0  0  0  0
  7 41  1  0  0  0  0
  8  9  1  0  0  0  0
  8 42  1  0  0  0  0
  8 43  1  0  0  0  0
  9 10  1  0  0  0  0
  9 44  1  0  0  0  0
  9 45  1  0  0  0  0
 10 11  1  0  0  0  0
 10 28  1  0  0  0  0
 11 16  1  0  0  0  0
 11 12  2  0  0  0  0
 12 13  1  0  0  0  0
 13 14  2  0  0  0  0
 13 46  1  0  0  0  0
 14 15  1  0  0  0  0
 15 19  1  0  0  0  0
 15 16  2  0  0  0  0
 16 17  1  0  0  0  0
 17 18  2  0  0  0  0
 18 19  1  0  0  0  0
 18 47  1  0  0  0  0
 19 20  1  0  0  0  0
 20 21  1  0  0  0  0
 20 48  1  0  0  0  0
 20 49  1  0  0  0  0
 21 22  1  0  0  0  0
 21 23  1  0  0  0  0
 21 50  1  0  0  0  0
 22 51  1  0  0  0  0
 23 27  1  0  0  0  0
 23 24  1  0  0  0  0
 23 52  1  0  0  0  0
 24 25  1  0  0  0  0
 24 53  1  0  0  0  0
 24 54  1  0  0  0  0
 25 26  1  0  0  0  0
 25 55  1  0  0  0  0
 25 56  1  0  0  0  0
 26 27  1  0  0  0  0
 26 57  1  0  0  0  0
 26 58  1  0  0  0  0
 28 29  1  0  0  0  0
 28 59  1  0  0  0  0
 28 60  1  0  0  0  0
 29 61  1  0  0  0  0
 29 62  1  0  0  0  0
M  CHG  1   2   1
M  END
> <s_m_source_file>
AV-unprocessed.smi

> <i_m_source_file_index>
155

> <i_lp_mmshare_version>
43012

> <i_f3d_flags>
0

> <s_epik_input>
W0NIM11OKFtDSDNdKVtDSDJdW0NIMl1OMVtDSDJdW0NIMl1bQ0gyXU4oW0NIMl1bQ0gyXTEpYyhuW2NIXW4yKWMoYzIzKW5bY0hdbjNbQ0gyXVtDQEhdKFtPSF0pW0NAQEhdNFtDSDJdW0NIMl1bQ0gyXU80

> <s_epik_cmdline>
J2VwaWtfcHl0aG9uJywgJy1waCcsICc3LjAnLCAnLXRuJywgJzgnLCAnLW1hJywgJzIwMCcsICctbWV0YWxfYmluZGluZycsICctaW1hZScsICc8aW5maWxlLm1hZT4nLCAnLW9tYWUnLCAnPG91dGZpbGUubWFlPic=

> <r_lp_tautomer_probability>
1

> <r_epik_Ionization_Penalty>
0.0599493

> <r_epik_Ionization_Penalty_Charging>
0.00816363

> <r_epik_Ionization_Penalty_Neutral>
0.0517857

> <r_epik_State_Penalty>
0.460607

> <r_epik_Charging_Adjusted_Penalty>
0.468771

> <i_epik_Tot_Q>
1

> <i_epik_Tot_abs_Q>
1

> <r_epik_Metal_State_Penalty>
0.45965

> <b_epik_Metal_Only>
0

> <s_lp_Force_Field>
OPLS_2005

> <r_lp_Energy>
61.9788

> <b_lp_Chiralities_Consistent>
1

> <s_lp_Variant>
AV-unprocessed.smi:155-9

> <Gold.Version>
5.8.1

> <Gold.Id.Protein>
6NUR|6NUR_protein|mol2

> <Gold.PLP.Fitness>
54.5392

> <Gold.PLP.PLP>
-46.9517

> <Gold.PLP.part.hbond>
-2.0000

> <Gold.PLP.part.metal>
0.0000

> <Gold.PLP.part.buried>
-7.5631

> <Gold.PLP.part.nonpolar>
-40.4930

> <Gold.PLP.part.repulsive>
1.4086

> <Gold.PLP.ligand.clash>
0.0000

> <Gold.PLP.ligand.torsion>
1.0473

> <Gold.PLP.Chemscore.Hbond>
3.0000

> <Gold.PLP.Chemscore.CHOScore>
0.0000

> <Gold.PLP.Chemscore.Metal>
0.0000

> <Gold.Chemscore.Hbonds>
donor molecule, donor type, donor heavy atom, donor atom, acceptor molecule, acceptor atom, score
      L1  H     2    63       P1 10186  2.00
      L1  H    22    51       P1  8028  1.00

> <Gold.PLP.Chemscore.Internal.Correction>
0.6820

> <Gold.Rescore>
     Score         DG    S(hbond)    S(metal)    S(lipo)     H(rot)  DE(clash)    DE(int)     intcor
     15.48     -16.76       1.86        0.00     108.53       2.99       0.10       1.18       ----

> <Gold.Chemscore.Fitness>
15.4795

> <Gold.Chemscore.DG>
-16.7622

> <Gold.Chemscore.ZeroCoef>
-5.4800

> <Gold.Chemscore.Hbond>
1.8648

> <Gold.Chemscore.Metal>
0.0000

> <Gold.Chemscore.Lipo>
108.5334

> <Gold.Chemscore.Internal_Hbond>
0.0000

> <Gold.Chemscore.DEClash>
0.0985

> <Gold.Chemscore.DEInternal>
1.1842

> <Gold.Chemscore.Rot>
2.9862

> <Gold.Chemscore.Internal.Correction>
   9.000000E+99

> <Gold.Chemscore.Hbonds>
donor molecule, donor type, donor heavy atom, donor atom, acceptor molecule, acceptor atom, score
      L1  H     2    63       P1 10186  0.93
      L1  H    22    51       P1  8028  0.95

> <Gold.Chemscore.Hbond.Weighted>
-6.2285

> <Gold.Chemscore.Metal.Weighted>
-0.0000

> <Gold.Chemscore.Lipo.Weighted>
-12.6984

> <Gold.Chemscore.Internal_Hbond.Weighted>
0.0000

> <Gold.Chemscore.DEClash.Weighted>
0.0985

> <Gold.Chemscore.DEInternal.Weighted>
1.1842

> <Gold.Chemscore.Rot.Weighted>
7.6448

> <Gold.Chemscore.Internal.Correction.Weighted>
   9.000000E+99

> <Gold.Protein.RotatedTorsions>
[ 6907 6896 6895 6894 ] final  156.29 input  -60.11 | X-H torsion
[ 7974 7965 7964 7962 ] final  104.66 input  175.53 | X-H torsion
[ 8008 7997 7996 7995 ] final  129.31 input   59.86 | X-H torsion
[ 10167 10162 10161 10158 ] final  -38.11 input  -65.29 | X-H torsion
[ 10718 10713 10712 10709 ] final  136.71 input   66.30 | X-H torsion
[ 10763 10752 10751 10750 ] final  170.29 input  -60.55 | X-H torsion
[ 11005 11000 10999 10996 ] final  170.39 input  -57.11 | X-H torsion

> <Gold.Protein.ActiveResidues>
 VAL166  LYS551  ARG553  GLY616  TRP617  ASP618  TYR619  PRO620  LYS621  CYS622 
 ASP623  PHE694  ASN695  SER759  ASP760  ASP761  ALA762  ILE779  LEU786  VAL792 
 PHE793  MET794  SER795  GLU796  ALA797  LYS798  CYS799  TRP800  GLU811  SER814 

> <Gold.Protein.RotatedAtoms>
  152.0319  133.3941  159.4300 H   0  0  0  0  0  0  0  0  0  0  0  0  # atno 6907 bound_to 6896
  150.6881  134.3511  159.4919 H   0  0  0  0  0  0  0  0  0  0  0  0  # atno 6908 bound_to 6896
  152.1299  134.9142  160.0610 H   0  0  0  0  0  0  0  0  0  0  0  0  # atno 6909 bound_to 6896
  145.3298  139.2490  143.3667 H   0  0  0  0  0  0  0  0  0  0  0  0  # atno 7974 bound_to 7965
  156.2933  140.2623  156.2578 H   0  0  0  0  0  0  0  0  0  0  0  0  # atno 8008 bound_to 7997
  154.9819  140.0389  157.2300 H   0  0  0  0  0  0  0  0  0  0  0  0  # atno 8009 bound_to 7997
  154.7764  140.2787  155.6102 H   0  0  0  0  0  0  0  0  0  0  0  0  # atno 8010 bound_to 7997
  140.7101  143.3298  151.2594 H   0  0  0  0  0  0  0  0  0  0  0  0  # atno 10167 bound_to 10162
  157.4437  131.1060  151.0113 H   0  0  0  0  0  0  0  0  0  0  0  0  # atno 10718 bound_to 10713
  154.3954  135.2754  155.2129 H   0  0  0  0  0  0  0  0  0  0  0  0  # atno 10763 bound_to 10752
  154.4177  135.6007  153.5994 H   0  0  0  0  0  0  0  0  0  0  0  0  # atno 10764 bound_to 10752
  152.9831  135.5965  154.4215 H   0  0  0  0  0  0  0  0  0  0  0  0  # atno 10765 bound_to 10752
  140.3079  134.7541  157.3968 H   0  0  0  0  0  0  0  0  0  0  0  0  # atno 11005 bound_to 11000
  146.3050  140.3873  142.8690 LP  0  0  0  0  0  0  0  0  0  0  0  0  # atno 17320 bound_to 7965
  144.8873  140.7478  143.5949 LP  0  0  0  0  0  0  0  0  0  0  0  0  # atno 17321 bound_to 7965
  139.6777  143.9908  152.2791 LP  0  0  0  0  0  0  0  0  0  0  0  0  # atno 17342 bound_to 10162
  139.9528  144.6609  150.8155 LP  0  0  0  0  0  0  0  0  0  0  0  0  # atno 17343 bound_to 10162
  157.0967  130.5965  149.5451 LP  0  0  0  0  0  0  0  0  0  0  0  0  # atno 17370 bound_to 10713
  155.9959  130.5027  150.7476 LP  0  0  0  0  0  0  0  0  0  0  0  0  # atno 17371 bound_to 10713
  140.1051  134.5420  155.8317 LP  0  0  0  0  0  0  0  0  0  0  0  0  # atno 17394 bound_to 11000
  141.2114  133.6707  156.6583 LP  0  0  0  0  0  0  0  0  0  0  0  0  # atno 17395 bound_to 11000

$$$$
