AV-unprocessed.smi:1208|AV-procd|sdf|5066|dock3
  -GOLD-   22720 4103D 1   1.00000     0.00000
 Structure written by MMmdl.
 36 37  0  0  0  0  0  0  0  0  1 V2000
  153.4415  142.1211  160.5455 C   0  0  0  0  0  0  0  0  0  0  0  0
  152.8648  142.2583  159.1291 C   0  0  1  0  0  0  0  0  0  0  0  0
  152.2525  140.9883  158.7437 N   0  0  0  0  0  0  0  0  0  0  0  0
  152.8846  139.8088  158.6387 C   0  0  0  0  0  0  0  0  0  0  0  0
  154.0789  139.6530  158.8966 O   0  0  0  0  0  0  0  0  0  0  0  0
  152.0258  138.6224  158.1796 C   0  0  0  0  0  0  0  0  0  0  0  0
  151.3253  138.8793  156.9135 N   0  0  0  0  0  0  0  0  0  0  0  0
  150.5546  140.0322  156.9143 N   0  0  0  0  0  0  0  0  0  0  0  0
  149.8809  140.3576  155.8634 C   0  0  0  0  0  0  0  0  0  0  0  0
  149.1273  141.5045  155.9091 O   0  0  0  0  0  0  0  0  0  0  0  0
  149.9153  139.5421  154.6693 C   0  0  0  0  0  0  0  0  0  0  0  0
  150.6721  138.4229  154.6767 C   0  0  0  0  0  0  0  0  0  0  0  0
  151.4465  138.0225  155.8528 C   0  0  0  0  0  0  0  0  0  0  0  0
  152.1425  137.0077  155.8884 O   0  0  0  0  0  0  0  0  0  0  0  0
  151.8325  143.4011  159.0398 C   0  0  2  0  0  0  0  0  0  0  0  0
  152.3417  144.7760  159.4751 C   0  0  0  0  0  0  0  0  0  0  0  0
  151.0690  145.5191  159.8432 C   0  0  0  0  0  0  0  0  0  0  0  0
  150.0427  144.4055  160.0729 C   0  0  0  0  0  0  0  0  0  0  0  0
  150.7655  143.1873  159.9506 O   0  0  0  0  0  0  0  0  0  0  0  0
  149.6990  142.1919  155.6033 H   0  0  0  0  0  0  0  0  0  0  0  0
  153.9362  143.0405  160.8598 H   0  0  0  0  0  0  0  0  0  0  0  0
  154.1802  141.3203  160.5930 H   0  0  0  0  0  0  0  0  0  0  0  0
  152.6605  141.8986  161.2735 H   0  0  0  0  0  0  0  0  0  0  0  0
  153.6945  142.4878  158.4579 H   0  0  0  0  0  0  0  0  0  0  0  0
  151.2693  141.0144  158.5153 H   0  0  0  0  0  0  0  0  0  0  0  0
  152.6773  137.7520  158.0846 H   0  0  0  0  0  0  0  0  0  0  0  0
  151.3025  138.3639  158.9557 H   0  0  0  0  0  0  0  0  0  0  0  0
  149.3464  139.8297  153.7976 H   0  0  0  0  0  0  0  0  0  0  0  0
  150.7072  137.8046  153.7918 H   0  0  0  0  0  0  0  0  0  0  0  0
  151.4245  143.4649  158.0290 H   0  0  0  0  0  0  0  0  0  0  0  0
  152.9757  144.6799  160.3576 H   0  0  0  0  0  0  0  0  0  0  0  0
  152.9182  145.2808  158.6993 H   0  0  0  0  0  0  0  0  0  0  0  0
  151.2122  146.1360  160.7309 H   0  0  0  0  0  0  0  0  0  0  0  0
  150.7464  146.1700  159.0297 H   0  0  0  0  0  0  0  0  0  0  0  0
  149.5658  144.4738  161.0511 H   0  0  0  0  0  0  0  0  0  0  0  0
  149.2626  144.4404  159.3113 H   0  0  0  0  0  0  0  0  0  0  0  0
  1  2  1  0  0  0  0
  1 21  1  0  0  0  0
  1 22  1  0  0  0  0
  1 23  1  0  0  0  0
  2  3  1  0  0  0  0
  2 15  1  0  0  0  0
  2 24  1  0  0  0  0
  3  4  1  0  0  0  0
  3 25  1  0  0  0  0
  4  5  2  0  0  0  0
  4  6  1  0  0  0  0
  6 26  1  0  0  0  0
  6 27  1  0  0  0  0
  6  7  1  0  0  0  0
  7  8  1  0  0  0  0
  7 13  1  0  0  0  0
  8  9  2  0  0  0  0
  9 10  1  0  0  0  0
  9 11  1  0  0  0  0
 10 20  1  0  0  0  0
 11 28  1  0  0  0  0
 11 12  2  0  0  0  0
 12 29  1  0  0  0  0
 12 13  1  0  0  0  0
 13 14  2  0  0  0  0
 15 19  1  0  0  0  0
 15 16  1  0  0  0  0
 15 30  1  0  0  0  0
 16 17  1  0  0  0  0
 16 31  1  0  0  0  0
 16 32  1  0  0  0  0
 17 18  1  0  0  0  0
 17 33  1  0  0  0  0
 17 34  1  0  0  0  0
 18 19  1  0  0  0  0
 18 35  1  0  0  0  0
 18 36  1  0  0  0  0
M  END
> <s_m_source_file>
AV-unprocessed.smi

> <i_m_source_file_index>
1208

> <i_lp_mmshare_version>
43012

> <i_f3d_flags>
0

> <s_epik_input>
TzFbQ0gyXVtDSDJdW0NIMl1bQ0BIXTFbQ0BIXShbQ0gzXSlbTkhdQyg9TylbQ0gyXW4yW25IXWMoPU8pW2NIXVtjSF1jMj1P

> <s_epik_cmdline>
J2VwaWtfcHl0aG9uJywgJy1waCcsICc3LjAnLCAnLXRuJywgJzgnLCAnLW1hJywgJzIwMCcsICctbWV0YWxfYmluZGluZycsICctaW1hZScsICc8aW5maWxlLm1hZT4nLCAnLW9tYWUnLCAnPG91dGZpbGUubWFlPic=

> <r_lp_tautomer_probability>
0.9996

> <r_epik_Ionization_Penalty>
2.12735

> <r_epik_Ionization_Penalty_Charging>
3.86665e-08

> <r_epik_Ionization_Penalty_Neutral>
2.12735

> <r_epik_State_Penalty>
1.70441

> <r_epik_Charging_Adjusted_Penalty>
1.70441

> <i_epik_Tot_Q>
0

> <i_epik_Tot_abs_Q>
0

> <r_epik_Metal_State_Penalty>
1.70441

> <b_epik_Metal_Only>
0

> <s_lp_Force_Field>
OPLS_2005

> <r_lp_Energy>
29.1408

> <b_lp_Chiralities_Consistent>
1

> <s_lp_Variant>
AV-unprocessed.smi:1208-6

> <Gold.Version>
5.8.1

> <Gold.Id.Protein>
6NUR|6NUR_protein|mol2

> <Gold.PLP.Fitness>
42.9033

> <Gold.PLP.PLP>
-37.2499

> <Gold.PLP.part.hbond>
-3.8818

> <Gold.PLP.part.metal>
0.0000

> <Gold.PLP.part.buried>
-3.5942

> <Gold.PLP.part.nonpolar>
-28.0607

> <Gold.PLP.part.repulsive>
0.1997

> <Gold.PLP.ligand.clash>
0.0000

> <Gold.PLP.ligand.torsion>
0.0842

> <Gold.PLP.Chemscore.Hbond>
1.9261

> <Gold.PLP.Chemscore.CHOScore>
0.0000

> <Gold.PLP.Chemscore.Metal>
0.0000

> <Gold.Chemscore.Hbonds>
donor molecule, donor type, donor heavy atom, donor atom, acceptor molecule, acceptor atom, score
      P1  H  7997  8010       L1     5  0.90
      P1  H 10752 10764       L1    14  0.88

> <Gold.PLP.Chemscore.Internal.Correction>
0.0435

> <Gold.Rescore>
     Score         DG    S(hbond)    S(metal)    S(lipo)     H(rot)  DE(clash)    DE(int)     intcor
     12.12     -14.92       1.94        0.00      82.65       2.63       0.06       2.74       ----

> <Gold.Chemscore.Fitness>
12.1162

> <Gold.Chemscore.DG>
-14.9168

> <Gold.Chemscore.ZeroCoef>
-5.4800

> <Gold.Chemscore.Hbond>
1.9433

> <Gold.Chemscore.Metal>
0.0000

> <Gold.Chemscore.Lipo>
82.6487

> <Gold.Chemscore.Internal_Hbond>
0.0000

> <Gold.Chemscore.DEClash>
0.0582

> <Gold.Chemscore.DEInternal>
2.7424

> <Gold.Chemscore.Rot>
2.6264

> <Gold.Chemscore.Internal.Correction>
   9.000000E+99

> <Gold.Chemscore.Hbonds>
donor molecule, donor type, donor heavy atom, donor atom, acceptor molecule, acceptor atom, score
      P1  H  7997  8010       L1     5  0.18
      P1  H 10752 10764       L1    14  0.81

> <Gold.Chemscore.Hbond.Weighted>
-6.4906

> <Gold.Chemscore.Metal.Weighted>
-0.0000

> <Gold.Chemscore.Lipo.Weighted>
-9.6699

> <Gold.Chemscore.Internal_Hbond.Weighted>
0.0000

> <Gold.Chemscore.DEClash.Weighted>
0.0582

> <Gold.Chemscore.DEInternal.Weighted>
2.7424

> <Gold.Chemscore.Rot.Weighted>
6.7237

> <Gold.Chemscore.Internal.Correction.Weighted>
   9.000000E+99

> <Gold.Protein.RotatedTorsions>
[ 6907 6896 6895 6894 ] final  121.54 input  -60.11 | X-H torsion
[ 7974 7965 7964 7962 ] final   24.79 input  175.53 | X-H torsion
[ 8008 7997 7996 7995 ] final   23.39 input   59.86 | X-H torsion
[ 10167 10162 10161 10158 ] final -154.60 input  -65.29 | X-H torsion
[ 10718 10713 10712 10709 ] final -110.29 input   66.30 | X-H torsion
[ 10763 10752 10751 10750 ] final  -53.36 input  -60.55 | X-H torsion
[ 11005 11000 10999 10996 ] final  -18.92 input  -57.11 | X-H torsion

> <Gold.Protein.ActiveResidues>
 VAL166  LYS551  ARG553  GLY616  TRP617  ASP618  TYR619  PRO620  LYS621  CYS622 
 ASP623  PHE694  ASN695  SER759  ASP760  ASP761  ALA762  ILE779  LEU786  VAL792 
 PHE793  MET794  SER795  GLU796  ALA797  LYS798  CYS799  TRP800  GLU811  SER814 

> <Gold.Protein.RotatedAtoms>
  152.4313  133.7283  159.6572 H   0  0  0  0  0  0  0  0  0  0  0  0  # atno 6907 bound_to 6896
  150.8193  133.8271  159.3152 H   0  0  0  0  0  0  0  0  0  0  0  0  # atno 6908 bound_to 6896
  151.5958  135.1053  160.0101 H   0  0  0  0  0  0  0  0  0  0  0  0  # atno 6909 bound_to 6896
  146.1920  139.7556  142.8824 H   0  0  0  0  0  0  0  0  0  0  0  0  # atno 7974 bound_to 7965
  154.9803  140.3101  155.4949 H   0  0  0  0  0  0  0  0  0  0  0  0  # atno 8008 bound_to 7997
  156.2954  140.2268  156.4841 H   0  0  0  0  0  0  0  0  0  0  0  0  # atno 8009 bound_to 7997
  154.7796  140.0447  157.1104 H   0  0  0  0  0  0  0  0  0  0  0  0  # atno 8010 bound_to 7997
  139.7000  143.9279  152.2424 H   0  0  0  0  0  0  0  0  0  0  0  0  # atno 10167 bound_to 10162
  156.0583  130.5808  150.8217 H   0  0  0  0  0  0  0  0  0  0  0  0  # atno 10718 bound_to 10713
  154.1575  135.6480  153.4978 H   0  0  0  0  0  0  0  0  0  0  0  0  # atno 10763 bound_to 10752
  153.0120  135.5353  154.6745 H   0  0  0  0  0  0  0  0  0  0  0  0  # atno 10764 bound_to 10752
  154.6049  135.2947  155.0467 H   0  0  0  0  0  0  0  0  0  0  0  0  # atno 10765 bound_to 10752
  140.8315  133.7993  155.9764 H   0  0  0  0  0  0  0  0  0  0  0  0  # atno 11005 bound_to 11000
  145.3762  141.0351  143.3203 LP  0  0  0  0  0  0  0  0  0  0  0  0  # atno 17320 bound_to 7965
  144.8506  139.5328  143.6858 LP  0  0  0  0  0  0  0  0  0  0  0  0  # atno 17321 bound_to 7965
  139.9119  144.6851  150.8553 LP  0  0  0  0  0  0  0  0  0  0  0  0  # atno 17342 bound_to 10162
  140.7707  143.3437  151.2155 LP  0  0  0  0  0  0  0  0  0  0  0  0  # atno 17343 bound_to 10162
  157.5571  131.0945  150.9612 LP  0  0  0  0  0  0  0  0  0  0  0  0  # atno 17370 bound_to 10713
  156.9859  130.5544  149.5299 LP  0  0  0  0  0  0  0  0  0  0  0  0  # atno 17371 bound_to 10713
  140.8993  134.2398  157.5051 LP  0  0  0  0  0  0  0  0  0  0  0  0  # atno 17394 bound_to 11000
  139.8705  134.9699  156.4681 LP  0  0  0  0  0  0  0  0  0  0  0  0  # atno 17395 bound_to 11000

$$$$
