#       Name:                AV-unprocessed.smi:3059
#       Creating user name   scv26
#       Creation time:       Fri Mar 27 17:08:16 2020


#       File generated by GOLD software.
#

@<TRIPOS>MOLECULE
AV-unprocessed.smi:3059
    45    46     1
SMALL
NO_CHARGES


@<TRIPOS>ATOM
      1 ****        -4.3376   3.3112  -1.6891 C.3            1 S1                 0.0000
      2 ****        -3.5490   2.6196  -0.5718 C.3            1 S1                 0.0000
      3 ****        -2.2605   2.0300  -1.0419 C.2            1 S1                 0.0000
      4 ****        -1.9829   0.7066  -1.2786 C.2            1 S1                 0.0000
      5 ****        -0.6766   0.4735  -1.7122 N.2            1 S1                 0.0000
      6 ****         0.0356   1.5974  -1.8182 C.2            1 S1                 0.0000
      7 ****         1.4751   1.6284  -2.2207 C.3            1 S1                 0.0000
      8 ****         2.4533   1.7438  -1.0355 C.3            1 S1                 0.0000
      9 ****         2.1871   0.7746   0.0228 N.am           1 S1                 0.0000
     10 ****         2.5336  -0.5236  -0.0019 C.2            1 S1                 0.0000
     11 ****         3.1412  -1.0232  -0.9498 O.2            1 S1                 0.0000
     12 ****         2.1720  -1.2233   1.1039 N.am           1 S1                 0.0000
     13 ****         1.3424  -0.6997   2.2020 C.3            1 S1                 0.0000
     14 ****        -0.1613  -0.7271   1.8603 C.3            1 S1                 0.0000
     15 ****        -0.6387  -1.9338   1.0224 C.3            1 S1                 0.0000
     16 ****        -0.0110  -3.2905   1.3964 C.3            1 S1                 0.0000
     17 ****         1.3593  -3.5427   0.7311 C.3            1 S1                 0.0000
     18 ****         2.4980  -2.6480   1.2530 C.3            1 S1                 0.0000
     19 ****        -0.8709   3.0353  -1.3661 S.3            1 S1                 0.0000
     20 ****        -5.2732   3.7210  -1.3085 H              1 S1                 0.0000
     21 ****        -4.5814   2.6109  -2.4887 H              1 S1                 0.0000
     22 ****        -3.7679   4.1324  -2.1251 H              1 S1                 0.0000
     23 ****        -3.3485   3.3361   0.2254 H              1 S1                 0.0000
     24 ****        -4.1658   1.8383  -0.1263 H              1 S1                 0.0000
     25 ****        -2.6512  -0.1334  -1.1600 H              1 S1                 0.0000
     26 ****         1.6938   0.7236  -2.7896 H              1 S1                 0.0000
     27 ****         1.6265   2.4626  -2.9062 H              1 S1                 0.0000
     28 ****         3.4840   1.6565  -1.3820 H              1 S1                 0.0000
     29 ****         2.3628   2.7353  -0.5911 H              1 S1                 0.0000
     30 ****         1.6919   1.1123   0.8351 H              1 S1                 0.0000
     31 ****         1.4990  -1.2930   3.1033 H              1 S1                 0.0000
     32 ****         1.6482   0.3069   2.4907 H              1 S1                 0.0000
     33 ****        -0.7239  -0.6929   2.7937 H              1 S1                 0.0000
     34 ****        -0.4263   0.1863   1.3269 H              1 S1                 0.0000
     35 ****        -1.7225  -2.0026   1.1193 H              1 S1                 0.0000
     36 ****        -0.4568  -1.7430  -0.0350 H              1 S1                 0.0000
     37 ****         0.0575  -3.3967   2.4795 H              1 S1                 0.0000
     38 ****        -0.6881  -4.0775   1.0631 H              1 S1                 0.0000
     39 ****         1.6399  -4.5839   0.8923 H              1 S1                 0.0000
     40 ****         1.2674  -3.4259  -0.3495 H              1 S1                 0.0000
     41 ****         3.4228  -2.8934   0.7286 H              1 S1                 0.0000
     42 ****         2.7045  -2.8877   2.2964 H              1 S1                 0.0000
     43 ****        -0.3145  -0.4351  -1.9203 LP             1 S1                 0.0000
     44 ****         3.3931  -0.4585  -1.7357 LP             1 S1                 0.0000
     45 ****         3.3825  -1.9935  -0.9334 LP             1 S1                 0.0000
@<TRIPOS>BOND
    1    1    2 1     
    2    1   20 1     
    3    1   21 1     
    4    1   22 1     
    5    2    3 1     
    6    2   23 1     
    7    2   24 1     
    8    3   19 1     
    9    3    4 2     
   10    4    5 1     
   11    4   25 1     
   12    5    6 2     
   13    6    7 1     
   14    6   19 1     
   15    7    8 1     
   16    7   26 1     
   17    7   27 1     
   18    8    9 1     
   19    8   28 1     
   20    8   29 1     
   21    9   10 am    
   22    9   30 1     
   23   10   11 2     
   24   10   12 am    
   25   12   18 1     
   26   12   13 1     
   27   13   14 1     
   28   13   31 1     
   29   13   32 1     
   30   14   15 1     
   31   14   33 1     
   32   14   34 1     
   33   15   16 1     
   34   15   35 1     
   35   15   36 1     
   36   16   17 1     
   37   16   37 1     
   38   16   38 1     
   39   17   18 1     
   40   17   39 1     
   41   17   40 1     
   42   18   41 1     
   43   18   42 1     
   44    5   43 1     
   45   11   44 1     
   46   11   45 1     
@<TRIPOS>SUBSTRUCTURE
      1 S1             1
@<TRIPOS>SET
LONE_PAIRS      STATIC     ATOMS    <user>   **** ""
3 43 44 45
DONOR_HYDROGENS      STATIC     ATOMS    <user>   **** ""
1 30
ATOM$BLUE        STATIC     ATOMS    COLORGROUP SYSTEM
3 43 44 45
ATOM$RED        STATIC     ATOMS    COLORGROUP SYSTEM
1 30
