AV-unprocessed.smi:3055|AV-procd|sdf|11643|dock3
  -GOLD-   2272017 33D 1   1.00000     0.00000
 Structure written by MMmdl.
 47 49  0  0  0  0  0  0  0  0  2 V2000
  146.9098  138.6512  151.1218 O   0  0  0  0  0  0  0  0  0  0  0  0
  146.5489  138.3260  152.2531 C   0  0  0  0  0  0  0  0  0  0  0  0
  145.8173  137.2224  152.4745 N   0  0  0  0  0  0  0  0  0  0  0  0
  145.3694  136.3057  151.4360 C   0  0  0  0  0  0  0  0  0  0  0  0
  144.5060  135.1891  152.0376 C   0  0  0  0  0  0  0  0  0  0  0  0
  144.8236  133.9017  151.4540 N   0  0  0  0  0  0  0  0  0  0  0  0
  146.0607  133.2711  151.4390 C   0  0  0  0  0  0  0  0  0  0  0  0
  145.8849  132.0773  150.7762 C   0  0  0  0  0  0  0  0  0  0  0  0
  144.5560  131.9538  150.3772 N   0  0  0  0  0  0  0  0  0  0  0  0
  143.9893  133.0715  150.8131 C   0  0  0  0  0  0  0  0  0  0  0  0
  146.8672  139.0347  153.3665 N   0  0  0  0  0  0  0  0  0  0  0  0
  147.4813  140.3738  153.4047 C   0  0  0  0  0  0  0  0  0  0  0  0
  146.4711  141.3727  153.9941 C   0  0  0  0  0  0  0  0  0  0  0  0
  145.9850  140.9090  155.3805 C   0  0  0  0  0  0  0  0  0  0  0  0
  145.4620  139.4486  155.3633 C   0  0  1  0  0  0  0  0  0  0  0  0
  144.1501  139.3252  154.6613 N   0  3  0  0  0  0  0  0  0  0  0  0
  143.6708  137.9417  154.4598 C   0  0  0  0  0  0  0  0  0  0  0  0
  142.1953  138.0901  154.1087 C   0  0  0  0  0  0  0  0  0  0  0  0
  141.7390  139.2748  154.9565 C   0  0  0  0  0  0  0  0  0  0  0  0
  143.0191  140.0592  155.2793 C   0  0  0  0  0  0  0  0  0  0  0  0
  146.5528  138.5531  154.7214 C   0  0  0  0  0  0  0  0  0  0  0  0
  145.5516  137.0074  153.4246 H   0  0  0  0  0  0  0  0  0  0  0  0
  144.7999  136.8604  150.6888 H   0  0  0  0  0  0  0  0  0  0  0  0
  146.2361  135.8767  150.9301 H   0  0  0  0  0  0  0  0  0  0  0  0
  144.6575  135.1257  153.1160 H   0  0  0  0  0  0  0  0  0  0  0  0
  143.4468  135.3943  151.8757 H   0  0  0  0  0  0  0  0  0  0  0  0
  146.9390  133.7118  151.8869 H   0  0  0  0  0  0  0  0  0  0  0  0
  146.6072  131.3047  150.5567 H   0  0  0  0  0  0  0  0  0  0  0  0
  142.9429  133.2919  150.6614 H   0  0  0  0  0  0  0  0  0  0  0  0
  148.3731  140.3360  154.0321 H   0  0  0  0  0  0  0  0  0  0  0  0
  147.8284  140.7357  152.4372 H   0  0  0  0  0  0  0  0  0  0  0  0
  146.9259  142.3606  154.0717 H   0  0  0  0  0  0  0  0  0  0  0  0
  145.6208  141.4764  153.3188 H   0  0  0  0  0  0  0  0  0  0  0  0
  146.8277  140.9628  156.0711 H   0  0  0  0  0  0  0  0  0  0  0  0
  145.2487  141.6070  155.7775 H   0  0  0  0  0  0  0  0  0  0  0  0
  145.3117  139.1303  156.3962 H   0  0  0  0  0  0  0  0  0  0  0  0
  144.2177  137.4161  153.6788 H   0  0  0  0  0  0  0  0  0  0  0  0
  143.7765  137.3760  155.3871 H   0  0  0  0  0  0  0  0  0  0  0  0
  142.0933  138.3332  153.0501 H   0  0  0  0  0  0  0  0  0  0  0  0
  141.6207  137.1835  154.3012 H   0  0  0  0  0  0  0  0  0  0  0  0
  141.0028  139.8850  154.4319 H   0  0  0  0  0  0  0  0  0  0  0  0
  141.2768  138.9224  155.8793 H   0  0  0  0  0  0  0  0  0  0  0  0
  143.1424  140.1149  156.3620 H   0  0  0  0  0  0  0  0  0  0  0  0
  142.9762  141.0783  154.8936 H   0  0  0  0  0  0  0  0  0  0  0  0
  146.2591  137.5032  154.7416 H   0  0  0  0  0  0  0  0  0  0  0  0
  147.4604  138.5950  155.3252 H   0  0  0  0  0  0  0  0  0  0  0  0
  144.2666  139.7183  153.7383 H   0  0  0  0  0  0  0  0  0  0  0  0
  1  2  2  0  0  0  0
  2  3  1  0  0  0  0
  2 11  1  0  0  0  0
  3  4  1  0  0  0  0
  3 22  1  0  0  0  0
  4  5  1  0  0  0  0
  4 23  1  0  0  0  0
  4 24  1  0  0  0  0
  5  6  1  0  0  0  0
  5 25  1  0  0  0  0
  5 26  1  0  0  0  0
  6 10  1  0  0  0  0
  6  7  1  0  0  0  0
  7  8  2  0  0  0  0
  7 27  1  0  0  0  0
  8  9  1  0  0  0  0
  8 28  1  0  0  0  0
  9 10  2  0  0  0  0
 10 29  1  0  0  0  0
 11 21  1  0  0  0  0
 11 12  1  0  0  0  0
 12 13  1  0  0  0  0
 12 30  1  0  0  0  0
 12 31  1  0  0  0  0
 13 14  1  0  0  0  0
 13 32  1  0  0  0  0
 13 33  1  0  0  0  0
 14 15  1  0  0  0  0
 14 34  1  0  0  0  0
 14 35  1  0  0  0  0
 15 16  1  0  0  0  0
 15 21  1  0  0  0  0
 15 36  1  0  0  0  0
 16 20  1  0  0  0  0
 16 17  1  0  0  0  0
 16 47  1  0  0  0  0
 17 18  1  0  0  0  0
 17 37  1  0  0  0  0
 17 38  1  0  0  0  0
 18 19  1  0  0  0  0
 18 39  1  0  0  0  0
 18 40  1  0  0  0  0
 19 20  1  0  0  0  0
 19 41  1  0  0  0  0
 19 42  1  0  0  0  0
 20 43  1  0  0  0  0
 20 44  1  0  0  0  0
 21 45  1  0  0  0  0
 21 46  1  0  0  0  0
M  CHG  1  16   1
M  END
> <s_m_source_file>
AV-unprocessed.smi

> <i_m_source_file_index>
3055

> <i_lp_mmshare_version>
43012

> <i_f3d_flags>
0

> <s_epik_input>
W2NIXTFuW2NIXVtjSF1uMVtDSDJdW0NIMl1bTkhdQyg9TylOMltDSDJdW0NIMl1bQ0gyXVtDQEhdKFtDSDJdMilOM1tDSDJdW0NIMl1bQ0gyXVtDSDJdMw==

> <s_epik_cmdline>
J2VwaWtfcHl0aG9uJywgJy1waCcsICc3LjAnLCAnLXRuJywgJzgnLCAnLW1hJywgJzIwMCcsICctbWV0YWxfYmluZGluZycsICctaW1hZScsICc8aW5maWxlLm1hZT4nLCAnLW9tYWUnLCAnPG91dGZpbGUubWFlPic=

> <r_lp_tautomer_probability>
1

> <r_epik_Ionization_Penalty>
0.618392

> <r_epik_Ionization_Penalty_Charging>
0.618355

> <r_epik_Ionization_Penalty_Neutral>
3.68592e-05

> <r_epik_State_Penalty>
0.635579

> <r_epik_Charging_Adjusted_Penalty>
1.25393

> <i_epik_Tot_Q>
1

> <i_epik_Tot_abs_Q>
1

> <r_epik_Metal_State_Penalty>
0.306847

> <b_epik_Metal_Only>
0

> <s_lp_Force_Field>
OPLS_2005

> <r_lp_Energy>
66.9505

> <b_lp_Chiralities_Consistent>
1

> <s_lp_Variant>
AV-unprocessed.smi:3055-3

> <Gold.Version>
5.8.1

> <Gold.Id.Protein>
6NUR|6NUR_protein|mol2

> <Gold.PLP.Fitness>
42.2264

> <Gold.PLP.PLP>
-29.3585

> <Gold.PLP.part.hbond>
-2.0553

> <Gold.PLP.part.metal>
0.0000

> <Gold.PLP.part.buried>
-3.9789

> <Gold.PLP.part.nonpolar>
-24.1850

> <Gold.PLP.part.repulsive>
1.0224

> <Gold.PLP.ligand.clash>
1.3371

> <Gold.PLP.ligand.torsion>
0.3789

> <Gold.PLP.Chemscore.Hbond>
2.9760

> <Gold.PLP.Chemscore.CHOScore>
2.0000

> <Gold.PLP.Chemscore.Metal>
0.0000

> <Gold.Chemscore.Hbonds>
donor molecule, donor type, donor heavy atom, donor atom, acceptor molecule, acceptor atom, score
      L1  H    16    47       P1 10175  1.98
      P1  H  7954  7966       L1     1  1.00
      L1  C     8    28       P1 10747  1.00
      L1  C    10    29       P1 10186  1.00

> <Gold.PLP.Chemscore.Internal.Correction>
0.0347

> <Gold.Rescore>
     Score         DG    S(hbond)    S(metal)    S(lipo)     H(rot)  DE(clash)    DE(int)     intcor
     11.48     -12.69       1.87        0.00      47.86       1.81       0.82       0.38       ----

> <Gold.Chemscore.Fitness>
11.4840

> <Gold.Chemscore.DG>
-12.6907

> <Gold.Chemscore.ZeroCoef>
-5.4800

> <Gold.Chemscore.Hbond>
1.8672

> <Gold.Chemscore.Metal>
0.0000

> <Gold.Chemscore.Lipo>
47.8558

> <Gold.Chemscore.Internal_Hbond>
0.0000

> <Gold.Chemscore.DEClash>
0.8230

> <Gold.Chemscore.DEInternal>
0.3837

> <Gold.Chemscore.Rot>
1.8066

> <Gold.Chemscore.Internal.Correction>
   9.000000E+99

> <Gold.Chemscore.Hbonds>
donor molecule, donor type, donor heavy atom, donor atom, acceptor molecule, acceptor atom, score
      L1  H    16    47       P1 10175  0.91
      P1  H  7954  7966       L1     1  0.94

> <Gold.Chemscore.Hbond.Weighted>
-6.2366

> <Gold.Chemscore.Metal.Weighted>
-0.0000

> <Gold.Chemscore.Lipo.Weighted>
-5.5991

> <Gold.Chemscore.Internal_Hbond.Weighted>
0.0000

> <Gold.Chemscore.DEClash.Weighted>
0.8230

> <Gold.Chemscore.DEInternal.Weighted>
0.3837

> <Gold.Chemscore.Rot.Weighted>
4.6249

> <Gold.Chemscore.Internal.Correction.Weighted>
   9.000000E+99

> <Gold.Protein.RotatedTorsions>
[ 6907 6896 6895 6894 ] final   45.58 input  -60.11 | X-H torsion
[ 7974 7965 7964 7962 ] final  -64.77 input  175.53 | X-H torsion
[ 8008 7997 7996 7995 ] final  -95.56 input   59.86 | X-H torsion
[ 10167 10162 10161 10158 ] final  143.47 input  -65.29 | X-H torsion
[ 10718 10713 10712 10709 ] final -107.58 input   66.30 | X-H torsion
[ 10763 10752 10751 10750 ] final   -4.43 input  -60.55 | X-H torsion
[ 11005 11000 10999 10996 ] final  -94.27 input  -57.11 | X-H torsion

> <Gold.Protein.ActiveResidues>
 VAL166  LYS551  ARG553  GLY616  TRP617  ASP618  TYR619  PRO620  LYS621  CYS622 
 ASP623  PHE694  ASN695  SER759  ASP760  ASP761  ALA762  ILE779  LEU786  VAL792 
 PHE793  MET794  SER795  GLU796  ALA797  LYS798  CYS799  TRP800  GLU811  SER814 

> <Gold.Protein.RotatedAtoms>
  152.2463  134.8178  160.0452 H   0  0  0  0  0  0  0  0  0  0  0  0  # atno 6907 bound_to 6896
  151.8874  133.3503  159.3795 H   0  0  0  0  0  0  0  0  0  0  0  0  # atno 6908 bound_to 6896
  150.7069  134.4884  159.5548 H   0  0  0  0  0  0  0  0  0  0  0  0  # atno 6909 bound_to 6896
  145.7626  140.8853  143.0422 H   0  0  0  0  0  0  0  0  0  0  0  0  # atno 7974 bound_to 7965
  154.7629  140.0479  157.0988 H   0  0  0  0  0  0  0  0  0  0  0  0  # atno 8008 bound_to 7997
  154.9915  140.3114  155.4885 H   0  0  0  0  0  0  0  0  0  0  0  0  # atno 8009 bound_to 7997
  156.2907  140.2218  156.5020 H   0  0  0  0  0  0  0  0  0  0  0  0  # atno 8010 bound_to 7997
  139.4969  144.6038  151.6423 H   0  0  0  0  0  0  0  0  0  0  0  0  # atno 10167 bound_to 10162
  156.0444  130.5670  150.7842 H   0  0  0  0  0  0  0  0  0  0  0  0  # atno 10718 bound_to 10713
  153.3848  135.6999  153.6538 H   0  0  0  0  0  0  0  0  0  0  0  0  # atno 10763 bound_to 10752
  153.5135  135.3627  155.2598 H   0  0  0  0  0  0  0  0  0  0  0  0  # atno 10764 bound_to 10752
  154.8696  135.4140  154.3153 H   0  0  0  0  0  0  0  0  0  0  0  0  # atno 10765 bound_to 10752
  141.1475  133.7944  157.0274 H   0  0  0  0  0  0  0  0  0  0  0  0  # atno 11005 bound_to 11000
  144.6827  139.9744  143.7482 LP  0  0  0  0  0  0  0  0  0  0  0  0  # atno 17320 bound_to 7965
  146.0249  139.3283  143.0790 LP  0  0  0  0  0  0  0  0  0  0  0  0  # atno 17321 bound_to 7965
  140.5694  144.0134  150.6209 LP  0  0  0  0  0  0  0  0  0  0  0  0  # atno 17342 bound_to 10162
  140.3247  143.3115  152.0749 LP  0  0  0  0  0  0  0  0  0  0  0  0  # atno 17343 bound_to 10162
  157.5301  131.0936  150.9966 LP  0  0  0  0  0  0  0  0  0  0  0  0  # atno 17370 bound_to 10713
  157.0275  130.5698  149.5339 LP  0  0  0  0  0  0  0  0  0  0  0  0  # atno 17371 bound_to 10713
  140.0776  134.9667  157.1571 LP  0  0  0  0  0  0  0  0  0  0  0  0  # atno 17394 bound_to 11000
  140.3622  134.2482  155.7186 LP  0  0  0  0  0  0  0  0  0  0  0  0  # atno 17395 bound_to 11000

$$$$
