AV-unprocessed.smi:1679|AV-procd|sdf|6733|dock9
  -GOLD-   22720 7483D 1   1.00000     0.00000
 Structure written by MMmdl.
 44 45  0  0  0  0  0  0  0  0  2 V2000
  153.1488  142.7084  162.5587 C   0  0  0  0  0  0  0  0  0  0  0  0
  152.9941  143.1976  161.1096 C   0  0  2  0  0  0  0  0  0  0  0  0
  151.9961  144.3711  161.0335 C   0  0  0  0  0  0  0  0  0  0  0  0
  151.8176  144.8766  159.5934 C   0  0  0  0  0  0  0  0  0  0  0  0
  151.3814  143.7387  158.6607 C   0  0  0  0  0  0  0  0  0  0  0  0
  152.3756  142.5715  158.7224 C   0  0  0  0  0  0  0  0  0  0  0  0
  152.5652  142.0537  160.1634 C   0  0  1  0  0  0  0  0  0  0  0  0
  153.5970  141.0771  160.1533 O   0  0  0  0  0  0  0  0  0  0  0  0
  153.3912  140.0117  159.2369 C   0  0  0  0  0  0  0  0  0  0  0  0
  152.7475  138.8431  159.9886 C   0  0  0  0  0  0  0  0  0  0  0  0
  153.6737  138.3466  160.9951 N   0  0  0  0  0  0  0  0  0  0  0  0
  154.1203  137.0856  161.0934 C   0  0  0  0  0  0  0  0  0  0  0  0
  153.7740  136.1946  160.3184 O   0  0  0  0  0  0  0  0  0  0  0  0
  155.1164  136.7592  162.2200 C   0  0  0  0  0  0  0  0  0  0  0  0
  154.8875  135.4662  162.8926 N   0  0  0  0  0  0  0  0  0  0  0  0
  154.5493  135.4952  164.2573 C   0  0  0  0  0  0  0  0  0  0  0  0
  154.3099  134.3685  164.9548 C   0  0  0  0  0  0  0  0  0  0  0  0
  154.4119  133.0915  164.2596 C   0  0  0  0  0  0  0  0  0  0  0  0
  154.1918  132.0526  164.8789 O   0  0  0  0  0  0  0  0  0  0  0  0
  154.7449  133.1150  162.9358 N   0  5  0  0  0  0  0  0  0  0  0  0
  154.9750  134.2695  162.2364 C   0  0  0  0  0  0  0  0  0  0  0  0
  155.2520  134.2686  161.0370 O   0  0  0  0  0  0  0  0  0  0  0  0
  152.2088  142.3151  162.9468 H   0  0  0  0  0  0  0  0  0  0  0  0
  153.4668  143.5194  163.2144 H   0  0  0  0  0  0  0  0  0  0  0  0
  153.8958  141.9176  162.6324 H   0  0  0  0  0  0  0  0  0  0  0  0
  153.9664  143.5652  160.7773 H   0  0  0  0  0  0  0  0  0  0  0  0
  151.0290  144.0580  161.4294 H   0  0  0  0  0  0  0  0  0  0  0  0
  152.3368  145.1917  161.6662 H   0  0  0  0  0  0  0  0  0  0  0  0
  151.0818  145.6806  159.5684 H   0  0  0  0  0  0  0  0  0  0  0  0
  152.7555  145.3033  159.2351 H   0  0  0  0  0  0  0  0  0  0  0  0
  150.3872  143.3901  158.9426 H   0  0  0  0  0  0  0  0  0  0  0  0
  151.3045  144.1062  157.6368 H   0  0  0  0  0  0  0  0  0  0  0  0
  152.0395  141.7727  158.0617 H   0  0  0  0  0  0  0  0  0  0  0  0
  153.3393  142.9023  158.3355 H   0  0  0  0  0  0  0  0  0  0  0  0
  151.6330  141.6217  160.5335 H   0  0  0  0  0  0  0  0  0  0  0  0
  152.7442  140.3567  158.4298 H   0  0  0  0  0  0  0  0  0  0  0  0
  154.3243  139.6788  158.7798 H   0  0  0  0  0  0  0  0  0  0  0  0
  151.8172  139.1567  160.4638 H   0  0  0  0  0  0  0  0  0  0  0  0
  152.5036  138.0434  159.2877 H   0  0  0  0  0  0  0  0  0  0  0  0
  153.9968  139.0129  161.6825 H   0  0  0  0  0  0  0  0  0  0  0  0
  156.1275  136.8061  161.8126 H   0  0  0  0  0  0  0  0  0  0  0  0
  155.0724  137.5664  162.9526 H   0  0  0  0  0  0  0  0  0  0  0  0
  154.4893  136.4814  164.6938 H   0  0  0  0  0  0  0  0  0  0  0  0
  154.0468  134.4088  166.0016 H   0  0  0  0  0  0  0  0  0  0  0  0
  1  2  1  0  0  0  0
  1 23  1  0  0  0  0
  1 24  1  0  0  0  0
  1 25  1  0  0  0  0
  2  7  1  0  0  0  0
  2  3  1  0  0  0  0
  2 26  1  0  0  0  0
  3  4  1  0  0  0  0
  3 27  1  0  0  0  0
  3 28  1  0  0  0  0
  4  5  1  0  0  0  0
  4 29  1  0  0  0  0
  4 30  1  0  0  0  0
  5  6  1  0  0  0  0
  5 31  1  0  0  0  0
  5 32  1  0  0  0  0
  6  7  1  0  0  0  0
  6 33  1  0  0  0  0
  6 34  1  0  0  0  0
  7  8  1  0  0  0  0
  7 35  1  0  0  0  0
  8  9  1  0  0  0  0
  9 10  1  0  0  0  0
  9 36  1  0  0  0  0
  9 37  1  0  0  0  0
 10 11  1  0  0  0  0
 10 38  1  0  0  0  0
 10 39  1  0  0  0  0
 11 12  1  0  0  0  0
 11 40  1  0  0  0  0
 12 13  2  0  0  0  0
 12 14  1  0  0  0  0
 14 15  1  0  0  0  0
 14 41  1  0  0  0  0
 14 42  1  0  0  0  0
 15 21  1  0  0  0  0
 15 16  1  0  0  0  0
 16 17  2  0  0  0  0
 16 43  1  0  0  0  0
 17 18  1  0  0  0  0
 17 44  1  0  0  0  0
 18 19  2  0  0  0  0
 18 20  1  0  0  0  0
 20 21  1  0  0  0  0
 21 22  2  0  0  0  0
M  CHG  1  20  -1
M  END
> <s_m_source_file>
AV-unprocessed.smi

> <i_m_source_file_index>
1679

> <i_lp_mmshare_version>
43012

> <i_f3d_flags>
0

> <s_epik_input>
W0NIM11bQ0BASF0xW0NIMl1bQ0gyXVtDSDJdW0NIMl1bQ0BIXTFPW0NIMl1bQ0gyXVtOSF1DKD1PKVtDSDJdbjJbY0hdW2NIXWMoPU8pW25IXWMyPU8=

> <s_epik_cmdline>
J2VwaWtfcHl0aG9uJywgJy1waCcsICc3LjAnLCAnLXRuJywgJzgnLCAnLW1hJywgJzIwMCcsICctbWV0YWxfYmluZGluZycsICctaW1hZScsICc8aW5maWxlLm1hZT4nLCAnLW9tYWUnLCAnPG91dGZpbGUubWFlPic=

> <r_lp_tautomer_probability>
0.999537

> <r_epik_Ionization_Penalty>
3.07454

> <r_epik_Ionization_Penalty_Charging>
2.80088e-08

> <r_epik_Ionization_Penalty_Neutral>
3.07454

> <r_epik_State_Penalty>
3.07357

> <r_epik_Charging_Adjusted_Penalty>
3.07357

> <i_epik_Tot_Q>
-1

> <i_epik_Tot_abs_Q>
1

> <r_epik_Metal_State_Penalty>
0.45948

> <b_epik_Metal_Only>
1

> <s_lp_Force_Field>
OPLS_2005

> <r_lp_Energy>
18.3585

> <b_lp_Chiralities_Consistent>
1

> <s_lp_Variant>
AV-unprocessed.smi:1679-5

> <Gold.Version>
5.8.1

> <Gold.Id.Protein>
6NUR|6NUR_protein|mol2

> <Gold.PLP.Fitness>
47.5454

> <Gold.PLP.PLP>
-45.5509

> <Gold.PLP.part.hbond>
-1.0000

> <Gold.PLP.part.metal>
0.0000

> <Gold.PLP.part.buried>
-5.9081

> <Gold.PLP.part.nonpolar>
-38.3593

> <Gold.PLP.part.repulsive>
0.0622

> <Gold.PLP.ligand.clash>
0.0000

> <Gold.PLP.ligand.torsion>
0.5411

> <Gold.PLP.Chemscore.Hbond>
1.0000

> <Gold.PLP.Chemscore.CHOScore>
0.0000

> <Gold.PLP.Chemscore.Metal>
0.0000

> <Gold.Chemscore.Hbonds>
donor molecule, donor type, donor heavy atom, donor atom, acceptor molecule, acceptor atom, score
      P1  H  6896  6909       L1    13  1.00

> <Gold.PLP.Chemscore.Internal.Correction>
0.0767

> <Gold.Rescore>
     Score         DG    S(hbond)    S(metal)    S(lipo)     H(rot)  DE(clash)    DE(int)     intcor
     14.46     -16.34       1.00        0.00     117.92       2.45       0.00       1.88       ----

> <Gold.Chemscore.Fitness>
14.4600

> <Gold.Chemscore.DG>
-16.3432

> <Gold.Chemscore.ZeroCoef>
-5.4800

> <Gold.Chemscore.Hbond>
0.9988

> <Gold.Chemscore.Metal>
0.0000

> <Gold.Chemscore.Lipo>
117.9189

> <Gold.Chemscore.Internal_Hbond>
0.0000

> <Gold.Chemscore.DEClash>
0.0004

> <Gold.Chemscore.DEInternal>
1.8828

> <Gold.Chemscore.Rot>
2.4490

> <Gold.Chemscore.Internal.Correction>
   9.000000E+99

> <Gold.Chemscore.Hbonds>
donor molecule, donor type, donor heavy atom, donor atom, acceptor molecule, acceptor atom, score
      P1  H  6896  6909       L1    13  0.95

> <Gold.Chemscore.Hbond.Weighted>
-3.3361

> <Gold.Chemscore.Metal.Weighted>
-0.0000

> <Gold.Chemscore.Lipo.Weighted>
-13.7965

> <Gold.Chemscore.Internal_Hbond.Weighted>
0.0000

> <Gold.Chemscore.DEClash.Weighted>
0.0004

> <Gold.Chemscore.DEInternal.Weighted>
1.8828

> <Gold.Chemscore.Rot.Weighted>
6.2694

> <Gold.Chemscore.Internal.Correction.Weighted>
   9.000000E+99

> <Gold.Protein.RotatedTorsions>
[ 6907 6896 6895 6894 ] final  173.09 input  -60.11 | X-H torsion
[ 7974 7965 7964 7962 ] final  177.72 input  175.53 | X-H torsion
[ 8008 7997 7996 7995 ] final  -92.28 input   59.86 | X-H torsion
[ 10167 10162 10161 10158 ] final  -93.99 input  -65.29 | X-H torsion
[ 10718 10713 10712 10709 ] final -135.98 input   66.30 | X-H torsion
[ 10763 10752 10751 10750 ] final -161.45 input  -60.55 | X-H torsion
[ 11005 11000 10999 10996 ] final  -77.28 input  -57.11 | X-H torsion

> <Gold.Protein.ActiveResidues>
 VAL166  LYS551  ARG553  GLY616  TRP617  ASP618  TYR619  PRO620  LYS621  CYS622 
 ASP623  PHE694  ASN695  SER759  ASP760  ASP761  ALA762  ILE779  LEU786  VAL792 
 PHE793  MET794  SER795  GLU796  ALA797  LYS798  CYS799  TRP800  GLU811  SER814 

> <Gold.Protein.RotatedAtoms>
  151.7739  133.3343  159.3451 H   0  0  0  0  0  0  0  0  0  0  0  0  # atno 6907 bound_to 6896
  150.7451  134.5993  159.6038 H   0  0  0  0  0  0  0  0  0  0  0  0  # atno 6908 bound_to 6896
  152.3323  134.7245  160.0338 H   0  0  0  0  0  0  0  0  0  0  0  0  # atno 6909 bound_to 6896
  144.7165  140.0290  143.6439 H   0  0  0  0  0  0  0  0  0  0  0  0  # atno 7974 bound_to 7965
  154.7211  140.0510  157.0640 H   0  0  0  0  0  0  0  0  0  0  0  0  # atno 8008 bound_to 7997
  155.0426  140.3170  155.4700 H   0  0  0  0  0  0  0  0  0  0  0  0  # atno 8009 bound_to 7997
  156.2817  140.2130  156.5550 H   0  0  0  0  0  0  0  0  0  0  0  0  # atno 8010 bound_to 7997
  140.3190  143.3060  152.0067 H   0  0  0  0  0  0  0  0  0  0  0  0  # atno 10167 bound_to 10162
  156.2720  130.7271  151.1241 H   0  0  0  0  0  0  0  0  0  0  0  0  # atno 10718 bound_to 10713
  154.7302  135.3045  154.8903 H   0  0  0  0  0  0  0  0  0  0  0  0  # atno 10763 bound_to 10752
  153.9748  135.6737  153.4752 H   0  0  0  0  0  0  0  0  0  0  0  0  # atno 10764 bound_to 10752
  153.0912  135.4958  154.8613 H   0  0  0  0  0  0  0  0  0  0  0  0  # atno 10765 bound_to 10752
  141.1659  133.7016  156.7796 H   0  0  0  0  0  0  0  0  0  0  0  0  # atno 11005 bound_to 11000
  146.0118  139.3176  143.0866 LP  0  0  0  0  0  0  0  0  0  0  0  0  # atno 17320 bound_to 7965
  145.8673  140.9441  143.0669 LP  0  0  0  0  0  0  0  0  0  0  0  0  # atno 17321 bound_to 7965
  139.4878  144.6326  151.7040 LP  0  0  0  0  0  0  0  0  0  0  0  0  # atno 17342 bound_to 10162
  140.5500  144.0440  150.6123 LP  0  0  0  0  0  0  0  0  0  0  0  0  # atno 17343 bound_to 10162
  157.7287  131.0630  150.5808 LP  0  0  0  0  0  0  0  0  0  0  0  0  # atno 17370 bound_to 10713
  156.5906  130.4328  149.5938 LP  0  0  0  0  0  0  0  0  0  0  0  0  # atno 17371 bound_to 10713
  140.2404  134.8618  157.3567 LP  0  0  0  0  0  0  0  0  0  0  0  0  # atno 17394 bound_to 11000
  140.1802  134.4500  155.7777 LP  0  0  0  0  0  0  0  0  0  0  0  0  # atno 17395 bound_to 11000

$$$$
