AV-unprocessed.smi:3031|AV-procd|sdf|11555|dock3
  -GOLD-   2272016523D 1   1.00000     0.00000
 Structure written by MMmdl.
 46 47  0  0  0  0  0  0  0  0  1 V2000
  143.7989  132.4118  149.6162 C   0  0  0  0  0  0  0  0  0  0  0  0
  144.1212  133.3494  150.7438 C   0  0  0  0  0  0  0  0  0  0  0  0
  143.4637  133.4593  152.0019 C   0  0  0  0  0  0  0  0  0  0  0  0
  143.9940  134.3885  152.7795 N   0  0  0  0  0  0  0  0  0  0  0  0
  145.0117  134.8987  152.0528 N   0  0  0  0  0  0  0  0  0  0  0  0
  145.8357  135.9619  152.6072 C   0  0  0  0  0  0  0  0  0  0  0  0
  145.0846  137.3060  152.7875 C   0  0  2  0  0  0  0  0  0  0  0  0
  143.5595  137.1206  152.8278 C   0  0  0  0  0  0  0  0  0  0  0  0
  145.4258  138.2931  151.7575 N   0  0  0  0  0  0  0  0  0  0  0  0
  146.7430  138.9165  151.8863 C   0  0  0  0  0  0  0  0  0  0  0  0
  147.1548  139.0375  153.3621 C   0  0  1  0  0  0  0  0  0  0  0  0
  148.1067  138.0251  153.6167 O   0  0  0  0  0  0  0  0  0  0  0  0
  147.8137  140.4010  153.6688 C   0  0  0  0  0  0  0  0  0  0  0  0
  148.7584  140.4098  154.7868 N   0  0  0  0  0  0  0  0  0  0  0  0
  148.1021  140.2204  156.0797 C   0  0  0  0  0  0  0  0  0  0  0  0
  149.1050  140.2656  157.2459 C   0  0  0  0  0  0  0  0  0  0  0  0
  149.8233  141.4946  157.2150 O   0  0  0  0  0  0  0  0  0  0  0  0
  150.5147  141.6945  155.9866 C   0  0  0  0  0  0  0  0  0  0  0  0
  149.5116  141.6590  154.8209 C   0  0  0  0  0  0  0  0  0  0  0  0
  145.1050  134.2948  150.8165 C   0  0  0  0  0  0  0  0  0  0  0  0
  144.0364  131.3795  149.8731 H   0  0  0  0  0  0  0  0  0  0  0  0
  144.3579  132.6550  148.7123 H   0  0  0  0  0  0  0  0  0  0  0  0
  142.7405  132.4437  149.3569 H   0  0  0  0  0  0  0  0  0  0  0  0
  142.6200  132.8948  152.3705 H   0  0  0  0  0  0  0  0  0  0  0  0
  146.2067  135.6239  153.5755 H   0  0  0  0  0  0  0  0  0  0  0  0
  146.7234  136.0816  151.9861 H   0  0  0  0  0  0  0  0  0  0  0  0
  145.3760  137.7096  153.7581 H   0  0  0  0  0  0  0  0  0  0  0  0
  143.2728  136.3919  153.5866 H   0  0  0  0  0  0  0  0  0  0  0  0
  143.1671  136.7778  151.8699 H   0  0  0  0  0  0  0  0  0  0  0  0
  143.0587  138.0584  153.0706 H   0  0  0  0  0  0  0  0  0  0  0  0
  144.7115  139.0135  151.7241 H   0  0  0  0  0  0  0  0  0  0  0  0
  147.4777  138.3127  151.3519 H   0  0  0  0  0  0  0  0  0  0  0  0
  146.7577  139.9053  151.4289 H   0  0  0  0  0  0  0  0  0  0  0  0
  146.2835  138.8540  153.9896 H   0  0  0  0  0  0  0  0  0  0  0  0
  148.1448  137.4549  152.8641 H   0  0  0  0  0  0  0  0  0  0  0  0
  148.3198  140.7422  152.7640 H   0  0  0  0  0  0  0  0  0  0  0  0
  147.0375  141.1432  153.8620 H   0  0  0  0  0  0  0  0  0  0  0  0
  147.3452  140.9924  156.2267 H   0  0  0  0  0  0  0  0  0  0  0  0
  147.5822  139.2640  156.1090 H   0  0  0  0  0  0  0  0  0  0  0  0
  148.5820  140.1828  158.1989 H   0  0  0  0  0  0  0  0  0  0  0  0
  149.8017  139.4276  157.1891 H   0  0  0  0  0  0  0  0  0  0  0  0
  151.0272  142.6559  156.0180 H   0  0  0  0  0  0  0  0  0  0  0  0
  151.2798  140.9265  155.8616 H   0  0  0  0  0  0  0  0  0  0  0  0
  150.0499  141.7923  153.8816 H   0  0  0  0  0  0  0  0  0  0  0  0
  148.8259  142.5034  154.9093 H   0  0  0  0  0  0  0  0  0  0  0  0
  145.8610  134.5812  150.1001 H   0  0  0  0  0  0  0  0  0  0  0  0
  1  2  1  0  0  0  0
  1 21  1  0  0  0  0
  1 22  1  0  0  0  0
  1 23  1  0  0  0  0
  2 20  2  0  0  0  0
  2  3  1  0  0  0  0
  3  4  2  0  0  0  0
  3 24  1  0  0  0  0
  4  5  1  0  0  0  0
  5  6  1  0  0  0  0
  5 20  1  0  0  0  0
  6  7  1  0  0  0  0
  6 25  1  0  0  0  0
  6 26  1  0  0  0  0
  7  8  1  0  0  0  0
  7  9  1  0  0  0  0
  7 27  1  0  0  0  0
  8 28  1  0  0  0  0
  8 29  1  0  0  0  0
  8 30  1  0  0  0  0
  9 10  1  0  0  0  0
  9 31  1  0  0  0  0
 10 11  1  0  0  0  0
 10 32  1  0  0  0  0
 10 33  1  0  0  0  0
 11 12  1  0  0  0  0
 11 13  1  0  0  0  0
 11 34  1  0  0  0  0
 12 35  1  0  0  0  0
 13 14  1  0  0  0  0
 13 36  1  0  0  0  0
 13 37  1  0  0  0  0
 14 19  1  0  0  0  0
 14 15  1  0  0  0  0
 15 16  1  0  0  0  0
 15 38  1  0  0  0  0
 15 39  1  0  0  0  0
 16 17  1  0  0  0  0
 16 40  1  0  0  0  0
 16 41  1  0  0  0  0
 17 18  1  0  0  0  0
 18 19  1  0  0  0  0
 18 42  1  0  0  0  0
 18 43  1  0  0  0  0
 19 44  1  0  0  0  0
 19 45  1  0  0  0  0
 20 46  1  0  0  0  0
M  END
> <s_m_source_file>
AV-unprocessed.smi

> <i_m_source_file_index>
3031

> <i_lp_mmshare_version>
43012

> <i_f3d_flags>
0

> <s_epik_input>
W0NIM11jMVtjSF1ubihbY0hdMSlbQ0gyXVtDQEhdKFtDSDNdKVtOSF1bQ0gyXVtDQEhdKFtPSF0pW0NIMl1OMltDSDJdW0NIMl1PW0NIMl1bQ0gyXTI=

> <s_epik_cmdline>
J2VwaWtfcHl0aG9uJywgJy1waCcsICc3LjAnLCAnLXRuJywgJzgnLCAnLW1hJywgJzIwMCcsICctbWV0YWxfYmluZGluZycsICctaW1hZScsICc8aW5maWxlLm1hZT4nLCAnLW9tYWUnLCAnPG91dGZpbGUubWFlPic=

> <r_lp_tautomer_probability>
1

> <r_epik_Ionization_Penalty>
2.8101

> <r_epik_Ionization_Penalty_Charging>
0

> <r_epik_Ionization_Penalty_Neutral>
2.8101

> <r_epik_State_Penalty>
2.12351

> <r_epik_Charging_Adjusted_Penalty>
2.12351

> <i_epik_Tot_Q>
0

> <i_epik_Tot_abs_Q>
0

> <r_epik_Metal_State_Penalty>
2.12345

> <b_epik_Metal_Only>
0

> <s_lp_Force_Field>
OPLS_2005

> <r_lp_Energy>
32.0321

> <b_lp_Chiralities_Consistent>
1

> <s_lp_Variant>
AV-unprocessed.smi:3031-15

> <Gold.Version>
5.8.1

> <Gold.Id.Protein>
6NUR|6NUR_protein|mol2

> <Gold.PLP.Fitness>
41.7906

> <Gold.PLP.PLP>
-34.9487

> <Gold.PLP.part.hbond>
-2.9174

> <Gold.PLP.part.metal>
0.0000

> <Gold.PLP.part.buried>
-2.6230

> <Gold.PLP.part.nonpolar>
-30.1837

> <Gold.PLP.part.repulsive>
0.2762

> <Gold.PLP.ligand.clash>
0.0000

> <Gold.PLP.ligand.torsion>
1.9165

> <Gold.PLP.Chemscore.Hbond>
2.0000

> <Gold.PLP.Chemscore.CHOScore>
1.4778

> <Gold.PLP.Chemscore.Metal>
0.0000

> <Gold.Chemscore.Hbonds>
donor molecule, donor type, donor heavy atom, donor atom, acceptor molecule, acceptor atom, score
      L1  H     9    31       P1 10175  1.00
      L1  H    12    35       P1  7948  1.00
      L1  C     3    24       P1 10957  0.48
      L1  C    20    46       P1  7921  1.00

> <Gold.PLP.Chemscore.Internal.Correction>
0.2415

> <Gold.Rescore>
     Score         DG    S(hbond)    S(metal)    S(lipo)     H(rot)  DE(clash)    DE(int)     intcor
     12.39     -15.72       1.94        0.00      87.53       2.53       0.02       3.31       ----

> <Gold.Chemscore.Fitness>
12.3918

> <Gold.Chemscore.DG>
-15.7164

> <Gold.Chemscore.ZeroCoef>
-5.4800

> <Gold.Chemscore.Hbond>
1.9401

> <Gold.Chemscore.Metal>
0.0000

> <Gold.Chemscore.Lipo>
87.5348

> <Gold.Chemscore.Internal_Hbond>
0.0000

> <Gold.Chemscore.DEClash>
0.0176

> <Gold.Chemscore.DEInternal>
3.3070

> <Gold.Chemscore.Rot>
2.5333

> <Gold.Chemscore.Internal.Correction>
   9.000000E+99

> <Gold.Chemscore.Hbonds>
donor molecule, donor type, donor heavy atom, donor atom, acceptor molecule, acceptor atom, score
      L1  H     9    31       P1 10175  0.96
      L1  H    12    35       P1  7948  0.96

> <Gold.Chemscore.Hbond.Weighted>
-6.4799

> <Gold.Chemscore.Metal.Weighted>
-0.0000

> <Gold.Chemscore.Lipo.Weighted>
-10.2416

> <Gold.Chemscore.Internal_Hbond.Weighted>
0.0000

> <Gold.Chemscore.DEClash.Weighted>
0.0176

> <Gold.Chemscore.DEInternal.Weighted>
3.3070

> <Gold.Chemscore.Rot.Weighted>
6.4852

> <Gold.Chemscore.Internal.Correction.Weighted>
   9.000000E+99

> <Gold.Protein.RotatedTorsions>
[ 6907 6896 6895 6894 ] final  150.37 input  -60.11 | X-H torsion
[ 7974 7965 7964 7962 ] final   -1.35 input  175.53 | X-H torsion
[ 8008 7997 7996 7995 ] final  -66.63 input   59.86 | X-H torsion
[ 10167 10162 10161 10158 ] final  -65.61 input  -65.29 | X-H torsion
[ 10718 10713 10712 10709 ] final  -63.86 input   66.30 | X-H torsion
[ 10763 10752 10751 10750 ] final -117.03 input  -60.55 | X-H torsion
[ 11005 11000 10999 10996 ] final   47.14 input  -57.11 | X-H torsion

> <Gold.Protein.ActiveResidues>
 VAL166  LYS551  ARG553  GLY616  TRP617  ASP618  TYR619  PRO620  LYS621  CYS622 
 ASP623  PHE694  ASN695  SER759  ASP760  ASP761  ALA762  ILE779  LEU786  VAL792 
 PHE793  MET794  SER795  GLU796  ALA797  LYS798  CYS799  TRP800  GLU811  SER814 

> <Gold.Protein.RotatedAtoms>
  152.1153  133.4323  159.4649 H   0  0  0  0  0  0  0  0  0  0  0  0  # atno 6907 bound_to 6896
  150.6869  134.2600  159.4554 H   0  0  0  0  0  0  0  0  0  0  0  0  # atno 6908 bound_to 6896
  152.0472  134.9675  160.0625 H   0  0  0  0  0  0  0  0  0  0  0  0  # atno 6909 bound_to 6896
  146.2418  140.1407  142.8335 H   0  0  0  0  0  0  0  0  0  0  0  0  # atno 7974 bound_to 7965
  154.4747  140.0909  156.7233 H   0  0  0  0  0  0  0  0  0  0  0  0  # atno 8008 bound_to 7997
  155.4628  140.3461  155.4297 H   0  0  0  0  0  0  0  0  0  0  0  0  # atno 8009 bound_to 7997
  156.1097  140.1444  156.9344 H   0  0  0  0  0  0  0  0  0  0  0  0  # atno 8010 bound_to 7997
  140.5717  143.2318  151.6525 H   0  0  0  0  0  0  0  0  0  0  0  0  # atno 10167 bound_to 10162
  156.0764  130.4226  150.1338 H   0  0  0  0  0  0  0  0  0  0  0  0  # atno 10718 bound_to 10713
  154.8540  135.4324  154.1914 H   0  0  0  0  0  0  0  0  0  0  0  0  # atno 10763 bound_to 10752
  153.2982  135.6967  153.7234 H   0  0  0  0  0  0  0  0  0  0  0  0  # atno 10764 bound_to 10752
  153.6375  135.3474  155.3035 H   0  0  0  0  0  0  0  0  0  0  0  0  # atno 10765 bound_to 10752
  140.1306  134.4711  155.8525 H   0  0  0  0  0  0  0  0  0  0  0  0  # atno 11005 bound_to 11000
  145.0249  140.8824  143.5144 LP  0  0  0  0  0  0  0  0  0  0  0  0  # atno 17320 bound_to 7965
  145.1462  139.2542  143.5464 LP  0  0  0  0  0  0  0  0  0  0  0  0  # atno 17321 bound_to 7965
  139.5121  144.3487  152.0672 LP  0  0  0  0  0  0  0  0  0  0  0  0  # atno 17342 bound_to 10162
  140.2626  144.4051  150.6180 LP  0  0  0  0  0  0  0  0  0  0  0  0  # atno 17343 bound_to 10162
  156.9378  130.9734  151.3521 LP  0  0  0  0  0  0  0  0  0  0  0  0  # atno 17370 bound_to 10713
  157.5862  130.8411  149.8593 LP  0  0  0  0  0  0  0  0  0  0  0  0  # atno 17371 bound_to 10713
  141.2169  133.6794  156.7061 LP  0  0  0  0  0  0  0  0  0  0  0  0  # atno 17394 bound_to 11000
  140.2847  134.8288  157.3964 LP  0  0  0  0  0  0  0  0  0  0  0  0  # atno 17395 bound_to 11000

$$$$
