AV-unprocessed.smi:203|AV-procd|sdf|1582|dock7
  -GOLD-   2262019473D 1   1.00000     0.00000
 Structure written by MMmdl.
 57 61  0  0  0  0  0  0  0  0  1 V2000
  143.4133  132.1686  148.4723 O   0  0  0  0  0  0  0  0  0  0  0  0
  144.1513  132.5132  149.3922 C   0  0  0  0  0  0  0  0  0  0  0  0
  143.9502  132.0828  150.8349 C   0  0  0  0  0  0  0  0  0  0  0  0
  145.2354  132.5634  151.5398 C   0  0  1  0  0  0  0  0  0  0  0  0
  146.1852  131.4156  152.0088 C   0  0  2  0  0  0  0  0  0  0  0  0
  145.6333  130.0041  151.6748 C   0  0  0  0  0  0  0  0  0  0  0  0
  146.5875  128.8964  152.1397 C   0  0  0  0  0  0  0  0  0  0  0  0
  146.8712  129.0484  153.6377 C   0  0  0  0  0  0  0  0  0  0  0  0
  147.4188  130.4498  153.9376 C   0  0  0  0  0  0  0  0  0  0  0  0
  146.5190  131.4916  153.4426 N   0  0  0  0  0  0  0  0  0  0  0  0
  146.9052  132.7002  153.9086 C   0  0  0  0  0  0  0  0  0  0  0  0
  145.9664  133.6772  153.9481 N   0  0  0  0  0  0  0  0  0  0  0  0
  146.2891  134.8938  154.3977 C   0  0  0  0  0  0  0  0  0  0  0  0
  147.4659  135.3319  154.8513 N   0  0  0  0  0  0  0  0  0  0  0  0
  148.4083  134.3463  154.8206 C   0  0  0  0  0  0  0  0  0  0  0  0
  148.2168  133.0123  154.3648 C   0  0  0  0  0  0  0  0  0  0  0  0
  149.4024  132.2964  154.4773 N   0  0  0  0  0  0  0  0  0  0  0  0
  150.2466  133.1576  154.9753 C   0  0  0  0  0  0  0  0  0  0  0  0
  149.7288  134.4077  155.2303 N   0  0  0  0  0  0  0  0  0  0  0  0
  150.4368  135.5440  155.7938 C   0  0  0  0  0  0  0  0  0  0  0  0
  150.4708  136.7762  154.8598 C   0  0  2  0  0  0  0  0  0  0  0  0
  151.6917  136.7669  154.1491 O   0  0  0  0  0  0  0  0  0  0  0  0
  150.2893  138.1646  155.5184 C   0  0  2  0  0  0  0  0  0  0  0  0
  149.9869  139.3372  154.5824 C   0  0  0  0  0  0  0  0  0  0  0  0
  150.4002  140.5129  155.4391 C   0  0  0  0  0  0  0  0  0  0  0  0
  151.6311  139.9673  156.1599 C   0  0  0  0  0  0  0  0  0  0  0  0
  151.4388  138.5587  156.2633 O   0  0  0  0  0  0  0  0  0  0  0  0
  145.8985  133.5342  150.5391 C   0  0  0  0  0  0  0  0  0  0  0  0
  145.2188  133.3010  149.2798 N   0  0  0  0  0  0  0  0  0  0  0  0
  143.0704  132.5843  151.2394 H   0  0  0  0  0  0  0  0  0  0  0  0
  143.7894  131.0073  150.9115 H   0  0  0  0  0  0  0  0  0  0  0  0
  144.9508  133.1624  152.4050 H   0  0  0  0  0  0  0  0  0  0  0  0
  147.1210  131.5262  151.4601 H   0  0  0  0  0  0  0  0  0  0  0  0
  144.6654  129.8534  152.1530 H   0  0  0  0  0  0  0  0  0  0  0  0
  145.4636  129.8950  150.6044 H   0  0  0  0  0  0  0  0  0  0  0  0
  146.1554  127.9164  151.9358 H   0  0  0  0  0  0  0  0  0  0  0  0
  147.5207  128.9517  151.5779 H   0  0  0  0  0  0  0  0  0  0  0  0
  145.9550  128.8827  154.2059 H   0  0  0  0  0  0  0  0  0  0  0  0
  147.5833  128.2903  153.9641 H   0  0  0  0  0  0  0  0  0  0  0  0
  147.5617  130.5607  155.0137 H   0  0  0  0  0  0  0  0  0  0  0  0
  148.3994  130.5676  153.4739 H   0  0  0  0  0  0  0  0  0  0  0  0
  145.4892  135.6195  154.3959 H   0  0  0  0  0  0  0  0  0  0  0  0
  151.2737  132.8965  155.1848 H   0  0  0  0  0  0  0  0  0  0  0  0
  149.9719  135.8008  156.7464 H   0  0  0  0  0  0  0  0  0  0  0  0
  151.4535  135.2254  156.0276 H   0  0  0  0  0  0  0  0  0  0  0  0
  149.6855  136.6618  154.1124 H   0  0  0  0  0  0  0  0  0  0  0  0
  151.5012  136.6920  153.2269 H   0  0  0  0  0  0  0  0  0  0  0  0
  149.4813  138.0992  156.2496 H   0  0  0  0  0  0  0  0  0  0  0  0
  150.6026  139.3074  153.6843 H   0  0  0  0  0  0  0  0  0  0  0  0
  148.9411  139.3780  154.2775 H   0  0  0  0  0  0  0  0  0  0  0  0
  150.6091  141.4140  154.8621 H   0  0  0  0  0  0  0  0  0  0  0  0
  149.6147  140.7430  156.1604 H   0  0  0  0  0  0  0  0  0  0  0  0
  152.5311  140.1510  155.5726 H   0  0  0  0  0  0  0  0  0  0  0  0
  151.7713  140.4215  157.1410 H   0  0  0  0  0  0  0  0  0  0  0  0
  145.7338  134.5705  150.8374 H   0  0  0  0  0  0  0  0  0  0  0  0
  146.9746  133.3887  150.4437 H   0  0  0  0  0  0  0  0  0  0  0  0
  145.5357  133.7019  148.4089 H   0  0  0  0  0  0  0  0  0  0  0  0
  1  2  2  0  0  0  0
  2 29  1  0  0  0  0
  2  3  1  0  0  0  0
  3  4  1  0  0  0  0
  3 30  1  0  0  0  0
  3 31  1  0  0  0  0
  4  5  1  0  0  0  0
  4 28  1  0  0  0  0
  4 32  1  0  0  0  0
  5 10  1  0  0  0  0
  5  6  1  0  0  0  0
  5 33  1  0  0  0  0
  6  7  1  0  0  0  0
  6 34  1  0  0  0  0
  6 35  1  0  0  0  0
  7  8  1  0  0  0  0
  7 36  1  0  0  0  0
  7 37  1  0  0  0  0
  8  9  1  0  0  0  0
  8 38  1  0  0  0  0
  8 39  1  0  0  0  0
  9 10  1  0  0  0  0
  9 40  1  0  0  0  0
  9 41  1  0  0  0  0
 10 11  1  0  0  0  0
 11 16  1  0  0  0  0
 11 12  2  0  0  0  0
 12 13  1  0  0  0  0
 13 14  2  0  0  0  0
 13 42  1  0  0  0  0
 14 15  1  0  0  0  0
 15 19  1  0  0  0  0
 15 16  2  0  0  0  0
 16 17  1  0  0  0  0
 17 18  2  0  0  0  0
 18 19  1  0  0  0  0
 18 43  1  0  0  0  0
 19 20  1  0  0  0  0
 20 21  1  0  0  0  0
 20 44  1  0  0  0  0
 20 45  1  0  0  0  0
 21 22  1  0  0  0  0
 21 23  1  0  0  0  0
 21 46  1  0  0  0  0
 22 47  1  0  0  0  0
 23 27  1  0  0  0  0
 23 24  1  0  0  0  0
 23 48  1  0  0  0  0
 24 25  1  0  0  0  0
 24 49  1  0  0  0  0
 24 50  1  0  0  0  0
 25 26  1  0  0  0  0
 25 51  1  0  0  0  0
 25 52  1  0  0  0  0
 26 27  1  0  0  0  0
 26 53  1  0  0  0  0
 26 54  1  0  0  0  0
 28 29  1  0  0  0  0
 28 55  1  0  0  0  0
 28 56  1  0  0  0  0
 29 57  1  0  0  0  0
M  END
> <s_m_source_file>
AV-unprocessed.smi

> <i_m_source_file_index>
203

> <i_lp_mmshare_version>
43012

> <i_f3d_flags>
0

> <s_epik_input>
Tz1DMVtDSDJdW0NASF0oW0NIMl1bTkhdMSlbQ0BASF0yW0NIMl1bQ0gyXVtDSDJdW0NIMl1OMmMobltjSF1uMyljKGMzNCluW2NIXW40W0NIMl1bQ0BIXShbT0hdKVtDQEBIXTVbQ0gyXVtDSDJdW0NIMl1PNQ==

> <s_epik_cmdline>
J2VwaWtfcHl0aG9uJywgJy1waCcsICc3LjAnLCAnLXRuJywgJzgnLCAnLW1hJywgJzIwMCcsICctbWV0YWxfYmluZGluZycsICctaW1hZScsICc8aW5maWxlLm1hZT4nLCAnLW9tYWUnLCAnPG91dGZpbGUubWFlPic=

> <r_lp_tautomer_probability>
1

> <r_epik_Ionization_Penalty>
0.00175146

> <r_epik_Ionization_Penalty_Charging>
0

> <r_epik_Ionization_Penalty_Neutral>
0.00175146

> <r_epik_State_Penalty>
0.00109045

> <r_epik_Charging_Adjusted_Penalty>
0.00109045

> <i_epik_Tot_Q>
0

> <i_epik_Tot_abs_Q>
0

> <r_epik_Metal_State_Penalty>
-0

> <b_epik_Metal_Only>
0

> <s_lp_Force_Field>
OPLS_2005

> <r_lp_Energy>
56.5802

> <b_lp_Chiralities_Consistent>
1

> <s_lp_Variant>
AV-unprocessed.smi:203-1

> <Gold.Version>
5.8.1

> <Gold.Id.Protein>
6NUR|6NUR_protein|mol2

> <Gold.PLP.Fitness>
52.4986

> <Gold.PLP.PLP>
-46.8410

> <Gold.PLP.part.hbond>
-3.9329

> <Gold.PLP.part.metal>
0.0000

> <Gold.PLP.part.buried>
-7.3674

> <Gold.PLP.part.nonpolar>
-37.0301

> <Gold.PLP.part.repulsive>
0.8551

> <Gold.PLP.ligand.clash>
1.1691

> <Gold.PLP.ligand.torsion>
2.5284

> <Gold.PLP.Chemscore.Hbond>
3.8640

> <Gold.PLP.Chemscore.CHOScore>
0.0000

> <Gold.PLP.Chemscore.Metal>
0.0000

> <Gold.Chemscore.Hbonds>
donor molecule, donor type, donor heavy atom, donor atom, acceptor molecule, acceptor atom, score
      L1  H    22    47       P1  7949  1.00
      L1  H    29    57       P1  7921  0.84
      P1  H 10752 10765       L1    22  0.95
      P1  H 10785 10796       L1     1  0.71

> <Gold.PLP.Chemscore.Internal.Correction>
0.2915

> <Gold.Rescore>
     Score         DG    S(hbond)    S(metal)    S(lipo)     H(rot)  DE(clash)    DE(int)     intcor
     14.32     -20.35       3.05        0.00      99.45       2.72       0.83       5.20       ----

> <Gold.Chemscore.Fitness>
14.3237

> <Gold.Chemscore.DG>
-20.3540

> <Gold.Chemscore.ZeroCoef>
-5.4800

> <Gold.Chemscore.Hbond>
3.0521

> <Gold.Chemscore.Metal>
0.0000

> <Gold.Chemscore.Lipo>
99.4505

> <Gold.Chemscore.Internal_Hbond>
0.0000

> <Gold.Chemscore.DEClash>
0.8266

> <Gold.Chemscore.DEInternal>
5.2037

> <Gold.Chemscore.Rot>
2.7171

> <Gold.Chemscore.Internal.Correction>
   9.000000E+99

> <Gold.Chemscore.Hbonds>
donor molecule, donor type, donor heavy atom, donor atom, acceptor molecule, acceptor atom, score
      L1  H    22    47       P1  7949  0.90
      L1  H    29    57       P1  7921  0.24
      P1  H 10752 10765       L1    22  0.22
      P1  H 10785 10796       L1     1  0.34

> <Gold.Chemscore.Hbond.Weighted>
-10.1940

> <Gold.Chemscore.Metal.Weighted>
-0.0000

> <Gold.Chemscore.Lipo.Weighted>
-11.6357

> <Gold.Chemscore.Internal_Hbond.Weighted>
0.0000

> <Gold.Chemscore.DEClash.Weighted>
0.8266

> <Gold.Chemscore.DEInternal.Weighted>
5.2037

> <Gold.Chemscore.Rot.Weighted>
6.9557

> <Gold.Chemscore.Internal.Correction.Weighted>
   9.000000E+99

> <Gold.Protein.RotatedTorsions>
[ 6907 6896 6895 6894 ] final -173.42 input  -60.11 | X-H torsion
[ 7974 7965 7964 7962 ] final   75.93 input  175.53 | X-H torsion
[ 8008 7997 7996 7995 ] final  142.26 input   59.86 | X-H torsion
[ 10167 10162 10161 10158 ] final   72.66 input  -65.29 | X-H torsion
[ 10718 10713 10712 10709 ] final   41.12 input   66.30 | X-H torsion
[ 10763 10752 10751 10750 ] final  159.25 input  -60.55 | X-H torsion
[ 11005 11000 10999 10996 ] final  118.48 input  -57.11 | X-H torsion

> <Gold.Protein.ActiveResidues>
 VAL166  LYS551  ARG553  GLY616  TRP617  ASP618  TYR619  PRO620  LYS621  CYS622 
 ASP623  PHE694  ASN695  SER759  ASP760  ASP761  ALA762  ILE779  LEU786  VAL792 
 PHE793  MET794  SER795  GLU796  ALA797  LYS798  CYS799  TRP800  GLU811  SER814 

> <Gold.Protein.RotatedAtoms>
  151.5558  133.3410  159.2961 H   0  0  0  0  0  0  0  0  0  0  0  0  # atno 6907 bound_to 6896
  150.8451  134.7760  159.6975 H   0  0  0  0  0  0  0  0  0  0  0  0  # atno 6908 bound_to 6896
  152.4511  134.5400  159.9888 H   0  0  0  0  0  0  0  0  0  0  0  0  # atno 6909 bound_to 6896
  145.7093  139.2609  143.1660 H   0  0  0  0  0  0  0  0  0  0  0  0  # atno 7974 bound_to 7965
  156.2952  140.2293  156.4699 H   0  0  0  0  0  0  0  0  0  0  0  0  # atno 8008 bound_to 7997
  154.7944  140.0452  157.1247 H   0  0  0  0  0  0  0  0  0  0  0  0  # atno 8009 bound_to 7997
  154.9607  140.3054  155.5036 H   0  0  0  0  0  0  0  0  0  0  0  0  # atno 8010 bound_to 7997
  140.0329  144.5451  150.7493 H   0  0  0  0  0  0  0  0  0  0  0  0  # atno 10167 bound_to 10162
  157.3900  130.7801  149.7262 H   0  0  0  0  0  0  0  0  0  0  0  0  # atno 10718 bound_to 10713
  154.2288  135.2779  155.2897 H   0  0  0  0  0  0  0  0  0  0  0  0  # atno 10763 bound_to 10752
  154.5641  135.5638  153.7037 H   0  0  0  0  0  0  0  0  0  0  0  0  # atno 10764 bound_to 10752
  153.0025  135.6305  154.2430 H   0  0  0  0  0  0  0  0  0  0  0  0  # atno 10765 bound_to 10752
  139.9111  134.9620  156.7509 H   0  0  0  0  0  0  0  0  0  0  0  0  # atno 11005 bound_to 11000
  146.0727  140.7851  142.9680 LP  0  0  0  0  0  0  0  0  0  0  0  0  # atno 17320 bound_to 7965
  144.6946  140.3367  143.7206 LP  0  0  0  0  0  0  0  0  0  0  0  0  # atno 17321 bound_to 7965
  140.7294  143.2672  151.4005 LP  0  0  0  0  0  0  0  0  0  0  0  0  # atno 17342 bound_to 10162
  139.6064  144.1188  152.2254 LP  0  0  0  0  0  0  0  0  0  0  0  0  # atno 17343 bound_to 10162
  155.9796  130.4038  150.3578 LP  0  0  0  0  0  0  0  0  0  0  0  0  # atno 17370 bound_to 10713
  157.1693  131.0364  151.2803 LP  0  0  0  0  0  0  0  0  0  0  0  0  # atno 17371 bound_to 10713
  140.6774  133.9505  155.7891 LP  0  0  0  0  0  0  0  0  0  0  0  0  # atno 17394 bound_to 11000
  141.0534  134.0451  157.3753 LP  0  0  0  0  0  0  0  0  0  0  0  0  # atno 17395 bound_to 11000

$$$$
