#       Name:                AV-unprocessed.smi:221
#       Creating user name   scv26
#       Creation time:       Thu Mar 26 20:15:43 2020


#       File generated by GOLD software.
#

@<TRIPOS>MOLECULE
AV-unprocessed.smi:221
    60    63     1
SMALL
NO_CHARGES


@<TRIPOS>ATOM
      1 ****        -0.4756   4.5435  -0.1069 N.am           1 S1                 0.0000
      2 ****        -0.9604   4.7918   1.1148 C.2            1 S1                 0.0000
      3 ****        -0.5459   5.7330   1.7878 O.2            1 S1                 0.0000
      4 ****        -2.0491   3.8624   1.6881 C.3            1 S1                 0.0000
      5 ****        -3.3545   4.6164   2.0106 C.3            1 S1                 0.0000
      6 ****        -4.2304   4.3699   0.7878 C.3            1 S1                 0.0000
      7 ****        -5.5286   4.5249   1.0468 F              1 S1                 0.0000
      8 ****        -3.8702   2.9354   0.4199 C.3            1 S1                 0.0000
      9 ****        -2.4537   2.8139   0.7409 N.3            1 S1                 0.0000
     10 ****        -2.0199   1.5565   0.9755 C.ar           1 S1                 0.0000
     11 ****        -2.3074   0.9436   2.1535 N.ar           1 S1                 0.0000
     12 ****        -1.8805  -0.3035   2.3757 C.ar           1 S1                 0.0000
     13 ****        -1.1697  -1.0991   1.5723 N.ar           1 S1                 0.0000
     14 ****        -0.8855  -0.4826   0.3887 C.ar           1 S1                 0.0000
     15 ****        -1.2712   0.8335   0.0121 C.ar           1 S1                 0.0000
     16 ****        -0.8032   1.1248  -1.2626 N.2            1 S1                 0.0000
     17 ****        -0.1705   0.0401  -1.6201 C.2            1 S1                 0.0000
     18 ****        -0.1657  -0.9726  -0.6869 N.pl3          1 S1                 0.0000
     19 ****         0.4617  -2.2755  -0.8277 C.3            1 S1                 0.0000
     20 ****         2.0068  -2.2288  -0.7148 C.3            1 S1                 0.0000
     21 ****         2.4464  -1.6343   0.6485 C.3            1 S1                 0.0000
     22 ****         3.7949  -1.2172   0.6344 O.3            1 S1                 0.0000
     23 ****         2.6126  -3.6387  -0.9643 C.3            1 S1                 0.0000
     24 ****         2.2482  -4.2659  -2.3006 C.3            1 S1                 0.0000
     25 ****         3.3019  -5.3570  -2.4548 C.3            1 S1                 0.0000
     26 ****         4.4619  -4.8697  -1.7921 O.3            1 S1                 0.0000
     27 ****         4.1423  -3.6943  -1.0554 C.3            1 S1                 0.0000
     28 ****        -1.6441   3.4423   2.6102 H              1 S1                 0.0000
     29 ****        -3.9638   5.0550  -0.0184 H              1 S1                 0.0000
     30 ****         0.2406   5.1409  -0.4934 H              1 S1                 0.0000
     31 ****        -0.8244   3.7571  -0.6364 H              1 S1                 0.0000
     32 ****        -3.8194   4.1716   2.8916 H              1 S1                 0.0000
     33 ****        -3.2186   5.6788   2.2179 H              1 S1                 0.0000
     34 ****        -4.4623   2.2316   1.0084 H              1 S1                 0.0000
     35 ****        -4.0550   2.7318  -0.6354 H              1 S1                 0.0000
     36 ****        -2.1460  -0.7240   3.3344 H              1 S1                 0.0000
     37 ****         0.3177  -0.0518  -2.5795 H              1 S1                 0.0000
     38 ****         0.0496  -2.9483  -0.0748 H              1 S1                 0.0000
     39 ****         0.1541  -2.6708  -1.7955 H              1 S1                 0.0000
     40 ****         2.3636  -1.5615  -1.5013 H              1 S1                 0.0000
     41 ****         1.8647  -0.7511   0.9076 H              1 S1                 0.0000
     42 ****         2.2937  -2.3554   1.4521 H              1 S1                 0.0000
     43 ****         4.0090  -0.8641   1.4846 H              1 S1                 0.0000
     44 ****         2.2893  -4.3146  -0.1710 H              1 S1                 0.0000
     45 ****         1.2355  -4.6692  -2.3287 H              1 S1                 0.0000
     46 ****         2.3481  -3.5346  -3.1041 H              1 S1                 0.0000
     47 ****         2.9783  -6.2730  -1.9590 H              1 S1                 0.0000
     48 ****         3.5081  -5.5915  -3.4994 H              1 S1                 0.0000
     49 ****         4.5282  -2.8343  -1.6043 H              1 S1                 0.0000
     50 ****         4.6201  -3.7141  -0.0757 H              1 S1                 0.0000
     51 ****         0.1680   6.3314   1.4242 LP             1 S1                 0.0000
     52 ****        -0.9226   5.9003   2.6989 LP             1 S1                 0.0000
     53 ****        -1.9313   3.0006  -0.0911 LP             1 S1                 0.0000
     54 ****        -2.8370   1.4242   2.8525 LP             1 S1                 0.0000
     55 ****        -0.8826  -2.0276   1.8079 LP             1 S1                 0.0000
     56 ****        -0.9230   1.9690  -1.7851 LP             1 S1                 0.0000
     57 ****         3.9230  -0.5139  -0.0649 LP             1 S1                 0.0000
     58 ****         4.3872  -1.9978   0.4345 LP             1 S1                 0.0000
     59 ****         5.1652  -4.6551  -2.4698 LP             1 S1                 0.0000
     60 ****         4.8048  -5.5702  -1.1662 LP             1 S1                 0.0000
@<TRIPOS>BOND
    1    1    2 am    
    2    1   30 1     
    3    1   31 1     
    4    2    3 2     
    5    2    4 1     
    6    4   28 1     
    7    4    9 1     
    8    4    5 1     
    9    5    6 1     
   10    5   32 1     
   11    5   33 1     
   12    6   29 1     
   13    6    7 1     
   14    6    8 1     
   15    8    9 1     
   16    8   34 1     
   17    8   35 1     
   18    9   10 1     
   19   10   15 ar    
   20   10   11 ar    
   21   11   12 ar    
   22   12   13 ar    
   23   12   36 1     
   24   13   14 ar    
   25   14   18 1     
   26   14   15 ar    
   27   15   16 1     
   28   16   17 2     
   29   17   18 1     
   30   17   37 1     
   31   18   19 1     
   32   19   20 1     
   33   19   38 1     
   34   19   39 1     
   35   20   21 1     
   36   20   23 1     
   37   20   40 1     
   38   21   22 1     
   39   21   41 1     
   40   21   42 1     
   41   22   43 1     
   42   23   27 1     
   43   23   24 1     
   44   23   44 1     
   45   24   25 1     
   46   24   45 1     
   47   24   46 1     
   48   25   26 1     
   49   25   47 1     
   50   25   48 1     
   51   26   27 1     
   52   27   49 1     
   53   27   50 1     
   54    3   51 1     
   55    3   52 1     
   56    9   53 1     
   57   11   54 1     
   58   13   55 1     
   59   16   56 1     
   60   22   57 1     
   61   22   58 1     
   62   26   59 1     
   63   26   60 1     
@<TRIPOS>SUBSTRUCTURE
      1 S1             1
@<TRIPOS>SET
LONE_PAIRS      STATIC     ATOMS    <user>   **** ""
10 51 52 53 54 55 56 57 58 59 60
DONOR_HYDROGENS      STATIC     ATOMS    <user>   **** ""
3 30 31 43
ATOM$BLUE        STATIC     ATOMS    COLORGROUP SYSTEM
10 51 52 53 54 55 56 57 58 59 60
ATOM$RED        STATIC     ATOMS    COLORGROUP SYSTEM
3 30 31 43
