AV-unprocessed.smi:2570|AV-procd|sdf|10107|dock1
  -GOLD-   2272014123D 1   1.00000     0.00000
 Structure written by MMmdl.
 32 33  0  0  0  0  0  0  0  0  1 V2000
  151.6468  138.7529  154.9746 C   0  0  0  0  0  0  0  0  0  0  0  0
  150.9029  139.7392  154.2617 O   0  0  0  0  0  0  0  0  0  0  0  0
  149.8918  140.3806  154.9558 C   0  0  0  0  0  0  0  0  0  0  0  0
  148.5447  140.3187  154.4291 C   0  0  0  0  0  0  0  0  0  0  0  0
  147.5526  140.9526  155.0911 C   0  0  0  0  0  0  0  0  0  0  0  0
  147.8036  141.7012  156.3223 C   0  0  0  0  0  0  0  0  0  0  0  0
  146.9243  142.3046  156.9365 O   0  0  0  0  0  0  0  0  0  0  0  0
  149.1089  141.6801  156.7233 N   0  0  0  0  0  0  0  0  0  0  0  0
  149.5454  142.4131  157.9196 C   0  0  0  0  0  0  0  0  0  0  0  0
  151.0612  142.7217  157.9101 C   0  0  1  0  0  0  0  0  0  0  0  0
  151.2855  143.8763  157.1272 O   0  0  0  0  0  0  0  0  0  0  0  0
  151.6576  142.8427  159.3092 C   0  0  0  0  0  0  0  0  0  0  0  0
  151.3350  143.9606  160.1092 C   0  0  0  0  0  0  0  0  0  0  0  0
  151.9017  144.1084  161.3896 C   0  0  0  0  0  0  0  0  0  0  0  0
  152.7960  143.1384  161.8798 C   0  0  0  0  0  0  0  0  0  0  0  0
  153.3436  143.2815  163.1099 F   0  0  0  0  0  0  0  0  0  0  0  0
  153.1226  142.0208  161.0890 C   0  0  0  0  0  0  0  0  0  0  0  0
  152.5578  141.8713  159.8073 C   0  0  0  0  0  0  0  0  0  0  0  0
  152.8970  140.7965  159.0558 F   0  0  0  0  0  0  0  0  0  0  0  0
  150.1288  141.0247  156.0543 N   0  0  0  0  0  0  0  0  0  0  0  0
  152.4145  138.3425  154.3189 H   0  0  0  0  0  0  0  0  0  0  0  0
  151.0164  137.9224  155.2973 H   0  0  0  0  0  0  0  0  0  0  0  0
  152.1535  139.1766  155.8438 H   0  0  0  0  0  0  0  0  0  0  0  0
  148.3480  139.7716  153.5190 H   0  0  0  0  0  0  0  0  0  0  0  0
  146.5465  140.9093  154.7008 H   0  0  0  0  0  0  0  0  0  0  0  0
  148.9742  143.3373  158.0246 H   0  0  0  0  0  0  0  0  0  0  0  0
  149.2994  141.8255  158.8065 H   0  0  0  0  0  0  0  0  0  0  0  0
  151.5718  141.9071  157.3953 H   0  0  0  0  0  0  0  0  0  0  0  0
  150.4553  144.1755  156.7892 H   0  0  0  0  0  0  0  0  0  0  0  0
  150.6574  144.7165  159.7397 H   0  0  0  0  0  0  0  0  0  0  0  0
  151.6525  144.9679  161.9940 H   0  0  0  0  0  0  0  0  0  0  0  0
  153.8116  141.2785  161.4638 H   0  0  0  0  0  0  0  0  0  0  0  0
  1  2  1  0  0  0  0
  1 21  1  0  0  0  0
  1 22  1  0  0  0  0
  1 23  1  0  0  0  0
  2  3  1  0  0  0  0
  3 20  2  0  0  0  0
  3  4  1  0  0  0  0
  4  5  2  0  0  0  0
  4 24  1  0  0  0  0
  5  6  1  0  0  0  0
  5 25  1  0  0  0  0
  6  7  2  0  0  0  0
  6  8  1  0  0  0  0
  8  9  1  0  0  0  0
  8 20  1  0  0  0  0
  9 10  1  0  0  0  0
  9 26  1  0  0  0  0
  9 27  1  0  0  0  0
 10 11  1  0  0  0  0
 10 12  1  0  0  0  0
 10 28  1  0  0  0  0
 11 29  1  0  0  0  0
 12 18  1  0  0  0  0
 12 13  2  0  0  0  0
 13 14  1  0  0  0  0
 13 30  1  0  0  0  0
 14 15  2  0  0  0  0
 14 31  1  0  0  0  0
 15 16  1  0  0  0  0
 15 17  1  0  0  0  0
 17 18  2  0  0  0  0
 17 32  1  0  0  0  0
 18 19  1  0  0  0  0
M  END
> <s_m_source_file>
AV-unprocessed.smi

> <i_m_source_file_index>
2570

> <i_lp_mmshare_version>
43012

> <i_f3d_flags>
0

> <s_epik_input>
W0NIM11PYzFbY0hdW2NIXWMoPU8pbihuMSlbQ0gyXVtDQEhdKFtPSF0pYzJbY0hdW2NIXWMoRilbY0hdYzJG

> <s_epik_cmdline>
J2VwaWtfcHl0aG9uJywgJy1waCcsICc3LjAnLCAnLXRuJywgJzgnLCAnLW1hJywgJzIwMCcsICctbWV0YWxfYmluZGluZycsICctaW1hZScsICc8aW5maWxlLm1hZT4nLCAnLW9tYWUnLCAnPG91dGZpbGUubWFlPic=

> <r_lp_tautomer_probability>
1

> <r_epik_Ionization_Penalty>
6.40224e-06

> <r_epik_Ionization_Penalty_Charging>
4.38647e-06

> <r_epik_Ionization_Penalty_Neutral>
2.01577e-06

> <r_epik_State_Penalty>
-0

> <r_epik_Charging_Adjusted_Penalty>
4.38647e-06

> <i_epik_Tot_Q>
0

> <i_epik_Tot_abs_Q>
0

> <r_epik_Metal_State_Penalty>
-0

> <b_epik_Metal_Only>
0

> <s_lp_Force_Field>
OPLS_2005

> <r_lp_Energy>
26.7666

> <b_lp_Chiralities_Consistent>
1

> <s_lp_Variant>
AV-unprocessed.smi:2570-2

> <Gold.Version>
5.8.1

> <Gold.Id.Protein>
6NUR|6NUR_protein|mol2

> <Gold.PLP.Fitness>
47.7428

> <Gold.PLP.PLP>
-43.1105

> <Gold.PLP.part.hbond>
-2.0000

> <Gold.PLP.part.metal>
0.0000

> <Gold.PLP.part.buried>
-5.5073

> <Gold.PLP.part.nonpolar>
-35.7333

> <Gold.PLP.part.repulsive>
0.3546

> <Gold.PLP.ligand.clash>
0.0000

> <Gold.PLP.ligand.torsion>
0.7152

> <Gold.PLP.Chemscore.Hbond>
2.0000

> <Gold.PLP.Chemscore.CHOScore>
0.0000

> <Gold.PLP.Chemscore.Metal>
0.0000

> <Gold.Chemscore.Hbonds>
donor molecule, donor type, donor heavy atom, donor atom, acceptor molecule, acceptor atom, score
      L1  H    11    29       P1  8028  1.00
      P1  H  7989  7998       L1     2  1.00

> <Gold.PLP.Chemscore.Internal.Correction>
0.0628

> <Gold.Rescore>
     Score         DG    S(hbond)    S(metal)    S(lipo)     H(rot)  DE(clash)    DE(int)     intcor
     15.19     -15.82       1.68        0.00      93.94       2.45       0.08       0.54       ----

> <Gold.Chemscore.Fitness>
15.1910

> <Gold.Chemscore.DG>
-15.8171

> <Gold.Chemscore.ZeroCoef>
-5.4800

> <Gold.Chemscore.Hbond>
1.6845

> <Gold.Chemscore.Metal>
0.0000

> <Gold.Chemscore.Lipo>
93.9426

> <Gold.Chemscore.Internal_Hbond>
0.0000

> <Gold.Chemscore.DEClash>
0.0814

> <Gold.Chemscore.DEInternal>
0.5447

> <Gold.Chemscore.Rot>
2.4533

> <Gold.Chemscore.Internal.Correction>
   9.000000E+99

> <Gold.Chemscore.Hbonds>
donor molecule, donor type, donor heavy atom, donor atom, acceptor molecule, acceptor atom, score
      L1  H    11    29       P1  8028  0.96
      P1  H  7989  7998       L1     2  0.46

> <Gold.Chemscore.Hbond.Weighted>
-5.6262

> <Gold.Chemscore.Metal.Weighted>
-0.0000

> <Gold.Chemscore.Lipo.Weighted>
-10.9913

> <Gold.Chemscore.Internal_Hbond.Weighted>
0.0000

> <Gold.Chemscore.DEClash.Weighted>
0.0814

> <Gold.Chemscore.DEInternal.Weighted>
0.5447

> <Gold.Chemscore.Rot.Weighted>
6.2804

> <Gold.Chemscore.Internal.Correction.Weighted>
   9.000000E+99

> <Gold.Protein.RotatedTorsions>
[ 6907 6896 6895 6894 ] final   10.14 input  -60.11 | X-H torsion
[ 7974 7965 7964 7962 ] final  118.64 input  175.53 | X-H torsion
[ 8008 7997 7996 7995 ] final   18.17 input   59.86 | X-H torsion
[ 10167 10162 10161 10158 ] final  -43.64 input  -65.29 | X-H torsion
[ 10718 10713 10712 10709 ] final  136.32 input   66.30 | X-H torsion
[ 10763 10752 10751 10750 ] final  -44.68 input  -60.55 | X-H torsion
[ 11005 11000 10999 10996 ] final  105.47 input  -57.11 | X-H torsion

> <Gold.Protein.ActiveResidues>
 VAL166  LYS551  ARG553  GLY616  TRP617  ASP618  TYR619  PRO620  LYS621  CYS622 
 ASP623  PHE694  ASN695  SER759  ASP760  ASP761  ALA762  ILE779  LEU786  VAL792 
 PHE793  MET794  SER795  GLU796  ALA797  LYS798  CYS799  TRP800  GLU811  SER814 

> <Gold.Protein.RotatedAtoms>
  151.7335  135.0870  160.0303 H   0  0  0  0  0  0  0  0  0  0  0  0  # atno 6907 bound_to 6896
  152.3526  133.6193  159.5964 H   0  0  0  0  0  0  0  0  0  0  0  0  # atno 6908 bound_to 6896
  150.7550  133.9467  159.3514 H   0  0  0  0  0  0  0  0  0  0  0  0  # atno 6909 bound_to 6896
  145.1527  139.3201  143.4558 H   0  0  0  0  0  0  0  0  0  0  0  0  # atno 7974 bound_to 7965
  154.9021  140.3002  155.5312 H   0  0  0  0  0  0  0  0  0  0  0  0  # atno 8008 bound_to 7997
  156.3018  140.2405  156.3986 H   0  0  0  0  0  0  0  0  0  0  0  0  # atno 8009 bound_to 7997
  154.8510  140.0409  157.1593 H   0  0  0  0  0  0  0  0  0  0  0  0  # atno 8010 bound_to 7997
  140.6926  143.2972  151.3381 H   0  0  0  0  0  0  0  0  0  0  0  0  # atno 10167 bound_to 10162
  157.4479  131.1063  151.0068 H   0  0  0  0  0  0  0  0  0  0  0  0  # atno 10718 bound_to 10713
  154.0160  135.6675  153.4769 H   0  0  0  0  0  0  0  0  0  0  0  0  # atno 10763 bound_to 10752
  153.0600  135.5033  154.8068 H   0  0  0  0  0  0  0  0  0  0  0  0  # atno 10764 bound_to 10752
  154.6966  135.3071  154.9366 H   0  0  0  0  0  0  0  0  0  0  0  0  # atno 10765 bound_to 10752
  139.8802  134.9337  156.5519 H   0  0  0  0  0  0  0  0  0  0  0  0  # atno 11005 bound_to 11000
  146.3492  140.1608  142.8591 LP  0  0  0  0  0  0  0  0  0  0  0  0  # atno 17320 bound_to 7965
  145.0414  140.8948  143.5050 LP  0  0  0  0  0  0  0  0  0  0  0  0  # atno 17321 bound_to 7965
  139.6346  144.0656  152.2505 LP  0  0  0  0  0  0  0  0  0  0  0  0  # atno 17342 bound_to 10162
  140.0141  144.6202  150.7622 LP  0  0  0  0  0  0  0  0  0  0  0  0  # atno 17343 bound_to 10162
  157.0908  130.5941  149.5439 LP  0  0  0  0  0  0  0  0  0  0  0  0  # atno 17370 bound_to 10713
  155.9975  130.5046  150.7535 LP  0  0  0  0  0  0  0  0  0  0  0  0  # atno 17371 bound_to 10713
  140.8234  133.8336  155.8916 LP  0  0  0  0  0  0  0  0  0  0  0  0  # atno 17394 bound_to 11000
  140.9397  134.1917  157.4806 LP  0  0  0  0  0  0  0  0  0  0  0  0  # atno 17395 bound_to 11000

$$$$
