AV-unprocessed.smi:707|AV-procd|sdf|3456|dock10
  -GOLD-   22720 0443D 1   1.00000     0.00000
 Structure written by MMmdl.
 44 45  0  0  0  0  0  0  0  0  1 V2000
  150.0192  138.0511  157.4645 C   0  0  0  0  0  0  0  0  0  0  0  0
  150.7441  137.6632  156.2166 C   0  0  0  0  0  0  0  0  0  0  0  0
  151.7307  136.7596  156.1787 N   0  0  0  0  0  0  0  0  0  0  0  0
  152.1249  136.6961  154.8566 N   0  0  0  0  0  0  0  0  0  0  0  0
  151.3360  137.5676  154.2290 C   0  0  0  0  0  0  0  0  0  0  0  0
  150.4543  138.2034  155.0155 N   0  0  0  0  0  0  0  0  0  0  0  0
  149.4701  139.2028  154.6451 C   0  0  0  0  0  0  0  0  0  0  0  0
  150.0715  140.6180  154.6604 C   0  0  0  0  0  0  0  0  0  0  0  0
  150.4737  141.0169  156.0036 N   0  0  0  0  0  0  0  0  0  0  0  0
  151.6352  140.6885  156.5898 C   0  0  0  0  0  0  0  0  0  0  0  0
  152.5024  140.0063  156.0443 O   0  0  0  0  0  0  0  0  0  0  0  0
  151.8543  141.2180  158.0042 C   0  0  0  0  0  0  0  0  0  0  0  0
  151.6093  142.6171  158.0025 O   0  0  0  0  0  0  0  0  0  0  0  0
  152.6832  143.4152  158.4894 C   0  0  1  0  0  0  0  0  0  0  0  0
  152.1561  144.8516  158.6542 C   0  0  0  0  0  0  0  0  0  0  0  0
  151.1154  144.9516  159.7824 C   0  0  0  0  0  0  0  0  0  0  0  0
  151.6730  144.4121  161.1093 C   0  0  0  0  0  0  0  0  0  0  0  0
  152.1895  142.9681  160.9613 C   0  0  2  0  0  0  0  0  0  0  0  0
  152.7525  142.4341  162.2861 C   0  0  0  0  0  0  0  0  0  0  0  0
  153.2351  142.8859  159.8316 C   0  0  0  0  0  0  0  0  0  0  0  0
  150.4424  137.5364  158.3276 H   0  0  0  0  0  0  0  0  0  0  0  0
  148.9656  137.7833  157.3854 H   0  0  0  0  0  0  0  0  0  0  0  0
  150.0996  139.1257  157.6291 H   0  0  0  0  0  0  0  0  0  0  0  0
  151.4042  137.7487  153.1661 H   0  0  0  0  0  0  0  0  0  0  0  0
  149.0919  138.9556  153.6524 H   0  0  0  0  0  0  0  0  0  0  0  0
  148.6227  139.1371  155.3281 H   0  0  0  0  0  0  0  0  0  0  0  0
  150.9529  140.6561  154.0191 H   0  0  0  0  0  0  0  0  0  0  0  0
  149.3621  141.3413  154.2546 H   0  0  0  0  0  0  0  0  0  0  0  0
  149.8198  141.5775  156.5308 H   0  0  0  0  0  0  0  0  0  0  0  0
  151.1843  140.6990  158.6894 H   0  0  0  0  0  0  0  0  0  0  0  0
  152.8788  141.0058  158.3131 H   0  0  0  0  0  0  0  0  0  0  0  0
  153.4815  143.4293  157.7455 H   0  0  0  0  0  0  0  0  0  0  0  0
  152.9901  145.5188  158.8756 H   0  0  0  0  0  0  0  0  0  0  0  0
  151.7244  145.2019  157.7163 H   0  0  0  0  0  0  0  0  0  0  0  0
  150.8015  145.9882  159.9061 H   0  0  0  0  0  0  0  0  0  0  0  0
  150.2211  144.3911  159.5074 H   0  0  0  0  0  0  0  0  0  0  0  0
  152.4814  145.0593  161.4527 H   0  0  0  0  0  0  0  0  0  0  0  0
  150.8976  144.4550  161.8751 H   0  0  0  0  0  0  0  0  0  0  0  0
  151.3451  142.3341  160.6869 H   0  0  0  0  0  0  0  0  0  0  0  0
  153.6056  143.0245  162.6215 H   0  0  0  0  0  0  0  0  0  0  0  0
  153.0826  141.4000  162.1828 H   0  0  0  0  0  0  0  0  0  0  0  0
  151.9981  142.4614  163.0729 H   0  0  0  0  0  0  0  0  0  0  0  0
  153.5971  141.8638  159.7265 H   0  0  0  0  0  0  0  0  0  0  0  0
  154.1084  143.4776  160.1099 H   0  0  0  0  0  0  0  0  0  0  0  0
  1  2  1  0  0  0  0
  1 21  1  0  0  0  0
  1 22  1  0  0  0  0
  1 23  1  0  0  0  0
  2  6  1  0  0  0  0
  2  3  2  0  0  0  0
  3  4  1  0  0  0  0
  4  5  2  0  0  0  0
  5  6  1  0  0  0  0
  5 24  1  0  0  0  0
  6  7  1  0  0  0  0
  7  8  1  0  0  0  0
  7 25  1  0  0  0  0
  7 26  1  0  0  0  0
  8  9  1  0  0  0  0
  8 27  1  0  0  0  0
  8 28  1  0  0  0  0
  9 10  1  0  0  0  0
  9 29  1  0  0  0  0
 10 11  2  0  0  0  0
 10 12  1  0  0  0  0
 12 13  1  0  0  0  0
 12 30  1  0  0  0  0
 12 31  1  0  0  0  0
 13 14  1  0  0  0  0
 14 20  1  0  0  0  0
 14 15  1  0  0  0  0
 14 32  1  0  0  0  0
 15 16  1  0  0  0  0
 15 33  1  0  0  0  0
 15 34  1  0  0  0  0
 16 17  1  0  0  0  0
 16 35  1  0  0  0  0
 16 36  1  0  0  0  0
 17 18  1  0  0  0  0
 17 37  1  0  0  0  0
 17 38  1  0  0  0  0
 18 19  1  0  0  0  0
 18 20  1  0  0  0  0
 18 39  1  0  0  0  0
 19 40  1  0  0  0  0
 19 41  1  0  0  0  0
 19 42  1  0  0  0  0
 20 43  1  0  0  0  0
 20 44  1  0  0  0  0
M  END
> <s_m_source_file>
AV-unprocessed.smi

> <i_m_source_file_index>
707

> <i_lp_mmshare_version>
43012

> <i_f3d_flags>
0

> <s_epik_input>
W0NIM11jMW5uW2NIXW4xW0NIMl1bQ0gyXVtOSF1DKD1PKVtDSDJdT1tDQEBIXTJbQ0gyXVtDSDJdW0NIMl1bQ0BASF0oW0NIM10pW0NIMl0y

> <s_epik_cmdline>
J2VwaWtfcHl0aG9uJywgJy1waCcsICc3LjAnLCAnLXRuJywgJzgnLCAnLW1hJywgJzIwMCcsICctbWV0YWxfYmluZGluZycsICctaW1hZScsICc8aW5maWxlLm1hZT4nLCAnLW9tYWUnLCAnPG91dGZpbGUubWFlPic=

> <r_lp_tautomer_probability>
1

> <r_epik_Ionization_Penalty>
0.000271783

> <r_epik_Ionization_Penalty_Charging>
0

> <r_epik_Ionization_Penalty_Neutral>
0.000271783

> <r_epik_State_Penalty>
-0

> <r_epik_Charging_Adjusted_Penalty>
0

> <i_epik_Tot_Q>
0

> <i_epik_Tot_abs_Q>
0

> <r_epik_Metal_State_Penalty>
-0

> <b_epik_Metal_Only>
0

> <s_lp_Force_Field>
OPLS_2005

> <r_lp_Energy>
13.3948

> <b_lp_Chiralities_Consistent>
1

> <s_lp_Variant>
AV-unprocessed.smi:707-4

> <Gold.Version>
5.8.1

> <Gold.Id.Protein>
6NUR|6NUR_protein|mol2

> <Gold.PLP.Fitness>
50.8097

> <Gold.PLP.PLP>
-43.7373

> <Gold.PLP.part.hbond>
-1.8909

> <Gold.PLP.part.metal>
0.0000

> <Gold.PLP.part.buried>
-5.1378

> <Gold.PLP.part.nonpolar>
-36.8535

> <Gold.PLP.part.repulsive>
0.2369

> <Gold.PLP.ligand.clash>
0.0000

> <Gold.PLP.ligand.torsion>
1.0306

> <Gold.PLP.Chemscore.Hbond>
2.0000

> <Gold.PLP.Chemscore.CHOScore>
1.0349

> <Gold.PLP.Chemscore.Metal>
0.0000

> <Gold.Chemscore.Hbonds>
donor molecule, donor type, donor heavy atom, donor atom, acceptor molecule, acceptor atom, score
      P1  H  7997  8010       L1    11  1.00
      P1  H 10752 10765       L1     4  0.66
      L1  C     5    24       P1  7949  0.87

> <Gold.PLP.Chemscore.Internal.Correction>
0.0288

> <Gold.Rescore>
     Score         DG    S(hbond)    S(metal)    S(lipo)     H(rot)  DE(clash)    DE(int)     intcor
     17.30     -18.35       1.98        0.00     106.39       2.42       0.07       0.97       ----

> <Gold.Chemscore.Fitness>
17.3030

> <Gold.Chemscore.DG>
-18.3489

> <Gold.Chemscore.ZeroCoef>
-5.4800

> <Gold.Chemscore.Hbond>
1.9803

> <Gold.Chemscore.Metal>
0.0000

> <Gold.Chemscore.Lipo>
106.3890

> <Gold.Chemscore.Internal_Hbond>
0.0000

> <Gold.Chemscore.DEClash>
0.0724

> <Gold.Chemscore.DEInternal>
0.9736

> <Gold.Chemscore.Rot>
2.4191

> <Gold.Chemscore.Internal.Correction>
   9.000000E+99

> <Gold.Chemscore.Hbonds>
donor molecule, donor type, donor heavy atom, donor atom, acceptor molecule, acceptor atom, score
      P1  H  7997  8010       L1    11  1.00
      P1  H 10752 10765       L1     4  0.64

> <Gold.Chemscore.Hbond.Weighted>
-6.6143

> <Gold.Chemscore.Metal.Weighted>
-0.0000

> <Gold.Chemscore.Lipo.Weighted>
-12.4475

> <Gold.Chemscore.Internal_Hbond.Weighted>
0.0000

> <Gold.Chemscore.DEClash.Weighted>
0.0724

> <Gold.Chemscore.DEInternal.Weighted>
0.9736

> <Gold.Chemscore.Rot.Weighted>
6.1929

> <Gold.Chemscore.Internal.Correction.Weighted>
   9.000000E+99

> <Gold.Protein.RotatedTorsions>
[ 6907 6896 6895 6894 ] final  179.41 input  -60.11 | X-H torsion
[ 7974 7965 7964 7962 ] final  -37.26 input  175.53 | X-H torsion
[ 8008 7997 7996 7995 ] final   89.79 input   59.86 | X-H torsion
[ 10167 10162 10161 10158 ] final -101.09 input  -65.29 | X-H torsion
[ 10718 10713 10712 10709 ] final   88.03 input   66.30 | X-H torsion
[ 10763 10752 10751 10750 ] final  163.47 input  -60.55 | X-H torsion
[ 11005 11000 10999 10996 ] final  -13.13 input  -57.11 | X-H torsion

> <Gold.Protein.ActiveResidues>
 VAL166  LYS551  ARG553  GLY616  TRP617  ASP618  TYR619  PRO620  LYS621  CYS622 
 ASP623  PHE694  ASN695  SER759  ASP760  ASP761  ALA762  ILE779  LEU786  VAL792 
 PHE793  MET794  SER795  GLU796  ALA797  LYS798  CYS799  TRP800  GLU811  SER814 

> <Gold.Protein.RotatedAtoms>
  151.6720  133.3313  159.3198 H   0  0  0  0  0  0  0  0  0  0  0  0  # atno 6907 bound_to 6896
  150.7863  134.6854  159.6476 H   0  0  0  0  0  0  0  0  0  0  0  0  # atno 6908 bound_to 6896
  152.3933  134.6409  160.0151 H   0  0  0  0  0  0  0  0  0  0  0  0  # atno 6909 bound_to 6896
  146.0591  140.6375  142.9006 H   0  0  0  0  0  0  0  0  0  0  0  0  # atno 7974 bound_to 7965
  156.0042  140.3356  155.6876 H   0  0  0  0  0  0  0  0  0  0  0  0  # atno 8008 bound_to 7997
  155.6248  140.0679  157.2685 H   0  0  0  0  0  0  0  0  0  0  0  0  # atno 8009 bound_to 7997
  154.4259  140.1770  156.1397 H   0  0  0  0  0  0  0  0  0  0  0  0  # atno 8010 bound_to 7997
  140.2449  143.3512  152.0767 H   0  0  0  0  0  0  0  0  0  0  0  0  # atno 10167 bound_to 10162
  157.6945  131.0279  150.3213 H   0  0  0  0  0  0  0  0  0  0  0  0  # atno 10718 bound_to 10713
  154.2941  135.2760  155.2641 H   0  0  0  0  0  0  0  0  0  0  0  0  # atno 10763 bound_to 10752
  154.5107  135.5783  153.6606 H   0  0  0  0  0  0  0  0  0  0  0  0  # atno 10764 bound_to 10752
  152.9910  135.6180  154.3108 H   0  0  0  0  0  0  0  0  0  0  0  0  # atno 10765 bound_to 10752
  140.7730  133.8423  155.9223 H   0  0  0  0  0  0  0  0  0  0  0  0  # atno 11005 bound_to 11000
  144.7164  140.4225  143.7041 LP  0  0  0  0  0  0  0  0  0  0  0  0  # atno 17320 bound_to 7965
  145.6592  139.1578  143.2818 LP  0  0  0  0  0  0  0  0  0  0  0  0  # atno 17321 bound_to 7965
  139.5065  144.6814  151.5998 LP  0  0  0  0  0  0  0  0  0  0  0  0  # atno 17342 bound_to 10162
  140.6085  143.9480  150.6436 LP  0  0  0  0  0  0  0  0  0  0  0  0  # atno 17343 bound_to 10162
  156.3700  130.3862  149.7183 LP  0  0  0  0  0  0  0  0  0  0  0  0  # atno 17370 bound_to 10713
  156.4601  130.7947  151.2968 LP  0  0  0  0  0  0  0  0  0  0  0  0  # atno 17371 bound_to 10713
  140.9556  134.1722  157.4694 LP  0  0  0  0  0  0  0  0  0  0  0  0  # atno 17394 bound_to 11000
  139.8753  134.9925  156.5602 LP  0  0  0  0  0  0  0  0  0  0  0  0  # atno 17395 bound_to 11000

$$$$
