AV-unprocessed.smi:1126|AV-procd|sdf|4839|dock10
  -GOLD-   22720 3403D 1   1.00000     0.00000
 Structure written by MMmdl.
 47 48  0  0  0  0  0  0  0  0  1 V2000
  149.6164  145.1254  160.7667 C   0  0  0  0  0  0  0  0  0  0  0  0
  150.5182  145.5978  159.7816 O   0  0  0  0  0  0  0  0  0  0  0  0
  151.8746  145.4074  160.1499 C   0  0  0  0  0  0  0  0  0  0  0  0
  152.6983  144.9426  158.9370 C   0  0  0  0  0  0  0  0  0  0  0  0
  152.4871  143.5556  158.5171 N   0  0  0  0  0  0  0  0  0  0  0  0
  151.1725  143.3444  157.9051 C   0  0  0  0  0  0  0  0  0  0  0  0
  150.9610  141.8954  157.4322 C   0  0  0  0  0  0  0  0  0  0  0  0
  151.1566  140.8989  158.5935 C   0  0  0  0  0  0  0  0  0  0  0  0
  151.0338  139.4296  158.1497 C   0  0  0  0  0  0  0  0  0  0  0  0
  149.6817  138.9243  158.3456 N   0  0  0  0  0  0  0  0  0  0  0  0
  149.3838  137.7451  158.9096 C   0  0  0  0  0  0  0  0  0  0  0  0
  150.2327  136.9673  159.3445 O   0  0  0  0  0  0  0  0  0  0  0  0
  147.8998  137.3868  158.9964 C   0  0  0  0  0  0  0  0  0  0  0  0
  147.5746  136.8157  160.2912 N   0  0  0  0  0  0  0  0  0  0  0  0
  147.0656  135.5650  160.5715 C   0  0  0  0  0  0  0  0  0  0  0  0
  146.9137  135.4767  161.9265 C   0  0  0  0  0  0  0  0  0  0  0  0
  146.3979  134.3256  162.7408 C   0  0  0  0  0  0  0  0  0  0  0  0
  147.3635  136.7446  162.3929 C   0  0  0  0  0  0  0  0  0  0  0  0
  147.7582  137.5430  161.4144 N   0  0  0  0  0  0  0  0  0  0  0  0
  152.5183  141.1697  159.2582 C   0  0  0  0  0  0  0  0  0  0  0  0
  152.6508  142.6492  159.6539 C   0  0  0  0  0  0  0  0  0  0  0  0
  148.5919  145.3059  160.4418 H   0  0  0  0  0  0  0  0  0  0  0  0
  149.7643  145.6414  161.7162 H   0  0  0  0  0  0  0  0  0  0  0  0
  149.7351  144.0531  160.9283 H   0  0  0  0  0  0  0  0  0  0  0  0
  152.2976  146.3208  160.5717 H   0  0  0  0  0  0  0  0  0  0  0  0
  151.9209  144.6421  160.9263 H   0  0  0  0  0  0  0  0  0  0  0  0
  152.4209  145.5913  158.1053 H   0  0  0  0  0  0  0  0  0  0  0  0
  153.7584  145.1288  159.1152 H   0  0  0  0  0  0  0  0  0  0  0  0
  150.3866  143.6178  158.6109 H   0  0  0  0  0  0  0  0  0  0  0  0
  151.0537  143.9949  157.0399 H   0  0  0  0  0  0  0  0  0  0  0  0
  149.9617  141.7977  157.0070 H   0  0  0  0  0  0  0  0  0  0  0  0
  151.6629  141.6699  156.6282 H   0  0  0  0  0  0  0  0  0  0  0  0
  150.3806  141.0916  159.3362 H   0  0  0  0  0  0  0  0  0  0  0  0
  151.3047  139.3300  157.0974 H   0  0  0  0  0  0  0  0  0  0  0  0
  151.7307  138.8116  158.7182 H   0  0  0  0  0  0  0  0  0  0  0  0
  148.9217  139.4993  158.0108 H   0  0  0  0  0  0  0  0  0  0  0  0
  147.2906  138.2788  158.8447 H   0  0  0  0  0  0  0  0  0  0  0  0
  147.6366  136.6805  158.2071 H   0  0  0  0  0  0  0  0  0  0  0  0
  146.8542  134.8498  159.7902 H   0  0  0  0  0  0  0  0  0  0  0  0
  145.7466  134.6624  163.5475 H   0  0  0  0  0  0  0  0  0  0  0  0
  147.2113  133.7622  163.1980 H   0  0  0  0  0  0  0  0  0  0  0  0
  145.8224  133.6253  162.1349 H   0  0  0  0  0  0  0  0  0  0  0  0
  147.4145  137.1064  163.4092 H   0  0  0  0  0  0  0  0  0  0  0  0
  152.6370  140.5413  160.1414 H   0  0  0  0  0  0  0  0  0  0  0  0
  153.3264  140.9023  158.5757 H   0  0  0  0  0  0  0  0  0  0  0  0
  153.6316  142.8015  160.1060 H   0  0  0  0  0  0  0  0  0  0  0  0
  151.9167  142.8867  160.4257 H   0  0  0  0  0  0  0  0  0  0  0  0
  1  2  1  0  0  0  0
  1 22  1  0  0  0  0
  1 23  1  0  0  0  0
  1 24  1  0  0  0  0
  2  3  1  0  0  0  0
  3  4  1  0  0  0  0
  3 25  1  0  0  0  0
  3 26  1  0  0  0  0
  4  5  1  0  0  0  0
  4 27  1  0  0  0  0
  4 28  1  0  0  0  0
  5 21  1  0  0  0  0
  5  6  1  0  0  0  0
  6  7  1  0  0  0  0
  6 29  1  0  0  0  0
  6 30  1  0  0  0  0
  7  8  1  0  0  0  0
  7 31  1  0  0  0  0
  7 32  1  0  0  0  0
  8  9  1  0  0  0  0
  8 20  1  0  0  0  0
  8 33  1  0  0  0  0
  9 10  1  0  0  0  0
  9 34  1  0  0  0  0
  9 35  1  0  0  0  0
 10 11  1  0  0  0  0
 10 36  1  0  0  0  0
 11 12  2  0  0  0  0
 11 13  1  0  0  0  0
 13 14  1  0  0  0  0
 13 37  1  0  0  0  0
 13 38  1  0  0  0  0
 14 19  1  0  0  0  0
 14 15  1  0  0  0  0
 15 16  2  0  0  0  0
 15 39  1  0  0  0  0
 16 17  1  0  0  0  0
 16 18  1  0  0  0  0
 17 40  1  0  0  0  0
 17 41  1  0  0  0  0
 17 42  1  0  0  0  0
 18 19  2  0  0  0  0
 18 43  1  0  0  0  0
 20 21  1  0  0  0  0
 20 44  1  0  0  0  0
 20 45  1  0  0  0  0
 21 46  1  0  0  0  0
 21 47  1  0  0  0  0
M  END
> <s_m_source_file>
AV-unprocessed.smi

> <i_m_source_file_index>
1126

> <i_lp_mmshare_version>
43012

> <i_f3d_flags>
0

> <s_epik_input>
W0NIM11PW0NIMl1bQ0gyXU4xW0NIMl1bQ0gyXVtDSF0oW0NIMl1bQ0gyXTEpW0NIMl1bTkhdQyg9TylbQ0gyXW4yW2NIXWMoW0NIM10pW2NIXW4y

> <s_epik_cmdline>
J2VwaWtfcHl0aG9uJywgJy1waCcsICc3LjAnLCAnLXRuJywgJzgnLCAnLW1hJywgJzIwMCcsICctbWV0YWxfYmluZGluZycsICctaW1hZScsICc8aW5maWxlLm1hZT4nLCAnLW9tYWUnLCAnPG91dGZpbGUubWFlPic=

> <r_lp_tautomer_probability>
1

> <r_epik_Ionization_Penalty>
2.42913

> <r_epik_Ionization_Penalty_Charging>
0

> <r_epik_Ionization_Penalty_Neutral>
2.42913

> <r_epik_State_Penalty>
2.58903

> <r_epik_Charging_Adjusted_Penalty>
2.58903

> <i_epik_Tot_Q>
0

> <i_epik_Tot_abs_Q>
0

> <r_epik_Metal_State_Penalty>
2.58902

> <b_epik_Metal_Only>
0

> <s_lp_Force_Field>
OPLS_2005

> <r_lp_Energy>
26.3674

> <b_lp_Chiralities_Consistent>
1

> <s_lp_Variant>
AV-unprocessed.smi:1126-3

> <Gold.Version>
5.8.1

> <Gold.Id.Protein>
6NUR|6NUR_protein|mol2

> <Gold.PLP.Fitness>
53.7216

> <Gold.PLP.PLP>
-47.9361

> <Gold.PLP.part.hbond>
-3.9594

> <Gold.PLP.part.metal>
0.0000

> <Gold.PLP.part.buried>
-6.8049

> <Gold.PLP.part.nonpolar>
-37.4696

> <Gold.PLP.part.repulsive>
0.3684

> <Gold.PLP.ligand.clash>
0.0000

> <Gold.PLP.ligand.torsion>
1.1732

> <Gold.PLP.Chemscore.Hbond>
2.6880

> <Gold.PLP.Chemscore.CHOScore>
0.0000

> <Gold.PLP.Chemscore.Metal>
0.0000

> <Gold.Chemscore.Hbonds>
donor molecule, donor type, donor heavy atom, donor atom, acceptor molecule, acceptor atom, score
      P1  H  6896  6907       L1    12  0.71
      P1  H  6931  6943       L1    19  0.82
      P1  H  6934  6947       L1    19  0.69

> <Gold.PLP.Chemscore.Internal.Correction>
0.0680

> <Gold.Rescore>
     Score         DG    S(hbond)    S(metal)    S(lipo)     H(rot)  DE(clash)    DE(int)     intcor
     19.50     -20.80       2.43        0.00     105.98       2.03       0.13       1.17       ----

> <Gold.Chemscore.Fitness>
19.4952

> <Gold.Chemscore.DG>
-20.8009

> <Gold.Chemscore.ZeroCoef>
-5.4800

> <Gold.Chemscore.Hbond>
2.4276

> <Gold.Chemscore.Metal>
0.0000

> <Gold.Chemscore.Lipo>
105.9833

> <Gold.Chemscore.Internal_Hbond>
0.0000

> <Gold.Chemscore.DEClash>
0.1328

> <Gold.Chemscore.DEInternal>
1.1730

> <Gold.Chemscore.Rot>
2.0263

> <Gold.Chemscore.Internal.Correction>
   9.000000E+99

> <Gold.Chemscore.Hbonds>
donor molecule, donor type, donor heavy atom, donor atom, acceptor molecule, acceptor atom, score
      P1  H  6896  6907       L1    12  0.71
      P1  H  6931  6943       L1    19  0.46
      P1  H  6934  6947       L1    19  0.24

> <Gold.Chemscore.Hbond.Weighted>
-8.1081

> <Gold.Chemscore.Metal.Weighted>
-0.0000

> <Gold.Chemscore.Lipo.Weighted>
-12.4000

> <Gold.Chemscore.Internal_Hbond.Weighted>
0.0000

> <Gold.Chemscore.DEClash.Weighted>
0.1328

> <Gold.Chemscore.DEInternal.Weighted>
1.1730

> <Gold.Chemscore.Rot.Weighted>
5.1872

> <Gold.Chemscore.Internal.Correction.Weighted>
   9.000000E+99

> <Gold.Protein.RotatedTorsions>
[ 6907 6896 6895 6894 ] final  -35.21 input  -60.11 | X-H torsion
[ 7974 7965 7964 7962 ] final   72.23 input  175.53 | X-H torsion
[ 8008 7997 7996 7995 ] final -109.97 input   59.86 | X-H torsion
[ 10167 10162 10161 10158 ] final   92.84 input  -65.29 | X-H torsion
[ 10718 10713 10712 10709 ] final -101.46 input   66.30 | X-H torsion
[ 10763 10752 10751 10750 ] final   78.32 input  -60.55 | X-H torsion
[ 11005 11000 10999 10996 ] final -135.98 input  -57.11 | X-H torsion

> <Gold.Protein.ActiveResidues>
 VAL166  LYS551  ARG553  GLY616  TRP617  ASP618  TYR619  PRO620  LYS621  CYS622 
 ASP623  PHE694  ASN695  SER759  ASP760  ASP761  ALA762  ILE779  LEU786  VAL792 
 PHE793  MET794  SER795  GLU796  ALA797  LYS798  CYS799  TRP800  GLU811  SER814 

> <Gold.Protein.RotatedAtoms>
  151.0427  134.9618  159.8169 H   0  0  0  0  0  0  0  0  0  0  0  0  # atno 6907 bound_to 6896
  152.5367  134.2638  159.8955 H   0  0  0  0  0  0  0  0  0  0  0  0  # atno 6908 bound_to 6896
  151.2650  133.4240  159.2652 H   0  0  0  0  0  0  0  0  0  0  0  0  # atno 6909 bound_to 6896
  145.7560  139.2780  143.1404 H   0  0  0  0  0  0  0  0  0  0  0  0  # atno 7974 bound_to 7965
  154.9674  140.0398  157.2218 H   0  0  0  0  0  0  0  0  0  0  0  0  # atno 8008 bound_to 7997
  154.7832  140.2822  155.6025 H   0  0  0  0  0  0  0  0  0  0  0  0  # atno 8009 bound_to 7997
  156.2939  140.2587  156.2663 H   0  0  0  0  0  0  0  0  0  0  0  0  # atno 8010 bound_to 7997
  139.8237  144.6719  150.9486 H   0  0  0  0  0  0  0  0  0  0  0  0  # atno 10167 bound_to 10162
  156.0195  130.5375  150.6967 H   0  0  0  0  0  0  0  0  0  0  0  0  # atno 10718 bound_to 10713
  153.0866  135.4881  154.8608 H   0  0  0  0  0  0  0  0  0  0  0  0  # atno 10763 bound_to 10752
  154.7217  135.3041  154.9038 H   0  0  0  0  0  0  0  0  0  0  0  0  # atno 10764 bound_to 10752
  153.9700  135.6802  153.4800 H   0  0  0  0  0  0  0  0  0  0  0  0  # atno 10765 bound_to 10752
  140.8848  134.1886  157.4567 H   0  0  0  0  0  0  0  0  0  0  0  0  # atno 11005 bound_to 11000
  146.0310  140.8257  142.9876 LP  0  0  0  0  0  0  0  0  0  0  0  0  # atno 17320 bound_to 7965
  144.6840  140.2769  143.7298 LP  0  0  0  0  0  0  0  0  0  0  0  0  # atno 17321 bound_to 7965
  140.7811  143.4066  151.1060 LP  0  0  0  0  0  0  0  0  0  0  0  0  # atno 17342 bound_to 10162
  139.7725  143.8473  152.3123 LP  0  0  0  0  0  0  0  0  0  0  0  0  # atno 17343 bound_to 10162
  157.4636  131.0886  151.0719 LP  0  0  0  0  0  0  0  0  0  0  0  0  # atno 17370 bound_to 10713
  157.1199  130.6057  149.5502 LP  0  0  0  0  0  0  0  0  0  0  0  0  # atno 17371 bound_to 10713
  139.8723  134.9833  156.5192 LP  0  0  0  0  0  0  0  0  0  0  0  0  # atno 17394 bound_to 11000
  140.8418  133.8199  155.9082 LP  0  0  0  0  0  0  0  0  0  0  0  0  # atno 17395 bound_to 11000

$$$$
