AV-unprocessed.smi:3250|AV-procd|sdf|12434|dock8
  -GOLD-   2272018323D 1   1.00000     0.00000
 Structure written by MMmdl.
 40 41  0  0  0  0  0  0  0  0  3 V2000
  146.5419  137.7754  157.1180 C   0  0  0  0  0  0  0  0  0  0  0  0
  147.6906  138.6689  157.6068 C   0  0  0  0  0  0  0  0  0  0  0  0
  148.3838  139.3671  156.4954 N   0  3  2  0  0  0  0  0  0  0  0  0
  149.0126  138.4191  155.5456 C   0  0  0  0  0  0  0  0  0  0  0  0
  149.6850  139.1786  154.3917 C   0  0  0  0  0  0  0  0  0  0  0  0
  150.6370  140.0932  154.9197 O   0  0  0  0  0  0  0  0  0  0  0  0
  150.0341  141.0809  155.7496 C   0  0  2  0  0  0  0  0  0  0  0  0
  151.1276  142.0613  156.1983 C   0  0  0  0  0  0  0  0  0  0  0  0
  150.5681  143.2210  156.8770 N   0  0  0  0  0  0  0  0  0  0  0  0
  151.0047  143.6710  158.1092 C   0  0  0  0  0  0  0  0  0  0  0  0
  150.4041  144.7548  158.6228 N   0  3  0  0  0  0  0  0  0  0  0  0
  150.8015  145.2391  159.8251 C   0  0  0  0  0  0  0  0  0  0  0  0
  151.8378  144.6090  160.5373 C   0  0  0  0  0  0  0  0  0  0  0  0
  152.4205  143.4764  159.9451 C   0  0  0  0  0  0  0  0  0  0  0  0
  153.4375  142.8143  160.6010 O   0  0  0  0  0  0  0  0  0  0  0  0
  154.0103  141.6696  159.9782 C   0  0  0  0  0  0  0  0  0  0  0  0
  151.9966  143.0257  158.7402 N   0  0  0  0  0  0  0  0  0  0  0  0
  149.3735  140.3756  156.9519 C   0  0  0  0  0  0  0  0  0  0  0  0
  146.1206  137.2067  157.9473 H   0  0  0  0  0  0  0  0  0  0  0  0
  146.8879  137.0607  156.3708 H   0  0  0  0  0  0  0  0  0  0  0  0
  145.7298  138.3558  156.6811 H   0  0  0  0  0  0  0  0  0  0  0  0
  147.3300  139.3934  158.3383 H   0  0  0  0  0  0  0  0  0  0  0  0
  148.4080  138.0340  158.1287 H   0  0  0  0  0  0  0  0  0  0  0  0
  149.7493  137.8089  156.0706 H   0  0  0  0  0  0  0  0  0  0  0  0
  148.2592  137.7396  155.1453 H   0  0  0  0  0  0  0  0  0  0  0  0
  150.1956  138.4799  153.7287 H   0  0  0  0  0  0  0  0  0  0  0  0
  148.9459  139.7083  153.7883 H   0  0  0  0  0  0  0  0  0  0  0  0
  149.2745  141.6243  155.1838 H   0  0  0  0  0  0  0  0  0  0  0  0
  151.8125  141.5602  156.8835 H   0  0  0  0  0  0  0  0  0  0  0  0
  151.7153  142.3900  155.3403 H   0  0  0  0  0  0  0  0  0  0  0  0
  149.9319  143.8139  156.3640 H   0  0  0  0  0  0  0  0  0  0  0  0
  150.2766  146.1149  160.1778 H   0  0  0  0  0  0  0  0  0  0  0  0
  152.1692  144.9779  161.4970 H   0  0  0  0  0  0  0  0  0  0  0  0
  154.7916  141.2631  160.6205 H   0  0  0  0  0  0  0  0  0  0  0  0
  154.4674  141.9218  159.0203 H   0  0  0  0  0  0  0  0  0  0  0  0
  153.2675  140.8855  159.8253 H   0  0  0  0  0  0  0  0  0  0  0  0
  148.8876  141.1208  157.5811 H   0  0  0  0  0  0  0  0  0  0  0  0
  150.1333  139.8867  157.5644 H   0  0  0  0  0  0  0  0  0  0  0  0
  147.6719  139.8601  155.9754 H   0  0  0  0  0  0  0  0  0  0  0  0
  149.6513  145.2252  158.1200 H   0  0  0  0  0  0  0  0  0  0  0  0
  1  2  1  0  0  0  0
  1 19  1  0  0  0  0
  1 20  1  0  0  0  0
  1 21  1  0  0  0  0
  2  3  1  0  0  0  0
  2 22  1  0  0  0  0
  2 23  1  0  0  0  0
  3 18  1  0  0  0  0
  3  4  1  0  0  0  0
  3 39  1  0  0  0  0
  4  5  1  0  0  0  0
  4 24  1  0  0  0  0
  4 25  1  0  0  0  0
  5  6  1  0  0  0  0
  5 26  1  0  0  0  0
  5 27  1  0  0  0  0
  6  7  1  0  0  0  0
  7  8  1  0  0  0  0
  7 18  1  0  0  0  0
  7 28  1  0  0  0  0
  8  9  1  0  0  0  0
  8 29  1  0  0  0  0
  8 30  1  0  0  0  0
  9 10  1  0  0  0  0
  9 31  1  0  0  0  0
 10 17  1  0  0  0  0
 10 11  2  0  0  0  0
 11 12  1  0  0  0  0
 11 40  1  0  0  0  0
 12 13  2  0  0  0  0
 12 32  1  0  0  0  0
 13 14  1  0  0  0  0
 13 33  1  0  0  0  0
 14 15  1  0  0  0  0
 14 17  2  0  0  0  0
 15 16  1  0  0  0  0
 16 34  1  0  0  0  0
 16 35  1  0  0  0  0
 16 36  1  0  0  0  0
 18 37  1  0  0  0  0
 18 38  1  0  0  0  0
M  CHG  1   3   1
M  CHG  1  11   1
M  END
> <s_m_source_file>
AV-unprocessed.smi

> <i_m_source_file_index>
3250

> <i_lp_mmshare_version>
43012

> <i_f3d_flags>
0

> <s_epik_input>
W0NIM11bQ0gyXU4xW0NIMl1bQ0gyXU9bQ0BIXShbQ0gyXTEpW0NIMl1bTkhdYzJuW2NIXVtjSF1jKG4yKU9bQ0gzXQ==

> <s_epik_cmdline>
J2VwaWtfcHl0aG9uJywgJy1waCcsICc3LjAnLCAnLXRuJywgJzgnLCAnLW1hJywgJzIwMCcsICctbWV0YWxfYmluZGluZycsICctaW1hZScsICc8aW5maWxlLm1hZT4nLCAnLW9tYWUnLCAnPG91dGZpbGUubWFlPic=

> <r_lp_tautomer_probability>
0.999985

> <r_epik_Ionization_Penalty>
2.24691

> <r_epik_Ionization_Penalty_Charging>
2.24686

> <r_epik_Ionization_Penalty_Neutral>
4.52111e-05

> <r_epik_State_Penalty>
2.24709

> <r_epik_Charging_Adjusted_Penalty>
4.49395

> <i_epik_Tot_Q>
2

> <i_epik_Tot_abs_Q>
2

> <r_epik_Metal_State_Penalty>
2.26327

> <b_epik_Metal_Only>
0

> <s_lp_Force_Field>
OPLS_2005

> <r_lp_Energy>
18.1158

> <b_lp_Chiralities_Consistent>
1

> <s_lp_Variant>
AV-unprocessed.smi:3250-10

> <Gold.Version>
5.8.1

> <Gold.Id.Protein>
6NUR|6NUR_protein|mol2

> <Gold.PLP.Fitness>
45.4571

> <Gold.PLP.PLP>
-30.6415

> <Gold.PLP.part.hbond>
-3.2570

> <Gold.PLP.part.metal>
0.0000

> <Gold.PLP.part.buried>
-6.9426

> <Gold.PLP.part.nonpolar>
-21.2848

> <Gold.PLP.part.repulsive>
0.2831

> <Gold.PLP.ligand.clash>
0.0000

> <Gold.PLP.ligand.torsion>
0.0993

> <Gold.PLP.Chemscore.Hbond>
5.0000

> <Gold.PLP.Chemscore.CHOScore>
0.0000

> <Gold.PLP.Chemscore.Metal>
0.0000

> <Gold.Chemscore.Hbonds>
donor molecule, donor type, donor heavy atom, donor atom, acceptor molecule, acceptor atom, score
      L1  H     9    31       P1  8028  2.00
      L1  H    11    40       P1  8029  1.85
      P1  H  7989  7998       L1     6  1.00

> <Gold.PLP.Chemscore.Internal.Correction>
0.0141

> <Gold.Rescore>
     Score         DG    S(hbond)    S(metal)    S(lipo)     H(rot)  DE(clash)    DE(int)     intcor
     15.24     -15.56       2.26        0.00      59.93       1.75       0.08       0.23       ----

> <Gold.Chemscore.Fitness>
15.2446

> <Gold.Chemscore.DG>
-15.5551

> <Gold.Chemscore.ZeroCoef>
-5.4800

> <Gold.Chemscore.Hbond>
2.2608

> <Gold.Chemscore.Metal>
0.0000

> <Gold.Chemscore.Lipo>
59.9276

> <Gold.Chemscore.Internal_Hbond>
0.0000

> <Gold.Chemscore.DEClash>
0.0770

> <Gold.Chemscore.DEInternal>
0.2335

> <Gold.Chemscore.Rot>
1.7530

> <Gold.Chemscore.Internal.Correction>
   9.000000E+99

> <Gold.Chemscore.Hbonds>
donor molecule, donor type, donor heavy atom, donor atom, acceptor molecule, acceptor atom, score
      L1  H     9    31       P1  8028  0.94
      L1  H    11    40       P1  8029  0.27
      P1  H  7989  7998       L1     6  0.61

> <Gold.Chemscore.Hbond.Weighted>
-7.5512

> <Gold.Chemscore.Metal.Weighted>
-0.0000

> <Gold.Chemscore.Lipo.Weighted>
-7.0115

> <Gold.Chemscore.Internal_Hbond.Weighted>
0.0000

> <Gold.Chemscore.DEClash.Weighted>
0.0770

> <Gold.Chemscore.DEInternal.Weighted>
0.2335

> <Gold.Chemscore.Rot.Weighted>
4.4876

> <Gold.Chemscore.Internal.Correction.Weighted>
   9.000000E+99

> <Gold.Protein.RotatedTorsions>
[ 6907 6896 6895 6894 ] final   43.91 input  -60.11 | X-H torsion
[ 7974 7965 7964 7962 ] final  140.07 input  175.53 | X-H torsion
[ 8008 7997 7996 7995 ] final  -11.74 input   59.86 | X-H torsion
[ 10167 10162 10161 10158 ] final  -31.88 input  -65.29 | X-H torsion
[ 10718 10713 10712 10709 ] final -171.96 input   66.30 | X-H torsion
[ 10763 10752 10751 10750 ] final -112.98 input  -60.55 | X-H torsion
[ 11005 11000 10999 10996 ] final   -8.53 input  -57.11 | X-H torsion

> <Gold.Protein.ActiveResidues>
 VAL166  LYS551  ARG553  GLY616  TRP617  ASP618  TYR619  PRO620  LYS621  CYS622 
 ASP623  PHE694  ASN695  SER759  ASP760  ASP761  ALA762  ILE779  LEU786  VAL792 
 PHE793  MET794  SER795  GLU796  ALA797  LYS798  CYS799  TRP800  GLU811  SER814 

> <Gold.Protein.RotatedAtoms>
  152.2260  134.8367  160.0479 H   0  0  0  0  0  0  0  0  0  0  0  0  # atno 6907 bound_to 6896
  151.9133  133.3562  159.3879 H   0  0  0  0  0  0  0  0  0  0  0  0  # atno 6908 bound_to 6896
  150.7012  134.4635  159.5436 H   0  0  0  0  0  0  0  0  0  0  0  0  # atno 6909 bound_to 6896
  144.9220  139.5156  143.5659 H   0  0  0  0  0  0  0  0  0  0  0  0  # atno 7974 bound_to 7965
  154.5438  140.2294  155.8596 H   0  0  0  0  0  0  0  0  0  0  0  0  # atno 8008 bound_to 7997
  156.1884  140.3083  155.9245 H   0  0  0  0  0  0  0  0  0  0  0  0  # atno 8009 bound_to 7997
  155.3204  140.0440  157.3029 H   0  0  0  0  0  0  0  0  0  0  0  0  # atno 8010 bound_to 7997
  140.7230  143.3737  151.1730 H   0  0  0  0  0  0  0  0  0  0  0  0  # atno 10167 bound_to 10162
  156.7486  130.9369  151.3113 H   0  0  0  0  0  0  0  0  0  0  0  0  # atno 10718 bound_to 10713
  154.8375  135.4471  154.1278 H   0  0  0  0  0  0  0  0  0  0  0  0  # atno 10763 bound_to 10752
  153.2497  135.6925  153.7699 H   0  0  0  0  0  0  0  0  0  0  0  0  # atno 10764 bound_to 10752
  153.7016  135.3371  155.3202 H   0  0  0  0  0  0  0  0  0  0  0  0  # atno 10765 bound_to 10752
  140.7245  133.8801  155.8846 H   0  0  0  0  0  0  0  0  0  0  0  0  # atno 11005 bound_to 11000
  146.3209  139.8106  142.8946 LP  0  0  0  0  0  0  0  0  0  0  0  0  # atno 17320 bound_to 7965
  145.3281  141.0260  143.3462 LP  0  0  0  0  0  0  0  0  0  0  0  0  # atno 17321 bound_to 7965
  139.7313  143.9068  152.3020 LP  0  0  0  0  0  0  0  0  0  0  0  0  # atno 17342 bound_to 10162
  139.8858  144.6993  150.8826 LP  0  0  0  0  0  0  0  0  0  0  0  0  # atno 17343 bound_to 10162
  157.6787  130.9119  150.0213 LP  0  0  0  0  0  0  0  0  0  0  0  0  # atno 17370 bound_to 10713
  156.1416  130.3642  149.9573 LP  0  0  0  0  0  0  0  0  0  0  0  0  # atno 17371 bound_to 10713
  140.9975  134.1196  157.4350 LP  0  0  0  0  0  0  0  0  0  0  0  0  # atno 17394 bound_to 11000
  139.8840  135.0058  156.6341 LP  0  0  0  0  0  0  0  0  0  0  0  0  # atno 17395 bound_to 11000

$$$$
