AV-unprocessed.smi:72|AV-procd|sdf|758|dock3
  -GOLD-   2262017 93D 1   1.00000     0.00000
 Structure written by MMmdl.
 29 30  0  0  0  0  0  0  0  0  1 V2000
  145.6601  138.7970  153.4123 N   0  0  0  0  0  0  0  0  0  0  0  0
  145.6285  137.4425  153.1533 C   0  0  0  0  0  0  0  0  0  0  0  0
  144.6520  137.0032  152.2485 N   0  0  0  0  0  0  0  0  0  0  0  0
  144.6139  135.7305  152.0102 C   0  0  0  0  0  0  0  0  0  0  0  0
  145.5349  134.8137  152.6568 N   0  0  0  0  0  0  0  0  0  0  0  0
  145.4933  133.3309  152.3631 C   0  0  1  0  0  0  0  0  0  0  0  0
  144.3544  133.0521  151.6028 O   0  0  0  0  0  0  0  0  0  0  0  0
  144.6898  132.1530  150.5513 C   0  0  1  0  0  0  0  0  0  0  0  0
  143.6858  132.2986  149.3971 C   0  0  0  0  0  0  0  0  0  0  0  0
  143.8307  133.5622  148.7846 O   0  0  0  0  0  0  0  0  0  0  0  0
  146.1095  132.5930  150.1900 C   0  0  2  0  0  0  0  0  0  0  0  0
  146.8246  131.6148  149.4586 O   0  0  0  0  0  0  0  0  0  0  0  0
  146.7261  132.9003  151.5518 C   0  0  2  0  0  0  0  0  0  0  0  0
  147.3428  131.7673  152.1350 O   0  0  0  0  0  0  0  0  0  0  0  0
  146.5173  135.3306  153.5455 C   0  0  0  0  0  0  0  0  0  0  0  0
  147.3357  134.5791  154.0753 O   0  0  0  0  0  0  0  0  0  0  0  0
  146.5099  136.7121  153.7743 N   0  0  0  0  0  0  0  0  0  0  0  0
  145.3976  132.8173  153.3206 H   0  0  0  0  0  0  0  0  0  0  0  0
  144.7081  131.1318  150.9379 H   0  0  0  0  0  0  0  0  0  0  0  0
  146.0677  133.5112  149.6023 H   0  0  0  0  0  0  0  0  0  0  0  0
  147.4619  133.7037  151.4916 H   0  0  0  0  0  0  0  0  0  0  0  0
  146.3199  139.2264  154.0444 H   0  0  0  0  0  0  0  0  0  0  0  0
  145.0281  139.4601  152.9875 H   0  0  0  0  0  0  0  0  0  0  0  0
  143.9046  135.2720  151.3198 H   0  0  0  0  0  0  0  0  0  0  0  0
  143.8070  131.5021  148.6620 H   0  0  0  0  0  0  0  0  0  0  0  0
  142.6657  132.2365  149.7767 H   0  0  0  0  0  0  0  0  0  0  0  0
  144.6931  133.6141  148.4019 H   0  0  0  0  0  0  0  0  0  0  0  0
  147.5978  131.3807  149.9487 H   0  0  0  0  0  0  0  0  0  0  0  0
  147.7561  131.2660  151.4487 H   0  0  0  0  0  0  0  0  0  0  0  0
  1  2  1  0  0  0  0
  1 22  1  0  0  0  0
  1 23  1  0  0  0  0
  2 17  2  0  0  0  0
  2  3  1  0  0  0  0
  3  4  2  0  0  0  0
  4  5  1  0  0  0  0
  4 24  1  0  0  0  0
  5  6  1  0  0  0  0
  5 15  1  0  0  0  0
  6 18  1  0  0  0  0
  6 13  1  0  0  0  0
  6  7  1  0  0  0  0
  7  8  1  0  0  0  0
  8 19  1  0  0  0  0
  8  9  1  0  0  0  0
  8 11  1  0  0  0  0
  9 10  1  0  0  0  0
  9 25  1  0  0  0  0
  9 26  1  0  0  0  0
 10 27  1  0  0  0  0
 11 20  1  0  0  0  0
 11 12  1  0  0  0  0
 11 13  1  0  0  0  0
 12 28  1  0  0  0  0
 13 21  1  0  0  0  0
 13 14  1  0  0  0  0
 14 29  1  0  0  0  0
 15 16  2  0  0  0  0
 15 17  1  0  0  0  0
M  END
> <s_m_source_file>
AV-unprocessed.smi

> <i_m_source_file_index>
72

> <i_lp_mmshare_version>
43012

> <i_f3d_flags>
0

> <s_epik_input>
W05IMl1jMW5bY0hdbihjKD1PKW4xKVtDQEBIXTJPW0NASF0oW0NIMl1bT0hdKVtDQEBIXShbT0hdKVtDQEhdMltPSF0=

> <s_epik_cmdline>
J2VwaWtfcHl0aG9uJywgJy1waCcsICc3LjAnLCAnLXRuJywgJzgnLCAnLW1hJywgJzIwMCcsICctbWV0YWxfYmluZGluZycsICctaW1hZScsICc8aW5maWxlLm1hZT4nLCAnLW9tYWUnLCAnPG91dGZpbGUubWFlPic=

> <r_lp_tautomer_probability>
4.77166e-05

> <r_epik_Ionization_Penalty>
1.3546

> <r_epik_Ionization_Penalty_Charging>
1.46833e-10

> <r_epik_Ionization_Penalty_Neutral>
1.3546

> <r_epik_State_Penalty>
3.51908

> <r_epik_Charging_Adjusted_Penalty>
3.51908

> <i_epik_Tot_Q>
0

> <i_epik_Tot_abs_Q>
0

> <r_epik_Metal_State_Penalty>
3.44088

> <b_epik_Metal_Only>
1

> <s_epik_Chemistry_Notes>
This compound contains an acetal/aminal-like group ( X-CH(R)-Y where X, Y are N, S, or O) that may be acid/base labile, releasing an aldehyde.

> <s_lp_Force_Field>
OPLS_2005

> <r_lp_Energy>
31.7119

> <b_lp_Chiralities_Consistent>
1

> <s_lp_Variant>
AV-unprocessed.smi:72-96

> <Gold.Version>
5.8.1

> <Gold.Id.Protein>
6NUR|6NUR_protein|mol2

> <Gold.PLP.Fitness>
36.7112

> <Gold.PLP.PLP>
-25.1141

> <Gold.PLP.part.hbond>
-4.7904

> <Gold.PLP.part.metal>
0.0000

> <Gold.PLP.part.buried>
-5.7979

> <Gold.PLP.part.nonpolar>
-16.0337

> <Gold.PLP.part.repulsive>
1.2050

> <Gold.PLP.ligand.clash>
0.0000

> <Gold.PLP.ligand.torsion>
0.2094

> <Gold.PLP.Chemscore.Hbond>
4.0000

> <Gold.PLP.Chemscore.CHOScore>
0.0000

> <Gold.PLP.Chemscore.Metal>
0.0000

> <Gold.Chemscore.Hbonds>
donor molecule, donor type, donor heavy atom, donor atom, acceptor molecule, acceptor atom, score
      L1  H     1    23       P1 10175  1.00
      L1  H    10    27       P1  7921  0.94
      L1  H    12    28       P1 10747  0.91
      L1  H    14    29       P1 10747  1.00

> <Gold.PLP.Chemscore.Internal.Correction>
0.0160

> <Gold.Rescore>
     Score         DG    S(hbond)    S(metal)    S(lipo)     H(rot)  DE(clash)    DE(int)     intcor
     12.28     -12.70       3.96        0.00      37.48       4.06       0.12       0.29       ----

> <Gold.Chemscore.Fitness>
12.2813

> <Gold.Chemscore.DG>
-12.6953

> <Gold.Chemscore.ZeroCoef>
-5.4800

> <Gold.Chemscore.Hbond>
3.9590

> <Gold.Chemscore.Metal>
0.0000

> <Gold.Chemscore.Lipo>
37.4847

> <Gold.Chemscore.Internal_Hbond>
0.0000

> <Gold.Chemscore.DEClash>
0.1219

> <Gold.Chemscore.DEInternal>
0.2922

> <Gold.Chemscore.Rot>
4.0600

> <Gold.Chemscore.Internal.Correction>
   9.000000E+99

> <Gold.Chemscore.Hbonds>
donor molecule, donor type, donor heavy atom, donor atom, acceptor molecule, acceptor atom, score
      L1  H     1    23       P1 10175  1.00
      L1  H    10    27       P1  7921  0.83
      L1  H    12    28       P1 10747  0.87
      L1  H    14    29       P1 10747  0.99

> <Gold.Chemscore.Hbond.Weighted>
-13.2232

> <Gold.Chemscore.Metal.Weighted>
-0.0000

> <Gold.Chemscore.Lipo.Weighted>
-4.3857

> <Gold.Chemscore.Internal_Hbond.Weighted>
0.0000

> <Gold.Chemscore.DEClash.Weighted>
0.1219

> <Gold.Chemscore.DEInternal.Weighted>
0.2922

> <Gold.Chemscore.Rot.Weighted>
10.3936

> <Gold.Chemscore.Internal.Correction.Weighted>
   9.000000E+99

> <Gold.Protein.RotatedTorsions>
[ 6907 6896 6895 6894 ] final -100.62 input  -60.11 | X-H torsion
[ 7974 7965 7964 7962 ] final   88.86 input  175.53 | X-H torsion
[ 8008 7997 7996 7995 ] final  -75.79 input   59.86 | X-H torsion
[ 10167 10162 10161 10158 ] final  128.80 input  -65.29 | X-H torsion
[ 10718 10713 10712 10709 ] final  -25.16 input   66.30 | X-H torsion
[ 10763 10752 10751 10750 ] final   47.23 input  -60.55 | X-H torsion
[ 11005 11000 10999 10996 ] final    4.77 input  -57.11 | X-H torsion

> <Gold.Protein.ActiveResidues>
 VAL166  LYS551  ARG553  GLY616  TRP617  ASP618  TYR619  PRO620  LYS621  CYS622 
 ASP623  PHE694  ASN695  SER759  ASP760  ASP761  ALA762  ILE779  LEU786  VAL792 
 PHE793  MET794  SER795  GLU796  ALA797  LYS798  CYS799  TRP800  GLU811  SER814 

> <Gold.Protein.RotatedAtoms>
  150.7123  134.0859  159.3914 H   0  0  0  0  0  0  0  0  0  0  0  0  # atno 6907 bound_to 6896
  151.8844  135.0439  160.0501 H   0  0  0  0  0  0  0  0  0  0  0  0  # atno 6908 bound_to 6896
  152.2542  133.5205  159.5380 H   0  0  0  0  0  0  0  0  0  0  0  0  # atno 6909 bound_to 6896
  145.5401  139.2288  143.2570 H   0  0  0  0  0  0  0  0  0  0  0  0  # atno 7974 bound_to 7965
  154.5448  140.0738  156.8570 H   0  0  0  0  0  0  0  0  0  0  0  0  # atno 8008 bound_to 7997
  155.3109  140.3390  155.4226 H   0  0  0  0  0  0  0  0  0  0  0  0  # atno 8009 bound_to 7997
  156.1908  140.1685  156.8082 H   0  0  0  0  0  0  0  0  0  0  0  0  # atno 8010 bound_to 7997
  139.5509  144.6812  151.4327 H   0  0  0  0  0  0  0  0  0  0  0  0  # atno 10167 bound_to 10162
  156.4680  130.4518  149.6887 H   0  0  0  0  0  0  0  0  0  0  0  0  # atno 10718 bound_to 10713
  152.9802  135.5983  154.3728 H   0  0  0  0  0  0  0  0  0  0  0  0  # atno 10763 bound_to 10752
  154.3400  135.2768  155.2429 H   0  0  0  0  0  0  0  0  0  0  0  0  # atno 10764 bound_to 10752
  154.4515  135.5988  153.6250 H   0  0  0  0  0  0  0  0  0  0  0  0  # atno 10765 bound_to 10752
  140.5781  134.0038  155.8036 H   0  0  0  0  0  0  0  0  0  0  0  0  # atno 11005 bound_to 11000
  146.1987  140.6221  142.9112 LP  0  0  0  0  0  0  0  0  0  0  0  0  # atno 17320 bound_to 7965
  144.7581  140.5357  143.6754 LP  0  0  0  0  0  0  0  0  0  0  0  0  # atno 17321 bound_to 7965
  140.6771  143.8165  150.7073 LP  0  0  0  0  0  0  0  0  0  0  0  0  # atno 17342 bound_to 10162
  140.1607  143.4278  152.2069 LP  0  0  0  0  0  0  0  0  0  0  0  0  # atno 17343 bound_to 10162
  156.3648  130.7500  151.2476 LP  0  0  0  0  0  0  0  0  0  0  0  0  # atno 17370 bound_to 10713
  157.7493  131.0340  150.4297 LP  0  0  0  0  0  0  0  0  0  0  0  0  # atno 17371 bound_to 10713
  141.1013  133.9763  157.3073 LP  0  0  0  0  0  0  0  0  0  0  0  0  # atno 17394 bound_to 11000
  139.9330  135.0198  156.8462 LP  0  0  0  0  0  0  0  0  0  0  0  0  # atno 17395 bound_to 11000

$$$$
