#       Name:                AV-unprocessed.smi:1071
#       Creating user name   scv26
#       Creation time:       Fri Mar 27 03:19:15 2020


#       File generated by GOLD software.
#

@<TRIPOS>MOLECULE
AV-unprocessed.smi:1071
    54    55     1
SMALL
NO_CHARGES


@<TRIPOS>ATOM
      1 ****        -8.9765   0.8519   1.2613 C.3            1 S1                 0.0000
      2 ****        -7.5869   1.0882   1.1171 O.3            1 S1                 0.0000
      3 ****        -6.8223  -0.1020   1.2129 C.3            1 S1                 0.0000
      4 ****        -5.3389   0.2412   1.0520 C.3            1 S1                 0.0000
      5 ****        -4.5798  -0.9599   1.1522 O.3            1 S1                 0.0000
      6 ****        -3.2065  -0.8825   1.0432 C.ar           1 S1                 0.0000
      7 ****        -2.4560  -2.0711   1.1339 C.ar           1 S1                 0.0000
      8 ****        -1.0551  -1.9982   1.0209 C.ar           1 S1                 0.0000
      9 ****        -0.4441  -0.7454   0.8119 C.ar           1 S1                 0.0000
     10 ****         0.9736  -0.7123   0.7111 N.am           1 S1                 0.0000
     11 ****         1.7657   0.2351   0.1710 C.2            1 S1                 0.0000
     12 ****         1.3708   1.3432  -0.1874 O.2            1 S1                 0.0000
     13 ****         3.0752  -0.1163   0.1808 N.am           1 S1                 0.0000
     14 ****         3.5025  -1.3824  -0.4339 C.3            1 S1                 0.0000
     15 ****         3.8716  -1.1280  -1.9096 C.3            1 S1                 0.0000
     16 ****         4.9024  -0.0648  -2.0384 N.4            1 S1                 1.0000
     17 ****         5.2537   0.2137  -3.4471 C.3            1 S1                 0.0000
     18 ****         4.5760   1.1711  -1.2793 C.3            1 S1                 0.0000
     19 ****         4.1985   0.8425   0.1802 C.3            1 S1                 0.0000
     20 ****         3.9819   2.1074   1.0374 C.3            1 S1                 0.0000
     21 ****        -1.2847   0.3934   0.7483 C.ar           1 S1                 0.0000
     22 ****        -2.6287   0.3299   0.8569 N.ar           1 S1                 0.0000
     23 ****        -9.5185   1.7944   1.1833 H              1 S1                 0.0000
     24 ****        -9.2030   0.4131   2.2339 H              1 S1                 0.0000
     25 ****        -9.3465   0.1849   0.4813 H              1 S1                 0.0000
     26 ****        -6.9911  -0.5791   2.1798 H              1 S1                 0.0000
     27 ****        -7.1281  -0.8070   0.4383 H              1 S1                 0.0000
     28 ****        -5.1737   0.7138   0.0823 H              1 S1                 0.0000
     29 ****        -5.0393   0.9467   1.8289 H              1 S1                 0.0000
     30 ****        -2.9462  -3.0213   1.2869 H              1 S1                 0.0000
     31 ****        -0.4597  -2.8970   1.0891 H              1 S1                 0.0000
     32 ****         1.4413  -1.5640   0.9856 H              1 S1                 0.0000
     33 ****         4.3632  -1.7790   0.1064 H              1 S1                 0.0000
     34 ****         2.7416  -2.1621  -0.3791 H              1 S1                 0.0000
     35 ****         4.2407  -2.0485  -2.3631 H              1 S1                 0.0000
     36 ****         2.9808  -0.8350  -2.4679 H              1 S1                 0.0000
     37 ****         4.4023   0.6288  -3.9880 H              1 S1                 0.0000
     38 ****         5.5683  -0.6995  -3.9528 H              1 S1                 0.0000
     39 ****         6.0768   0.9268  -3.5044 H              1 S1                 0.0000
     40 ****         5.4368   1.8406  -1.2998 H              1 S1                 0.0000
     41 ****         3.7550   1.6954  -1.7715 H              1 S1                 0.0000
     42 ****         5.0487   0.3317   0.6360 H              1 S1                 0.0000
     43 ****         4.9189   2.6529   1.1536 H              1 S1                 0.0000
     44 ****         3.6293   1.8529   2.0374 H              1 S1                 0.0000
     45 ****         3.2694   2.8004   0.5911 H              1 S1                 0.0000
     46 ****        -0.8963   1.3916   0.6248 H              1 S1                 0.0000
     47 ****         5.7358  -0.4384  -1.6069 H              1 S1                 0.0000
     48 ****        -7.2921   1.7178   1.8359 LP             1 S1                 0.0000
     49 ****        -7.4231   1.5038   0.2224 LP             1 S1                 0.0000
     50 ****        -4.8992  -1.5720   0.4288 LP             1 S1                 0.0000
     51 ****        -4.7827  -1.3636   2.0443 LP             1 S1                 0.0000
     52 ****         0.4066   1.5876  -0.0850 LP             1 S1                 0.0000
     53 ****         2.0140   2.0000  -0.5813 LP             1 S1                 0.0000
     54 ****        -3.1857   1.1585   0.8012 LP             1 S1                 0.0000
@<TRIPOS>BOND
    1    1    2 1     
    2    1   23 1     
    3    1   24 1     
    4    1   25 1     
    5    2    3 1     
    6    3    4 1     
    7    3   26 1     
    8    3   27 1     
    9    4    5 1     
   10    4   28 1     
   11    4   29 1     
   12    5    6 1     
   13    6   22 ar    
   14    6    7 ar    
   15    7    8 ar    
   16    7   30 1     
   17    8    9 ar    
   18    8   31 1     
   19    9   10 1     
   20    9   21 ar    
   21   10   11 am    
   22   10   32 1     
   23   11   12 2     
   24   11   13 am    
   25   13   19 1     
   26   13   14 1     
   27   14   15 1     
   28   14   33 1     
   29   14   34 1     
   30   15   16 1     
   31   15   35 1     
   32   15   36 1     
   33   16   17 1     
   34   16   18 1     
   35   16   47 1     
   36   17   37 1     
   37   17   38 1     
   38   17   39 1     
   39   18   19 1     
   40   18   40 1     
   41   18   41 1     
   42   19   20 1     
   43   19   42 1     
   44   20   43 1     
   45   20   44 1     
   46   20   45 1     
   47   21   22 ar    
   48   21   46 1     
   49    2   48 1     
   50    2   49 1     
   51    5   50 1     
   52    5   51 1     
   53   12   52 1     
   54   12   53 1     
   55   22   54 1     
@<TRIPOS>SUBSTRUCTURE
      1 S1             1
@<TRIPOS>SET
LONE_PAIRS      STATIC     ATOMS    <user>   **** ""
7 48 49 50 51 52 53 54
DONOR_HYDROGENS      STATIC     ATOMS    <user>   **** ""
2 32 47
ATOM$BLUE        STATIC     ATOMS    COLORGROUP SYSTEM
7 48 49 50 51 52 53 54
ATOM$RED        STATIC     ATOMS    COLORGROUP SYSTEM
2 32 47
