AV-unprocessed.smi:2684|AV-procd|sdf|10380|dock1
  -GOLD-   2272014413D 1   1.00000     0.00000
 Structure written by MMmdl.
 44 45  0  0  0  0  0  0  0  0  1 V2000
  152.0329  145.3236  159.1290 C   0  0  0  0  0  0  0  0  0  0  0  0
  151.8832  143.8516  158.8782 C   0  0  0  0  0  0  0  0  0  0  0  0
  151.0051  143.2043  157.9634 C   0  0  0  0  0  0  0  0  0  0  0  0
  151.1110  141.8859  157.9940 N   0  0  0  0  0  0  0  0  0  0  0  0
  152.0662  141.6458  158.9179 N   0  0  0  0  0  0  0  0  0  0  0  0
  152.4474  140.2797  159.2299 C   0  0  0  0  0  0  0  0  0  0  0  0
  151.6883  139.2156  158.4047 C   0  0  2  0  0  0  0  0  0  0  0  0
  151.8551  139.4725  156.9006 C   0  0  0  0  0  0  0  0  0  0  0  0
  150.2565  139.2572  158.6920 N   0  0  0  0  0  0  0  0  0  0  0  0
  149.5056  138.2564  157.9234 C   0  0  0  0  0  0  0  0  0  0  0  0
  149.2971  136.9647  158.7261 C   0  0  0  0  0  0  0  0  0  0  0  0
  149.8000  135.9205  158.3149 O   0  0  0  0  0  0  0  0  0  0  0  0
  148.5849  136.9736  159.8673 N   0  0  0  0  0  0  0  0  0  0  0  0
  148.2766  135.8622  160.7652 C   0  0  0  0  0  0  0  0  0  0  0  0
  147.4275  134.7857  160.0633 C   0  0  0  0  0  0  0  0  0  0  0  0
  146.9762  133.7131  161.0669 C   0  0  0  0  0  0  0  0  0  0  0  0
  146.2486  134.3182  162.1300 O   0  0  0  0  0  0  0  0  0  0  0  0
  147.0291  135.2406  162.8817 C   0  0  0  0  0  0  0  0  0  0  0  0
  147.5016  136.3935  161.9810 C   0  0  0  0  0  0  0  0  0  0  0  0
  152.5461  142.8142  159.4701 C   0  0  0  0  0  0  0  0  0  0  0  0
  151.7247  145.9149  158.2665 H   0  0  0  0  0  0  0  0  0  0  0  0
  153.0664  145.5912  159.3503 H   0  0  0  0  0  0  0  0  0  0  0  0
  151.4276  145.6494  159.9753 H   0  0  0  0  0  0  0  0  0  0  0  0
  150.2938  143.6515  157.2848 H   0  0  0  0  0  0  0  0  0  0  0  0
  153.5243  140.1763  159.0865 H   0  0  0  0  0  0  0  0  0  0  0  0
  152.2641  140.1229  160.2939 H   0  0  0  0  0  0  0  0  0  0  0  0
  152.0959  138.2237  158.6095 H   0  0  0  0  0  0  0  0  0  0  0  0
  152.9060  139.4352  156.6126 H   0  0  0  0  0  0  0  0  0  0  0  0
  151.4691  140.4522  156.6162 H   0  0  0  0  0  0  0  0  0  0  0  0
  151.3288  138.7211  156.3105 H   0  0  0  0  0  0  0  0  0  0  0  0
  149.9119  140.1855  158.4915 H   0  0  0  0  0  0  0  0  0  0  0  0
  148.5215  138.6554  157.6742 H   0  0  0  0  0  0  0  0  0  0  0  0
  150.0115  138.0695  156.9812 H   0  0  0  0  0  0  0  0  0  0  0  0
  148.2204  137.8709  160.1528 H   0  0  0  0  0  0  0  0  0  0  0  0
  149.2040  135.4215  161.1318 H   0  0  0  0  0  0  0  0  0  0  0  0
  146.5478  135.2453  159.6108 H   0  0  0  0  0  0  0  0  0  0  0  0
  147.9816  134.3151  159.2517 H   0  0  0  0  0  0  0  0  0  0  0  0
  146.3345  132.9841  160.5721 H   0  0  0  0  0  0  0  0  0  0  0  0
  147.8333  133.1658  161.4621 H   0  0  0  0  0  0  0  0  0  0  0  0
  146.4222  135.6302  163.6990 H   0  0  0  0  0  0  0  0  0  0  0  0
  147.8773  134.7284  163.3357 H   0  0  0  0  0  0  0  0  0  0  0  0
  148.1227  137.0827  162.5542 H   0  0  0  0  0  0  0  0  0  0  0  0
  146.6318  136.9616  161.6476 H   0  0  0  0  0  0  0  0  0  0  0  0
  153.3124  142.8104  160.2312 H   0  0  0  0  0  0  0  0  0  0  0  0
  1  2  1  0  0  0  0
  1 21  1  0  0  0  0
  1 22  1  0  0  0  0
  1 23  1  0  0  0  0
  2 20  2  0  0  0  0
  2  3  1  0  0  0  0
  3  4  2  0  0  0  0
  3 24  1  0  0  0  0
  4  5  1  0  0  0  0
  5  6  1  0  0  0  0
  5 20  1  0  0  0  0
  6  7  1  0  0  0  0
  6 25  1  0  0  0  0
  6 26  1  0  0  0  0
  7  8  1  0  0  0  0
  7  9  1  0  0  0  0
  7 27  1  0  0  0  0
  8 28  1  0  0  0  0
  8 29  1  0  0  0  0
  8 30  1  0  0  0  0
  9 10  1  0  0  0  0
  9 31  1  0  0  0  0
 10 11  1  0  0  0  0
 10 32  1  0  0  0  0
 10 33  1  0  0  0  0
 11 12  2  0  0  0  0
 11 13  1  0  0  0  0
 13 14  1  0  0  0  0
 13 34  1  0  0  0  0
 14 19  1  0  0  0  0
 14 15  1  0  0  0  0
 14 35  1  0  0  0  0
 15 16  1  0  0  0  0
 15 36  1  0  0  0  0
 15 37  1  0  0  0  0
 16 17  1  0  0  0  0
 16 38  1  0  0  0  0
 16 39  1  0  0  0  0
 17 18  1  0  0  0  0
 18 19  1  0  0  0  0
 18 40  1  0  0  0  0
 18 41  1  0  0  0  0
 19 42  1  0  0  0  0
 19 43  1  0  0  0  0
 20 44  1  0  0  0  0
M  END
> <s_m_source_file>
AV-unprocessed.smi

> <i_m_source_file_index>
2684

> <i_lp_mmshare_version>
43012

> <i_f3d_flags>
0

> <s_epik_input>
W0NIM11jMVtjSF1ubihbY0hdMSlbQ0gyXVtDQEhdKFtDSDNdKVtOSF1bQ0gyXUMoPU8pW05IXVtDSF0yW0NIMl1bQ0gyXU9bQ0gyXVtDSDJdMg==

> <s_epik_cmdline>
J2VwaWtfcHl0aG9uJywgJy1waCcsICc3LjAnLCAnLXRuJywgJzgnLCAnLW1hJywgJzIwMCcsICctbWV0YWxfYmluZGluZycsICctaW1hZScsICc8aW5maWxlLm1hZT4nLCAnLW9tYWUnLCAnPG91dGZpbGUubWFlPic=

> <r_lp_tautomer_probability>
1

> <r_epik_Ionization_Penalty>
0.968507

> <r_epik_Ionization_Penalty_Charging>
0

> <r_epik_Ionization_Penalty_Neutral>
0.968507

> <r_epik_State_Penalty>
1.01412

> <r_epik_Charging_Adjusted_Penalty>
1.01412

> <i_epik_Tot_Q>
0

> <i_epik_Tot_abs_Q>
0

> <r_epik_Metal_State_Penalty>
1.01401

> <b_epik_Metal_Only>
0

> <s_lp_Force_Field>
OPLS_2005

> <r_lp_Energy>
12.1402

> <b_lp_Chiralities_Consistent>
1

> <s_lp_Variant>
AV-unprocessed.smi:2684-3

> <Gold.Version>
5.8.1

> <Gold.Id.Protein>
6NUR|6NUR_protein|mol2

> <Gold.PLP.Fitness>
45.1959

> <Gold.PLP.PLP>
-39.5680

> <Gold.PLP.part.hbond>
-1.0000

> <Gold.PLP.part.metal>
0.0000

> <Gold.PLP.part.buried>
-5.9991

> <Gold.PLP.part.nonpolar>
-33.4268

> <Gold.PLP.part.repulsive>
0.2672

> <Gold.PLP.ligand.clash>
0.0000

> <Gold.PLP.ligand.torsion>
0.2621

> <Gold.PLP.Chemscore.Hbond>
1.0000

> <Gold.PLP.Chemscore.CHOScore>
1.0000

> <Gold.PLP.Chemscore.Metal>
0.0000

> <Gold.Chemscore.Hbonds>
donor molecule, donor type, donor heavy atom, donor atom, acceptor molecule, acceptor atom, score
      P1  H  6896  6907       L1    12  1.00
      L1  C     3    24       P1  8028  1.00

> <Gold.PLP.Chemscore.Internal.Correction>
0.1520

> <Gold.Rescore>
     Score         DG    S(hbond)    S(metal)    S(lipo)     H(rot)  DE(clash)    DE(int)     intcor
     14.33     -16.35       0.99        0.00     107.71       1.97       0.36       1.66       ----

> <Gold.Chemscore.Fitness>
14.3251

> <Gold.Chemscore.DG>
-16.3517

> <Gold.Chemscore.ZeroCoef>
-5.4800

> <Gold.Chemscore.Hbond>
0.9947

> <Gold.Chemscore.Metal>
0.0000

> <Gold.Chemscore.Lipo>
107.7067

> <Gold.Chemscore.Internal_Hbond>
0.0000

> <Gold.Chemscore.DEClash>
0.3647

> <Gold.Chemscore.DEInternal>
1.6618

> <Gold.Chemscore.Rot>
1.9736

> <Gold.Chemscore.Internal.Correction>
   9.000000E+99

> <Gold.Chemscore.Hbonds>
donor molecule, donor type, donor heavy atom, donor atom, acceptor molecule, acceptor atom, score
      P1  H  6896  6907       L1    12  0.91

> <Gold.Chemscore.Hbond.Weighted>
-3.3223

> <Gold.Chemscore.Metal.Weighted>
-0.0000

> <Gold.Chemscore.Lipo.Weighted>
-12.6017

> <Gold.Chemscore.Internal_Hbond.Weighted>
0.0000

> <Gold.Chemscore.DEClash.Weighted>
0.3647

> <Gold.Chemscore.DEInternal.Weighted>
1.6618

> <Gold.Chemscore.Rot.Weighted>
5.0523

> <Gold.Chemscore.Internal.Correction.Weighted>
   9.000000E+99

> <Gold.Protein.RotatedTorsions>
[ 6907 6896 6895 6894 ] final  -69.23 input  -60.11 | X-H torsion
[ 7974 7965 7964 7962 ] final -126.04 input  175.53 | X-H torsion
[ 8008 7997 7996 7995 ] final  160.88 input   59.86 | X-H torsion
[ 10167 10162 10161 10158 ] final  143.03 input  -65.29 | X-H torsion
[ 10718 10713 10712 10709 ] final  -32.57 input   66.30 | X-H torsion
[ 10763 10752 10751 10750 ] final   85.96 input  -60.55 | X-H torsion
[ 11005 11000 10999 10996 ] final  -13.57 input  -57.11 | X-H torsion

> <Gold.Protein.ActiveResidues>
 VAL166  LYS551  ARG553  GLY616  TRP617  ASP618  TYR619  PRO620  LYS621  CYS622 
 ASP623  PHE694  ASN695  SER759  ASP760  ASP761  ALA762  ILE779  LEU786  VAL792 
 PHE793  MET794  SER795  GLU796  ALA797  LYS798  CYS799  TRP800  GLU811  SER814 

> <Gold.Protein.RotatedAtoms>
  150.7316  134.5627  159.5849 H   0  0  0  0  0  0  0  0  0  0  0  0  # atno 6907 bound_to 6896
  152.3086  134.7522  160.0350 H   0  0  0  0  0  0  0  0  0  0  0  0  # atno 6908 bound_to 6896
  151.8078  133.3342  159.3583 H   0  0  0  0  0  0  0  0  0  0  0  0  # atno 6909 bound_to 6896
  144.9914  140.7735  143.4552 H   0  0  0  0  0  0  0  0  0  0  0  0  # atno 7974 bound_to 7965
  156.2142  140.1792  156.7627 H   0  0  0  0  0  0  0  0  0  0  0  0  # atno 8008 bound_to 7997
  154.5766  140.0673  156.9073 H   0  0  0  0  0  0  0  0  0  0  0  0  # atno 8009 bound_to 7997
  155.2576  140.3333  155.4278 H   0  0  0  0  0  0  0  0  0  0  0  0  # atno 8010 bound_to 7997
  139.4979  144.6067  151.6362 H   0  0  0  0  0  0  0  0  0  0  0  0  # atno 10167 bound_to 10162
  156.3732  130.4343  149.7528 H   0  0  0  0  0  0  0  0  0  0  0  0  # atno 10718 bound_to 10713
  153.1525  135.4598  154.9657 H   0  0  0  0  0  0  0  0  0  0  0  0  # atno 10763 bound_to 10752
  154.7836  135.3196  154.7939 H   0  0  0  0  0  0  0  0  0  0  0  0  # atno 10764 bound_to 10752
  153.8442  135.6927  153.4854 H   0  0  0  0  0  0  0  0  0  0  0  0  # atno 10765 bound_to 10752
  140.7775  133.8389  155.9261 H   0  0  0  0  0  0  0  0  0  0  0  0  # atno 11005 bound_to 11000
  145.2280  139.2128  143.5058 LP  0  0  0  0  0  0  0  0  0  0  0  0  # atno 17320 bound_to 7965
  146.3432  140.2152  142.8590 LP  0  0  0  0  0  0  0  0  0  0  0  0  # atno 17321 bound_to 7965
  140.5731  144.0075  150.6227 LP  0  0  0  0  0  0  0  0  0  0  0  0  # atno 17342 bound_to 10162
  140.3199  143.3144  152.0795 LP  0  0  0  0  0  0  0  0  0  0  0  0  # atno 17343 bound_to 10162
  156.4647  130.7968  151.2988 LP  0  0  0  0  0  0  0  0  0  0  0  0  # atno 17370 bound_to 10713
  157.7486  131.0054  150.3114 LP  0  0  0  0  0  0  0  0  0  0  0  0  # atno 17371 bound_to 10713
  140.9515  134.1773  157.4724 LP  0  0  0  0  0  0  0  0  0  0  0  0  # atno 17394 bound_to 11000
  139.8747  134.9911  156.5532 LP  0  0  0  0  0  0  0  0  0  0  0  0  # atno 17395 bound_to 11000

$$$$
