AV-unprocessed.smi:2181|AV-procd|sdf|8862|dock1
  -GOLD-   2272012 53D 1   1.00000     0.00000
 Structure written by MMmdl.
 38 39  0  0  0  0  0  0  0  0  1 V2000
  150.1641  134.9378  156.6858 C   0  0  0  0  0  0  0  0  0  0  0  0
  150.3126  133.4854  156.3323 C   0  0  0  0  0  0  0  0  0  0  0  0
  150.5870  132.6134  157.2878 N   0  0  0  0  0  0  0  0  0  0  0  0
  150.6479  131.3646  156.6621 O   0  0  0  0  0  0  0  0  0  0  0  0
  150.4035  131.5355  155.3381 C   0  0  0  0  0  0  0  0  0  0  0  0
  150.4124  130.3085  154.4906 C   0  0  0  0  0  0  0  0  0  0  0  0
  150.1831  132.8563  155.0595 C   0  0  0  0  0  0  0  0  0  0  0  0
  149.8678  133.4920  153.7294 C   0  0  0  0  0  0  0  0  0  0  0  0
  148.5280  132.9680  153.2144 C   0  0  0  0  0  0  0  0  0  0  0  0
  148.1993  131.8012  153.4257 O   0  0  0  0  0  0  0  0  0  0  0  0
  147.7632  133.8457  152.5463 N   0  0  0  0  0  0  0  0  0  0  0  0
  146.4467  133.5753  151.9695 C   0  0  1  0  0  0  0  0  0  0  0  0
  146.5554  132.4690  150.8958 C   0  0  0  0  0  0  0  0  0  0  0  0
  145.4082  132.4774  149.8725 C   0  0  0  0  0  0  0  0  0  0  0  0
  144.0151  132.2095  150.4612 C   0  0  0  0  0  0  0  0  0  0  0  0
  143.5315  133.3041  151.4281 C   0  0  0  0  0  0  0  0  0  0  0  0
  144.1209  133.1790  152.7554 N   0  0  0  0  0  0  0  0  0  0  0  0
  145.4195  133.2774  153.0782 C   0  0  0  0  0  0  0  0  0  0  0  0
  145.7869  133.1232  154.2430 O   0  0  0  0  0  0  0  0  0  0  0  0
  149.1711  135.1400  157.0878 H   0  0  0  0  0  0  0  0  0  0  0  0
  150.3047  135.5775  155.8148 H   0  0  0  0  0  0  0  0  0  0  0  0
  150.8954  135.2410  157.4354 H   0  0  0  0  0  0  0  0  0  0  0  0
  149.3945  129.9804  154.2799 H   0  0  0  0  0  0  0  0  0  0  0  0
  150.9363  129.4916  154.9872 H   0  0  0  0  0  0  0  0  0  0  0  0
  150.9096  130.4978  153.5394 H   0  0  0  0  0  0  0  0  0  0  0  0
  149.8222  134.5790  153.8027 H   0  0  0  0  0  0  0  0  0  0  0  0
  150.6418  133.2745  152.9922 H   0  0  0  0  0  0  0  0  0  0  0  0
  148.1224  134.7808  152.4181 H   0  0  0  0  0  0  0  0  0  0  0  0
  146.1184  134.4973  151.4859 H   0  0  0  0  0  0  0  0  0  0  0  0
  147.4854  132.5906  150.3388 H   0  0  0  0  0  0  0  0  0  0  0  0
  146.6258  131.4899  151.3722 H   0  0  0  0  0  0  0  0  0  0  0  0
  145.4018  133.4307  149.3425 H   0  0  0  0  0  0  0  0  0  0  0  0
  145.6154  131.7200  149.1159 H   0  0  0  0  0  0  0  0  0  0  0  0
  143.3077  132.1482  149.6336 H   0  0  0  0  0  0  0  0  0  0  0  0
  143.9891  131.2337  150.9482 H   0  0  0  0  0  0  0  0  0  0  0  0
  143.7150  134.2997  151.0216 H   0  0  0  0  0  0  0  0  0  0  0  0
  142.4517  133.2188  151.5511 H   0  0  0  0  0  0  0  0  0  0  0  0
  143.4771  132.9865  153.5093 H   0  0  0  0  0  0  0  0  0  0  0  0
  1  2  1  0  0  0  0
  1 20  1  0  0  0  0
  1 21  1  0  0  0  0
  1 22  1  0  0  0  0
  2  7  1  0  0  0  0
  2  3  2  0  0  0  0
  3  4  1  0  0  0  0
  4  5  1  0  0  0  0
  5  6  1  0  0  0  0
  5  7  2  0  0  0  0
  6 23  1  0  0  0  0
  6 24  1  0  0  0  0
  6 25  1  0  0  0  0
  7  8  1  0  0  0  0
  8  9  1  0  0  0  0
  8 26  1  0  0  0  0
  8 27  1  0  0  0  0
  9 10  2  0  0  0  0
  9 11  1  0  0  0  0
 11 12  1  0  0  0  0
 11 28  1  0  0  0  0
 12 18  1  0  0  0  0
 12 13  1  0  0  0  0
 12 29  1  0  0  0  0
 13 14  1  0  0  0  0
 13 30  1  0  0  0  0
 13 31  1  0  0  0  0
 14 15  1  0  0  0  0
 14 32  1  0  0  0  0
 14 33  1  0  0  0  0
 15 16  1  0  0  0  0
 15 34  1  0  0  0  0
 15 35  1  0  0  0  0
 16 17  1  0  0  0  0
 16 36  1  0  0  0  0
 16 37  1  0  0  0  0
 17 18  1  0  0  0  0
 17 38  1  0  0  0  0
 18 19  2  0  0  0  0
M  END
> <s_m_source_file>
AV-unprocessed.smi

> <i_m_source_file_index>
2181

> <i_lp_mmshare_version>
43012

> <i_f3d_flags>
0

> <s_epik_input>
W0NIM11jMW5vYyhbQ0gzXSljMVtDSDJdQyg9TylbTkhdW0NAQEhdMltDSDJdW0NIMl1bQ0gyXVtDSDJdW05IXUMyPU8=

> <s_epik_cmdline>
J2VwaWtfcHl0aG9uJywgJy1waCcsICc3LjAnLCAnLXRuJywgJzgnLCAnLW1hJywgJzIwMCcsICctbWV0YWxfYmluZGluZycsICctaW1hZScsICc8aW5maWxlLm1hZT4nLCAnLW9tYWUnLCAnPG91dGZpbGUubWFlPic=

> <r_lp_tautomer_probability>
1

> <r_epik_Ionization_Penalty>
5.91376e-08

> <r_epik_Ionization_Penalty_Charging>
0

> <r_epik_Ionization_Penalty_Neutral>
5.91376e-08

> <r_epik_State_Penalty>
-0

> <r_epik_Charging_Adjusted_Penalty>
0

> <i_epik_Tot_Q>
0

> <i_epik_Tot_abs_Q>
0

> <r_epik_Metal_State_Penalty>
-0

> <b_epik_Metal_Only>
0

> <s_lp_Force_Field>
OPLS_2005

> <r_lp_Energy>
4.12188

> <b_lp_Chiralities_Consistent>
1

> <s_lp_Variant>
AV-unprocessed.smi:2181-2

> <Gold.Version>
5.8.1

> <Gold.Id.Protein>
6NUR|6NUR_protein|mol2

> <Gold.PLP.Fitness>
39.1948

> <Gold.PLP.PLP>
-31.1353

> <Gold.PLP.part.hbond>
-3.0000

> <Gold.PLP.part.metal>
0.0000

> <Gold.PLP.part.buried>
-2.9543

> <Gold.PLP.part.nonpolar>
-24.2062

> <Gold.PLP.part.repulsive>
0.2205

> <Gold.PLP.ligand.clash>
0.0000

> <Gold.PLP.ligand.torsion>
0.3757

> <Gold.PLP.Chemscore.Hbond>
2.9280

> <Gold.PLP.Chemscore.CHOScore>
0.0000

> <Gold.PLP.Chemscore.Metal>
0.0000

> <Gold.Chemscore.Hbonds>
donor molecule, donor type, donor heavy atom, donor atom, acceptor molecule, acceptor atom, score
      L1  H    11    28       P1  7948  1.00
      L1  H    17    38       P1 10957  1.00
      P1  H  6896  6909       L1     3  0.65

> <Gold.PLP.Chemscore.Internal.Correction>
0.0270

> <Gold.Rescore>
     Score         DG    S(hbond)    S(metal)    S(lipo)     H(rot)  DE(clash)    DE(int)     intcor
     15.09     -18.80       2.79        0.00      66.79       1.49       0.09       3.62       ----

> <Gold.Chemscore.Fitness>
15.0855

> <Gold.Chemscore.DG>
-18.7998

> <Gold.Chemscore.ZeroCoef>
-5.4800

> <Gold.Chemscore.Hbond>
2.7940

> <Gold.Chemscore.Metal>
0.0000

> <Gold.Chemscore.Lipo>
66.7939

> <Gold.Chemscore.Internal_Hbond>
0.0000

> <Gold.Chemscore.DEClash>
0.0949

> <Gold.Chemscore.DEInternal>
3.6194

> <Gold.Chemscore.Rot>
1.4949

> <Gold.Chemscore.Internal.Correction>
   9.000000E+99

> <Gold.Chemscore.Hbonds>
donor molecule, donor type, donor heavy atom, donor atom, acceptor molecule, acceptor atom, score
      L1  H    11    28       P1  7948  0.50
      L1  H    17    38       P1 10957  0.84
      P1  H  6896  6909       L1     3  0.57

> <Gold.Chemscore.Hbond.Weighted>
-9.3319

> <Gold.Chemscore.Metal.Weighted>
-0.0000

> <Gold.Chemscore.Lipo.Weighted>
-7.8149

> <Gold.Chemscore.Internal_Hbond.Weighted>
0.0000

> <Gold.Chemscore.DEClash.Weighted>
0.0949

> <Gold.Chemscore.DEInternal.Weighted>
3.6194

> <Gold.Chemscore.Rot.Weighted>
3.8269

> <Gold.Chemscore.Internal.Correction.Weighted>
   9.000000E+99

> <Gold.Protein.RotatedTorsions>
[ 6907 6896 6895 6894 ] final  -21.50 input  -60.11 | X-H torsion
[ 7974 7965 7964 7962 ] final   30.58 input  175.53 | X-H torsion
[ 8008 7997 7996 7995 ] final   77.96 input   59.86 | X-H torsion
[ 10167 10162 10161 10158 ] final -159.28 input  -65.29 | X-H torsion
[ 10718 10713 10712 10709 ] final  -86.91 input   66.30 | X-H torsion
[ 10763 10752 10751 10750 ] final  100.92 input  -60.55 | X-H torsion
[ 11005 11000 10999 10996 ] final  112.31 input  -57.11 | X-H torsion

> <Gold.Protein.ActiveResidues>
 VAL166  LYS551  ARG553  GLY616  TRP617  ASP618  TYR619  PRO620  LYS621  CYS622 
 ASP623  PHE694  ASN695  SER759  ASP760  ASP761  ALA762  ILE779  LEU786  VAL792 
 PHE793  MET794  SER795  GLU796  ALA797  LYS798  CYS799  TRP800  GLU811  SER814 

> <Gold.Protein.RotatedAtoms>
  151.2324  135.0559  159.8992 H   0  0  0  0  0  0  0  0  0  0  0  0  # atno 6907 bound_to 6896
  152.5403  134.0522  159.8125 H   0  0  0  0  0  0  0  0  0  0  0  0  # atno 6908 bound_to 6896
  151.0704  133.5422  159.2659 H   0  0  0  0  0  0  0  0  0  0  0  0  # atno 6909 bound_to 6896
  146.1603  139.6769  142.9038 H   0  0  0  0  0  0  0  0  0  0  0  0  # atno 7974 bound_to 7965
  155.8490  140.3459  155.5681 H   0  0  0  0  0  0  0  0  0  0  0  0  # atno 8008 bound_to 7997
  155.8058  140.0892  157.1951 H   0  0  0  0  0  0  0  0  0  0  0  0  # atno 8009 bound_to 7997
  154.4007  140.1457  156.3316 H   0  0  0  0  0  0  0  0  0  0  0  0  # atno 8010 bound_to 7997
  139.6627  143.9883  152.2235 H   0  0  0  0  0  0  0  0  0  0  0  0  # atno 10167 bound_to 10162
  155.9987  130.4781  150.4787 H   0  0  0  0  0  0  0  0  0  0  0  0  # atno 10718 bound_to 10713
  153.3201  135.4062  155.1409 H   0  0  0  0  0  0  0  0  0  0  0  0  # atno 10763 bound_to 10752
  154.8598  135.3585  154.5608 H   0  0  0  0  0  0  0  0  0  0  0  0  # atno 10764 bound_to 10752
  153.6041  135.7070  153.5431 H   0  0  0  0  0  0  0  0  0  0  0  0  # atno 10765 bound_to 10752
  139.8924  134.9527  156.6566 H   0  0  0  0  0  0  0  0  0  0  0  0  # atno 11005 bound_to 11000
  145.4605  141.0432  143.2754 LP  0  0  0  0  0  0  0  0  0  0  0  0  # atno 17320 bound_to 7965
  144.8018  139.6127  143.7068 LP  0  0  0  0  0  0  0  0  0  0  0  0  # atno 17321 bound_to 7965
  139.9627  144.6547  150.8064 LP  0  0  0  0  0  0  0  0  0  0  0  0  # atno 17342 bound_to 10162
  140.7587  143.3112  151.2840 LP  0  0  0  0  0  0  0  0  0  0  0  0  # atno 17343 bound_to 10162
  157.2795  131.0604  151.2207 LP  0  0  0  0  0  0  0  0  0  0  0  0  # atno 17370 bound_to 10713
  157.3259  130.6960  149.6296 LP  0  0  0  0  0  0  0  0  0  0  0  0  # atno 17371 bound_to 10713
  140.7479  133.8922  155.8325 LP  0  0  0  0  0  0  0  0  0  0  0  0  # atno 17394 bound_to 11000
  141.0024  134.1132  157.4304 LP  0  0  0  0  0  0  0  0  0  0  0  0  # atno 17395 bound_to 11000

$$$$
