AV-unprocessed.smi:3236|AV-procd|sdf|12361|dock4
  -GOLD-   2272018223D 1   1.00000     0.00000
 Structure written by MMmdl.
 41 42  0  0  0  0  0  0  0  0  2 V2000
  153.9896  141.3718  162.1989 C   0  0  0  0  0  0  0  0  0  0  0  0
  153.5853  142.3628  161.0990 C   0  0  0  0  0  0  0  0  0  0  0  0
  152.5958  143.4255  161.6251 C   0  0  0  0  0  0  0  0  0  0  0  0
  152.1083  144.3469  160.4918 C   0  0  0  0  0  0  0  0  0  0  0  0
  151.5128  143.5198  159.4351 N   0  0  0  0  0  0  0  0  0  0  0  0
  150.1820  143.5045  159.1788 C   0  0  0  0  0  0  0  0  0  0  0  0
  149.3882  144.2335  159.7768 O   0  0  0  0  0  0  0  0  0  0  0  0
  149.6408  142.5443  158.1084 C   0  0  0  0  0  0  0  0  0  0  0  0
  150.1459  142.8630  156.7573 N   0  3  0  0  0  0  0  0  0  0  0  0
  150.3821  141.6804  155.9054 C   0  0  0  0  0  0  0  0  0  0  0  0
  151.4906  140.7823  156.4820 C   0  0  0  0  0  0  0  0  0  0  0  0
  151.8347  139.6731  155.6081 N   0  0  0  0  0  0  0  0  0  0  0  0
  151.0005  138.7107  155.0785 C   0  0  0  0  0  0  0  0  0  0  0  0
  151.7667  137.8914  154.2999 C   0  0  0  0  0  0  0  0  0  0  0  0
  153.0719  138.4478  154.4050 C   0  0  0  0  0  0  0  0  0  0  0  0
  153.1081  139.5164  155.1847 N   0  0  0  0  0  0  0  0  0  0  0  0
  152.5132  142.6447  158.8101 C   0  0  0  0  0  0  0  0  0  0  0  0
  153.0129  141.6378  159.8616 C   0  0  0  0  0  0  0  0  0  0  0  0
  153.1288  140.8085  162.5604 H   0  0  0  0  0  0  0  0  0  0  0  0
  154.4302  141.8900  163.0511 H   0  0  0  0  0  0  0  0  0  0  0  0
  154.7257  140.6564  161.8316 H   0  0  0  0  0  0  0  0  0  0  0  0
  154.4884  142.8864  160.7817 H   0  0  0  0  0  0  0  0  0  0  0  0
  151.7365  142.9354  162.0854 H   0  0  0  0  0  0  0  0  0  0  0  0
  153.0677  144.0202  162.4081 H   0  0  0  0  0  0  0  0  0  0  0  0
  151.4166  145.0903  160.8903 H   0  0  0  0  0  0  0  0  0  0  0  0
  152.9455  144.9126  160.0808 H   0  0  0  0  0  0  0  0  0  0  0  0
  149.9285  141.5233  158.3628 H   0  0  0  0  0  0  0  0  0  0  0  0
  148.5511  142.5962  158.0930 H   0  0  0  0  0  0  0  0  0  0  0  0
  149.4685  143.4568  156.2997 H   0  0  0  0  0  0  0  0  0  0  0  0
  149.4555  141.1108  155.8263 H   0  0  0  0  0  0  0  0  0  0  0  0
  150.6404  142.0030  154.8957 H   0  0  0  0  0  0  0  0  0  0  0  0
  152.3898  141.3698  156.6724 H   0  0  0  0  0  0  0  0  0  0  0  0
  151.1759  140.3715  157.4422 H   0  0  0  0  0  0  0  0  0  0  0  0
  149.9430  138.6867  155.2974 H   0  0  0  0  0  0  0  0  0  0  0  0
  151.4431  137.0290  153.7357 H   0  0  0  0  0  0  0  0  0  0  0  0
  153.9866  138.1106  153.9398 H   0  0  0  0  0  0  0  0  0  0  0  0
  152.1480  142.1143  157.9323 H   0  0  0  0  0  0  0  0  0  0  0  0
  153.3464  143.2518  158.4528 H   0  0  0  0  0  0  0  0  0  0  0  0
  153.7739  140.9913  159.4232 H   0  0  0  0  0  0  0  0  0  0  0  0
  152.1894  140.9874  160.1607 H   0  0  0  0  0  0  0  0  0  0  0  0
  151.0104  143.3768  156.8511 H   0  0  0  0  0  0  0  0  0  0  0  0
  1  2  1  0  0  0  0
  1 19  1  0  0  0  0
  1 20  1  0  0  0  0
  1 21  1  0  0  0  0
  2 18  1  0  0  0  0
  2  3  1  0  0  0  0
  2 22  1  0  0  0  0
  3  4  1  0  0  0  0
  3 23  1  0  0  0  0
  3 24  1  0  0  0  0
  4  5  1  0  0  0  0
  4 25  1  0  0  0  0
  4 26  1  0  0  0  0
  5  6  1  0  0  0  0
  5 17  1  0  0  0  0
  6  7  2  0  0  0  0
  6  8  1  0  0  0  0
  8  9  1  0  0  0  0
  8 27  1  0  0  0  0
  8 28  1  0  0  0  0
  9 10  1  0  0  0  0
  9 29  1  0  0  0  0
  9 41  1  0  0  0  0
 10 11  1  0  0  0  0
 10 30  1  0  0  0  0
 10 31  1  0  0  0  0
 11 12  1  0  0  0  0
 11 32  1  0  0  0  0
 11 33  1  0  0  0  0
 12 16  1  0  0  0  0
 12 13  1  0  0  0  0
 13 14  2  0  0  0  0
 13 34  1  0  0  0  0
 14 15  1  0  0  0  0
 14 35  1  0  0  0  0
 15 16  2  0  0  0  0
 15 36  1  0  0  0  0
 17 18  1  0  0  0  0
 17 37  1  0  0  0  0
 17 38  1  0  0  0  0
 18 39  1  0  0  0  0
 18 40  1  0  0  0  0
M  CHG  1   9   1
M  END
> <s_m_source_file>
AV-unprocessed.smi

> <i_m_source_file_index>
3236

> <i_lp_mmshare_version>
43012

> <i_f3d_flags>
0

> <s_epik_input>
W0NIM11bQ0hdMVtDSDJdW0NIMl1OKFtDSDJdW0NIMl0xKUMoPU8pW0NIMl1bTkhdW0NIMl1bQ0gyXW4yW2NIXVtjSF1bY0hdbjI=

> <s_epik_cmdline>
J2VwaWtfcHl0aG9uJywgJy1waCcsICc3LjAnLCAnLXRuJywgJzgnLCAnLW1hJywgJzIwMCcsICctbWV0YWxfYmluZGluZycsICctaW1hZScsICc8aW5maWxlLm1hZT4nLCAnLW9tYWUnLCAnPG91dGZpbGUubWFlPic=

> <r_lp_tautomer_probability>
1

> <r_epik_Ionization_Penalty>
0.186057

> <r_epik_Ionization_Penalty_Charging>
0.186055

> <r_epik_Ionization_Penalty_Neutral>
2.36809e-06

> <r_epik_State_Penalty>
0.175633

> <r_epik_Charging_Adjusted_Penalty>
0.361687

> <i_epik_Tot_Q>
1

> <i_epik_Tot_abs_Q>
1

> <r_epik_Metal_State_Penalty>
0.176075

> <b_epik_Metal_Only>
0

> <s_lp_Force_Field>
OPLS_2005

> <r_lp_Energy>
21.8815

> <b_lp_Chiralities_Consistent>
1

> <s_lp_Variant>
AV-unprocessed.smi:3236-1

> <Gold.Version>
5.8.1

> <Gold.Id.Protein>
6NUR|6NUR_protein|mol2

> <Gold.PLP.Fitness>
53.7580

> <Gold.PLP.PLP>
-45.3050

> <Gold.PLP.part.hbond>
-2.2804

> <Gold.PLP.part.metal>
0.0000

> <Gold.PLP.part.buried>
-6.3445

> <Gold.PLP.part.nonpolar>
-36.8957

> <Gold.PLP.part.repulsive>
0.2148

> <Gold.PLP.ligand.clash>
0.0000

> <Gold.PLP.ligand.torsion>
0.2883

> <Gold.PLP.Chemscore.Hbond>
3.0000

> <Gold.PLP.Chemscore.CHOScore>
0.0000

> <Gold.PLP.Chemscore.Metal>
0.0000

> <Gold.Chemscore.Hbonds>
donor molecule, donor type, donor heavy atom, donor atom, acceptor molecule, acceptor atom, score
      L1  H     9    29       P1  8028  2.00
      P1  H  7997  8010       L1    16  1.00

> <Gold.PLP.Chemscore.Internal.Correction>
0.0296

> <Gold.Rescore>
     Score         DG    S(hbond)    S(metal)    S(lipo)     H(rot)  DE(clash)    DE(int)     intcor
     20.28     -20.57       1.98        0.00     111.87       1.80       0.01       0.28       ----

> <Gold.Chemscore.Fitness>
20.2803

> <Gold.Chemscore.DG>
-20.5683

> <Gold.Chemscore.ZeroCoef>
-5.4800

> <Gold.Chemscore.Hbond>
1.9756

> <Gold.Chemscore.Metal>
0.0000

> <Gold.Chemscore.Lipo>
111.8652

> <Gold.Chemscore.Internal_Hbond>
0.0000

> <Gold.Chemscore.DEClash>
0.0053

> <Gold.Chemscore.DEInternal>
0.2828

> <Gold.Chemscore.Rot>
1.7963

> <Gold.Chemscore.Internal.Correction>
   9.000000E+99

> <Gold.Chemscore.Hbonds>
donor molecule, donor type, donor heavy atom, donor atom, acceptor molecule, acceptor atom, score
      L1  H     9    29       P1  8028  0.93
      P1  H  7997  8010       L1    16  0.96

> <Gold.Chemscore.Hbond.Weighted>
-6.5986

> <Gold.Chemscore.Metal.Weighted>
-0.0000

> <Gold.Chemscore.Lipo.Weighted>
-13.0882

> <Gold.Chemscore.Internal_Hbond.Weighted>
0.0000

> <Gold.Chemscore.DEClash.Weighted>
0.0053

> <Gold.Chemscore.DEInternal.Weighted>
0.2828

> <Gold.Chemscore.Rot.Weighted>
4.5985

> <Gold.Chemscore.Internal.Correction.Weighted>
   9.000000E+99

> <Gold.Protein.RotatedTorsions>
[ 6907 6896 6895 6894 ] final   16.24 input  -60.11 | X-H torsion
[ 7974 7965 7964 7962 ] final   25.12 input  175.53 | X-H torsion
[ 8008 7997 7996 7995 ] final  118.96 input   59.86 | X-H torsion
[ 10167 10162 10161 10158 ] final  -30.17 input  -65.29 | X-H torsion
[ 10718 10713 10712 10709 ] final  -53.08 input   66.30 | X-H torsion
[ 10763 10752 10751 10750 ] final  -48.53 input  -60.55 | X-H torsion
[ 11005 11000 10999 10996 ] final  111.03 input  -57.11 | X-H torsion

> <Gold.Protein.ActiveResidues>
 VAL166  LYS551  ARG553  GLY616  TRP617  ASP618  TYR619  PRO620  LYS621  CYS622 
 ASP623  PHE694  ASN695  SER759  ASP760  ASP761  ALA762  ILE779  LEU786  VAL792 
 PHE793  MET794  SER795  GLU796  ALA797  LYS798  CYS799  TRP800  GLU811  SER814 

> <Gold.Protein.RotatedAtoms>
  151.8308  135.0622  160.0436 H   0  0  0  0  0  0  0  0  0  0  0  0  # atno 6907 bound_to 6896
  152.2882  133.5531  159.5549 H   0  0  0  0  0  0  0  0  0  0  0  0  # atno 6908 bound_to 6896
  150.7218  134.0383  159.3799 H   0  0  0  0  0  0  0  0  0  0  0  0  # atno 6909 bound_to 6896
  146.1904  139.7510  142.8836 H   0  0  0  0  0  0  0  0  0  0  0  0  # atno 7974 bound_to 7965
  156.2572  140.2863  156.0916 H   0  0  0  0  0  0  0  0  0  0  0  0  # atno 8008 bound_to 7997
  155.1457  140.0396  157.2826 H   0  0  0  0  0  0  0  0  0  0  0  0  # atno 8009 bound_to 7997
  154.6497  140.2542  155.7234 H   0  0  0  0  0  0  0  0  0  0  0  0  # atno 8010 bound_to 7997
  140.7252  143.3870  151.1498 H   0  0  0  0  0  0  0  0  0  0  0  0  # atno 10167 bound_to 10162
  156.1566  130.4150  149.9859 H   0  0  0  0  0  0  0  0  0  0  0  0  # atno 10718 bound_to 10713
  154.0793  135.6593  153.4835 H   0  0  0  0  0  0  0  0  0  0  0  0  # atno 10763 bound_to 10752
  153.0362  135.5176  154.7490 H   0  0  0  0  0  0  0  0  0  0  0  0  # atno 10764 bound_to 10752
  154.6580  135.3011  154.9871 H   0  0  0  0  0  0  0  0  0  0  0  0  # atno 10765 bound_to 10752
  139.8894  134.9498  156.6369 H   0  0  0  0  0  0  0  0  0  0  0  0  # atno 11005 bound_to 11000
  145.3809  141.0358  143.3178 LP  0  0  0  0  0  0  0  0  0  0  0  0  # atno 17320 bound_to 7965
  144.8476  139.5372  143.6871 LP  0  0  0  0  0  0  0  0  0  0  0  0  # atno 17321 bound_to 7965
  139.7468  143.8839  152.3066 LP  0  0  0  0  0  0  0  0  0  0  0  0  # atno 17342 bound_to 10162
  139.8679  144.7083  150.9022 LP  0  0  0  0  0  0  0  0  0  0  0  0  # atno 17343 bound_to 10162
  156.7701  130.9183  151.3644 LP  0  0  0  0  0  0  0  0  0  0  0  0  # atno 17370 bound_to 10713
  157.6700  130.9042  150.0018 LP  0  0  0  0  0  0  0  0  0  0  0  0  # atno 17371 bound_to 10713
  140.7623  133.8807  155.8428 LP  0  0  0  0  0  0  0  0  0  0  0  0  # atno 17394 bound_to 11000
  140.9911  134.1277  157.4407 LP  0  0  0  0  0  0  0  0  0  0  0  0  # atno 17395 bound_to 11000

$$$$
