AV-unprocessed.smi:1971|AV-procd|sdf|7962|dock5
  -GOLD-   2272010133D 1   1.00000     0.00000
 Structure written by MMmdl.
 44 45  0  0  0  0  0  0  0  0  2 V2000
  145.6628  143.5991  153.5025 C   0  0  0  0  0  0  0  0  0  0  0  0
  145.9284  142.6327  154.6655 C   0  0  0  0  0  0  0  0  0  0  0  0
  145.9618  141.2124  154.2356 N   0  3  0  0  0  0  0  0  0  0  0  0
  145.8445  140.2783  155.3823 C   0  0  0  0  0  0  0  0  0  0  0  0
  145.8576  138.8151  154.8931 C   0  0  0  0  0  0  0  0  0  0  0  0
  147.1016  138.4921  154.1797 N   0  0  0  0  0  0  0  0  0  0  0  0
  148.3371  138.5140  154.9950 C   0  0  2  0  0  0  0  0  0  0  0  0
  149.5780  138.6712  154.0848 C   0  0  0  0  0  0  0  0  0  0  0  0
  148.4790  137.2429  155.8780 C   0  0  0  0  0  0  0  0  0  0  0  0
  148.3409  137.5317  157.3026 N   0  0  0  0  0  0  0  0  0  0  0  0
  148.1149  136.6078  158.2484 C   0  0  0  0  0  0  0  0  0  0  0  0
  148.0052  135.4050  158.0058 O   0  0  0  0  0  0  0  0  0  0  0  0
  148.0242  137.1667  159.4679 N   0  0  0  0  0  0  0  0  0  0  0  0
  147.7621  136.5264  160.7078 C   0  0  0  0  0  0  0  0  0  0  0  0
  147.5888  137.1708  161.8679 N   0  0  0  0  0  0  0  0  0  0  0  0
  147.3512  136.2901  162.9262 C   0  0  0  0  0  0  0  0  0  0  0  0
  147.3482  134.9695  162.5514 C   0  0  0  0  0  0  0  0  0  0  0  0
  147.6441  134.7781  160.8439 S   0  0  0  0  0  0  0  0  0  0  0  0
  147.1271  139.3777  153.0056 C   0  0  0  0  0  0  0  0  0  0  0  0
  147.1434  140.8718  153.4017 C   0  0  0  0  0  0  0  0  0  0  0  0
  145.5660  144.6209  153.8703 H   0  0  0  0  0  0  0  0  0  0  0  0
  144.7382  143.3475  152.9820 H   0  0  0  0  0  0  0  0  0  0  0  0
  146.4734  143.5954  152.7744 H   0  0  0  0  0  0  0  0  0  0  0  0
  146.8587  142.8909  155.1738 H   0  0  0  0  0  0  0  0  0  0  0  0
  145.1302  142.7634  155.3976 H   0  0  0  0  0  0  0  0  0  0  0  0
  146.6411  140.4611  156.1049 H   0  0  0  0  0  0  0  0  0  0  0  0
  144.9056  140.4689  155.9032 H   0  0  0  0  0  0  0  0  0  0  0  0
  145.6792  138.1272  155.7169 H   0  0  0  0  0  0  0  0  0  0  0  0
  145.0160  138.6552  154.2175 H   0  0  0  0  0  0  0  0  0  0  0  0
  148.3073  139.3731  155.6627 H   0  0  0  0  0  0  0  0  0  0  0  0
  150.5064  138.6021  154.6509 H   0  0  0  0  0  0  0  0  0  0  0  0
  149.6119  139.6411  153.5911 H   0  0  0  0  0  0  0  0  0  0  0  0
  149.6075  137.8976  153.3167 H   0  0  0  0  0  0  0  0  0  0  0  0
  147.7266  136.4916  155.6431 H   0  0  0  0  0  0  0  0  0  0  0  0
  149.4498  136.7746  155.7123 H   0  0  0  0  0  0  0  0  0  0  0  0
  148.4186  138.4986  157.5830 H   0  0  0  0  0  0  0  0  0  0  0  0
  148.1459  138.1675  159.5148 H   0  0  0  0  0  0  0  0  0  0  0  0
  147.1949  136.6896  163.9173 H   0  0  0  0  0  0  0  0  0  0  0  0
  147.1908  134.1017  163.1744 H   0  0  0  0  0  0  0  0  0  0  0  0
  147.9670  139.1473  152.3531 H   0  0  0  0  0  0  0  0  0  0  0  0
  146.2417  139.1775  152.4001 H   0  0  0  0  0  0  0  0  0  0  0  0
  147.1316  141.4690  152.4906 H   0  0  0  0  0  0  0  0  0  0  0  0
  148.0640  141.1323  153.9246 H   0  0  0  0  0  0  0  0  0  0  0  0
  145.1441  141.0581  153.6633 H   0  0  0  0  0  0  0  0  0  0  0  0
  1  2  1  0  0  0  0
  1 21  1  0  0  0  0
  1 22  1  0  0  0  0
  1 23  1  0  0  0  0
  2  3  1  0  0  0  0
  2 24  1  0  0  0  0
  2 25  1  0  0  0  0
  3 20  1  0  0  0  0
  3  4  1  0  0  0  0
  3 44  1  0  0  0  0
  4  5  1  0  0  0  0
  4 26  1  0  0  0  0
  4 27  1  0  0  0  0
  5  6  1  0  0  0  0
  5 28  1  0  0  0  0
  5 29  1  0  0  0  0
  6  7  1  0  0  0  0
  6 19  1  0  0  0  0
  7  8  1  0  0  0  0
  7  9  1  0  0  0  0
  7 30  1  0  0  0  0
  8 31  1  0  0  0  0
  8 32  1  0  0  0  0
  8 33  1  0  0  0  0
  9 10  1  0  0  0  0
  9 34  1  0  0  0  0
  9 35  1  0  0  0  0
 10 11  1  0  0  0  0
 10 36  1  0  0  0  0
 11 12  2  0  0  0  0
 11 13  1  0  0  0  0
 13 14  1  0  0  0  0
 13 37  1  0  0  0  0
 14 18  1  0  0  0  0
 14 15  2  0  0  0  0
 15 16  1  0  0  0  0
 16 17  2  0  0  0  0
 16 38  1  0  0  0  0
 17 18  1  0  0  0  0
 17 39  1  0  0  0  0
 19 20  1  0  0  0  0
 19 40  1  0  0  0  0
 19 41  1  0  0  0  0
 20 42  1  0  0  0  0
 20 43  1  0  0  0  0
M  CHG  1   3   1
M  END
> <s_m_source_file>
AV-unprocessed.smi

> <i_m_source_file_index>
1971

> <i_lp_mmshare_version>
43012

> <i_f3d_flags>
0

> <s_epik_input>
W0NIM11bQ0gyXU4xW0NIMl1bQ0gyXU4oW0NIMl1bQ0gyXTEpW0NASF0oW0NIM10pW0NIMl1bTkhdQyg9TylbTkhdYzJuW2NIXVtjSF1zMg==

> <s_epik_cmdline>
J2VwaWtfcHl0aG9uJywgJy1waCcsICc3LjAnLCAnLXRuJywgJzgnLCAnLW1hJywgJzIwMCcsICctbWV0YWxfYmluZGluZycsICctaW1hZScsICc8aW5maWxlLm1hZT4nLCAnLW9tYWUnLCAnPG91dGZpbGUubWFlPic=

> <r_lp_tautomer_probability>
0.999

> <r_epik_Ionization_Penalty>
0.0459519

> <r_epik_Ionization_Penalty_Charging>
0.0451959

> <r_epik_Ionization_Penalty_Neutral>
0.000756076

> <r_epik_State_Penalty>
0.165541

> <r_epik_Charging_Adjusted_Penalty>
0.210737

> <i_epik_Tot_Q>
1

> <i_epik_Tot_abs_Q>
1

> <r_epik_Metal_State_Penalty>
0.198809

> <b_epik_Metal_Only>
0

> <s_lp_Force_Field>
OPLS_2005

> <r_lp_Energy>
18.3118

> <b_lp_Chiralities_Consistent>
1

> <s_lp_Variant>
AV-unprocessed.smi:1971-1

> <Gold.Version>
5.8.1

> <Gold.Id.Protein>
6NUR|6NUR_protein|mol2

> <Gold.PLP.Fitness>
40.5003

> <Gold.PLP.PLP>
-32.9589

> <Gold.PLP.part.hbond>
-3.0000

> <Gold.PLP.part.metal>
0.0000

> <Gold.PLP.part.buried>
-3.8116

> <Gold.PLP.part.nonpolar>
-26.3253

> <Gold.PLP.part.repulsive>
0.3558

> <Gold.PLP.ligand.clash>
0.0000

> <Gold.PLP.ligand.torsion>
1.3227

> <Gold.PLP.Chemscore.Hbond>
3.3818

> <Gold.PLP.Chemscore.CHOScore>
0.0000

> <Gold.PLP.Chemscore.Metal>
0.0000

> <Gold.Chemscore.Hbonds>
donor molecule, donor type, donor heavy atom, donor atom, acceptor molecule, acceptor atom, score
      L1  H     3    44       P1 10175  2.00
      P1  H  6931  6943       L1    15  0.99
      P1  H  6934  6947       L1    15  0.40

> <Gold.PLP.Chemscore.Internal.Correction>
0.0412

> <Gold.Rescore>
     Score         DG    S(hbond)    S(metal)    S(lipo)     H(rot)  DE(clash)    DE(int)     intcor
     12.08     -14.35       1.73        0.00      65.66       1.79       0.02       2.25       ----

> <Gold.Chemscore.Fitness>
12.0825

> <Gold.Chemscore.DG>
-14.3472

> <Gold.Chemscore.ZeroCoef>
-5.4800

> <Gold.Chemscore.Hbond>
1.7297

> <Gold.Chemscore.Metal>
0.0000

> <Gold.Chemscore.Lipo>
65.6572

> <Gold.Chemscore.Internal_Hbond>
0.0000

> <Gold.Chemscore.DEClash>
0.0183

> <Gold.Chemscore.DEInternal>
2.2463

> <Gold.Chemscore.Rot>
1.7937

> <Gold.Chemscore.Internal.Correction>
   9.000000E+99

> <Gold.Chemscore.Hbonds>
donor molecule, donor type, donor heavy atom, donor atom, acceptor molecule, acceptor atom, score
      L1  H     3    44       P1 10175  0.64
      P1  H  6931  6943       L1    15  0.31
      P1  H  6934  6947       L1    15  0.04

> <Gold.Chemscore.Hbond.Weighted>
-5.7772

> <Gold.Chemscore.Metal.Weighted>
-0.0000

> <Gold.Chemscore.Lipo.Weighted>
-7.6819

> <Gold.Chemscore.Internal_Hbond.Weighted>
0.0000

> <Gold.Chemscore.DEClash.Weighted>
0.0183

> <Gold.Chemscore.DEInternal.Weighted>
2.2463

> <Gold.Chemscore.Rot.Weighted>
4.5919

> <Gold.Chemscore.Internal.Correction.Weighted>
   9.000000E+99

> <Gold.Protein.RotatedTorsions>
[ 6907 6896 6895 6894 ] final  148.17 input  -60.11 | X-H torsion
[ 7974 7965 7964 7962 ] final -145.53 input  175.53 | X-H torsion
[ 8008 7997 7996 7995 ] final -105.81 input   59.86 | X-H torsion
[ 10167 10162 10161 10158 ] final  118.56 input  -65.29 | X-H torsion
[ 10718 10713 10712 10709 ] final   29.37 input   66.30 | X-H torsion
[ 10763 10752 10751 10750 ] final  117.75 input  -60.55 | X-H torsion
[ 11005 11000 10999 10996 ] final  -37.17 input  -57.11 | X-H torsion

> <Gold.Protein.ActiveResidues>
 VAL166  LYS551  ARG553  GLY616  TRP617  ASP618  TYR619  PRO620  LYS621  CYS622 
 ASP623  PHE694  ASN695  SER759  ASP760  ASP761  ALA762  ILE779  LEU786  VAL792 
 PHE793  MET794  SER795  GLU796  ALA797  LYS798  CYS799  TRP800  GLU811  SER814 

> <Gold.Protein.RotatedAtoms>
  152.1451  133.4487  159.4785 H   0  0  0  0  0  0  0  0  0  0  0  0  # atno 6907 bound_to 6896
  150.6890  134.2258  159.4424 H   0  0  0  0  0  0  0  0  0  0  0  0  # atno 6908 bound_to 6896
  152.0151  134.9854  160.0620 H   0  0  0  0  0  0  0  0  0  0  0  0  # atno 6909 bound_to 6896
  144.8221  140.5572  143.5571 H   0  0  0  0  0  0  0  0  0  0  0  0  # atno 7974 bound_to 7965
  154.9053  140.0411  157.1916 H   0  0  0  0  0  0  0  0  0  0  0  0  # atno 8008 bound_to 7997
  154.8402  140.2913  155.5643 H   0  0  0  0  0  0  0  0  0  0  0  0  # atno 8009 bound_to 7997
  156.2992  140.2484  156.3344 H   0  0  0  0  0  0  0  0  0  0  0  0  # atno 8010 bound_to 7997
  139.6104  144.7080  151.2858 H   0  0  0  0  0  0  0  0  0  0  0  0  # atno 10167 bound_to 10162
  157.2456  130.7090  149.6380 H   0  0  0  0  0  0  0  0  0  0  0  0  # atno 10718 bound_to 10713
  153.5571  135.3528  155.2784 H   0  0  0  0  0  0  0  0  0  0  0  0  # atno 10763 bound_to 10752
  154.8700  135.4127  154.2872 H   0  0  0  0  0  0  0  0  0  0  0  0  # atno 10764 bound_to 10752
  153.3610  135.7060  153.6781 H   0  0  0  0  0  0  0  0  0  0  0  0  # atno 10765 bound_to 10752
  140.9931  133.6994  156.1886 H   0  0  0  0  0  0  0  0  0  0  0  0  # atno 11005 bound_to 11000
  145.5082  139.1480  143.3619 LP  0  0  0  0  0  0  0  0  0  0  0  0  # atno 17320 bound_to 7965
  146.2526  140.5222  142.8887 LP  0  0  0  0  0  0  0  0  0  0  0  0  # atno 17321 bound_to 7965
  140.7315  143.6851  150.7969 LP  0  0  0  0  0  0  0  0  0  0  0  0  # atno 17342 bound_to 10162
  140.0444  143.5313  152.2703 LP  0  0  0  0  0  0  0  0  0  0  0  0  # atno 17343 bound_to 10162
  155.9668  130.4444  150.5459 LP  0  0  0  0  0  0  0  0  0  0  0  0  # atno 17370 bound_to 10713
  157.3332  131.0703  151.1845 LP  0  0  0  0  0  0  0  0  0  0  0  0  # atno 17371 bound_to 10713
  140.7008  134.4566  157.5586 LP  0  0  0  0  0  0  0  0  0  0  0  0  # atno 17394 bound_to 11000
  139.9002  134.8574  156.1930 LP  0  0  0  0  0  0  0  0  0  0  0  0  # atno 17395 bound_to 11000

$$$$
