AV-unprocessed.smi:3282|AV-procd|sdf|12560|dock4
  -GOLD-   2272018483D 1   1.00000     0.00000
 Structure written by MMmdl.
 34 35  0  0  0  0  0  0  0  0  1 V2000
  150.6570  140.6904  157.0332 C   0  0  0  0  0  0  0  0  0  0  0  0
  150.4874  140.1324  155.6109 C   0  0  0  0  0  0  0  0  0  0  0  0
  149.4406  140.8837  154.7710 C   0  0  0  0  0  0  0  0  0  0  0  0
  149.5198  142.1064  154.6421 O   0  0  0  0  0  0  0  0  0  0  0  0
  148.4542  140.1672  154.1927 N   0  0  0  0  0  0  0  0  0  0  0  0
  147.3870  140.7077  153.3530 C   0  0  0  0  0  0  0  0  0  0  0  0
  146.6517  139.4978  152.7766 C   0  0  0  0  0  0  0  0  0  0  0  0
  146.9464  138.3619  153.7556 C   0  0  1  0  0  0  0  0  0  0  0  0
  146.9728  137.0547  153.1076 N   0  0  0  0  0  0  0  0  0  0  0  0
  145.8856  136.3590  152.7453 C   0  0  0  0  0  0  0  0  0  0  0  0
  144.7341  136.7615  152.9154 O   0  0  0  0  0  0  0  0  0  0  0  0
  146.2207  135.1864  152.1812 N   0  0  0  0  0  0  0  0  0  0  0  0
  145.3464  134.1816  151.6955 C   0  0  0  0  0  0  0  0  0  0  0  0
  144.0344  134.3025  151.4866 N   0  0  0  0  0  0  0  0  0  0  0  0
  143.6386  133.0570  151.0210 C   0  0  0  0  0  0  0  0  0  0  0  0
  144.7438  132.2467  150.9739 C   0  0  0  0  0  0  0  0  0  0  0  0
  145.8385  132.9492  151.4011 O   0  0  0  0  0  0  0  0  0  0  0  0
  148.3154  138.7208  154.3431 C   0  0  0  0  0  0  0  0  0  0  0  0
  151.4132  140.1265  157.5795 H   0  0  0  0  0  0  0  0  0  0  0  0
  149.7276  140.6272  157.6003 H   0  0  0  0  0  0  0  0  0  0  0  0
  150.9735  141.7340  157.0173 H   0  0  0  0  0  0  0  0  0  0  0  0
  151.4496  140.1726  155.0994 H   0  0  0  0  0  0  0  0  0  0  0  0
  150.2012  139.0820  155.6706 H   0  0  0  0  0  0  0  0  0  0  0  0
  146.7121  141.3006  153.9719 H   0  0  0  0  0  0  0  0  0  0  0  0
  147.7705  141.3471  152.5569 H   0  0  0  0  0  0  0  0  0  0  0  0
  145.5835  139.6764  152.6495 H   0  0  0  0  0  0  0  0  0  0  0  0
  147.0661  139.2643  151.7945 H   0  0  0  0  0  0  0  0  0  0  0  0
  146.2062  138.3754  154.5581 H   0  0  0  0  0  0  0  0  0  0  0  0
  147.8811  136.6511  152.9309 H   0  0  0  0  0  0  0  0  0  0  0  0
  147.2064  134.9860  152.0971 H   0  0  0  0  0  0  0  0  0  0  0  0
  142.6113  132.8459  150.7630 H   0  0  0  0  0  0  0  0  0  0  0  0
  144.9088  131.2197  150.6833 H   0  0  0  0  0  0  0  0  0  0  0  0
  149.1240  138.2388  153.7905 H   0  0  0  0  0  0  0  0  0  0  0  0
  148.3892  138.4097  155.3864 H   0  0  0  0  0  0  0  0  0  0  0  0
  1  2  1  0  0  0  0
  1 19  1  0  0  0  0
  1 20  1  0  0  0  0
  1 21  1  0  0  0  0
  2  3  1  0  0  0  0
  2 22  1  0  0  0  0
  2 23  1  0  0  0  0
  3  4  2  0  0  0  0
  3  5  1  0  0  0  0
  5 18  1  0  0  0  0
  5  6  1  0  0  0  0
  6  7  1  0  0  0  0
  6 24  1  0  0  0  0
  6 25  1  0  0  0  0
  7  8  1  0  0  0  0
  7 26  1  0  0  0  0
  7 27  1  0  0  0  0
  8  9  1  0  0  0  0
  8 18  1  0  0  0  0
  8 28  1  0  0  0  0
  9 10  1  0  0  0  0
  9 29  1  0  0  0  0
 10 11  2  0  0  0  0
 10 12  1  0  0  0  0
 12 13  1  0  0  0  0
 12 30  1  0  0  0  0
 13 17  1  0  0  0  0
 13 14  2  0  0  0  0
 14 15  1  0  0  0  0
 15 16  2  0  0  0  0
 15 31  1  0  0  0  0
 16 17  1  0  0  0  0
 16 32  1  0  0  0  0
 18 33  1  0  0  0  0
 18 34  1  0  0  0  0
M  END
> <s_m_source_file>
AV-unprocessed.smi

> <i_m_source_file_index>
3282

> <i_lp_mmshare_version>
43012

> <i_f3d_flags>
0

> <s_epik_input>
W0NIM11bQ0gyXUMoPU8pTjFbQ0gyXVtDSDJdW0NASF0oW0NIMl0xKVtOSF1DKD1PKVtOSF1jMm5bY0hdW2NIXW8y

> <s_epik_cmdline>
J2VwaWtfcHl0aG9uJywgJy1waCcsICc3LjAnLCAnLXRuJywgJzgnLCAnLW1hJywgJzIwMCcsICctbWV0YWxfYmluZGluZycsICctaW1hZScsICc8aW5maWxlLm1hZT4nLCAnLW9tYWUnLCAnPG91dGZpbGUubWFlPic=

> <r_lp_tautomer_probability>
0.785861

> <r_epik_Ionization_Penalty>
4.35681e-05

> <r_epik_Ionization_Penalty_Charging>
0

> <r_epik_Ionization_Penalty_Neutral>
4.35681e-05

> <r_epik_State_Penalty>
0.0212547

> <r_epik_Charging_Adjusted_Penalty>
0.0212547

> <i_epik_Tot_Q>
0

> <i_epik_Tot_abs_Q>
0

> <r_epik_Metal_State_Penalty>
0.00779955

> <b_epik_Metal_Only>
0

> <s_lp_Force_Field>
OPLS_2005

> <r_lp_Energy>
25.4051

> <b_lp_Chiralities_Consistent>
1

> <s_lp_Variant>
AV-unprocessed.smi:3282-1

> <Gold.Version>
5.8.1

> <Gold.Id.Protein>
6NUR|6NUR_protein|mol2

> <Gold.PLP.Fitness>
32.2276

> <Gold.PLP.PLP>
-24.7455

> <Gold.PLP.part.hbond>
-3.4705

> <Gold.PLP.part.metal>
0.0000

> <Gold.PLP.part.buried>
0.8431

> <Gold.PLP.part.nonpolar>
-23.7795

> <Gold.PLP.part.repulsive>
2.5673

> <Gold.PLP.ligand.clash>
0.0000

> <Gold.PLP.ligand.torsion>
0.2827

> <Gold.PLP.Chemscore.Hbond>
1.7416

> <Gold.PLP.Chemscore.CHOScore>
0.9379

> <Gold.PLP.Chemscore.Metal>
0.0000

> <Gold.Chemscore.Hbonds>
donor molecule, donor type, donor heavy atom, donor atom, acceptor molecule, acceptor atom, score
      L1  H     9    29       P1  7948  0.94
      L1  H    12    30       P1  7948  0.54
      P1  H  8011  8017       L1     4  0.06
      L1  C    15    31       P1 10186  0.89

> <Gold.PLP.Chemscore.Internal.Correction>
0.0090

> <Gold.Rescore>
     Score         DG    S(hbond)    S(metal)    S(lipo)     H(rot)  DE(clash)    DE(int)     intcor
     10.60     -13.66       1.78        0.00      47.99       1.32       1.52       1.54       ----

> <Gold.Chemscore.Fitness>
10.6016

> <Gold.Chemscore.DG>
-13.6612

> <Gold.Chemscore.ZeroCoef>
-5.4800

> <Gold.Chemscore.Hbond>
1.7802

> <Gold.Chemscore.Metal>
0.0000

> <Gold.Chemscore.Lipo>
47.9863

> <Gold.Chemscore.Internal_Hbond>
0.0000

> <Gold.Chemscore.DEClash>
1.5172

> <Gold.Chemscore.DEInternal>
1.5424

> <Gold.Chemscore.Rot>
1.3199

> <Gold.Chemscore.Internal.Correction>
   9.000000E+99

> <Gold.Chemscore.Hbonds>
donor molecule, donor type, donor heavy atom, donor atom, acceptor molecule, acceptor atom, score
      L1  H     9    29       P1  7948  0.88
      L1  H    12    30       P1  7948  0.51
      P1  H  8011  8017       L1     4  0.03

> <Gold.Chemscore.Hbond.Weighted>
-5.9457

> <Gold.Chemscore.Metal.Weighted>
-0.0000

> <Gold.Chemscore.Lipo.Weighted>
-5.6144

> <Gold.Chemscore.Internal_Hbond.Weighted>
0.0000

> <Gold.Chemscore.DEClash.Weighted>
1.5172

> <Gold.Chemscore.DEInternal.Weighted>
1.5424

> <Gold.Chemscore.Rot.Weighted>
3.3789

> <Gold.Chemscore.Internal.Correction.Weighted>
   9.000000E+99

> <Gold.Protein.RotatedTorsions>
[ 6907 6896 6895 6894 ] final  -74.13 input  -60.11 | X-H torsion
[ 7974 7965 7964 7962 ] final  -13.02 input  175.53 | X-H torsion
[ 8008 7997 7996 7995 ] final   41.35 input   59.86 | X-H torsion
[ 10167 10162 10161 10158 ] final   54.32 input  -65.29 | X-H torsion
[ 10718 10713 10712 10709 ] final  174.56 input   66.30 | X-H torsion
[ 10763 10752 10751 10750 ] final  138.85 input  -60.55 | X-H torsion
[ 11005 11000 10999 10996 ] final  159.94 input  -57.11 | X-H torsion

> <Gold.Protein.ActiveResidues>
 VAL166  LYS551  ARG553  GLY616  TRP617  ASP618  TYR619  PRO620  LYS621  CYS622 
 ASP623  PHE694  ASN695  SER759  ASP760  ASP761  ALA762  ILE779  LEU786  VAL792 
 PHE793  MET794  SER795  GLU796  ALA797  LYS798  CYS799  TRP800  GLU811  SER814 

> <Gold.Protein.RotatedAtoms>
  150.7104  134.4915  159.5517 H   0  0  0  0  0  0  0  0  0  0  0  0  # atno 6907 bound_to 6896
  152.2531  134.8109  160.0452 H   0  0  0  0  0  0  0  0  0  0  0  0  # atno 6908 bound_to 6896
  151.8849  133.3468  159.3815 H   0  0  0  0  0  0  0  0  0  0  0  0  # atno 6909 bound_to 6896
  146.2130  140.3143  142.8385 H   0  0  0  0  0  0  0  0  0  0  0  0  # atno 7974 bound_to 7965
  155.2682  140.3364  155.4267 H   0  0  0  0  0  0  0  0  0  0  0  0  # atno 8008 bound_to 7997
  156.2145  140.1783  156.7663 H   0  0  0  0  0  0  0  0  0  0  0  0  # atno 8009 bound_to 7997
  154.5733  140.0666  156.8981 H   0  0  0  0  0  0  0  0  0  0  0  0  # atno 8010 bound_to 7997
  140.2314  144.3683  150.6413 H   0  0  0  0  0  0  0  0  0  0  0  0  # atno 10167 bound_to 10162
  156.9478  131.0021  151.2955 H   0  0  0  0  0  0  0  0  0  0  0  0  # atno 10718 bound_to 10713
  153.8964  135.3027  155.3448 H   0  0  0  0  0  0  0  0  0  0  0  0  # atno 10763 bound_to 10752
  154.7692  135.4895  153.9617 H   0  0  0  0  0  0  0  0  0  0  0  0  # atno 10764 bound_to 10752
  153.1269  135.6795  153.9341 H   0  0  0  0  0  0  0  0  0  0  0  0  # atno 10765 bound_to 10752
  140.2010  134.8337  157.3018 H   0  0  0  0  0  0  0  0  0  0  0  0  # atno 11005 bound_to 11000
  144.8966  140.7590  143.5893 LP  0  0  0  0  0  0  0  0  0  0  0  0  # atno 17320 bound_to 7965
  145.3067  139.1832  143.4660 LP  0  0  0  0  0  0  0  0  0  0  0  0  # atno 17321 bound_to 7965
  140.6182  143.2174  151.6748 LP  0  0  0  0  0  0  0  0  0  0  0  0  # atno 17342 bound_to 10162
  139.5109  144.3528  152.0636 LP  0  0  0  0  0  0  0  0  0  0  0  0  # atno 17343 bound_to 10162
  157.5742  130.8331  149.8433 LP  0  0  0  0  0  0  0  0  0  0  0  0  # atno 17370 bound_to 10713
  156.0376  130.3747  150.1520 LP  0  0  0  0  0  0  0  0  0  0  0  0  # atno 17371 bound_to 10713
  140.2054  134.4204  155.7640 LP  0  0  0  0  0  0  0  0  0  0  0  0  # atno 17394 bound_to 11000
  141.2227  133.7092  156.8251 LP  0  0  0  0  0  0  0  0  0  0  0  0  # atno 17395 bound_to 11000

$$$$
