AV-unprocessed.smi:690|AV-procd|sdf|3363|dock3
  -GOLD-   22720 0343D 1   1.00000     0.00000
 Structure written by MMmdl.
 46 48  0  0  0  0  0  0  0  0  1 V2000
  145.9810  143.5208  153.4170 C   0  0  0  0  0  0  0  0  0  0  0  0
  144.9711  143.3772  154.5573 C   0  0  0  0  0  0  0  0  0  0  0  0
  145.3178  142.2459  155.3378 O   0  0  0  0  0  0  0  0  0  0  0  0
  146.6272  142.3313  155.8779 C   0  0  1  0  0  0  0  0  0  0  0  0
  146.7570  141.8411  157.3236 C   0  0  0  0  0  0  0  0  0  0  0  0
  148.0794  141.1863  156.9084 C   0  0  2  0  0  0  0  0  0  0  0  0
  149.2007  142.1030  157.1077 N   0  0  0  0  0  0  0  0  0  0  0  0
  150.3421  141.8063  157.7499 C   0  0  0  0  0  0  0  0  0  0  0  0
  150.5468  140.7112  158.2716 O   0  0  0  0  0  0  0  0  0  0  0  0
  151.4412  142.8813  157.8096 C   0  0  0  0  0  0  0  0  0  0  0  0
  151.8378  143.2826  159.1716 N   0  0  0  0  0  0  0  0  0  0  0  0
  151.6001  144.6238  159.5331 C   0  0  0  0  0  0  0  0  0  0  0  0
  151.9056  145.0961  160.7517 C   0  0  0  0  0  0  0  0  0  0  0  0
  152.4968  144.1885  161.7063 C   0  0  0  0  0  0  0  0  0  0  0  0
  152.7244  142.9025  161.3727 C   0  0  0  0  0  0  0  0  0  0  0  0
  152.3850  142.3804  160.0438 C   0  0  0  0  0  0  0  0  0  0  0  0
  152.5728  141.2031  159.7371 O   0  0  0  0  0  0  0  0  0  0  0  0
  147.5578  141.1712  155.4473 C   0  0  0  0  0  0  0  0  0  0  0  0
  148.5198  141.4411  154.2919 C   0  0  0  0  0  0  0  0  0  0  0  0
  147.8083  141.0005  153.0114 C   0  0  0  0  0  0  0  0  0  0  0  0
  146.7863  139.9468  153.4495 C   0  0  0  0  0  0  0  0  0  0  0  0
  146.8854  139.8788  154.9770 C   0  0  0  0  0  0  0  0  0  0  0  0
  145.7487  144.3872  152.7975 H   0  0  0  0  0  0  0  0  0  0  0  0
  145.9743  142.6390  152.7757 H   0  0  0  0  0  0  0  0  0  0  0  0
  146.9923  143.6470  153.8039 H   0  0  0  0  0  0  0  0  0  0  0  0
  144.9779  144.2757  155.1763 H   0  0  0  0  0  0  0  0  0  0  0  0
  143.9656  143.2640  154.1496 H   0  0  0  0  0  0  0  0  0  0  0  0
  147.0899  143.3088  155.7226 H   0  0  0  0  0  0  0  0  0  0  0  0
  146.8391  142.6328  158.0691 H   0  0  0  0  0  0  0  0  0  0  0  0
  145.9924  141.1117  157.5960 H   0  0  0  0  0  0  0  0  0  0  0  0
  148.2210  140.1960  157.3446 H   0  0  0  0  0  0  0  0  0  0  0  0
  149.1101  143.0252  156.7070 H   0  0  0  0  0  0  0  0  0  0  0  0
  152.3041  142.5248  157.2446 H   0  0  0  0  0  0  0  0  0  0  0  0
  151.0885  143.7541  157.2582 H   0  0  0  0  0  0  0  0  0  0  0  0
  151.1492  145.2336  158.7634 H   0  0  0  0  0  0  0  0  0  0  0  0
  151.7113  146.1262  161.0124 H   0  0  0  0  0  0  0  0  0  0  0  0
  152.7576  144.5425  162.6928 H   0  0  0  0  0  0  0  0  0  0  0  0
  153.1670  142.2383  162.1005 H   0  0  0  0  0  0  0  0  0  0  0  0
  148.8269  142.4860  154.2355 H   0  0  0  0  0  0  0  0  0  0  0  0
  149.4283  140.8508  154.4190 H   0  0  0  0  0  0  0  0  0  0  0  0
  147.2906  141.8492  152.5628 H   0  0  0  0  0  0  0  0  0  0  0  0
  148.5106  140.6143  152.2722 H   0  0  0  0  0  0  0  0  0  0  0  0
  145.7843  140.2511  153.1452 H   0  0  0  0  0  0  0  0  0  0  0  0
  146.9850  138.9743  152.9977 H   0  0  0  0  0  0  0  0  0  0  0  0
  147.4996  139.0217  155.2564 H   0  0  0  0  0  0  0  0  0  0  0  0
  145.9074  139.7182  155.4318 H   0  0  0  0  0  0  0  0  0  0  0  0
  1  2  1  0  0  0  0
  1 23  1  0  0  0  0
  1 24  1  0  0  0  0
  1 25  1  0  0  0  0
  2  3  1  0  0  0  0
  2 26  1  0  0  0  0
  2 27  1  0  0  0  0
  3  4  1  0  0  0  0
  4 18  1  0  0  0  0
  4  5  1  0  0  0  0
  4 28  1  0  0  0  0
  5  6  1  0  0  0  0
  5 29  1  0  0  0  0
  5 30  1  0  0  0  0
  6  7  1  0  0  0  0
  6 18  1  0  0  0  0
  6 31  1  0  0  0  0
  7  8  1  0  0  0  0
  7 32  1  0  0  0  0
  8  9  2  0  0  0  0
  8 10  1  0  0  0  0
 10 11  1  0  0  0  0
 10 33  1  0  0  0  0
 10 34  1  0  0  0  0
 11 16  1  0  0  0  0
 11 12  1  0  0  0  0
 12 13  2  0  0  0  0
 12 35  1  0  0  0  0
 13 14  1  0  0  0  0
 13 36  1  0  0  0  0
 14 15  2  0  0  0  0
 14 37  1  0  0  0  0
 15 16  1  0  0  0  0
 15 38  1  0  0  0  0
 16 17  2  0  0  0  0
 18 22  1  0  0  0  0
 18 19  1  0  0  0  0
 19 20  1  0  0  0  0
 19 39  1  0  0  0  0
 19 40  1  0  0  0  0
 20 21  1  0  0  0  0
 20 41  1  0  0  0  0
 20 42  1  0  0  0  0
 21 22  1  0  0  0  0
 21 43  1  0  0  0  0
 21 44  1  0  0  0  0
 22 45  1  0  0  0  0
 22 46  1  0  0  0  0
M  END
> <s_m_source_file>
AV-unprocessed.smi

> <i_m_source_file_index>
690

> <i_lp_mmshare_version>
43012

> <i_f3d_flags>
0

> <s_epik_input>
W0NIMl0xW0NIMl1bQ0gyXVtDSDJdQzEyW0NASF0oT1tDSDJdW0NIM10pW0NIMl1bQ0BIXTJbTkhdQyg9TylbQ0gyXW4zW2NIXVtjSF1bY0hdW2NIXWMzPU8=

> <s_epik_cmdline>
J2VwaWtfcHl0aG9uJywgJy1waCcsICc3LjAnLCAnLXRuJywgJzgnLCAnLW1hJywgJzIwMCcsICctbWV0YWxfYmluZGluZycsICctaW1hZScsICc8aW5maWxlLm1hZT4nLCAnLW9tYWUnLCAnPG91dGZpbGUubWFlPic=

> <r_lp_tautomer_probability>
1

> <r_epik_Ionization_Penalty>
4.11691e-07

> <r_epik_Ionization_Penalty_Charging>
3.92797e-07

> <r_epik_Ionization_Penalty_Neutral>
1.88943e-08

> <r_epik_State_Penalty>
-0

> <r_epik_Charging_Adjusted_Penalty>
3.92797e-07

> <i_epik_Tot_Q>
0

> <i_epik_Tot_abs_Q>
0

> <r_epik_Metal_State_Penalty>
-0

> <b_epik_Metal_Only>
0

> <s_lp_Force_Field>
OPLS_2005

> <r_lp_Energy>
47.2811

> <b_lp_Chiralities_Consistent>
1

> <s_lp_Variant>
AV-unprocessed.smi:690-4

> <Gold.Version>
5.8.1

> <Gold.Id.Protein>
6NUR|6NUR_protein|mol2

> <Gold.PLP.Fitness>
43.5353

> <Gold.PLP.PLP>
-41.7638

> <Gold.PLP.part.hbond>
-1.0000

> <Gold.PLP.part.metal>
0.0000

> <Gold.PLP.part.buried>
-3.6326

> <Gold.PLP.part.nonpolar>
-35.9758

> <Gold.PLP.part.repulsive>
0.1704

> <Gold.PLP.ligand.clash>
0.0000

> <Gold.PLP.ligand.torsion>
0.7883

> <Gold.PLP.Chemscore.Hbond>
1.0000

> <Gold.PLP.Chemscore.CHOScore>
0.0000

> <Gold.PLP.Chemscore.Metal>
0.0000

> <Gold.Chemscore.Hbonds>
donor molecule, donor type, donor heavy atom, donor atom, acceptor molecule, acceptor atom, score
      L1  H     7    32       P1  8028  1.00

> <Gold.PLP.Chemscore.Internal.Correction>
0.3481

> <Gold.Rescore>
     Score         DG    S(hbond)    S(metal)    S(lipo)     H(rot)  DE(clash)    DE(int)     intcor
     13.11     -16.97       0.98        0.00     107.24       1.69       1.45       2.41       ----

> <Gold.Chemscore.Fitness>
13.1090

> <Gold.Chemscore.DG>
-16.9684

> <Gold.Chemscore.ZeroCoef>
-5.4800

> <Gold.Chemscore.Hbond>
0.9782

> <Gold.Chemscore.Metal>
0.0000

> <Gold.Chemscore.Lipo>
107.2439

> <Gold.Chemscore.Internal_Hbond>
0.0000

> <Gold.Chemscore.DEClash>
1.4469

> <Gold.Chemscore.DEInternal>
2.4124

> <Gold.Chemscore.Rot>
1.6900

> <Gold.Chemscore.Internal.Correction>
   9.000000E+99

> <Gold.Chemscore.Hbonds>
donor molecule, donor type, donor heavy atom, donor atom, acceptor molecule, acceptor atom, score
      L1  H     7    32       P1  8028  0.95

> <Gold.Chemscore.Hbond.Weighted>
-3.2673

> <Gold.Chemscore.Metal.Weighted>
-0.0000

> <Gold.Chemscore.Lipo.Weighted>
-12.5475

> <Gold.Chemscore.Internal_Hbond.Weighted>
0.0000

> <Gold.Chemscore.DEClash.Weighted>
1.4469

> <Gold.Chemscore.DEInternal.Weighted>
2.4124

> <Gold.Chemscore.Rot.Weighted>
4.3265

> <Gold.Chemscore.Internal.Correction.Weighted>
   9.000000E+99

> <Gold.Protein.RotatedTorsions>
[ 6907 6896 6895 6894 ] final    5.37 input  -60.11 | X-H torsion
[ 7974 7965 7964 7962 ] final    5.27 input  175.53 | X-H torsion
[ 8008 7997 7996 7995 ] final  -20.78 input   59.86 | X-H torsion
[ 10167 10162 10161 10158 ] final  166.34 input  -65.29 | X-H torsion
[ 10718 10713 10712 10709 ] final  -52.74 input   66.30 | X-H torsion
[ 10763 10752 10751 10750 ] final  109.84 input  -60.55 | X-H torsion
[ 11005 11000 10999 10996 ] final  165.41 input  -57.11 | X-H torsion

> <Gold.Protein.ActiveResidues>
 VAL166  LYS551  ARG553  GLY616  TRP617  ASP618  TYR619  PRO620  LYS621  CYS622 
 ASP623  PHE694  ASN695  SER759  ASP760  ASP761  ALA762  ILE779  LEU786  VAL792 
 PHE793  MET794  SER795  GLU796  ALA797  LYS798  CYS799  TRP800  GLU811  SER814 

> <Gold.Protein.RotatedAtoms>
  151.6563  135.0995  160.0170 H   0  0  0  0  0  0  0  0  0  0  0  0  # atno 6907 bound_to 6896
  152.3972  133.6760  159.6294 H   0  0  0  0  0  0  0  0  0  0  0  0  # atno 6908 bound_to 6896
  150.7877  133.8770  159.3316 H   0  0  0  0  0  0  0  0  0  0  0  0  # atno 6909 bound_to 6896
  146.2441  140.0409  142.8382 H   0  0  0  0  0  0  0  0  0  0  0  0  # atno 7974 bound_to 7965
  154.4748  140.2052  155.9906 H   0  0  0  0  0  0  0  0  0  0  0  0  # atno 8008 bound_to 7997
  156.1070  140.3235  155.7990 H   0  0  0  0  0  0  0  0  0  0  0  0  # atno 8009 bound_to 7997
  155.4700  140.0530  157.2971 H   0  0  0  0  0  0  0  0  0  0  0  0  # atno 8010 bound_to 7997
  139.4923  144.4037  151.9379 H   0  0  0  0  0  0  0  0  0  0  0  0  # atno 10167 bound_to 10162
  156.1595  130.4150  149.9815 H   0  0  0  0  0  0  0  0  0  0  0  0  # atno 10718 bound_to 10713
  153.4404  135.3767  155.2224 H   0  0  0  0  0  0  0  0  0  0  0  0  # atno 10763 bound_to 10752
  154.8753  135.3861  154.4159 H   0  0  0  0  0  0  0  0  0  0  0  0  # atno 10764 bound_to 10752
  153.4704  135.7087  153.6060 H   0  0  0  0  0  0  0  0  0  0  0  0  # atno 10765 bound_to 10752
  140.2558  134.7941  157.3544 H   0  0  0  0  0  0  0  0  0  0  0  0  # atno 11005 bound_to 11000
  145.1070  140.9381  143.4679 LP  0  0  0  0  0  0  0  0  0  0  0  0  # atno 17320 bound_to 7965
  145.0614  139.3102  143.5878 LP  0  0  0  0  0  0  0  0  0  0  0  0  # atno 17321 bound_to 7965
  140.3477  144.3127  150.5955 LP  0  0  0  0  0  0  0  0  0  0  0  0  # atno 17342 bound_to 10162
  140.5512  143.2206  151.7924 LP  0  0  0  0  0  0  0  0  0  0  0  0  # atno 17343 bound_to 10162
  156.7649  130.9164  151.3642 LP  0  0  0  0  0  0  0  0  0  0  0  0  # atno 17370 bound_to 10713
  157.6721  130.9061  150.0065 LP  0  0  0  0  0  0  0  0  0  0  0  0  # atno 17371 bound_to 10713
  140.1513  134.4846  155.7959 LP  0  0  0  0  0  0  0  0  0  0  0  0  # atno 17394 bound_to 11000
  141.2196  133.6863  156.7383 LP  0  0  0  0  0  0  0  0  0  0  0  0  # atno 17395 bound_to 11000

$$$$
