#       Name:                AV-unprocessed.smi:2911
#       Creating user name   scv26
#       Creation time:       Fri Mar 27 16:07:08 2020


#       File generated by GOLD software.
#

@<TRIPOS>MOLECULE
AV-unprocessed.smi:2911
    47    48     1
SMALL
NO_CHARGES


@<TRIPOS>ATOM
      1 ****        -7.6316  -0.7073  -0.0465 C.3            1 S1                 0.0000
      2 ****        -6.3466  -0.1212  -0.5226 C.2            1 S1                 0.0000
      3 ****        -6.2382   0.4109  -1.7340 N.2            1 S1                 0.0000
      4 ****        -4.8999   0.8267  -1.7855 O.3            1 S1                 0.0000
      5 ****        -4.3664   0.5052  -0.5826 C.2            1 S1                 0.0000
      6 ****        -2.9206   0.7812  -0.3388 C.3            1 S1                 0.0000
      7 ****        -2.0116  -0.3332  -0.8812 C.3            1 S1                 0.0000
      8 ****        -0.6012  -0.0271  -0.6702 N.am           1 S1                 0.0000
      9 ****         0.0680  -0.1948   0.4834 C.2            1 S1                 0.0000
     10 ****        -0.4771  -0.6595   1.4860 O.2            1 S1                 0.0000
     11 ****         1.3882   0.1274   0.4323 N.am           1 S1                 0.0000
     12 ****         2.0218   0.9384  -0.6307 C.3            1 S1                 0.0000
     13 ****         3.2403   0.2127  -1.2185 C.3            1 S1                 0.0000
     14 ****         4.2656  -0.1106  -0.1213 C.3            1 S1                 0.0000
     15 ****         5.4800  -0.8613  -0.6849 C.3            1 S1                 0.0000
     16 ****         3.5858  -0.8997   1.0105 C.3            1 S1                 0.0000
     17 ****         2.3019  -0.2242   1.5414 C.3            1 S1                 0.0000
     18 ****         2.5605   0.9764   2.4698 C.3            1 S1                 0.0000
     19 ****        -5.2176  -0.1057   0.2378 N.2            1 S1                 0.0000
     20 ****        -8.4784  -0.2545  -0.5636 H              1 S1                 0.0000
     21 ****        -7.7538  -0.5382   1.0236 H              1 S1                 0.0000
     22 ****        -7.6454  -1.7814  -0.2319 H              1 S1                 0.0000
     23 ****        -2.6664   1.7341  -0.8043 H              1 S1                 0.0000
     24 ****        -2.7696   0.9069   0.7341 H              1 S1                 0.0000
     25 ****        -2.2618  -1.2904  -0.4203 H              1 S1                 0.0000
     26 ****        -2.1724  -0.4536  -1.9529 H              1 S1                 0.0000
     27 ****        -0.0901   0.3345  -1.4623 H              1 S1                 0.0000
     28 ****         1.3527   1.2032  -1.4488 H              1 S1                 0.0000
     29 ****         2.3317   1.8937  -0.2071 H              1 S1                 0.0000
     30 ****         2.9163  -0.7047  -1.7122 H              1 S1                 0.0000
     31 ****         3.7016   0.8331  -1.9874 H              1 S1                 0.0000
     32 ****         4.6266   0.8322   0.2915 H              1 S1                 0.0000
     33 ****         5.1889  -1.8188  -1.1178 H              1 S1                 0.0000
     34 ****         6.2161  -1.0582   0.0950 H              1 S1                 0.0000
     35 ****         5.9731  -0.2798  -1.4643 H              1 S1                 0.0000
     36 ****         3.3251  -1.8916   0.6379 H              1 S1                 0.0000
     37 ****         4.2870  -1.0624   1.8300 H              1 S1                 0.0000
     38 ****         1.8381  -0.9838   2.1726 H              1 S1                 0.0000
     39 ****         3.1564   0.6776   3.3325 H              1 S1                 0.0000
     40 ****         1.6240   1.3884   2.8470 H              1 S1                 0.0000
     41 ****         3.0984   1.7788   1.9659 H              1 S1                 0.0000
     42 ****        -6.9415   0.4950  -2.4399 LP             1 S1                 0.0000
     43 ****        -4.8476   1.8138  -1.9369 LP             1 S1                 0.0000
     44 ****        -4.4155   0.3508  -2.5196 LP             1 S1                 0.0000
     45 ****        -1.4413  -0.9226   1.4543 LP             1 S1                 0.0000
     46 ****         0.0448  -0.7735   2.3313 LP             1 S1                 0.0000
     47 ****        -5.0684  -0.4577   1.1618 LP             1 S1                 0.0000
@<TRIPOS>BOND
    1    1    2 1     
    2    1   20 1     
    3    1   21 1     
    4    1   22 1     
    5    2   19 1     
    6    2    3 2     
    7    3    4 1     
    8    4    5 1     
    9    5    6 1     
   10    5   19 2     
   11    6    7 1     
   12    6   23 1     
   13    6   24 1     
   14    7    8 1     
   15    7   25 1     
   16    7   26 1     
   17    8    9 am    
   18    8   27 1     
   19    9   10 2     
   20    9   11 am    
   21   11   17 1     
   22   11   12 1     
   23   12   13 1     
   24   12   28 1     
   25   12   29 1     
   26   13   14 1     
   27   13   30 1     
   28   13   31 1     
   29   14   15 1     
   30   14   16 1     
   31   14   32 1     
   32   15   33 1     
   33   15   34 1     
   34   15   35 1     
   35   16   17 1     
   36   16   36 1     
   37   16   37 1     
   38   17   18 1     
   39   17   38 1     
   40   18   39 1     
   41   18   40 1     
   42   18   41 1     
   43    3   42 1     
   44    4   43 1     
   45    4   44 1     
   46   10   45 1     
   47   10   46 1     
   48   19   47 1     
@<TRIPOS>SUBSTRUCTURE
      1 S1             1
@<TRIPOS>SET
LONE_PAIRS      STATIC     ATOMS    <user>   **** ""
6 42 43 44 45 46 47
DONOR_HYDROGENS      STATIC     ATOMS    <user>   **** ""
1 27
ATOM$BLUE        STATIC     ATOMS    COLORGROUP SYSTEM
6 42 43 44 45 46 47
ATOM$RED        STATIC     ATOMS    COLORGROUP SYSTEM
1 27
