AV-unprocessed.smi:829|AV-procd|sdf|3866|dock9
  -GOLD-   22720 1313D 1   1.00000     0.00000
 Structure written by MMmdl.
 49 51  0  0  0  0  0  0  0  0  2 V2000
  150.4348  136.3281  156.1820 O   0  0  0  0  0  0  0  0  0  0  0  0
  149.9695  136.2990  155.0430 C   0  0  0  0  0  0  0  0  0  0  0  0
  149.7125  135.1894  154.3284 N   0  0  0  0  0  0  0  0  0  0  0  0
  149.8963  133.8255  154.6878 C   0  0  0  0  0  0  0  0  0  0  0  0
  149.3296  132.8489  153.8426 C   0  0  0  0  0  0  0  0  0  0  0  0
  149.4837  131.4882  154.1750 C   0  0  0  0  0  0  0  0  0  0  0  0
  150.1457  131.0630  155.2713 N   0  0  0  0  0  0  0  0  0  0  0  0
  150.6788  131.9982  156.0854 C   0  0  0  0  0  0  0  0  0  0  0  0
  150.5813  133.3838  155.8462 C   0  0  0  0  0  0  0  0  0  0  0  0
  149.6633  137.4038  154.3471 N   0  0  0  0  0  0  0  0  0  0  0  0
  149.8377  138.7721  154.8259 C   0  0  2  0  0  0  0  0  0  0  0  0
  151.3148  139.0549  155.1554 C   0  0  0  0  0  0  0  0  0  0  0  0
  151.4924  140.4599  155.7555 C   0  0  0  0  0  0  0  0  0  0  0  0
  150.6395  140.6423  156.9584 N   0  3  1  0  0  0  0  0  0  0  0  0
  150.8852  141.9321  157.6540 C   0  0  0  0  0  0  0  0  0  0  0  0
  152.1451  141.8758  158.5386 C   0  0  0  0  0  0  0  0  0  0  0  0
  152.1955  140.7080  159.5285 C   0  0  0  0  0  0  0  0  0  0  0  0
  153.2293  141.1257  160.5785 C   0  0  0  0  0  0  0  0  0  0  0  0
  153.2626  142.6611  160.5578 C   0  0  0  0  0  0  0  0  0  0  0  0
  152.2956  143.0966  159.4506 C   0  0  0  0  0  0  0  0  0  0  0  0
  149.2039  140.4129  156.6490 C   0  0  0  0  0  0  0  0  0  0  0  0
  148.9789  139.0029  156.0792 C   0  0  0  0  0  0  0  0  0  0  0  0
  149.3826  135.3402  153.3865 H   0  0  0  0  0  0  0  0  0  0  0  0
  148.7878  133.1315  152.9517 H   0  0  0  0  0  0  0  0  0  0  0  0
  149.0625  130.7206  153.5427 H   0  0  0  0  0  0  0  0  0  0  0  0
  151.1966  131.6310  156.9593 H   0  0  0  0  0  0  0  0  0  0  0  0
  151.0225  134.0649  156.5563 H   0  0  0  0  0  0  0  0  0  0  0  0
  149.2886  137.2902  153.4164 H   0  0  0  0  0  0  0  0  0  0  0  0
  149.5052  139.4679  154.0528 H   0  0  0  0  0  0  0  0  0  0  0  0
  151.6864  138.3105  155.8613 H   0  0  0  0  0  0  0  0  0  0  0  0
  151.9271  138.9609  154.2577 H   0  0  0  0  0  0  0  0  0  0  0  0
  152.5403  140.6015  156.0238 H   0  0  0  0  0  0  0  0  0  0  0  0
  151.2466  141.2213  155.0134 H   0  0  0  0  0  0  0  0  0  0  0  0
  151.0348  142.7219  156.9162 H   0  0  0  0  0  0  0  0  0  0  0  0
  150.0109  142.2349  158.2326 H   0  0  0  0  0  0  0  0  0  0  0  0
  153.0280  141.8260  157.8987 H   0  0  0  0  0  0  0  0  0  0  0  0
  151.2237  140.5833  160.0083 H   0  0  0  0  0  0  0  0  0  0  0  0
  152.4550  139.7626  159.0512 H   0  0  0  0  0  0  0  0  0  0  0  0
  152.9810  140.7325  161.5649 H   0  0  0  0  0  0  0  0  0  0  0  0
  154.2115  140.7347  160.3099 H   0  0  0  0  0  0  0  0  0  0  0  0
  152.9768  143.0867  161.5205 H   0  0  0  0  0  0  0  0  0  0  0  0
  154.2735  143.0065  160.3372 H   0  0  0  0  0  0  0  0  0  0  0  0
  152.6489  143.9778  158.9143 H   0  0  0  0  0  0  0  0  0  0  0  0
  151.3313  143.3486  159.8941 H   0  0  0  0  0  0  0  0  0  0  0  0
  148.6007  140.5365  157.5476 H   0  0  0  0  0  0  0  0  0  0  0  0
  148.8600  141.1633  155.9352 H   0  0  0  0  0  0  0  0  0  0  0  0
  147.9235  138.8667  155.8397 H   0  0  0  0  0  0  0  0  0  0  0  0
  149.2222  138.2608  156.8415 H   0  0  0  0  0  0  0  0  0  0  0  0
  150.9181  139.9191  157.6061 H   0  0  0  0  0  0  0  0  0  0  0  0
  1  2  2  0  0  0  0
  2  3  1  0  0  0  0
  2 10  1  0  0  0  0
  3  4  1  0  0  0  0
  3 23  1  0  0  0  0
  4  9  1  0  0  0  0
  4  5  2  0  0  0  0
  5  6  1  0  0  0  0
  5 24  1  0  0  0  0
  6  7  2  0  0  0  0
  6 25  1  0  0  0  0
  7  8  1  0  0  0  0
  8  9  2  0  0  0  0
  8 26  1  0  0  0  0
  9 27  1  0  0  0  0
 10 11  1  0  0  0  0
 10 28  1  0  0  0  0
 11 22  1  0  0  0  0
 11 12  1  0  0  0  0
 11 29  1  0  0  0  0
 12 13  1  0  0  0  0
 12 30  1  0  0  0  0
 12 31  1  0  0  0  0
 13 14  1  0  0  0  0
 13 32  1  0  0  0  0
 13 33  1  0  0  0  0
 14 15  1  0  0  0  0
 14 21  1  0  0  0  0
 14 49  1  0  0  0  0
 15 16  1  0  0  0  0
 15 34  1  0  0  0  0
 15 35  1  0  0  0  0
 16 20  1  0  0  0  0
 16 17  1  0  0  0  0
 16 36  1  0  0  0  0
 17 18  1  0  0  0  0
 17 37  1  0  0  0  0
 17 38  1  0  0  0  0
 18 19  1  0  0  0  0
 18 39  1  0  0  0  0
 18 40  1  0  0  0  0
 19 20  1  0  0  0  0
 19 41  1  0  0  0  0
 19 42  1  0  0  0  0
 20 43  1  0  0  0  0
 20 44  1  0  0  0  0
 21 22  1  0  0  0  0
 21 45  1  0  0  0  0
 21 46  1  0  0  0  0
 22 47  1  0  0  0  0
 22 48  1  0  0  0  0
M  CHG  1  14   1
M  END
> <s_m_source_file>
AV-unprocessed.smi

> <i_m_source_file_index>
829

> <i_lp_mmshare_version>
43012

> <i_f3d_flags>
0

> <s_epik_input>
W2NIXTFbY0hdbltjSF1bY0hdYzFbTkhdQyg9TylbTkhdW0NIXTJbQ0gyXVtDSDJdTihbQ0gyXVtDSDJdMilbQ0gyXVtDSF0zW0NIMl1bQ0gyXVtDSDJdW0NIMl0z

> <s_epik_cmdline>
J2VwaWtfcHl0aG9uJywgJy1waCcsICc3LjAnLCAnLXRuJywgJzgnLCAnLW1hJywgJzIwMCcsICctbWV0YWxfYmluZGluZycsICctaW1hZScsICc8aW5maWxlLm1hZT4nLCAnLW9tYWUnLCAnPG91dGZpbGUubWFlPic=

> <r_epik_Ionization_Penalty>
0.101981

> <r_epik_Ionization_Penalty_Charging>
0.00207989

> <r_epik_Ionization_Penalty_Neutral>
0.0999008

> <r_epik_State_Penalty>
0.0935668

> <r_epik_Charging_Adjusted_Penalty>
0.0956467

> <i_epik_Tot_Q>
1

> <i_epik_Tot_abs_Q>
1

> <r_epik_Metal_State_Penalty>
0.0787682

> <b_epik_Metal_Only>
0

> <s_lp_Force_Field>
OPLS_2005

> <r_lp_Energy>
43.2002

> <b_lp_Chiralities_Consistent>
1

> <s_lp_Variant>
AV-unprocessed.smi:829-1

> <Gold.Version>
5.8.1

> <Gold.Id.Protein>
6NUR|6NUR_protein|mol2

> <Gold.PLP.Fitness>
46.1772

> <Gold.PLP.PLP>
-40.8388

> <Gold.PLP.part.hbond>
-2.0501

> <Gold.PLP.part.metal>
0.0000

> <Gold.PLP.part.buried>
-4.3665

> <Gold.PLP.part.nonpolar>
-34.2387

> <Gold.PLP.part.repulsive>
0.1254

> <Gold.PLP.ligand.clash>
0.0000

> <Gold.PLP.ligand.torsion>
0.3172

> <Gold.PLP.Chemscore.Hbond>
1.9760

> <Gold.PLP.Chemscore.CHOScore>
0.0000

> <Gold.PLP.Chemscore.Metal>
0.0000

> <Gold.Chemscore.Hbonds>
donor molecule, donor type, donor heavy atom, donor atom, acceptor molecule, acceptor atom, score
      L1  H     3    23       P1  7948  0.80
      L1  H    10    28       P1  7948  1.00

> <Gold.PLP.Chemscore.Internal.Correction>
0.0447

> <Gold.Rescore>
     Score         DG    S(hbond)    S(metal)    S(lipo)     H(rot)  DE(clash)    DE(int)     intcor
     16.75     -19.39       1.42        0.00     107.71       1.35       0.06       2.58       ----

> <Gold.Chemscore.Fitness>
16.7504

> <Gold.Chemscore.DG>
-19.3898

> <Gold.Chemscore.ZeroCoef>
-5.4800

> <Gold.Chemscore.Hbond>
1.4227

> <Gold.Chemscore.Metal>
0.0000

> <Gold.Chemscore.Lipo>
107.7135

> <Gold.Chemscore.Internal_Hbond>
0.0000

> <Gold.Chemscore.DEClash>
0.0589

> <Gold.Chemscore.DEInternal>
2.5805

> <Gold.Chemscore.Rot>
1.3455

> <Gold.Chemscore.Internal.Correction>
   9.000000E+99

> <Gold.Chemscore.Hbonds>
donor molecule, donor type, donor heavy atom, donor atom, acceptor molecule, acceptor atom, score
      L1  H     3    23       P1  7948  0.12
      L1  H    10    28       P1  7948  0.94

> <Gold.Chemscore.Hbond.Weighted>
-4.7518

> <Gold.Chemscore.Metal.Weighted>
-0.0000

> <Gold.Chemscore.Lipo.Weighted>
-12.6025

> <Gold.Chemscore.Internal_Hbond.Weighted>
0.0000

> <Gold.Chemscore.DEClash.Weighted>
0.0589

> <Gold.Chemscore.DEInternal.Weighted>
2.5805

> <Gold.Chemscore.Rot.Weighted>
3.4445

> <Gold.Chemscore.Internal.Correction.Weighted>
   9.000000E+99

> <Gold.Protein.RotatedTorsions>
[ 6907 6896 6895 6894 ] final -179.61 input  -60.11 | X-H torsion
[ 7974 7965 7964 7962 ] final   31.61 input  175.53 | X-H torsion
[ 8008 7997 7996 7995 ] final  -91.57 input   59.86 | X-H torsion
[ 10167 10162 10161 10158 ] final -157.82 input  -65.29 | X-H torsion
[ 10718 10713 10712 10709 ] final  -23.08 input   66.30 | X-H torsion
[ 10763 10752 10751 10750 ] final  149.96 input  -60.55 | X-H torsion
[ 11005 11000 10999 10996 ] final -137.60 input  -57.11 | X-H torsion

> <Gold.Protein.ActiveResidues>
 VAL166  LYS551  ARG553  GLY616  TRP617  ASP618  TYR619  PRO620  LYS621  CYS622 
 ASP623  PHE694  ASN695  SER759  ASP760  ASP761  ALA762  ILE779  LEU786  VAL792 
 PHE793  MET794  SER795  GLU796  ALA797  LYS798  CYS799  TRP800  GLU811  SER814 

> <Gold.Protein.RotatedAtoms>
  151.6563  133.3318  159.3163 H   0  0  0  0  0  0  0  0  0  0  0  0  # atno 6907 bound_to 6896
  150.7935  134.6982  159.6544 H   0  0  0  0  0  0  0  0  0  0  0  0  # atno 6908 bound_to 6896
  152.4019  134.6276  160.0118 H   0  0  0  0  0  0  0  0  0  0  0  0  # atno 6909 bound_to 6896
  146.1539  139.6635  142.9080 H   0  0  0  0  0  0  0  0  0  0  0  0  # atno 7974 bound_to 7965
  154.7124  140.0518  157.0563 H   0  0  0  0  0  0  0  0  0  0  0  0  # atno 8008 bound_to 7997
  155.0537  140.3182  155.4664 H   0  0  0  0  0  0  0  0  0  0  0  0  # atno 8009 bound_to 7997
  156.2793  140.2111  156.5663 H   0  0  0  0  0  0  0  0  0  0  0  0  # atno 8010 bound_to 7997
  139.6740  143.9695  152.2300 H   0  0  0  0  0  0  0  0  0  0  0  0  # atno 10167 bound_to 10162
  156.4959  130.4577  149.6729 H   0  0  0  0  0  0  0  0  0  0  0  0  # atno 10718 bound_to 10713
  154.0797  135.2860  155.3292 H   0  0  0  0  0  0  0  0  0  0  0  0  # atno 10763 bound_to 10752
  154.6692  135.5306  153.8119 H   0  0  0  0  0  0  0  0  0  0  0  0  # atno 10764 bound_to 10752
  153.0453  135.6553  154.0973 H   0  0  0  0  0  0  0  0  0  0  0  0  # atno 10765 bound_to 10752
  140.8695  134.2068  157.4659 H   0  0  0  0  0  0  0  0  0  0  0  0  # atno 11005 bound_to 11000
  145.4755  141.0437  143.2675 LP  0  0  0  0  0  0  0  0  0  0  0  0  # atno 17320 bound_to 7965
  144.7939  139.6273  143.7101 LP  0  0  0  0  0  0  0  0  0  0  0  0  # atno 17321 bound_to 7965
  139.9467  144.6647  150.8212 LP  0  0  0  0  0  0  0  0  0  0  0  0  # atno 17342 bound_to 10162
  140.7629  143.3209  151.2625 LP  0  0  0  0  0  0  0  0  0  0  0  0  # atno 17343 bound_to 10162
  156.3381  130.7367  151.2308 LP  0  0  0  0  0  0  0  0  0  0  0  0  # atno 17370 bound_to 10713
  157.7468  131.0411  150.4631 LP  0  0  0  0  0  0  0  0  0  0  0  0  # atno 17371 bound_to 10713
  139.8711  134.9768  156.4933 LP  0  0  0  0  0  0  0  0  0  0  0  0  # atno 17394 bound_to 11000
  140.8589  133.8075  155.9245 LP  0  0  0  0  0  0  0  0  0  0  0  0  # atno 17395 bound_to 11000

$$$$
