AV-unprocessed.smi:1978|AV-procd|sdf|8013|dock6
  -GOLD-   2272010203D 1   1.00000     0.00000
 Structure written by MMmdl.
 44 45  0  0  0  0  0  0  0  0  3 V2000
  146.5620  134.3377  162.3244 C   0  0  0  0  0  0  0  0  0  0  0  0
  147.3510  134.8934  161.1889 C   0  0  0  0  0  0  0  0  0  0  0  0
  147.6488  136.1686  160.7987 C   0  0  0  0  0  0  0  0  0  0  0  0
  148.4454  135.9720  159.6393 C   0  0  0  0  0  0  0  0  0  0  0  0
  148.9683  137.0815  158.9239 N   0  0  0  0  0  0  0  0  0  0  0  0
  150.2478  137.3527  158.6094 C   0  0  0  0  0  0  0  0  0  0  0  0
  151.1536  136.5866  158.9592 O   0  0  0  0  0  0  0  0  0  0  0  0
  150.3708  138.5083  157.8993 N   0  5  0  0  0  0  0  0  0  0  0  0
  150.6711  139.8182  158.4796 C   0  0  0  0  0  0  0  0  0  0  0  0
  151.8590  140.5098  157.7282 C   0  0  1  0  0  0  0  0  0  0  0  0
  151.7398  140.4131  156.1872 C   0  0  0  0  0  0  0  0  0  0  0  0
  152.1524  141.9306  158.1469 N   0  3  1  0  0  0  0  0  0  0  0  0
  151.3032  142.9796  157.4976 C   0  0  0  0  0  0  0  0  0  0  0  0
  151.9003  144.3807  157.6852 C   0  0  0  0  0  0  0  0  0  0  0  0
  152.0679  144.6954  159.1728 C   0  0  0  0  0  0  0  0  0  0  0  0
  152.9239  143.6108  159.8337 C   0  0  0  0  0  0  0  0  0  0  0  0
  152.3430  142.1959  159.6172 C   0  0  2  0  0  0  0  0  0  0  0  0
  153.2614  141.1762  160.3228 C   0  0  0  0  0  0  0  0  0  0  0  0
  148.6121  134.6909  159.3452 N   0  0  0  0  0  0  0  0  0  0  0  0
  147.9120  133.9936  160.3366 O   0  0  0  0  0  0  0  0  0  0  0  0
  146.2601  135.1273  163.0128 H   0  0  0  0  0  0  0  0  0  0  0  0
  147.1498  133.6091  162.8826 H   0  0  0  0  0  0  0  0  0  0  0  0
  145.6618  133.8414  161.9621 H   0  0  0  0  0  0  0  0  0  0  0  0
  147.3482  137.0926  161.2698 H   0  0  0  0  0  0  0  0  0  0  0  0
  148.2879  137.7587  158.6125 H   0  0  0  0  0  0  0  0  0  0  0  0
  149.8016  140.4748  158.4450 H   0  0  0  0  0  0  0  0  0  0  0  0
  150.9191  139.7340  159.5381 H   0  0  0  0  0  0  0  0  0  0  0  0
  152.7586  139.9381  157.9465 H   0  0  0  0  0  0  0  0  0  0  0  0
  151.7900  139.3787  155.8415 H   0  0  0  0  0  0  0  0  0  0  0  0
  152.5629  140.9401  155.7038 H   0  0  0  0  0  0  0  0  0  0  0  0
  150.8109  140.8334  155.7993 H   0  0  0  0  0  0  0  0  0  0  0  0
  151.2032  142.7954  156.4293 H   0  0  0  0  0  0  0  0  0  0  0  0
  150.2952  142.9606  157.9144 H   0  0  0  0  0  0  0  0  0  0  0  0
  152.8655  144.4427  157.1804 H   0  0  0  0  0  0  0  0  0  0  0  0
  151.2563  145.1264  157.2181 H   0  0  0  0  0  0  0  0  0  0  0  0
  152.5323  145.6735  159.3018 H   0  0  0  0  0  0  0  0  0  0  0  0
  151.0911  144.7443  159.6560 H   0  0  0  0  0  0  0  0  0  0  0  0
  153.9373  143.6565  159.4320 H   0  0  0  0  0  0  0  0  0  0  0  0
  153.0075  143.8218  160.9006 H   0  0  0  0  0  0  0  0  0  0  0  0
  151.3671  142.1606  160.1038 H   0  0  0  0  0  0  0  0  0  0  0  0
  153.4788  141.4897  161.3441 H   0  0  0  0  0  0  0  0  0  0  0  0
  154.2138  141.0688  159.8028 H   0  0  0  0  0  0  0  0  0  0  0  0
  152.8010  140.1920  160.4008 H   0  0  0  0  0  0  0  0  0  0  0  0
  153.0722  142.0865  157.7610 H   0  0  0  0  0  0  0  0  0  0  0  0
  1  2  1  0  0  0  0
  1 21  1  0  0  0  0
  1 22  1  0  0  0  0
  1 23  1  0  0  0  0
  2 20  1  0  0  0  0
  2  3  2  0  0  0  0
  3  4  1  0  0  0  0
  3 24  1  0  0  0  0
  4  5  1  0  0  0  0
  4 19  2  0  0  0  0
  5  6  1  0  0  0  0
  5 25  1  0  0  0  0
  6  7  2  0  0  0  0
  6  8  1  0  0  0  0
  8  9  1  0  0  0  0
  9 10  1  0  0  0  0
  9 26  1  0  0  0  0
  9 27  1  0  0  0  0
 10 11  1  0  0  0  0
 10 12  1  0  0  0  0
 10 28  1  0  0  0  0
 11 29  1  0  0  0  0
 11 30  1  0  0  0  0
 11 31  1  0  0  0  0
 12 17  1  0  0  0  0
 12 13  1  0  0  0  0
 12 44  1  0  0  0  0
 13 14  1  0  0  0  0
 13 32  1  0  0  0  0
 13 33  1  0  0  0  0
 14 15  1  0  0  0  0
 14 34  1  0  0  0  0
 14 35  1  0  0  0  0
 15 16  1  0  0  0  0
 15 36  1  0  0  0  0
 15 37  1  0  0  0  0
 16 17  1  0  0  0  0
 16 38  1  0  0  0  0
 16 39  1  0  0  0  0
 17 18  1  0  0  0  0
 17 40  1  0  0  0  0
 18 41  1  0  0  0  0
 18 42  1  0  0  0  0
 18 43  1  0  0  0  0
 19 20  1  0  0  0  0
M  CHG  1   8  -1
M  CHG  1  12   1
M  END
> <s_m_source_file>
AV-unprocessed.smi

> <i_m_source_file_index>
1978

> <i_lp_mmshare_version>
43012

> <i_f3d_flags>
0

> <s_epik_input>
W0NIM11jMVtjSF1jKG5vMSlbTkhdQyg9TylbTkhdW0NIMl1bQ0BIXShbQ0gzXSlOMltDSDJdW0NIMl1bQ0gyXVtDSDJdW0NASF0yW0NIM10=

> <s_epik_cmdline>
J2VwaWtfcHl0aG9uJywgJy1waCcsICc3LjAnLCAnLXRuJywgJzgnLCAnLW1hJywgJzIwMCcsICctbWV0YWxfYmluZGluZycsICctaW1hZScsICc8aW5maWxlLm1hZT4nLCAnLW9tYWUnLCAnPG91dGZpbGUubWFlPic=

> <r_epik_Ionization_Penalty>
6.7666

> <r_epik_Ionization_Penalty_Charging>
6.7666

> <r_epik_Ionization_Penalty_Neutral>
5.77131e-06

> <r_epik_State_Penalty>
6.79217

> <r_epik_Charging_Adjusted_Penalty>
13.5588

> <i_epik_Tot_Q>
0

> <i_epik_Tot_abs_Q>
2

> <r_epik_Metal_State_Penalty>
2.72569

> <b_epik_Metal_Only>
1

> <s_lp_Force_Field>
OPLS_2005

> <r_lp_Energy>
22.3243

> <b_lp_Chiralities_Consistent>
1

> <s_lp_Variant>
AV-unprocessed.smi:1978-22

> <Gold.Version>
5.8.1

> <Gold.Id.Protein>
6NUR|6NUR_protein|mol2

> <Gold.PLP.Fitness>
44.2820

> <Gold.PLP.PLP>
-43.2818

> <Gold.PLP.part.hbond>
-2.0000

> <Gold.PLP.part.metal>
0.0000

> <Gold.PLP.part.buried>
-4.5163

> <Gold.PLP.part.nonpolar>
-36.7686

> <Gold.PLP.part.repulsive>
0.2611

> <Gold.PLP.ligand.clash>
0.0000

> <Gold.PLP.ligand.torsion>
1.5490

> <Gold.PLP.Chemscore.Hbond>
1.2789

> <Gold.PLP.Chemscore.CHOScore>
0.0000

> <Gold.PLP.Chemscore.Metal>
0.0000

> <Gold.Chemscore.Hbonds>
donor molecule, donor type, donor heavy atom, donor atom, acceptor molecule, acceptor atom, score
      P1  H  6896  6908       L1    19  0.89
      P1  H  6896  6909       L1     7  0.35

> <Gold.PLP.Chemscore.Internal.Correction>
0.2614

> <Gold.Rescore>
     Score         DG    S(hbond)    S(metal)    S(lipo)     H(rot)  DE(clash)    DE(int)     intcor
     17.24     -18.77       1.33        0.00     108.93       1.52       0.09       1.44       ----

> <Gold.Chemscore.Fitness>
17.2418

> <Gold.Chemscore.DG>
-18.7714

> <Gold.Chemscore.ZeroCoef>
-5.4800

> <Gold.Chemscore.Hbond>
1.3281

> <Gold.Chemscore.Metal>
0.0000

> <Gold.Chemscore.Lipo>
108.9259

> <Gold.Chemscore.Internal_Hbond>
0.0000

> <Gold.Chemscore.DEClash>
0.0942

> <Gold.Chemscore.DEInternal>
1.4354

> <Gold.Chemscore.Rot>
1.5190

> <Gold.Chemscore.Internal.Correction>
   9.000000E+99

> <Gold.Chemscore.Hbonds>
donor molecule, donor type, donor heavy atom, donor atom, acceptor molecule, acceptor atom, score
      P1  H  6896  6908       L1    19  0.45
      P1  H  6896  6909       L1     7  0.32

> <Gold.Chemscore.Hbond.Weighted>
-4.4357

> <Gold.Chemscore.Metal.Weighted>
-0.0000

> <Gold.Chemscore.Lipo.Weighted>
-12.7443

> <Gold.Chemscore.Internal_Hbond.Weighted>
0.0000

> <Gold.Chemscore.DEClash.Weighted>
0.0942

> <Gold.Chemscore.DEInternal.Weighted>
1.4354

> <Gold.Chemscore.Rot.Weighted>
3.8886

> <Gold.Chemscore.Internal.Correction.Weighted>
   9.000000E+99

> <Gold.Protein.RotatedTorsions>
[ 6907 6896 6895 6894 ] final  145.80 input  -60.11 | X-H torsion
[ 7974 7965 7964 7962 ] final  -72.67 input  175.53 | X-H torsion
[ 8008 7997 7996 7995 ] final  -48.74 input   59.86 | X-H torsion
[ 10167 10162 10161 10158 ] final   41.03 input  -65.29 | X-H torsion
[ 10718 10713 10712 10709 ] final -135.00 input   66.30 | X-H torsion
[ 10763 10752 10751 10750 ] final  -22.77 input  -60.55 | X-H torsion
[ 11005 11000 10999 10996 ] final -116.18 input  -57.11 | X-H torsion

> <Gold.Protein.ActiveResidues>
 VAL166  LYS551  ARG553  GLY616  TRP617  ASP618  TYR619  PRO620  LYS621  CYS622 
 ASP623  PHE694  ASN695  SER759  ASP760  ASP761  ALA762  ILE779  LEU786  VAL792 
 PHE793  MET794  SER795  GLU796  ALA797  LYS798  CYS799  TRP800  GLU811  SER814 

> <Gold.Protein.RotatedAtoms>
  152.1761  133.4676  159.4933 H   0  0  0  0  0  0  0  0  0  0  0  0  # atno 6907 bound_to 6896
  150.6927  134.1891  159.4287 H   0  0  0  0  0  0  0  0  0  0  0  0  # atno 6908 bound_to 6896
  151.9801  135.0033  160.0607 H   0  0  0  0  0  0  0  0  0  0  0  0  # atno 6909 bound_to 6896
  145.6621  140.9249  143.0928 H   0  0  0  0  0  0  0  0  0  0  0  0  # atno 7974 bound_to 7965
  154.4033  140.1314  156.4388 H   0  0  0  0  0  0  0  0  0  0  0  0  # atno 8008 bound_to 7997
  155.7479  140.3488  155.5116 H   0  0  0  0  0  0  0  0  0  0  0  0  # atno 8009 bound_to 7997
  155.8977  140.1014  157.1363 H   0  0  0  0  0  0  0  0  0  0  0  0  # atno 8010 bound_to 7997
  140.3683  144.2138  150.6134 H   0  0  0  0  0  0  0  0  0  0  0  0  # atno 10167 bound_to 10162
  156.2614  130.7212  151.1147 H   0  0  0  0  0  0  0  0  0  0  0  0  # atno 10718 bound_to 10713
  153.6572  135.6978  153.5189 H   0  0  0  0  0  0  0  0  0  0  0  0  # atno 10763 bound_to 10752
  153.2660  135.4230  155.0940 H   0  0  0  0  0  0  0  0  0  0  0  0  # atno 10764 bound_to 10752
  154.8461  135.3566  154.6116 H   0  0  0  0  0  0  0  0  0  0  0  0  # atno 10765 bound_to 10752
  141.0439  133.9793  157.2950 H   0  0  0  0  0  0  0  0  0  0  0  0  # atno 11005 bound_to 11000
  144.7085  139.8462  143.7422 LP  0  0  0  0  0  0  0  0  0  0  0  0  # atno 17320 bound_to 7965
  146.1116  139.4122  143.0284 LP  0  0  0  0  0  0  0  0  0  0  0  0  # atno 17321 bound_to 7965
  140.5058  143.2304  151.8610 LP  0  0  0  0  0  0  0  0  0  0  0  0  # atno 17342 bound_to 10162
  139.4806  144.5007  151.9065 LP  0  0  0  0  0  0  0  0  0  0  0  0  # atno 17343 bound_to 10162
  157.7252  131.0655  150.5963 LP  0  0  0  0  0  0  0  0  0  0  0  0  # atno 17370 bound_to 10713
  156.6051  130.4365  149.5881 LP  0  0  0  0  0  0  0  0  0  0  0  0  # atno 17371 bound_to 10713
  139.9296  135.0200  156.8356 LP  0  0  0  0  0  0  0  0  0  0  0  0  # atno 17394 bound_to 11000
  140.6183  134.0017  155.7607 LP  0  0  0  0  0  0  0  0  0  0  0  0  # atno 17395 bound_to 11000

$$$$
