AV-unprocessed.smi:512|AV-procd|sdf|2771|dock9
  -GOLD-   2262023243D 1   1.00000     0.00000
 Structure written by MMmdl.
 47 49  0  0  0  0  0  0  0  0  2 V2000
  150.9013  134.0532  156.3298 C   0  0  0  0  0  0  0  0  0  0  0  0
  150.7734  135.5549  156.5951 C   0  0  0  0  0  0  0  0  0  0  0  0
  151.2006  135.8247  157.9193 O   0  0  0  0  0  0  0  0  0  0  0  0
  151.0580  137.1899  158.2735 C   0  0  0  0  0  0  0  0  0  0  0  0
  151.9771  138.0302  157.3719 C   0  0  0  0  0  0  0  0  0  0  0  0
  152.0617  139.4222  157.8062 N   0  0  0  0  0  0  0  0  0  0  0  0
  151.5309  140.5386  157.2266 C   0  0  0  0  0  0  0  0  0  0  0  0
  150.7951  140.5222  156.0336 N   0  0  0  0  0  0  0  0  0  0  0  0
  150.1023  141.6895  155.4887 C   0  0  0  0  0  0  0  0  0  0  0  0
  148.6392  141.3540  155.1385 C   0  0  0  0  0  0  0  0  0  0  0  0
  148.6100  140.3089  154.1164 N   0  0  0  0  0  0  0  0  0  0  0  0
  147.2301  139.9816  153.7884 C   0  0  0  0  0  0  0  0  0  0  0  0
  149.2838  139.1250  154.6469 C   0  0  0  0  0  0  0  0  0  0  0  0
  150.7399  139.4869  155.0004 C   0  0  0  0  0  0  0  0  0  0  0  0
  151.7382  141.6629  157.9171 N   0  0  0  0  0  0  0  0  0  0  0  0
  152.4728  141.2383  159.0110 C   0  0  0  0  0  0  0  0  0  0  0  0
  152.6742  139.8950  158.9735 C   0  0  0  0  0  0  0  0  0  0  0  0
  153.3988  139.1457  160.0256 C   0  0  0  0  0  0  0  0  0  0  0  0
  153.5335  137.9257  159.9603 O   0  0  0  0  0  0  0  0  0  0  0  0
  153.8633  139.9666  161.0202 N   0  5  0  0  0  0  0  0  0  0  0  0
  153.6880  141.3316  161.0920 C   0  0  0  0  0  0  0  0  0  0  0  0
  154.1415  141.9974  162.0238 O   0  0  0  0  0  0  0  0  0  0  0  0
  152.9922  141.9806  160.1065 N   0  0  0  0  0  0  0  0  0  0  0  0
  152.7829  143.4302  160.1601 C   0  0  0  0  0  0  0  0  0  0  0  0
  150.5767  133.8071  155.3185 H   0  0  0  0  0  0  0  0  0  0  0  0
  150.2905  133.4794  157.0271 H   0  0  0  0  0  0  0  0  0  0  0  0
  151.9349  133.7241  156.4391 H   0  0  0  0  0  0  0  0  0  0  0  0
  151.3828  136.1111  155.8813 H   0  0  0  0  0  0  0  0  0  0  0  0
  149.7372  135.8697  156.4624 H   0  0  0  0  0  0  0  0  0  0  0  0
  150.0187  137.4970  158.1556 H   0  0  0  0  0  0  0  0  0  0  0  0
  151.3090  137.3292  159.3250 H   0  0  0  0  0  0  0  0  0  0  0  0
  152.9744  137.5989  157.3264 H   0  0  0  0  0  0  0  0  0  0  0  0
  151.6203  138.0045  156.3427 H   0  0  0  0  0  0  0  0  0  0  0  0
  150.1141  142.4998  156.2181 H   0  0  0  0  0  0  0  0  0  0  0  0
  150.6346  142.0576  154.6103 H   0  0  0  0  0  0  0  0  0  0  0  0
  148.0995  141.0334  156.0314 H   0  0  0  0  0  0  0  0  0  0  0  0
  148.1379  142.2455  154.7604 H   0  0  0  0  0  0  0  0  0  0  0  0
  147.1941  139.2017  153.0272 H   0  0  0  0  0  0  0  0  0  0  0  0
  146.7138  140.8569  153.3926 H   0  0  0  0  0  0  0  0  0  0  0  0
  146.6841  139.6297  154.6649 H   0  0  0  0  0  0  0  0  0  0  0  0
  148.7572  138.7440  155.5232 H   0  0  0  0  0  0  0  0  0  0  0  0
  149.2737  138.3348  153.8953 H   0  0  0  0  0  0  0  0  0  0  0  0
  151.2595  139.8455  154.1107 H   0  0  0  0  0  0  0  0  0  0  0  0
  151.2801  138.5978  155.3089 H   0  0  0  0  0  0  0  0  0  0  0  0
  152.2744  143.7103  161.0834 H   0  0  0  0  0  0  0  0  0  0  0  0
  152.1760  143.7989  159.3336 H   0  0  0  0  0  0  0  0  0  0  0  0
  153.7388  143.9538  160.1236 H   0  0  0  0  0  0  0  0  0  0  0  0
  1  2  1  0  0  0  0
  1 25  1  0  0  0  0
  1 26  1  0  0  0  0
  1 27  1  0  0  0  0
  2  3  1  0  0  0  0
  2 28  1  0  0  0  0
  2 29  1  0  0  0  0
  3  4  1  0  0  0  0
  4  5  1  0  0  0  0
  4 30  1  0  0  0  0
  4 31  1  0  0  0  0
  5  6  1  0  0  0  0
  5 32  1  0  0  0  0
  5 33  1  0  0  0  0
  6 17  1  0  0  0  0
  6  7  1  0  0  0  0
  7  8  1  0  0  0  0
  7 15  2  0  0  0  0
  8 14  1  0  0  0  0
  8  9  1  0  0  0  0
  9 10  1  0  0  0  0
  9 34  1  0  0  0  0
  9 35  1  0  0  0  0
 10 11  1  0  0  0  0
 10 36  1  0  0  0  0
 10 37  1  0  0  0  0
 11 12  1  0  0  0  0
 11 13  1  0  0  0  0
 12 38  1  0  0  0  0
 12 39  1  0  0  0  0
 12 40  1  0  0  0  0
 13 14  1  0  0  0  0
 13 41  1  0  0  0  0
 13 42  1  0  0  0  0
 14 43  1  0  0  0  0
 14 44  1  0  0  0  0
 15 16  1  0  0  0  0
 16 23  1  0  0  0  0
 16 17  2  0  0  0  0
 17 18  1  0  0  0  0
 18 19  2  0  0  0  0
 18 20  1  0  0  0  0
 20 21  1  0  0  0  0
 21 22  2  0  0  0  0
 21 23  1  0  0  0  0
 23 24  1  0  0  0  0
 24 45  1  0  0  0  0
 24 46  1  0  0  0  0
 24 47  1  0  0  0  0
M  CHG  1  20  -1
M  END
> <s_m_source_file>
AV-unprocessed.smi

> <i_m_source_file_index>
512

> <i_lp_mmshare_version>
43012

> <i_f3d_flags>
0

> <s_epik_input>
W0NIM11uMWMoPU8pW25IXWMoPU8pYyhjMTIpbihbQ0gyXVtDSDJdT1tDSDJdW0NIM10pYyhuMilOM1tDSDJdW0NIMl1OKFtDSDNdKVtDSDJdW0NIMl0z

> <s_epik_cmdline>
J2VwaWtfcHl0aG9uJywgJy1waCcsICc3LjAnLCAnLXRuJywgJzgnLCAnLW1hJywgJzIwMCcsICctbWV0YWxfYmluZGluZycsICctaW1hZScsICc8aW5maWxlLm1hZT4nLCAnLW9tYWUnLCAnPG91dGZpbGUubWFlPic=

> <r_epik_Ionization_Penalty>
7.67022

> <r_epik_Ionization_Penalty_Charging>
0.0776929

> <r_epik_Ionization_Penalty_Neutral>
7.59253

> <r_epik_State_Penalty>
7.66971

> <r_epik_Charging_Adjusted_Penalty>
7.7474

> <i_epik_Tot_Q>
-1

> <i_epik_Tot_abs_Q>
1

> <r_epik_Metal_State_Penalty>
3.61867

> <b_epik_Metal_Only>
1

> <s_lp_Force_Field>
OPLS_2005

> <r_lp_Energy>
53.7442

> <b_lp_Chiralities_Consistent>
1

> <s_lp_Variant>
AV-unprocessed.smi:512-4

> <Gold.Version>
5.8.1

> <Gold.Id.Protein>
6NUR|6NUR_protein|mol2

> <Gold.PLP.Fitness>
41.0471

> <Gold.PLP.PLP>
-40.4013

> <Gold.PLP.part.hbond>
-2.0000

> <Gold.PLP.part.metal>
0.0000

> <Gold.PLP.part.buried>
-4.7258

> <Gold.PLP.part.nonpolar>
-33.8425

> <Gold.PLP.part.repulsive>
0.2544

> <Gold.PLP.ligand.clash>
0.0000

> <Gold.PLP.ligand.torsion>
0.2053

> <Gold.PLP.Chemscore.Hbond>
0.3221

> <Gold.PLP.Chemscore.CHOScore>
0.0000

> <Gold.PLP.Chemscore.Metal>
0.0000

> <Gold.Chemscore.Hbonds>
donor molecule, donor type, donor heavy atom, donor atom, acceptor molecule, acceptor atom, score
      P1  H  6896  6908       L1     3  0.32

> <Gold.PLP.Chemscore.Internal.Correction>
0.0900

> <Gold.Rescore>
     Score         DG    S(hbond)    S(metal)    S(lipo)     H(rot)  DE(clash)    DE(int)     intcor
      8.95     -10.37       0.34        0.00      67.31       1.61       0.15       1.27       ----

> <Gold.Chemscore.Fitness>
8.9458

> <Gold.Chemscore.DG>
-10.3668

> <Gold.Chemscore.ZeroCoef>
-5.4800

> <Gold.Chemscore.Hbond>
0.3365

> <Gold.Chemscore.Metal>
0.0000

> <Gold.Chemscore.Lipo>
67.3081

> <Gold.Chemscore.Internal_Hbond>
0.0000

> <Gold.Chemscore.DEClash>
0.1538

> <Gold.Chemscore.DEInternal>
1.2672

> <Gold.Chemscore.Rot>
1.6064

> <Gold.Chemscore.Internal.Correction>
   9.000000E+99

> <Gold.Chemscore.Hbonds>
donor molecule, donor type, donor heavy atom, donor atom, acceptor molecule, acceptor atom, score
      P1  H  6896  6908       L1     3  0.15

> <Gold.Chemscore.Hbond.Weighted>
-1.1241

> <Gold.Chemscore.Metal.Weighted>
-0.0000

> <Gold.Chemscore.Lipo.Weighted>
-7.8750

> <Gold.Chemscore.Internal_Hbond.Weighted>
0.0000

> <Gold.Chemscore.DEClash.Weighted>
0.1538

> <Gold.Chemscore.DEInternal.Weighted>
1.2672

> <Gold.Chemscore.Rot.Weighted>
4.1123

> <Gold.Chemscore.Internal.Correction.Weighted>
   9.000000E+99

> <Gold.Protein.RotatedTorsions>
[ 6907 6896 6895 6894 ] final -174.22 input  -60.11 | X-H torsion
[ 7974 7965 7964 7962 ] final -148.34 input  175.53 | X-H torsion
[ 8008 7997 7996 7995 ] final -131.58 input   59.86 | X-H torsion
[ 10167 10162 10161 10158 ] final  -31.34 input  -65.29 | X-H torsion
[ 10718 10713 10712 10709 ] final -163.70 input   66.30 | X-H torsion
[ 10763 10752 10751 10750 ] final -173.46 input  -60.55 | X-H torsion
[ 11005 11000 10999 10996 ] final  -85.78 input  -57.11 | X-H torsion

> <Gold.Protein.ActiveResidues>
 VAL166  LYS551  ARG553  GLY616  TRP617  ASP618  TYR619  PRO620  LYS621  CYS622 
 ASP623  PHE694  ASN695  SER759  ASP760  ASP761  ALA762  ILE779  LEU786  VAL792 
 PHE793  MET794  SER795  GLU796  ALA797  LYS798  CYS799  TRP800  GLU811  SER814 

> <Gold.Protein.RotatedAtoms>
  151.5688  133.3393  159.2985 H   0  0  0  0  0  0  0  0  0  0  0  0  # atno 6907 bound_to 6896
  150.8379  134.7663  159.6919 H   0  0  0  0  0  0  0  0  0  0  0  0  # atno 6908 bound_to 6896
  152.4452  134.5515  159.9920 H   0  0  0  0  0  0  0  0  0  0  0  0  # atno 6909 bound_to 6896
  144.8035  140.5209  143.5691 H   0  0  0  0  0  0  0  0  0  0  0  0  # atno 7974 bound_to 7965
  155.3148  140.0459  157.3036 H   0  0  0  0  0  0  0  0  0  0  0  0  # atno 8008 bound_to 7997
  154.5413  140.2288  155.8603 H   0  0  0  0  0  0  0  0  0  0  0  0  # atno 8009 bound_to 7997
  156.1883  140.3057  155.9288 H   0  0  0  0  0  0  0  0  0  0  0  0  # atno 8010 bound_to 7997
  140.7237  143.3778  151.1657 H   0  0  0  0  0  0  0  0  0  0  0  0  # atno 10167 bound_to 10162
  156.6285  130.8920  151.2972 H   0  0  0  0  0  0  0  0  0  0  0  0  # atno 10718 bound_to 10713
  154.6076  135.2861  155.0468 H   0  0  0  0  0  0  0  0  0  0  0  0  # atno 10763 bound_to 10752
  154.1710  135.6472  153.5013 H   0  0  0  0  0  0  0  0  0  0  0  0  # atno 10764 bound_to 10752
  153.0181  135.5401  154.6817 H   0  0  0  0  0  0  0  0  0  0  0  0  # atno 10765 bound_to 10752
  141.1637  133.7418  156.9065 H   0  0  0  0  0  0  0  0  0  0  0  0  # atno 11005 bound_to 11000
  145.5494  139.1476  143.3402 LP  0  0  0  0  0  0  0  0  0  0  0  0  # atno 17320 bound_to 7965
  146.2322  140.5632  142.8970 LP  0  0  0  0  0  0  0  0  0  0  0  0  # atno 17321 bound_to 7965
  139.7361  143.8996  152.3035 LP  0  0  0  0  0  0  0  0  0  0  0  0  # atno 17342 bound_to 10162
  139.8802  144.7022  150.8887 LP  0  0  0  0  0  0  0  0  0  0  0  0  # atno 17343 bound_to 10162
  157.7207  130.9555  150.1427 LP  0  0  0  0  0  0  0  0  0  0  0  0  # atno 17370 bound_to 10713
  156.2254  130.3677  149.8507 LP  0  0  0  0  0  0  0  0  0  0  0  0  # atno 17371 bound_to 10713
  140.1546  134.9207  157.2637 LP  0  0  0  0  0  0  0  0  0  0  0  0  # atno 17394 bound_to 11000
  140.2682  134.3491  155.7382 LP  0  0  0  0  0  0  0  0  0  0  0  0  # atno 17395 bound_to 11000

$$$$
