AV-unprocessed.smi:738|AV-procd|sdf|3540|dock2
  -GOLD-   22720 0533D 1   1.00000     0.00000
 Structure written by MMmdl.
 35 37  0  0  0  0  0  0  0  0  1 V2000
  146.0150  141.3264  154.1439 N   0  0  0  0  0  0  0  0  0  0  0  0
  147.1110  140.7001  153.7045 C   0  0  0  0  0  0  0  0  0  0  0  0
  147.1217  140.0402  152.6672 O   0  0  0  0  0  0  0  0  0  0  0  0
  148.3236  140.7880  154.5853 C   0  0  0  0  0  0  0  0  0  0  0  0
  148.3505  141.6748  155.6839 C   0  0  0  0  0  0  0  0  0  0  0  0
  149.3998  141.7883  156.5253 N   0  0  0  0  0  0  0  0  0  0  0  0
  150.4845  141.0039  156.3172 C   0  0  0  0  0  0  0  0  0  0  0  0
  151.5703  141.1342  157.1989 N   0  0  0  0  0  0  0  0  0  0  0  0
  151.8234  139.9207  157.9771 C   0  0  0  0  0  0  0  0  0  0  0  0
  153.0565  140.0928  158.8983 C   0  0  0  0  0  0  0  0  0  0  0  0
  152.9392  141.2706  159.7032 O   0  0  0  0  0  0  0  0  0  0  0  0
  152.7895  142.4135  158.8723 C   0  0  2  0  0  0  0  0  0  0  0  0
  152.6134  143.7542  159.5802 C   0  0  0  0  0  0  0  0  0  0  0  0
  151.8643  144.6252  158.5487 C   0  0  0  0  0  0  0  0  0  0  0  0
  151.3503  143.6672  157.4538 C   0  0  0  0  0  0  0  0  0  0  0  0
  151.4907  142.2834  158.0910 C   0  0  1  0  0  0  0  0  0  0  0  0
  150.5524  140.0746  155.2531 C   0  0  0  0  0  0  0  0  0  0  0  0
  151.9466  139.0826  155.0058 Cl  0  0  0  0  0  0  0  0  0  0  0  0
  149.4533  139.9647  154.3794 C   0  0  0  0  0  0  0  0  0  0  0  0
  145.1683  141.2957  153.5946 H   0  0  0  0  0  0  0  0  0  0  0  0
  146.0328  141.8223  155.0229 H   0  0  0  0  0  0  0  0  0  0  0  0
  147.5106  142.3198  155.8973 H   0  0  0  0  0  0  0  0  0  0  0  0
  150.9491  139.6878  158.5868 H   0  0  0  0  0  0  0  0  0  0  0  0
  151.9759  139.0769  157.3030 H   0  0  0  0  0  0  0  0  0  0  0  0
  153.1589  139.2263  159.5516 H   0  0  0  0  0  0  0  0  0  0  0  0
  153.9700  140.1456  158.3038 H   0  0  0  0  0  0  0  0  0  0  0  0
  153.6402  142.4889  158.1906 H   0  0  0  0  0  0  0  0  0  0  0  0
  151.9973  143.6262  160.4712 H   0  0  0  0  0  0  0  0  0  0  0  0
  153.5636  144.1892  159.8911 H   0  0  0  0  0  0  0  0  0  0  0  0
  151.0394  145.1535  159.0279 H   0  0  0  0  0  0  0  0  0  0  0  0
  152.5240  145.3773  158.1148 H   0  0  0  0  0  0  0  0  0  0  0  0
  150.3262  143.8866  157.1509 H   0  0  0  0  0  0  0  0  0  0  0  0
  151.9851  143.7428  156.5694 H   0  0  0  0  0  0  0  0  0  0  0  0
  150.6676  142.1344  158.7932 H   0  0  0  0  0  0  0  0  0  0  0  0
  149.4857  139.2533  153.5673 H   0  0  0  0  0  0  0  0  0  0  0  0
  1  2  1  0  0  0  0
  1 20  1  0  0  0  0
  1 21  1  0  0  0  0
  2  3  2  0  0  0  0
  2  4  1  0  0  0  0
  4 19  1  0  0  0  0
  4  5  2  0  0  0  0
  5  6  1  0  0  0  0
  5 22  1  0  0  0  0
  6  7  2  0  0  0  0
  7  8  1  0  0  0  0
  7 17  1  0  0  0  0
  8 16  1  0  0  0  0
  8  9  1  0  0  0  0
  9 10  1  0  0  0  0
  9 23  1  0  0  0  0
  9 24  1  0  0  0  0
 10 11  1  0  0  0  0
 10 25  1  0  0  0  0
 10 26  1  0  0  0  0
 11 12  1  0  0  0  0
 12 16  1  0  0  0  0
 12 13  1  0  0  0  0
 12 27  1  0  0  0  0
 13 14  1  0  0  0  0
 13 28  1  0  0  0  0
 13 29  1  0  0  0  0
 14 15  1  0  0  0  0
 14 30  1  0  0  0  0
 14 31  1  0  0  0  0
 15 16  1  0  0  0  0
 15 32  1  0  0  0  0
 15 33  1  0  0  0  0
 16 34  1  0  0  0  0
 17 18  1  0  0  0  0
 17 19  2  0  0  0  0
 19 35  1  0  0  0  0
M  END
> <s_m_source_file>
AV-unprocessed.smi

> <i_m_source_file_index>
738

> <i_lp_mmshare_version>
43012

> <i_f3d_flags>
0

> <s_epik_input>
W05IMl1DKD1PKWMxW2NIXW5jKGMoQ2wpW2NIXTEpTihbQ0gyXVtDSDJdTzIpW0NASF0oW0NASF0yMylbQ0gyXVtDSDJdW0NIMl0z

> <s_epik_cmdline>
J2VwaWtfcHl0aG9uJywgJy1waCcsICc3LjAnLCAnLXRuJywgJzgnLCAnLW1hJywgJzIwMCcsICctbWV0YWxfYmluZGluZycsICctaW1hZScsICc8aW5maWxlLm1hZT4nLCAnLW9tYWUnLCAnPG91dGZpbGUubWFlPic=

> <r_lp_tautomer_probability>
1

> <r_epik_Ionization_Penalty>
6.75978e-06

> <r_epik_Ionization_Penalty_Charging>
0

> <r_epik_Ionization_Penalty_Neutral>
6.75978e-06

> <r_epik_State_Penalty>
-0

> <r_epik_Charging_Adjusted_Penalty>
0

> <i_epik_Tot_Q>
0

> <i_epik_Tot_abs_Q>
0

> <r_epik_Metal_State_Penalty>
-0

> <b_epik_Metal_Only>
0

> <s_lp_Force_Field>
OPLS_2005

> <r_lp_Energy>
40.6009

> <b_lp_Chiralities_Consistent>
1

> <s_lp_Variant>
AV-unprocessed.smi:738-3

> <Gold.Version>
5.8.1

> <Gold.Id.Protein>
6NUR|6NUR_protein|mol2

> <Gold.PLP.Fitness>
40.9140

> <Gold.PLP.PLP>
-37.5845

> <Gold.PLP.part.hbond>
-1.0000

> <Gold.PLP.part.metal>
0.0000

> <Gold.PLP.part.buried>
-3.8346

> <Gold.PLP.part.nonpolar>
-34.6918

> <Gold.PLP.part.repulsive>
2.2298

> <Gold.PLP.ligand.clash>
0.0000

> <Gold.PLP.ligand.torsion>
0.1744

> <Gold.PLP.Chemscore.Hbond>
0.9913

> <Gold.PLP.Chemscore.CHOScore>
0.2187

> <Gold.PLP.Chemscore.Metal>
0.0000

> <Gold.Chemscore.Hbonds>
donor molecule, donor type, donor heavy atom, donor atom, acceptor molecule, acceptor atom, score
      L1  H     1    20       P1 10175  1.00
      L1  C     5    22       P1  8028  0.16

> <Gold.PLP.Chemscore.Internal.Correction>
0.0484

> <Gold.Rescore>
     Score         DG    S(hbond)    S(metal)    S(lipo)     H(rot)  DE(clash)    DE(int)     intcor
     16.50     -18.15       0.94        0.00     103.35       1.00       0.08       1.57       ----

> <Gold.Chemscore.Fitness>
16.5021

> <Gold.Chemscore.DG>
-18.1473

> <Gold.Chemscore.ZeroCoef>
-5.4800

> <Gold.Chemscore.Hbond>
0.9388

> <Gold.Chemscore.Metal>
0.0000

> <Gold.Chemscore.Lipo>
103.3492

> <Gold.Chemscore.Internal_Hbond>
0.0000

> <Gold.Chemscore.DEClash>
0.0761

> <Gold.Chemscore.DEInternal>
1.5691

> <Gold.Chemscore.Rot>
1.0000

> <Gold.Chemscore.Internal.Correction>
   9.000000E+99

> <Gold.Chemscore.Hbonds>
donor molecule, donor type, donor heavy atom, donor atom, acceptor molecule, acceptor atom, score
      L1  H     1    20       P1 10175  0.33

> <Gold.Chemscore.Hbond.Weighted>
-3.1355

> <Gold.Chemscore.Metal.Weighted>
-0.0000

> <Gold.Chemscore.Lipo.Weighted>
-12.0919

> <Gold.Chemscore.Internal_Hbond.Weighted>
0.0000

> <Gold.Chemscore.DEClash.Weighted>
0.0761

> <Gold.Chemscore.DEInternal.Weighted>
1.5691

> <Gold.Chemscore.Rot.Weighted>
2.5600

> <Gold.Chemscore.Internal.Correction.Weighted>
   9.000000E+99

> <Gold.Protein.RotatedTorsions>
[ 6907 6896 6895 6894 ] final  -50.23 input  -60.11 | X-H torsion
[ 7974 7965 7964 7962 ] final   88.78 input  175.53 | X-H torsion
[ 8008 7997 7996 7995 ] final    4.85 input   59.86 | X-H torsion
[ 10167 10162 10161 10158 ] final  -51.03 input  -65.29 | X-H torsion
[ 10718 10713 10712 10709 ] final -127.94 input   66.30 | X-H torsion
[ 10763 10752 10751 10750 ] final    0.31 input  -60.55 | X-H torsion
[ 11005 11000 10999 10996 ] final   45.92 input  -57.11 | X-H torsion

> <Gold.Protein.ActiveResidues>
 VAL166  LYS551  ARG553  GLY616  TRP617  ASP618  TYR619  PRO620  LYS621  CYS622 
 ASP623  PHE694  ASN695  SER759  ASP760  ASP761  ALA762  ILE779  LEU786  VAL792 
 PHE793  MET794  SER795  GLU796  ALA797  LYS798  CYS799  TRP800  GLU811  SER814 

> <Gold.Protein.RotatedAtoms>
  150.8728  134.8105  159.7166 H   0  0  0  0  0  0  0  0  0  0  0  0  # atno 6907 bound_to 6896
  152.4726  134.4920  159.9708 H   0  0  0  0  0  0  0  0  0  0  0  0  # atno 6908 bound_to 6896
  151.5006  133.3466  159.2904 H   0  0  0  0  0  0  0  0  0  0  0  0  # atno 6909 bound_to 6896
  145.5411  139.2289  143.2565 H   0  0  0  0  0  0  0  0  0  0  0  0  # atno 7974 bound_to 7965
  154.7210  140.2712  155.6541 H   0  0  0  0  0  0  0  0  0  0  0  0  # atno 8008 bound_to 7997
  156.2823  140.2734  156.1806 H   0  0  0  0  0  0  0  0  0  0  0  0  # atno 8009 bound_to 7997
  155.0507  140.0371  157.2532 H   0  0  0  0  0  0  0  0  0  0  0  0  # atno 8010 bound_to 7997
  140.6609  143.2635  151.4444 H   0  0  0  0  0  0  0  0  0  0  0  0  # atno 10167 bound_to 10162
  156.1904  130.6791  151.0417 H   0  0  0  0  0  0  0  0  0  0  0  0  # atno 10718 bound_to 10713
  153.3223  135.6970  153.7020 H   0  0  0  0  0  0  0  0  0  0  0  0  # atno 10763 bound_to 10752
  153.5855  135.3490  155.2892 H   0  0  0  0  0  0  0  0  0  0  0  0  # atno 10764 bound_to 10752
  154.8600  135.4305  154.2390 H   0  0  0  0  0  0  0  0  0  0  0  0  # atno 10765 bound_to 10752
  140.1416  134.4576  155.8445 H   0  0  0  0  0  0  0  0  0  0  0  0  # atno 11005 bound_to 11000
  146.1980  140.6231  142.9115 LP  0  0  0  0  0  0  0  0  0  0  0  0  # atno 17320 bound_to 7965
  144.7576  140.5345  143.6758 LP  0  0  0  0  0  0  0  0  0  0  0  0  # atno 17321 bound_to 7965
  139.5842  144.1641  152.2008 LP  0  0  0  0  0  0  0  0  0  0  0  0  # atno 17342 bound_to 10162
  140.0976  144.5567  150.7011 LP  0  0  0  0  0  0  0  0  0  0  0  0  # atno 17343 bound_to 10162
  157.6925  131.0805  150.7065 LP  0  0  0  0  0  0  0  0  0  0  0  0  # atno 17370 bound_to 10713
  156.7122  130.4655  149.5544 LP  0  0  0  0  0  0  0  0  0  0  0  0  # atno 17371 bound_to 10713
  141.2187  133.6835  156.7257 LP  0  0  0  0  0  0  0  0  0  0  0  0  # atno 17394 bound_to 11000
  140.2715  134.8388  157.3851 LP  0  0  0  0  0  0  0  0  0  0  0  0  # atno 17395 bound_to 11000

$$$$
