#       Name:                AV-unprocessed.smi:2377
#       Creating user name   scv26
#       Creation time:       Fri Mar 27 13:07:56 2020


#       File generated by GOLD software.
#

@<TRIPOS>MOLECULE
AV-unprocessed.smi:2377
    27    27     1
SMALL
NO_CHARGES


@<TRIPOS>ATOM
      1 ****        -3.1286   0.2681   0.9668 C.3            1 S1                 0.0000
      2 ****        -1.6744   0.3521   0.9257 N.3            1 S1                 0.0000
      3 ****        -1.0209  -0.9535   0.9741 C.3            1 S1                 0.0000
      4 ****         0.5133  -0.8233   0.9670 C.3            1 S1                 0.0000
      5 ****         1.0632  -2.1134   1.1329 O.3            1 S1                 0.0000
      6 ****         1.0352  -0.1409  -0.2891 C.ar           1 S1                 0.0000
      7 ****         1.6060   1.1478  -0.2268 C.ar           1 S1                 0.0000
      8 ****         2.0699   1.7456  -1.4143 C.ar           1 S1                 0.0000
      9 ****         1.9415   1.0286  -2.6202 C.ar           1 S1                 0.0000
     10 ****         1.3954  -0.2037  -2.6952 N.ar           1 S1                 0.0000
     11 ****         0.9528  -0.7695  -1.5515 C.ar           1 S1                 0.0000
     12 ****        -3.5725   1.2621   0.9136 H              1 S1                 0.0000
     13 ****        -3.4691  -0.2015   1.8901 H              1 S1                 0.0000
     14 ****        -3.5121  -0.3139   0.1283 H              1 S1                 0.0000
     15 ****        -1.3448   0.9216   1.6984 H              1 S1                 0.0000
     16 ****        -1.3307  -1.4808   1.8775 H              1 S1                 0.0000
     17 ****        -1.3470  -1.5652   0.1318 H              1 S1                 0.0000
     18 ****         0.8207  -0.2388   1.8355 H              1 S1                 0.0000
     19 ****         1.9984  -2.0292   1.2406 H              1 S1                 0.0000
     20 ****         1.6872   1.6729   0.7135 H              1 S1                 0.0000
     21 ****         2.5120   2.7308  -1.4020 H              1 S1                 0.0000
     22 ****         2.2862   1.4573  -3.5495 H              1 S1                 0.0000
     23 ****         0.5188  -1.7539  -1.6475 H              1 S1                 0.0000
     24 ****        -1.4337   0.7681   0.0488 LP             1 S1                 0.0000
     25 ****         0.8653  -2.6707   0.3265 LP             1 S1                 0.0000
     26 ****         0.6680  -2.5469   1.9428 LP             1 S1                 0.0000
     27 ****         1.3209  -0.6825  -3.5700 LP             1 S1                 0.0000
@<TRIPOS>BOND
    1    1    2 1     
    2    1   12 1     
    3    1   13 1     
    4    1   14 1     
    5    2    3 1     
    6    2   15 1     
    7    3    4 1     
    8    3   16 1     
    9    3   17 1     
   10    4    5 1     
   11    4    6 1     
   12    4   18 1     
   13    5   19 1     
   14    6   11 ar    
   15    6    7 ar    
   16    7    8 ar    
   17    7   20 1     
   18    8    9 ar    
   19    8   21 1     
   20    9   10 ar    
   21    9   22 1     
   22   10   11 ar    
   23   11   23 1     
   24    2   24 1     
   25    5   25 1     
   26    5   26 1     
   27   10   27 1     
@<TRIPOS>SUBSTRUCTURE
      1 S1             1
@<TRIPOS>SET
LONE_PAIRS      STATIC     ATOMS    <user>   **** ""
4 24 25 26 27
DONOR_HYDROGENS      STATIC     ATOMS    <user>   **** ""
2 15 19
ATOM$BLUE        STATIC     ATOMS    COLORGROUP SYSTEM
4 24 25 26 27
ATOM$RED        STATIC     ATOMS    COLORGROUP SYSTEM
2 15 19
