AV-unprocessed.smi:2473|AV-procd|sdf|9744|dock2
  -GOLD-   2272013383D 1   1.00000     0.00000
 Structure written by MMmdl.
 48 49  0  0  0  0  0  0  0  0  2 V2000
  153.5619  142.2940  162.3505 C   0  0  0  0  0  0  0  0  0  0  0  0
  153.0625  142.8859  161.0248 C   0  0  1  0  0  0  0  0  0  0  0  0
  152.7558  141.7792  160.0015 C   0  0  0  0  0  0  0  0  0  0  0  0
  152.2596  142.3650  158.6658 C   0  0  1  0  0  0  0  0  0  0  0  0
  151.9608  141.2381  157.6685 C   0  0  0  0  0  0  0  0  0  0  0  0
  152.6182  140.1971  157.6860 O   0  0  0  0  0  0  0  0  0  0  0  0
  150.9786  141.4692  156.7845 N   0  0  0  0  0  0  0  0  0  0  0  0
  150.5851  140.5625  155.7105 C   0  0  0  0  0  0  0  0  0  0  0  0
  149.1115  140.1180  155.8101 C   0  0  0  0  0  0  0  0  0  0  0  0
  148.1947  140.8217  154.8512 C   0  0  0  0  0  0  0  0  0  0  0  0
  148.0355  142.1483  154.7726 N   0  3  0  0  0  0  0  0  0  0  0  0
  147.1390  142.4655  153.7894 C   0  0  0  0  0  0  0  0  0  0  0  0
  146.7283  141.2782  153.2431 C   0  0  0  0  0  0  0  0  0  0  0  0
  147.3903  140.2842  153.9172 N   0  0  0  0  0  0  0  0  0  0  0  0
  147.2592  138.8447  153.6822 C   0  0  0  0  0  0  0  0  0  0  0  0
  151.0178  143.2555  158.8980 C   0  0  0  0  0  0  0  0  0  0  0  0
  151.2532  144.3849  159.9319 C   0  0  0  0  0  0  0  0  0  0  0  0
  152.1987  145.4669  159.3656 C   0  0  0  0  0  0  0  0  0  0  0  0
  149.9031  145.0598  160.2444 C   0  0  0  0  0  0  0  0  0  0  0  0
  151.8223  143.7784  161.2397 C   0  0  0  0  0  0  0  0  0  0  0  0
  152.8068  141.6557  162.8104 H   0  0  0  0  0  0  0  0  0  0  0  0
  153.8106  143.0811  163.0627 H   0  0  0  0  0  0  0  0  0  0  0  0
  154.4587  141.6925  162.1993 H   0  0  0  0  0  0  0  0  0  0  0  0
  153.8696  143.5014  160.6274 H   0  0  0  0  0  0  0  0  0  0  0  0
  153.6527  141.1811  159.8324 H   0  0  0  0  0  0  0  0  0  0  0  0
  152.0064  141.1008  160.4135 H   0  0  0  0  0  0  0  0  0  0  0  0
  153.0554  142.9795  158.2436 H   0  0  0  0  0  0  0  0  0  0  0  0
  150.4827  142.3466  156.8482 H   0  0  0  0  0  0  0  0  0  0  0  0
  150.7813  141.0186  154.7389 H   0  0  0  0  0  0  0  0  0  0  0  0
  151.2322  139.6873  155.7756 H   0  0  0  0  0  0  0  0  0  0  0  0
  149.0240  139.0458  155.6384 H   0  0  0  0  0  0  0  0  0  0  0  0
  148.7243  140.3072  156.8116 H   0  0  0  0  0  0  0  0  0  0  0  0
  146.8669  143.4852  153.5588 H   0  0  0  0  0  0  0  0  0  0  0  0
  146.0287  141.0724  152.4458 H   0  0  0  0  0  0  0  0  0  0  0  0
  146.6007  138.6716  152.8307 H   0  0  0  0  0  0  0  0  0  0  0  0
  146.8350  138.3725  154.5685 H   0  0  0  0  0  0  0  0  0  0  0  0
  148.2380  138.4175  153.4683 H   0  0  0  0  0  0  0  0  0  0  0  0
  150.6879  143.6852  157.9508 H   0  0  0  0  0  0  0  0  0  0  0  0
  150.1926  142.6308  159.2446 H   0  0  0  0  0  0  0  0  0  0  0  0
  152.3429  146.2770  160.0813 H   0  0  0  0  0  0  0  0  0  0  0  0
  151.7916  145.9072  158.4545 H   0  0  0  0  0  0  0  0  0  0  0  0
  153.1859  145.0782  159.1204 H   0  0  0  0  0  0  0  0  0  0  0  0
  150.0191  145.8632  160.9728 H   0  0  0  0  0  0  0  0  0  0  0  0
  149.1851  144.3489  160.6549 H   0  0  0  0  0  0  0  0  0  0  0  0
  149.4578  145.4917  159.3476 H   0  0  0  0  0  0  0  0  0  0  0  0
  151.0479  143.1801  161.7224 H   0  0  0  0  0  0  0  0  0  0  0  0
  152.0619  144.5772  161.9431 H   0  0  0  0  0  0  0  0  0  0  0  0
  148.5137  142.8204  155.3594 H   0  0  0  0  0  0  0  0  0  0  0  0
  1  2  1  0  0  0  0
  1 21  1  0  0  0  0
  1 22  1  0  0  0  0
  1 23  1  0  0  0  0
  2 20  1  0  0  0  0
  2  3  1  0  0  0  0
  2 24  1  0  0  0  0
  3  4  1  0  0  0  0
  3 25  1  0  0  0  0
  3 26  1  0  0  0  0
  4  5  1  0  0  0  0
  4 16  1  0  0  0  0
  4 27  1  0  0  0  0
  5  6  2  0  0  0  0
  5  7  1  0  0  0  0
  7  8  1  0  0  0  0
  7 28  1  0  0  0  0
  8  9  1  0  0  0  0
  8 29  1  0  0  0  0
  8 30  1  0  0  0  0
  9 10  1  0  0  0  0
  9 31  1  0  0  0  0
  9 32  1  0  0  0  0
 10 14  1  0  0  0  0
 10 11  2  0  0  0  0
 11 12  1  0  0  0  0
 11 48  1  0  0  0  0
 12 13  2  0  0  0  0
 12 33  1  0  0  0  0
 13 14  1  0  0  0  0
 13 34  1  0  0  0  0
 14 15  1  0  0  0  0
 15 35  1  0  0  0  0
 15 36  1  0  0  0  0
 15 37  1  0  0  0  0
 16 17  1  0  0  0  0
 16 38  1  0  0  0  0
 16 39  1  0  0  0  0
 17 18  1  0  0  0  0
 17 19  1  0  0  0  0
 17 20  1  0  0  0  0
 18 40  1  0  0  0  0
 18 41  1  0  0  0  0
 18 42  1  0  0  0  0
 19 43  1  0  0  0  0
 19 44  1  0  0  0  0
 19 45  1  0  0  0  0
 20 46  1  0  0  0  0
 20 47  1  0  0  0  0
M  CHG  1  11   1
M  END
> <s_m_source_file>
AV-unprocessed.smi

> <i_m_source_file_index>
2473

> <i_lp_mmshare_version>
43012

> <i_f3d_flags>
0

> <s_epik_input>
W0NIM11bQ0BASF0oW0NIMl0xKVtDSDJdW0NASF0oW0NIMl1DMShbQ0gzXSlbQ0gzXSlDKD1PKVtOSF1bQ0gyXVtDSDJdYzJuW2NIXVtjSF1uMltDSDNd

> <s_epik_cmdline>
J2VwaWtfcHl0aG9uJywgJy1waCcsICc3LjAnLCAnLXRuJywgJzgnLCAnLW1hJywgJzIwMCcsICctbWV0YWxfYmluZGluZycsICctaW1hZScsICc8aW5maWxlLm1hZT4nLCAnLW9tYWUnLCAnPG91dGZpbGUubWFlPic=

> <r_lp_tautomer_probability>
1

> <r_epik_Ionization_Penalty>
0.0796112

> <r_epik_Ionization_Penalty_Charging>
0

> <r_epik_Ionization_Penalty_Neutral>
0.0796112

> <r_epik_State_Penalty>
0.0704541

> <r_epik_Charging_Adjusted_Penalty>
0.0704541

> <i_epik_Tot_Q>
1

> <i_epik_Tot_abs_Q>
1

> <r_epik_Metal_State_Penalty>
0.409899

> <b_epik_Metal_Only>
0

> <s_lp_Force_Field>
OPLS_2005

> <r_lp_Energy>
16.0975

> <b_lp_Chiralities_Consistent>
1

> <s_lp_Variant>
AV-unprocessed.smi:2473-2

> <Gold.Version>
5.8.1

> <Gold.Id.Protein>
6NUR|6NUR_protein|mol2

> <Gold.PLP.Fitness>
52.9721

> <Gold.PLP.PLP>
-44.2874

> <Gold.PLP.part.hbond>
-2.0000

> <Gold.PLP.part.metal>
0.0000

> <Gold.PLP.part.buried>
-8.0187

> <Gold.PLP.part.nonpolar>
-33.7303

> <Gold.PLP.part.repulsive>
0.2429

> <Gold.PLP.ligand.clash>
0.0000

> <Gold.PLP.ligand.torsion>
1.0356

> <Gold.PLP.Chemscore.Hbond>
2.7446

> <Gold.PLP.Chemscore.CHOScore>
0.8307

> <Gold.PLP.Chemscore.Metal>
0.0000

> <Gold.Chemscore.Hbonds>
donor molecule, donor type, donor heavy atom, donor atom, acceptor molecule, acceptor atom, score
      L1  H    11    48       P1  8028  1.76
      P1  H  7997  8008       L1     6  0.97
      L1  C    13    34       P1 10175  0.66

> <Gold.PLP.Chemscore.Internal.Correction>
0.0299

> <Gold.Rescore>
     Score         DG    S(hbond)    S(metal)    S(lipo)     H(rot)  DE(clash)    DE(int)     intcor
     20.34     -21.39       1.58        0.00     125.48       1.58       0.04       1.00       ----

> <Gold.Chemscore.Fitness>
20.3438

> <Gold.Chemscore.DG>
-21.3910

> <Gold.Chemscore.ZeroCoef>
-5.4800

> <Gold.Chemscore.Hbond>
1.5805

> <Gold.Chemscore.Metal>
0.0000

> <Gold.Chemscore.Lipo>
125.4840

> <Gold.Chemscore.Internal_Hbond>
0.0000

> <Gold.Chemscore.DEClash>
0.0444

> <Gold.Chemscore.DEInternal>
1.0028

> <Gold.Chemscore.Rot>
1.5818

> <Gold.Chemscore.Internal.Correction>
   9.000000E+99

> <Gold.Chemscore.Hbonds>
donor molecule, donor type, donor heavy atom, donor atom, acceptor molecule, acceptor atom, score
      L1  H    11    48       P1  8028  0.86
      P1  H  7997  8008       L1     6  0.85

> <Gold.Chemscore.Hbond.Weighted>
-5.2788

> <Gold.Chemscore.Metal.Weighted>
-0.0000

> <Gold.Chemscore.Lipo.Weighted>
-14.6816

> <Gold.Chemscore.Internal_Hbond.Weighted>
0.0000

> <Gold.Chemscore.DEClash.Weighted>
0.0444

> <Gold.Chemscore.DEInternal.Weighted>
1.0028

> <Gold.Chemscore.Rot.Weighted>
4.0495

> <Gold.Chemscore.Internal.Correction.Weighted>
   9.000000E+99

> <Gold.Protein.RotatedTorsions>
[ 6907 6896 6895 6894 ] final  120.15 input  -60.11 | X-H torsion
[ 7974 7965 7964 7962 ] final   52.32 input  175.53 | X-H torsion
[ 8008 7997 7996 7995 ] final  -77.17 input   59.86 | X-H torsion
[ 10167 10162 10161 10158 ] final  169.10 input  -65.29 | X-H torsion
[ 10718 10713 10712 10709 ] final  132.10 input   66.30 | X-H torsion
[ 10763 10752 10751 10750 ] final  -35.40 input  -60.55 | X-H torsion
[ 11005 11000 10999 10996 ] final   57.15 input  -57.11 | X-H torsion

> <Gold.Protein.ActiveResidues>
 VAL166  LYS551  ARG553  GLY616  TRP617  ASP618  TYR619  PRO620  LYS621  CYS622 
 ASP623  PHE694  ASN695  SER759  ASP760  ASP761  ALA762  ILE779  LEU786  VAL792 
 PHE793  MET794  SER795  GLU796  ALA797  LYS798  CYS799  TRP800  GLU811  SER814 

> <Gold.Protein.RotatedAtoms>
  152.4419  133.7465  159.6669 H   0  0  0  0  0  0  0  0  0  0  0  0  # atno 6907 bound_to 6896
  150.8312  133.8078  159.3104 H   0  0  0  0  0  0  0  0  0  0  0  0  # atno 6908 bound_to 6896
  151.5731  135.1064  160.0051 H   0  0  0  0  0  0  0  0  0  0  0  0  # atno 6909 bound_to 6896
  145.9825  139.4257  143.0123 H   0  0  0  0  0  0  0  0  0  0  0  0  # atno 7974 bound_to 7965
  154.5571  140.0715  156.8761 H   0  0  0  0  0  0  0  0  0  0  0  0  # atno 8008 bound_to 7997
  155.2881  140.3376  155.4236 H   0  0  0  0  0  0  0  0  0  0  0  0  # atno 8009 bound_to 7997
  156.2011  140.1722  156.7882 H   0  0  0  0  0  0  0  0  0  0  0  0  # atno 8010 bound_to 7997
  139.4984  144.3743  151.9691 H   0  0  0  0  0  0  0  0  0  0  0  0  # atno 10167 bound_to 10162
  157.4903  131.1090  150.9565 H   0  0  0  0  0  0  0  0  0  0  0  0  # atno 10718 bound_to 10713
  153.8625  135.6838  153.4781 H   0  0  0  0  0  0  0  0  0  0  0  0  # atno 10763 bound_to 10752
  153.1333  135.4688  154.9381 H   0  0  0  0  0  0  0  0  0  0  0  0  # atno 10764 bound_to 10752
  154.7752  135.3251  154.8057 H   0  0  0  0  0  0  0  0  0  0  0  0  # atno 10765 bound_to 10752
  140.0474  134.5785  155.9305 H   0  0  0  0  0  0  0  0  0  0  0  0  # atno 11005 bound_to 11000
  145.7748  140.9881  143.1130 LP  0  0  0  0  0  0  0  0  0  0  0  0  # atno 17320 bound_to 7965
  144.6865  139.9492  143.7477 LP  0  0  0  0  0  0  0  0  0  0  0  0  # atno 17321 bound_to 7965
  140.3179  144.3462  150.6017 LP  0  0  0  0  0  0  0  0  0  0  0  0  # atno 17342 bound_to 10162
  140.5746  143.2177  151.7538 LP  0  0  0  0  0  0  0  0  0  0  0  0  # atno 17343 bound_to 10162
  157.0268  130.5696  149.5338 LP  0  0  0  0  0  0  0  0  0  0  0  0  # atno 17370 bound_to 10713
  156.0170  130.5264  150.8163 LP  0  0  0  0  0  0  0  0  0  0  0  0  # atno 17371 bound_to 10713
  141.1914  133.6571  156.5454 LP  0  0  0  0  0  0  0  0  0  0  0  0  # atno 17394 bound_to 11000
  140.3971  134.7389  157.4757 LP  0  0  0  0  0  0  0  0  0  0  0  0  # atno 17395 bound_to 11000

$$$$
