AV-unprocessed.smi:3310|AV-procd|sdf|12717|dock2
  -GOLD-   2272019 53D 1   1.00000     0.00000
 Structure written by MMmdl.
 45 46  0  0  0  0  0  0  0  0  2 V2000
  145.8415  141.7410  154.8215 C   0  0  0  0  0  0  0  0  0  0  0  0
  146.9613  142.0262  153.8150 C   0  0  0  0  0  0  0  0  0  0  0  0
  148.2160  141.2681  154.1201 C   0  0  0  0  0  0  0  0  0  0  0  0
  149.3724  141.8604  154.4414 N   0  0  0  0  0  0  0  0  0  0  0  0
  150.2783  140.8354  154.6252 N   0  0  0  0  0  0  0  0  0  0  0  0
  149.5813  139.7259  154.3877 C   0  0  0  0  0  0  0  0  0  0  0  0
  148.2934  139.9215  154.0653 N   0  0  0  0  0  0  0  0  0  0  0  0
  147.2854  138.9258  153.7509 C   0  0  0  0  0  0  0  0  0  0  0  0
  146.9095  138.9565  152.2633 C   0  0  0  0  0  0  0  0  0  0  0  0
  145.5687  138.3814  152.0434 N   0  3  0  0  0  0  0  0  0  0  0  0
  145.3108  137.1482  152.8137 C   0  0  0  0  0  0  0  0  0  0  0  0
  145.7524  135.8914  152.0413 C   0  0  2  0  0  0  0  0  0  0  0  0
  144.6539  135.4345  151.0608 C   0  0  0  0  0  0  0  0  0  0  0  0
  145.0704  134.1759  150.2823 C   0  0  0  0  0  0  0  0  0  0  0  0
  145.4423  133.0211  151.2303 C   0  0  1  0  0  0  0  0  0  0  0  0
  145.8620  131.7658  150.4522 C   0  0  0  0  0  0  0  0  0  0  0  0
  146.5406  133.4714  152.2109 C   0  0  0  0  0  0  0  0  0  0  0  0
  146.1234  134.7302  152.9887 C   0  0  0  0  0  0  0  0  0  0  0  0
  144.9385  142.2955  154.5659 H   0  0  0  0  0  0  0  0  0  0  0  0
  146.1353  142.0292  155.8310 H   0  0  0  0  0  0  0  0  0  0  0  0
  145.5874  140.6807  154.8365 H   0  0  0  0  0  0  0  0  0  0  0  0
  146.6278  141.7534  152.8130 H   0  0  0  0  0  0  0  0  0  0  0  0
  147.1743  143.0946  153.7823 H   0  0  0  0  0  0  0  0  0  0  0  0
  150.0236  138.7423  154.4498 H   0  0  0  0  0  0  0  0  0  0  0  0
  147.6561  137.9413  154.0382 H   0  0  0  0  0  0  0  0  0  0  0  0
  146.4070  139.1214  154.3674 H   0  0  0  0  0  0  0  0  0  0  0  0
  146.9214  139.9844  151.8976 H   0  0  0  0  0  0  0  0  0  0  0  0
  147.6405  138.3978  151.6775 H   0  0  0  0  0  0  0  0  0  0  0  0
  144.8748  139.0702  152.2970 H   0  0  0  0  0  0  0  0  0  0  0  0
  145.8251  137.1998  153.7745 H   0  0  0  0  0  0  0  0  0  0  0  0
  144.2421  137.0964  153.0276 H   0  0  0  0  0  0  0  0  0  0  0  0
  146.6343  136.1484  151.4519 H   0  0  0  0  0  0  0  0  0  0  0  0
  143.7307  135.2333  151.6067 H   0  0  0  0  0  0  0  0  0  0  0  0
  144.4252  136.2351  150.3563 H   0  0  0  0  0  0  0  0  0  0  0  0
  144.2571  133.8694  149.6236 H   0  0  0  0  0  0  0  0  0  0  0  0
  145.9174  134.4116  149.6363 H   0  0  0  0  0  0  0  0  0  0  0  0
  144.5559  132.7644  151.8123 H   0  0  0  0  0  0  0  0  0  0  0  0
  146.7434  131.9548  149.8386 H   0  0  0  0  0  0  0  0  0  0  0  0
  145.0630  131.4278  149.7918 H   0  0  0  0  0  0  0  0  0  0  0  0
  146.0977  130.9445  151.1295 H   0  0  0  0  0  0  0  0  0  0  0  0
  146.7653  132.6676  152.9128 H   0  0  0  0  0  0  0  0  0  0  0  0
  147.4642  133.6706  151.6655 H   0  0  0  0  0  0  0  0  0  0  0  0
  146.9375  135.0257  153.6508 H   0  0  0  0  0  0  0  0  0  0  0  0
  145.2752  134.4928  153.6323 H   0  0  0  0  0  0  0  0  0  0  0  0
  145.4692  138.1692  151.0609 H   0  0  0  0  0  0  0  0  0  0  0  0
  1  2  1  0  0  0  0
  1 19  1  0  0  0  0
  1 20  1  0  0  0  0
  1 21  1  0  0  0  0
  2  3  1  0  0  0  0
  2 22  1  0  0  0  0
  2 23  1  0  0  0  0
  3  7  1  0  0  0  0
  3  4  2  0  0  0  0
  4  5  1  0  0  0  0
  5  6  2  0  0  0  0
  6  7  1  0  0  0  0
  6 24  1  0  0  0  0
  7  8  1  0  0  0  0
  8  9  1  0  0  0  0
  8 25  1  0  0  0  0
  8 26  1  0  0  0  0
  9 10  1  0  0  0  0
  9 27  1  0  0  0  0
  9 28  1  0  0  0  0
 10 11  1  0  0  0  0
 10 29  1  0  0  0  0
 10 45  1  0  0  0  0
 11 12  1  0  0  0  0
 11 30  1  0  0  0  0
 11 31  1  0  0  0  0
 12 18  1  0  0  0  0
 12 13  1  0  0  0  0
 12 32  1  0  0  0  0
 13 14  1  0  0  0  0
 13 33  1  0  0  0  0
 13 34  1  0  0  0  0
 14 15  1  0  0  0  0
 14 35  1  0  0  0  0
 14 36  1  0  0  0  0
 15 16  1  0  0  0  0
 15 17  1  0  0  0  0
 15 37  1  0  0  0  0
 16 38  1  0  0  0  0
 16 39  1  0  0  0  0
 16 40  1  0  0  0  0
 17 18  1  0  0  0  0
 17 41  1  0  0  0  0
 17 42  1  0  0  0  0
 18 43  1  0  0  0  0
 18 44  1  0  0  0  0
M  CHG  1  10   1
M  END
> <s_m_source_file>
AV-unprocessed.smi

> <i_m_source_file_index>
3310

> <i_lp_mmshare_version>
43012

> <i_f3d_flags>
0

> <s_epik_input>
W0NIM11bQ0gyXWMxbm5bY0hdbjFbQ0gyXVtDSDJdW05IXVtDSDJdW0NAQEhdMltDSDJdW0NIMl1bQ0BASF0oW0NIM10pW0NIMl1bQ0gyXTI=

> <s_epik_cmdline>
J2VwaWtfcHl0aG9uJywgJy1waCcsICc3LjAnLCAnLXRuJywgJzgnLCAnLW1hJywgJzIwMCcsICctbWV0YWxfYmluZGluZycsICctaW1hZScsICc8aW5maWxlLm1hZT4nLCAnLW9tYWUnLCAnPG91dGZpbGUubWFlPic=

> <r_lp_tautomer_probability>
1

> <r_epik_Ionization_Penalty>
0.00127868

> <r_epik_Ionization_Penalty_Charging>
0.00126792

> <r_epik_Ionization_Penalty_Neutral>
1.07546e-05

> <r_epik_State_Penalty>
-0

> <r_epik_Charging_Adjusted_Penalty>
0.00126792

> <i_epik_Tot_Q>
1

> <i_epik_Tot_abs_Q>
1

> <r_epik_Metal_State_Penalty>
-0

> <b_epik_Metal_Only>
0

> <s_lp_Force_Field>
OPLS_2005

> <r_lp_Energy>
15.677

> <b_lp_Chiralities_Consistent>
1

> <s_lp_Variant>
AV-unprocessed.smi:3310-1

> <Gold.Version>
5.8.1

> <Gold.Id.Protein>
6NUR|6NUR_protein|mol2

> <Gold.PLP.Fitness>
48.2809

> <Gold.PLP.PLP>
-37.7119

> <Gold.PLP.part.hbond>
-5.0000

> <Gold.PLP.part.metal>
0.0000

> <Gold.PLP.part.buried>
-2.4694

> <Gold.PLP.part.nonpolar>
-30.1113

> <Gold.PLP.part.repulsive>
0.3275

> <Gold.PLP.ligand.clash>
0.0000

> <Gold.PLP.ligand.torsion>
0.7783

> <Gold.PLP.Chemscore.Hbond>
4.0022

> <Gold.PLP.Chemscore.CHOScore>
0.0000

> <Gold.PLP.Chemscore.Metal>
0.0000

> <Gold.Chemscore.Hbonds>
donor molecule, donor type, donor heavy atom, donor atom, acceptor molecule, acceptor atom, score
      L1  H    10    29       P1 10175  2.00
      L1  H    10    45       P1 10171  0.52
      P1  H  7989  7998       L1     5  0.77
      P1  H  8011  8017       L1     4  0.15

> <Gold.PLP.Chemscore.Internal.Correction>
0.1192

> <Gold.Rescore>
     Score         DG    S(hbond)    S(metal)    S(lipo)     H(rot)  DE(clash)    DE(int)     intcor
     15.36     -16.32       2.40        0.00      68.67       2.03       0.24       0.73       ----

> <Gold.Chemscore.Fitness>
15.3580

> <Gold.Chemscore.DG>
-16.3239

> <Gold.Chemscore.ZeroCoef>
-5.4800

> <Gold.Chemscore.Hbond>
2.3969

> <Gold.Chemscore.Metal>
0.0000

> <Gold.Chemscore.Lipo>
68.6653

> <Gold.Chemscore.Internal_Hbond>
0.0000

> <Gold.Chemscore.DEClash>
0.2359

> <Gold.Chemscore.DEInternal>
0.7299

> <Gold.Chemscore.Rot>
2.0295

> <Gold.Chemscore.Internal.Correction>
   9.000000E+99

> <Gold.Chemscore.Hbonds>
donor molecule, donor type, donor heavy atom, donor atom, acceptor molecule, acceptor atom, score
      L1  H    10    29       P1 10175  1.00
      L1  H    10    45       P1 10171  0.51
      P1  H  7989  7998       L1     5  0.42

> <Gold.Chemscore.Hbond.Weighted>
-8.0056

> <Gold.Chemscore.Metal.Weighted>
-0.0000

> <Gold.Chemscore.Lipo.Weighted>
-8.0338

> <Gold.Chemscore.Internal_Hbond.Weighted>
0.0000

> <Gold.Chemscore.DEClash.Weighted>
0.2359

> <Gold.Chemscore.DEInternal.Weighted>
0.7299

> <Gold.Chemscore.Rot.Weighted>
5.1956

> <Gold.Chemscore.Internal.Correction.Weighted>
   9.000000E+99

> <Gold.Protein.RotatedTorsions>
[ 6907 6896 6895 6894 ] final  -88.72 input  -60.11 | X-H torsion
[ 7974 7965 7964 7962 ] final    4.19 input  175.53 | X-H torsion
[ 8008 7997 7996 7995 ] final  -50.18 input   59.86 | X-H torsion
[ 10167 10162 10161 10158 ] final -146.12 input  -65.29 | X-H torsion
[ 10718 10713 10712 10709 ] final   39.97 input   66.30 | X-H torsion
[ 10763 10752 10751 10750 ] final   60.53 input  -60.55 | X-H torsion
[ 11005 11000 10999 10996 ] final   50.30 input  -57.11 | X-H torsion

> <Gold.Protein.ActiveResidues>
 VAL166  LYS551  ARG553  GLY616  TRP617  ASP618  TYR619  PRO620  LYS621  CYS622 
 ASP623  PHE694  ASN695  SER759  ASP760  ASP761  ALA762  ILE779  LEU786  VAL792 
 PHE793  MET794  SER795  GLU796  ALA797  LYS798  CYS799  TRP800  GLU811  SER814 

> <Gold.Protein.RotatedAtoms>
  150.6870  134.2698  159.4583 H   0  0  0  0  0  0  0  0  0  0  0  0  # atno 6907 bound_to 6896
  152.0621  134.9585  160.0584 H   0  0  0  0  0  0  0  0  0  0  0  0  # atno 6908 bound_to 6896
  152.1008  133.4214  159.4623 H   0  0  0  0  0  0  0  0  0  0  0  0  # atno 6909 bound_to 6896
  146.2444  140.0572  142.8371 H   0  0  0  0  0  0  0  0  0  0  0  0  # atno 7974 bound_to 7965
  154.4057  140.1278  156.4624 H   0  0  0  0  0  0  0  0  0  0  0  0  # atno 8008 bound_to 7997
  155.7260  140.3492  155.5018 H   0  0  0  0  0  0  0  0  0  0  0  0  # atno 8009 bound_to 7997
  155.9171  140.1046  157.1225 H   0  0  0  0  0  0  0  0  0  0  0  0  # atno 8010 bound_to 7997
  139.7743  143.8193  152.2629 H   0  0  0  0  0  0  0  0  0  0  0  0  # atno 10167 bound_to 10162
  157.3767  130.7731  149.7161 H   0  0  0  0  0  0  0  0  0  0  0  0  # atno 10718 bound_to 10713
  152.9924  135.5533  154.5889 H   0  0  0  0  0  0  0  0  0  0  0  0  # atno 10763 bound_to 10752
  154.5255  135.2810  155.1228 H   0  0  0  0  0  0  0  0  0  0  0  0  # atno 10764 bound_to 10752
  154.2564  135.6389  153.5311 H   0  0  0  0  0  0  0  0  0  0  0  0  # atno 10765 bound_to 10752
  140.1029  134.5057  155.8746 H   0  0  0  0  0  0  0  0  0  0  0  0  # atno 11005 bound_to 11000
  145.0932  140.9298  143.4757 LP  0  0  0  0  0  0  0  0  0  0  0  0  # atno 17320 bound_to 7965
  145.0749  139.3003  143.5813 LP  0  0  0  0  0  0  0  0  0  0  0  0  # atno 17321 bound_to 7965
  139.8236  144.7285  150.9540 LP  0  0  0  0  0  0  0  0  0  0  0  0  # atno 17342 bound_to 10162
  140.7815  143.4135  151.0954 LP  0  0  0  0  0  0  0  0  0  0  0  0  # atno 17343 bound_to 10162
  155.9767  130.4072  150.3763 LP  0  0  0  0  0  0  0  0  0  0  0  0  # atno 17370 bound_to 10713
  157.1861  131.0404  151.2724 LP  0  0  0  0  0  0  0  0  0  0  0  0  # atno 17371 bound_to 10713
  141.2110  133.6702  156.6554 LP  0  0  0  0  0  0  0  0  0  0  0  0  # atno 17394 bound_to 11000
  140.3195  134.8019  157.4241 LP  0  0  0  0  0  0  0  0  0  0  0  0  # atno 17395 bound_to 11000

$$$$
