AV-unprocessed.smi:2457|AV-procd|sdf|9706|dock8
  -GOLD-   2272013343D 1   1.00000     0.00000
 Structure written by MMmdl.
 40 41  0  0  0  0  0  0  0  0  1 V2000
  147.6404  137.3195  163.7310 C   0  0  0  0  0  0  0  0  0  0  0  0
  147.7354  136.4345  162.5285 C   0  0  0  0  0  0  0  0  0  0  0  0
  147.4586  135.0917  162.4666 C   0  0  0  0  0  0  0  0  0  0  0  0
  147.7053  134.4509  160.8656 S   0  0  0  0  0  0  0  0  0  0  0  0
  148.1864  136.0575  160.3294 C   0  0  0  0  0  0  0  0  0  0  0  0
  148.5765  136.3660  158.9155 C   0  0  2  0  0  0  0  0  0  0  0  0
  148.3746  135.1632  157.9831 C   0  0  0  0  0  0  0  0  0  0  0  0
  149.9847  136.9913  158.7954 C   0  0  0  0  0  0  0  0  0  0  0  0
  149.9504  138.4310  158.5514 N   0  0  0  0  0  0  0  0  0  0  0  0
  150.9915  139.2603  158.7030 C   0  0  0  0  0  0  0  0  0  0  0  0
  152.0990  138.9092  159.1098 O   0  0  0  0  0  0  0  0  0  0  0  0
  150.6870  140.5122  158.3352 N   0  0  0  0  0  0  0  0  0  0  0  0
  151.6189  141.6359  158.3267 C   0  0  1  0  0  0  0  0  0  0  0  0
  150.9379  142.8849  157.7289 C   0  0  0  0  0  0  0  0  0  0  0  0
  151.8889  144.0892  157.6398 C   0  0  0  0  0  0  0  0  0  0  0  0
  152.4127  144.5234  159.0159 C   0  0  0  0  0  0  0  0  0  0  0  0
  153.3752  143.2011  159.7992 S   0  0  0  0  0  0  0  0  0  0  0  0
  152.1224  141.8895  159.7579 C   0  0  0  0  0  0  0  0  0  0  0  0
  148.1429  136.9710  161.3042 N   0  0  0  0  0  0  0  0  0  0  0  0
  147.3484  136.7573  164.6184 H   0  0  0  0  0  0  0  0  0  0  0  0
  146.9020  138.1075  163.5820 H   0  0  0  0  0  0  0  0  0  0  0  0
  148.5969  137.7974  163.9447 H   0  0  0  0  0  0  0  0  0  0  0  0
  147.1266  134.4419  163.2627 H   0  0  0  0  0  0  0  0  0  0  0  0
  147.8710  137.1235  158.5721 H   0  0  0  0  0  0  0  0  0  0  0  0
  147.3438  134.8095  158.0172 H   0  0  0  0  0  0  0  0  0  0  0  0
  149.0225  134.3318  158.2622 H   0  0  0  0  0  0  0  0  0  0  0  0
  148.5993  135.4267  156.9494 H   0  0  0  0  0  0  0  0  0  0  0  0
  150.5316  136.8359  159.7258 H   0  0  0  0  0  0  0  0  0  0  0  0
  150.5601  136.4940  158.0128 H   0  0  0  0  0  0  0  0  0  0  0  0
  149.0811  138.8138  158.2095 H   0  0  0  0  0  0  0  0  0  0  0  0
  149.7483  140.6984  158.0140 H   0  0  0  0  0  0  0  0  0  0  0  0
  152.4797  141.3717  157.7091 H   0  0  0  0  0  0  0  0  0  0  0  0
  150.5664  142.6582  156.7287 H   0  0  0  0  0  0  0  0  0  0  0  0
  150.0634  143.1522  158.3237 H   0  0  0  0  0  0  0  0  0  0  0  0
  152.7274  143.8501  156.9846 H   0  0  0  0  0  0  0  0  0  0  0  0
  151.3664  144.9254  157.1742 H   0  0  0  0  0  0  0  0  0  0  0  0
  153.0465  145.4049  158.9170 H   0  0  0  0  0  0  0  0  0  0  0  0
  151.5841  144.7966  159.6701 H   0  0  0  0  0  0  0  0  0  0  0  0
  151.2960  142.1696  160.4124 H   0  0  0  0  0  0  0  0  0  0  0  0
  152.5649  140.9825  160.1713 H   0  0  0  0  0  0  0  0  0  0  0  0
  1  2  1  0  0  0  0
  1 20  1  0  0  0  0
  1 21  1  0  0  0  0
  1 22  1  0  0  0  0
  2 19  1  0  0  0  0
  2  3  2  0  0  0  0
  3  4  1  0  0  0  0
  3 23  1  0  0  0  0
  4  5  1  0  0  0  0
  5  6  1  0  0  0  0
  5 19  2  0  0  0  0
  6  7  1  0  0  0  0
  6  8  1  0  0  0  0
  6 24  1  0  0  0  0
  7 25  1  0  0  0  0
  7 26  1  0  0  0  0
  7 27  1  0  0  0  0
  8  9  1  0  0  0  0
  8 28  1  0  0  0  0
  8 29  1  0  0  0  0
  9 10  1  0  0  0  0
  9 30  1  0  0  0  0
 10 11  2  0  0  0  0
 10 12  1  0  0  0  0
 12 13  1  0  0  0  0
 12 31  1  0  0  0  0
 13 18  1  0  0  0  0
 13 14  1  0  0  0  0
 13 32  1  0  0  0  0
 14 15  1  0  0  0  0
 14 33  1  0  0  0  0
 14 34  1  0  0  0  0
 15 16  1  0  0  0  0
 15 35  1  0  0  0  0
 15 36  1  0  0  0  0
 16 17  1  0  0  0  0
 16 37  1  0  0  0  0
 16 38  1  0  0  0  0
 17 18  1  0  0  0  0
 18 39  1  0  0  0  0
 18 40  1  0  0  0  0
M  END
> <s_m_source_file>
AV-unprocessed.smi

> <i_m_source_file_index>
2457

> <i_lp_mmshare_version>
43012

> <i_f3d_flags>
0

> <s_epik_input>
W0NIM11jMVtjSF1zYyhuMSlbQ0BIXShbQ0gzXSlbQ0gyXVtOSF1DKD1PKVtOSF1bQ0BASF0yW0NIMl1bQ0gyXVtDSDJdU1tDSDJdMg==

> <s_epik_cmdline>
J2VwaWtfcHl0aG9uJywgJy1waCcsICc3LjAnLCAnLXRuJywgJzgnLCAnLW1hJywgJzIwMCcsICctbWV0YWxfYmluZGluZycsICctaW1hZScsICc8aW5maWxlLm1hZT4nLCAnLW9tYWUnLCAnPG91dGZpbGUubWFlPic=

> <r_epik_Ionization_Penalty>
0.00154805

> <r_epik_Ionization_Penalty_Charging>
0

> <r_epik_Ionization_Penalty_Neutral>
0.00154805

> <r_epik_State_Penalty>
0.00100357

> <r_epik_Charging_Adjusted_Penalty>
0.00100357

> <i_epik_Tot_Q>
0

> <i_epik_Tot_abs_Q>
0

> <r_epik_Metal_State_Penalty>
-0

> <b_epik_Metal_Only>
0

> <s_lp_Force_Field>
OPLS_2005

> <r_lp_Energy>
-7.39809

> <b_lp_Chiralities_Consistent>
1

> <s_lp_Variant>
AV-unprocessed.smi:2457-3

> <Gold.Version>
5.8.1

> <Gold.Id.Protein>
6NUR|6NUR_protein|mol2

> <Gold.PLP.Fitness>
42.9768

> <Gold.PLP.PLP>
-41.0192

> <Gold.PLP.part.hbond>
-1.8745

> <Gold.PLP.part.metal>
0.0000

> <Gold.PLP.part.buried>
-4.1982

> <Gold.PLP.part.nonpolar>
-36.2104

> <Gold.PLP.part.repulsive>
0.3269

> <Gold.PLP.ligand.clash>
0.0000

> <Gold.PLP.ligand.torsion>
0.8344

> <Gold.PLP.Chemscore.Hbond>
1.1683

> <Gold.PLP.Chemscore.CHOScore>
0.0000

> <Gold.PLP.Chemscore.Metal>
0.0000

> <Gold.Chemscore.Hbonds>
donor molecule, donor type, donor heavy atom, donor atom, acceptor molecule, acceptor atom, score
      P1  H  6931  6943       L1    19  0.90
      P1  H  6934  6947       L1    19  0.24

> <Gold.PLP.Chemscore.Internal.Correction>
0.1214

> <Gold.Rescore>
     Score         DG    S(hbond)    S(metal)    S(lipo)     H(rot)  DE(clash)    DE(int)     intcor
     16.33     -18.58       0.76        0.00     122.25       1.46       0.78       1.47       ----

> <Gold.Chemscore.Fitness>
16.3325

> <Gold.Chemscore.DG>
-18.5820

> <Gold.Chemscore.ZeroCoef>
-5.4800

> <Gold.Chemscore.Hbond>
0.7607

> <Gold.Chemscore.Metal>
0.0000

> <Gold.Chemscore.Lipo>
122.2472

> <Gold.Chemscore.Internal_Hbond>
0.0000

> <Gold.Chemscore.DEClash>
0.7826

> <Gold.Chemscore.DEInternal>
1.4668

> <Gold.Chemscore.Rot>
1.4616

> <Gold.Chemscore.Internal.Correction>
   9.000000E+99

> <Gold.Chemscore.Hbonds>
donor molecule, donor type, donor heavy atom, donor atom, acceptor molecule, acceptor atom, score
      P1  H  6931  6943       L1    19  0.18
      P1  H  6934  6947       L1    19  0.18

> <Gold.Chemscore.Hbond.Weighted>
-2.5406

> <Gold.Chemscore.Metal.Weighted>
-0.0000

> <Gold.Chemscore.Lipo.Weighted>
-14.3029

> <Gold.Chemscore.Internal_Hbond.Weighted>
0.0000

> <Gold.Chemscore.DEClash.Weighted>
0.7826

> <Gold.Chemscore.DEInternal.Weighted>
1.4668

> <Gold.Chemscore.Rot.Weighted>
3.7416

> <Gold.Chemscore.Internal.Correction.Weighted>
   9.000000E+99

> <Gold.Protein.RotatedTorsions>
[ 6907 6896 6895 6894 ] final   80.42 input  -60.11 | X-H torsion
[ 7974 7965 7964 7962 ] final  -48.85 input  175.53 | X-H torsion
[ 8008 7997 7996 7995 ] final  103.75 input   59.86 | X-H torsion
[ 10167 10162 10161 10158 ] final  -32.00 input  -65.29 | X-H torsion
[ 10718 10713 10712 10709 ] final   19.45 input   66.30 | X-H torsion
[ 10763 10752 10751 10750 ] final   25.96 input  -60.55 | X-H torsion
[ 11005 11000 10999 10996 ] final -104.87 input  -57.11 | X-H torsion

> <Gold.Protein.ActiveResidues>
 VAL166  LYS551  ARG553  GLY616  TRP617  ASP618  TYR619  PRO620  LYS621  CYS622 
 ASP623  PHE694  ASN695  SER759  ASP760  ASP761  ALA762  ILE779  LEU786  VAL792 
 PHE793  MET794  SER795  GLU796  ALA797  LYS798  CYS799  TRP800  GLU811  SER814 

> <Gold.Protein.RotatedAtoms>
  152.5234  134.3360  159.9199 H   0  0  0  0  0  0  0  0  0  0  0  0  # atno 6907 bound_to 6896
  151.3309  133.3994  159.2670 H   0  0  0  0  0  0  0  0  0  0  0  0  # atno 6908 bound_to 6896
  150.9881  134.9240  159.7941 H   0  0  0  0  0  0  0  0  0  0  0  0  # atno 6909 bound_to 6896
  145.9468  140.7610  142.9524 H   0  0  0  0  0  0  0  0  0  0  0  0  # atno 7974 bound_to 7965
  156.1512  140.3159  155.8651 H   0  0  0  0  0  0  0  0  0  0  0  0  # atno 8008 bound_to 7997
  155.3967  140.0497  157.3055 H   0  0  0  0  0  0  0  0  0  0  0  0  # atno 8009 bound_to 7997
  154.5060  140.2147  155.9262 H   0  0  0  0  0  0  0  0  0  0  0  0  # atno 8010 bound_to 7997
  140.7228  143.3728  151.1746 H   0  0  0  0  0  0  0  0  0  0  0  0  # atno 10167 bound_to 10162
  157.1106  130.6507  149.5896 H   0  0  0  0  0  0  0  0  0  0  0  0  # atno 10718 bound_to 10713
  153.0655  135.6571  154.0364 H   0  0  0  0  0  0  0  0  0  0  0  0  # atno 10763 bound_to 10752
  154.0022  135.2936  155.3403 H   0  0  0  0  0  0  0  0  0  0  0  0  # atno 10764 bound_to 10752
  154.7011  135.5244  153.8597 H   0  0  0  0  0  0  0  0  0  0  0  0  # atno 10765 bound_to 10752
  141.1080  133.8759  157.1664 H   0  0  0  0  0  0  0  0  0  0  0  0  # atno 11005 bound_to 11000
  144.6788  140.2370  143.7348 LP  0  0  0  0  0  0  0  0  0  0  0  0  # atno 17320 bound_to 7965
  145.8225  139.2050  143.1930 LP  0  0  0  0  0  0  0  0  0  0  0  0  # atno 17321 bound_to 7965
  139.7302  143.9084  152.3017 LP  0  0  0  0  0  0  0  0  0  0  0  0  # atno 17342 bound_to 10162
  139.8870  144.6986  150.8813 LP  0  0  0  0  0  0  0  0  0  0  0  0  # atno 17343 bound_to 10162
  155.9851  130.4880  150.7016 LP  0  0  0  0  0  0  0  0  0  0  0  0  # atno 17370 bound_to 10713
  157.4562  131.0878  151.0794 LP  0  0  0  0  0  0  0  0  0  0  0  0  # atno 17371 bound_to 10713
  139.9960  135.0046  157.0083 LP  0  0  0  0  0  0  0  0  0  0  0  0  # atno 17394 bound_to 11000
  140.4850  134.1250  155.7223 LP  0  0  0  0  0  0  0  0  0  0  0  0  # atno 17395 bound_to 11000

$$$$
