AV-unprocessed.smi:2061|AV-procd|sdf|8383|dock6
  -GOLD-   2272011 63D 1   1.00000     0.00000
 Structure written by MMmdl.
 45 46  0  0  0  0  0  0  0  0  3 V2000
  151.4211  141.0711  158.4958 C   0  0  0  0  0  0  0  0  0  0  0  0
  151.2512  140.5373  157.1149 C   0  0  0  0  0  0  0  0  0  0  0  0
  150.1613  140.3823  156.3058 C   0  0  0  0  0  0  0  0  0  0  0  0
  150.7114  139.8109  155.1259 C   0  0  0  0  0  0  0  0  0  0  0  0
  150.0308  139.4818  154.0171 N   0  5  0  0  0  0  0  0  0  0  0  0
  148.7267  139.1333  154.0965 C   0  0  0  0  0  0  0  0  0  0  0  0
  148.0734  138.9680  155.1294 O   0  0  0  0  0  0  0  0  0  0  0  0
  148.1388  138.9718  152.9026 N   0  0  0  0  0  0  0  0  0  0  0  0
  146.7397  138.6164  152.6867 C   0  0  0  0  0  0  0  0  0  0  0  0
  146.2539  137.4802  153.6233 C   0  0  1  0  0  0  0  0  0  0  0  0
  144.8738  137.8379  154.2260 C   0  0  0  0  0  0  0  0  0  0  0  0
  146.2746  136.1745  152.8877 N   0  3  1  0  0  0  0  0  0  0  0  0
  146.1321  135.0108  153.8034 C   0  0  0  0  0  0  0  0  0  0  0  0
  146.2882  133.6741  153.0550 C   0  0  2  0  0  0  0  0  0  0  0  0
  147.7369  133.3682  152.6341 C   0  0  0  0  0  0  0  0  0  0  0  0
  145.3775  133.6195  151.9595 O   0  0  0  0  0  0  0  0  0  0  0  0
  145.4984  134.6954  151.0353 C   0  0  1  0  0  0  0  0  0  0  0  0
  144.4513  134.4874  149.9353 C   0  0  0  0  0  0  0  0  0  0  0  0
  145.3088  136.0387  151.7646 C   0  0  0  0  0  0  0  0  0  0  0  0
  152.0215  139.6485  155.2060 N   0  0  0  0  0  0  0  0  0  0  0  0
  152.3747  140.1070  156.4808 O   0  0  0  0  0  0  0  0  0  0  0  0
  151.7305  142.1160  158.4695 H   0  0  0  0  0  0  0  0  0  0  0  0
  152.1780  140.5066  159.0409 H   0  0  0  0  0  0  0  0  0  0  0  0
  150.4865  141.0081  159.0537 H   0  0  0  0  0  0  0  0  0  0  0  0
  149.1342  140.6342  156.5231 H   0  0  0  0  0  0  0  0  0  0  0  0
  148.7098  139.1128  152.0820 H   0  0  0  0  0  0  0  0  0  0  0  0
  146.1402  139.5116  152.8546 H   0  0  0  0  0  0  0  0  0  0  0  0
  146.6099  138.3643  151.6346 H   0  0  0  0  0  0  0  0  0  0  0  0
  146.9449  137.3935  154.4635 H   0  0  0  0  0  0  0  0  0  0  0  0
  144.8967  138.8000  154.7377 H   0  0  0  0  0  0  0  0  0  0  0  0
  144.5548  137.1139  154.9757 H   0  0  0  0  0  0  0  0  0  0  0  0
  144.1043  137.8980  153.4558 H   0  0  0  0  0  0  0  0  0  0  0  0
  146.8559  135.0510  154.6160 H   0  0  0  0  0  0  0  0  0  0  0  0
  145.1461  135.0490  154.2699 H   0  0  0  0  0  0  0  0  0  0  0  0
  145.9851  132.8776  153.7353 H   0  0  0  0  0  0  0  0  0  0  0  0
  148.3831  133.2860  153.5085 H   0  0  0  0  0  0  0  0  0  0  0  0
  148.1569  134.1448  151.9956 H   0  0  0  0  0  0  0  0  0  0  0  0
  147.7931  132.4229  152.0940 H   0  0  0  0  0  0  0  0  0  0  0  0
  146.4835  134.6696  150.5693 H   0  0  0  0  0  0  0  0  0  0  0  0
  144.5025  135.2795  149.1878 H   0  0  0  0  0  0  0  0  0  0  0  0
  143.4416  134.4802  150.3470 H   0  0  0  0  0  0  0  0  0  0  0  0
  144.6084  133.5378  149.4231 H   0  0  0  0  0  0  0  0  0  0  0  0
  144.2901  136.1277  152.1460 H   0  0  0  0  0  0  0  0  0  0  0  0
  145.4550  136.8296  151.0297 H   0  0  0  0  0  0  0  0  0  0  0  0
  147.1912  136.1092  152.4686 H   0  0  0  0  0  0  0  0  0  0  0  0
  1  2  1  0  0  0  0
  1 22  1  0  0  0  0
  1 23  1  0  0  0  0
  1 24  1  0  0  0  0
  2 21  1  0  0  0  0
  2  3  2  0  0  0  0
  3  4  1  0  0  0  0
  3 25  1  0  0  0  0
  4  5  1  0  0  0  0
  4 20  2  0  0  0  0
  5  6  1  0  0  0  0
  6  7  2  0  0  0  0
  6  8  1  0  0  0  0
  8  9  1  0  0  0  0
  8 26  1  0  0  0  0
  9 10  1  0  0  0  0
  9 27  1  0  0  0  0
  9 28  1  0  0  0  0
 10 11  1  0  0  0  0
 10 12  1  0  0  0  0
 10 29  1  0  0  0  0
 11 30  1  0  0  0  0
 11 31  1  0  0  0  0
 11 32  1  0  0  0  0
 12 19  1  0  0  0  0
 12 13  1  0  0  0  0
 12 45  1  0  0  0  0
 13 14  1  0  0  0  0
 13 33  1  0  0  0  0
 13 34  1  0  0  0  0
 14 15  1  0  0  0  0
 14 16  1  0  0  0  0
 14 35  1  0  0  0  0
 15 36  1  0  0  0  0
 15 37  1  0  0  0  0
 15 38  1  0  0  0  0
 16 17  1  0  0  0  0
 17 18  1  0  0  0  0
 17 19  1  0  0  0  0
 17 39  1  0  0  0  0
 18 40  1  0  0  0  0
 18 41  1  0  0  0  0
 18 42  1  0  0  0  0
 19 43  1  0  0  0  0
 19 44  1  0  0  0  0
 20 21  1  0  0  0  0
M  CHG  1   5  -1
M  CHG  1  12   1
M  END
> <s_m_source_file>
AV-unprocessed.smi

> <i_m_source_file_index>
2061

> <i_lp_mmshare_version>
43012

> <i_f3d_flags>
0

> <s_epik_input>
W0NIM11jMVtjSF1jKG5vMSlbTkhdQyg9TylbTkhdW0NIMl1bQ0BIXShbQ0gzXSlOMltDSDJdW0NAQEhdKFtDSDNdKU9bQ0BASF0oW0NIM10pW0NIMl0y

> <s_epik_cmdline>
J2VwaWtfcHl0aG9uJywgJy1waCcsICc3LjAnLCAnLXRuJywgJzgnLCAnLW1hJywgJzIwMCcsICctbWV0YWxfYmluZGluZycsICctaW1hZScsICc8aW5maWxlLm1hZT4nLCAnLW9tYWUnLCAnPG91dGZpbGUubWFlPic=

> <r_epik_Ionization_Penalty>
6.73511

> <r_epik_Ionization_Penalty_Charging>
6.73502

> <r_epik_Ionization_Penalty_Neutral>
9.50841e-05

> <r_epik_State_Penalty>
6.93549

> <r_epik_Charging_Adjusted_Penalty>
13.6705

> <i_epik_Tot_Q>
0

> <i_epik_Tot_abs_Q>
2

> <r_epik_Metal_State_Penalty>
2.87211

> <b_epik_Metal_Only>
1

> <s_lp_Force_Field>
OPLS_2005

> <r_lp_Energy>
11.2328

> <b_lp_Chiralities_Consistent>
1

> <s_lp_Variant>
AV-unprocessed.smi:2061-24

> <Gold.Version>
5.8.1

> <Gold.Id.Protein>
6NUR|6NUR_protein|mol2

> <Gold.PLP.Fitness>
39.9462

> <Gold.PLP.PLP>
-29.7669

> <Gold.PLP.part.hbond>
-5.4778

> <Gold.PLP.part.metal>
0.0000

> <Gold.PLP.part.buried>
-1.7956

> <Gold.PLP.part.nonpolar>
-23.6168

> <Gold.PLP.part.repulsive>
1.4353

> <Gold.PLP.ligand.clash>
0.0000

> <Gold.PLP.ligand.torsion>
0.9533

> <Gold.PLP.Chemscore.Hbond>
4.0000

> <Gold.PLP.Chemscore.CHOScore>
0.0000

> <Gold.PLP.Chemscore.Metal>
0.0000

> <Gold.Chemscore.Hbonds>
donor molecule, donor type, donor heavy atom, donor atom, acceptor molecule, acceptor atom, score
      L1  H     8    26       P1  7957  1.00
      L1  H    12    45       P1  7948  2.00
      P1  H  7997  8008       L1    21  1.00

> <Gold.PLP.Chemscore.Internal.Correction>
0.0860

> <Gold.Rescore>
     Score         DG    S(hbond)    S(metal)    S(lipo)     H(rot)  DE(clash)    DE(int)     intcor
     14.36     -18.13       2.90        0.00      59.43       1.56       0.14       3.63       ----

> <Gold.Chemscore.Fitness>
14.3601

> <Gold.Chemscore.DG>
-18.1348

> <Gold.Chemscore.ZeroCoef>
-5.4800

> <Gold.Chemscore.Hbond>
2.8988

> <Gold.Chemscore.Metal>
0.0000

> <Gold.Chemscore.Lipo>
59.4330

> <Gold.Chemscore.Internal_Hbond>
0.0000

> <Gold.Chemscore.DEClash>
0.1437

> <Gold.Chemscore.DEInternal>
3.6310

> <Gold.Chemscore.Rot>
1.5550

> <Gold.Chemscore.Internal.Correction>
   9.000000E+99

> <Gold.Chemscore.Hbonds>
donor molecule, donor type, donor heavy atom, donor atom, acceptor molecule, acceptor atom, score
      L1  H     8    26       P1  7957  0.92
      L1  H    12    45       P1  7948  1.00
      P1  H  7997  8008       L1    21  0.57

> <Gold.Chemscore.Hbond.Weighted>
-9.6820

> <Gold.Chemscore.Metal.Weighted>
-0.0000

> <Gold.Chemscore.Lipo.Weighted>
-6.9537

> <Gold.Chemscore.Internal_Hbond.Weighted>
0.0000

> <Gold.Chemscore.DEClash.Weighted>
0.1437

> <Gold.Chemscore.DEInternal.Weighted>
3.6310

> <Gold.Chemscore.Rot.Weighted>
3.9809

> <Gold.Chemscore.Internal.Correction.Weighted>
   9.000000E+99

> <Gold.Protein.RotatedTorsions>
[ 6907 6896 6895 6894 ] final   -0.52 input  -60.11 | X-H torsion
[ 7974 7965 7964 7962 ] final -117.71 input  175.53 | X-H torsion
[ 8008 7997 7996 7995 ] final  -57.12 input   59.86 | X-H torsion
[ 10167 10162 10161 10158 ] final -151.36 input  -65.29 | X-H torsion
[ 10718 10713 10712 10709 ] final   76.14 input   66.30 | X-H torsion
[ 10763 10752 10751 10750 ] final   36.13 input  -60.55 | X-H torsion
[ 11005 11000 10999 10996 ] final   98.55 input  -57.11 | X-H torsion

> <Gold.Protein.ActiveResidues>
 VAL166  LYS551  ARG553  GLY616  TRP617  ASP618  TYR619  PRO620  LYS621  CYS622 
 ASP623  PHE694  ASN695  SER759  ASP760  ASP761  ALA762  ILE779  LEU786  VAL792 
 PHE793  MET794  SER795  GLU796  ALA797  LYS798  CYS799  TRP800  GLU811  SER814 

> <Gold.Protein.RotatedAtoms>
  151.5609  135.1065  159.9972 H   0  0  0  0  0  0  0  0  0  0  0  0  # atno 6907 bound_to 6896
  152.4447  133.7509  159.6704 H   0  0  0  0  0  0  0  0  0  0  0  0  # atno 6908 bound_to 6896
  150.8360  133.7945  159.3103 H   0  0  0  0  0  0  0  0  0  0  0  0  # atno 6909 bound_to 6896
  145.0821  140.8433  143.4033 H   0  0  0  0  0  0  0  0  0  0  0  0  # atno 7974 bound_to 7965
  154.4256  140.1114  156.5746 H   0  0  0  0  0  0  0  0  0  0  0  0  # atno 8008 bound_to 7997
  155.6176  140.3495  155.4623 H   0  0  0  0  0  0  0  0  0  0  0  0  # atno 8009 bound_to 7997
  156.0050  140.1207  157.0500 H   0  0  0  0  0  0  0  0  0  0  0  0  # atno 8010 bound_to 7997
  139.7274  143.8862  152.2523 H   0  0  0  0  0  0  0  0  0  0  0  0  # atno 10167 bound_to 10162
  157.6662  130.9760  150.1455 H   0  0  0  0  0  0  0  0  0  0  0  0  # atno 10718 bound_to 10713
  153.0090  135.6314  154.1936 H   0  0  0  0  0  0  0  0  0  0  0  0  # atno 10763 bound_to 10752
  154.1679  135.2820  155.3091 H   0  0  0  0  0  0  0  0  0  0  0  0  # atno 10764 bound_to 10752
  154.5931  135.5611  153.7358 H   0  0  0  0  0  0  0  0  0  0  0  0  # atno 10765 bound_to 10752
  139.8772  134.9054  156.4473 H   0  0  0  0  0  0  0  0  0  0  0  0  # atno 11005 bound_to 11000
  145.1166  139.2721  143.5610 LP  0  0  0  0  0  0  0  0  0  0  0  0  # atno 17320 bound_to 7965
  146.3531  140.0777  142.8619 LP  0  0  0  0  0  0  0  0  0  0  0  0  # atno 17321 bound_to 7965
  139.8775  144.7035  150.8916 LP  0  0  0  0  0  0  0  0  0  0  0  0  # atno 17342 bound_to 10162
  140.7765  143.3688  151.1689 LP  0  0  0  0  0  0  0  0  0  0  0  0  # atno 17343 bound_to 10162
  156.2267  130.3678  149.8492 LP  0  0  0  0  0  0  0  0  0  0  0  0  # atno 17370 bound_to 10713
  156.6331  130.8674  151.3499 LP  0  0  0  0  0  0  0  0  0  0  0  0  # atno 17371 bound_to 10713
  140.8956  133.7816  155.9622 LP  0  0  0  0  0  0  0  0  0  0  0  0  # atno 17394 bound_to 11000
  140.8706  134.2731  157.5192 LP  0  0  0  0  0  0  0  0  0  0  0  0  # atno 17395 bound_to 11000

$$$$
