AV-unprocessed.smi:2248|AV-procd|sdf|9094|dock1
  -GOLD-   2272012293D 1   1.00000     0.00000
 Structure written by MMmdl.
 35 36  0  0  0  0  0  0  0  0  1 V2000
  151.9151  145.8953  160.3709 C   0  0  0  0  0  0  0  0  0  0  0  0
  151.9812  144.5222  159.7359 C   0  0  0  0  0  0  0  0  0  0  0  0
  152.7963  143.5105  160.2804 C   0  0  0  0  0  0  0  0  0  0  0  0
  152.8103  142.2567  159.6439 C   0  0  0  0  0  0  0  0  0  0  0  0
  152.0137  142.0668  158.4981 C   0  0  0  0  0  0  0  0  0  0  0  0
  151.2226  143.1343  158.0168 C   0  0  0  0  0  0  0  0  0  0  0  0
  150.4568  142.8417  156.8573 N   0  0  0  0  0  0  0  0  0  0  0  0
  150.0722  141.6378  156.3977 C   0  0  0  0  0  0  0  0  0  0  0  0
  150.3370  140.5554  156.9220 O   0  0  0  0  0  0  0  0  0  0  0  0
  149.3473  141.7555  155.2761 N   0  0  0  0  0  0  0  0  0  0  0  0
  148.7755  140.6376  154.5338 C   0  0  2  0  0  0  0  0  0  0  0  0
  148.0486  139.7044  155.4628 C   0  0  0  0  0  0  0  0  0  0  0  0
  148.4891  138.4512  155.3806 C   0  0  0  0  0  0  0  0  0  0  0  0
  149.6085  138.2883  154.3841 C   0  0  2  0  0  0  0  0  0  0  0  0
  150.8627  137.6386  154.9936 C   0  0  0  0  0  0  0  0  0  0  0  0
  151.7836  137.2892  153.9816 O   0  0  0  0  0  0  0  0  0  0  0  0
  149.8547  139.7335  153.8813 C   0  0  0  0  0  0  0  0  0  0  0  0
  151.2168  144.3401  158.6378 N   0  0  0  0  0  0  0  0  0  0  0  0
  148.0671  141.0012  153.7876 H   0  0  0  0  0  0  0  0  0  0  0  0
  149.2389  137.6756  153.5607 H   0  0  0  0  0  0  0  0  0  0  0  0
  152.7180  146.0335  161.0954 H   0  0  0  0  0  0  0  0  0  0  0  0
  150.9631  146.0266  160.8857 H   0  0  0  0  0  0  0  0  0  0  0  0
  152.0061  146.6733  159.6123 H   0  0  0  0  0  0  0  0  0  0  0  0
  153.3953  143.6878  161.1616 H   0  0  0  0  0  0  0  0  0  0  0  0
  153.4210  141.4530  160.0276 H   0  0  0  0  0  0  0  0  0  0  0  0
  152.0130  141.1093  157.9979 H   0  0  0  0  0  0  0  0  0  0  0  0
  150.1656  143.6423  156.3165 H   0  0  0  0  0  0  0  0  0  0  0  0
  149.1751  142.6808  154.9114 H   0  0  0  0  0  0  0  0  0  0  0  0
  147.2475  140.0394  156.1051 H   0  0  0  0  0  0  0  0  0  0  0  0
  148.0987  137.6189  155.9475 H   0  0  0  0  0  0  0  0  0  0  0  0
  151.3508  138.3311  155.6800 H   0  0  0  0  0  0  0  0  0  0  0  0
  150.6010  136.7472  155.5649 H   0  0  0  0  0  0  0  0  0  0  0  0
  151.3015  137.0664  153.1996 H   0  0  0  0  0  0  0  0  0  0  0  0
  149.7931  139.7824  152.7934 H   0  0  0  0  0  0  0  0  0  0  0  0
  150.8586  140.0664  154.1501 H   0  0  0  0  0  0  0  0  0  0  0  0
  1  2  1  0  0  0  0
  1 21  1  0  0  0  0
  1 22  1  0  0  0  0
  1 23  1  0  0  0  0
  2 18  1  0  0  0  0
  2  3  2  0  0  0  0
  3  4  1  0  0  0  0
  3 24  1  0  0  0  0
  4  5  2  0  0  0  0
  4 25  1  0  0  0  0
  5  6  1  0  0  0  0
  5 26  1  0  0  0  0
  6  7  1  0  0  0  0
  6 18  2  0  0  0  0
  7  8  1  0  0  0  0
  7 27  1  0  0  0  0
  8  9  2  0  0  0  0
  8 10  1  0  0  0  0
 10 11  1  0  0  0  0
 10 28  1  0  0  0  0
 11 19  1  0  0  0  0
 11 17  1  0  0  0  0
 11 12  1  0  0  0  0
 12 13  2  0  0  0  0
 12 29  1  0  0  0  0
 13 14  1  0  0  0  0
 13 30  1  0  0  0  0
 14 20  1  0  0  0  0
 14 15  1  0  0  0  0
 14 17  1  0  0  0  0
 15 16  1  0  0  0  0
 15 31  1  0  0  0  0
 15 32  1  0  0  0  0
 16 33  1  0  0  0  0
 17 34  1  0  0  0  0
 17 35  1  0  0  0  0
M  END
> <s_m_source_file>
AV-unprocessed.smi

> <i_m_source_file_index>
2248

> <i_lp_mmshare_version>
43012

> <i_f3d_flags>
0

> <s_epik_input>
W0NIM11jMVtjSF1bY0hdW2NIXWMobjEpW05IXUMoPU8pW05IXVtDQEBIXTJbQ0hdPVtDSF1bQ0BASF0oW0NIMl0yKVtDSDJdW09IXQ==

> <s_epik_cmdline>
J2VwaWtfcHl0aG9uJywgJy1waCcsICc3LjAnLCAnLXRuJywgJzgnLCAnLW1hJywgJzIwMCcsICctbWV0YWxfYmluZGluZycsICctaW1hZScsICc8aW5maWxlLm1hZT4nLCAnLW9tYWUnLCAnPG91dGZpbGUubWFlPic=

> <r_lp_tautomer_probability>
1

> <r_epik_Ionization_Penalty>
8.36606e-05

> <r_epik_Ionization_Penalty_Charging>
0

> <r_epik_Ionization_Penalty_Neutral>
8.36606e-05

> <r_epik_State_Penalty>
-0

> <r_epik_Charging_Adjusted_Penalty>
0

> <i_epik_Tot_Q>
0

> <i_epik_Tot_abs_Q>
0

> <r_epik_Metal_State_Penalty>
-0

> <b_epik_Metal_Only>
0

> <s_lp_Force_Field>
OPLS_2005

> <r_lp_Energy>
17.2686

> <b_lp_Chiralities_Consistent>
1

> <s_lp_Variant>
AV-unprocessed.smi:2248-1

> <Gold.Version>
5.8.1

> <Gold.Id.Protein>
6NUR|6NUR_protein|mol2

> <Gold.PLP.Fitness>
43.9654

> <Gold.PLP.PLP>
-34.0178

> <Gold.PLP.part.hbond>
-4.0000

> <Gold.PLP.part.metal>
0.0000

> <Gold.PLP.part.buried>
-1.9796

> <Gold.PLP.part.nonpolar>
-29.5651

> <Gold.PLP.part.repulsive>
0.3417

> <Gold.PLP.ligand.clash>
0.0000

> <Gold.PLP.ligand.torsion>
0.2600

> <Gold.PLP.Chemscore.Hbond>
3.4830

> <Gold.PLP.Chemscore.CHOScore>
0.0000

> <Gold.PLP.Chemscore.Metal>
0.0000

> <Gold.Chemscore.Hbonds>
donor molecule, donor type, donor heavy atom, donor atom, acceptor molecule, acceptor atom, score
      L1  H     7    27       P1  8028  1.00
      L1  H    10    28       P1  8028  0.51
      L1  H    16    33       P1  7949  0.98
      P1  H 10752 10765       L1    16  1.00

> <Gold.PLP.Chemscore.Internal.Correction>
0.0186

> <Gold.Rescore>
     Score         DG    S(hbond)    S(metal)    S(lipo)     H(rot)  DE(clash)    DE(int)     intcor
     14.77     -19.69       2.50        0.00      89.87       1.82       1.63       3.29       ----

> <Gold.Chemscore.Fitness>
14.7705

> <Gold.Chemscore.DG>
-19.6928

> <Gold.Chemscore.ZeroCoef>
-5.4800

> <Gold.Chemscore.Hbond>
2.5009

> <Gold.Chemscore.Metal>
0.0000

> <Gold.Chemscore.Lipo>
89.8719

> <Gold.Chemscore.Internal_Hbond>
0.0000

> <Gold.Chemscore.DEClash>
1.6342

> <Gold.Chemscore.DEInternal>
3.2881

> <Gold.Chemscore.Rot>
1.8184

> <Gold.Chemscore.Internal.Correction>
   9.000000E+99

> <Gold.Chemscore.Hbonds>
donor molecule, donor type, donor heavy atom, donor atom, acceptor molecule, acceptor atom, score
      L1  H     7    27       P1  8028  0.96
      L1  H    10    28       P1  8028  0.50
      L1  H    16    33       P1  7949  0.61
      P1  H 10752 10765       L1    16  0.28

> <Gold.Chemscore.Hbond.Weighted>
-8.3529

> <Gold.Chemscore.Metal.Weighted>
-0.0000

> <Gold.Chemscore.Lipo.Weighted>
-10.5150

> <Gold.Chemscore.Internal_Hbond.Weighted>
0.0000

> <Gold.Chemscore.DEClash.Weighted>
1.6342

> <Gold.Chemscore.DEInternal.Weighted>
3.2881

> <Gold.Chemscore.Rot.Weighted>
4.6551

> <Gold.Chemscore.Internal.Correction.Weighted>
   9.000000E+99

> <Gold.Protein.RotatedTorsions>
[ 6907 6896 6895 6894 ] final -151.92 input  -60.11 | X-H torsion
[ 7974 7965 7964 7962 ] final   56.61 input  175.53 | X-H torsion
[ 8008 7997 7996 7995 ] final  -87.14 input   59.86 | X-H torsion
[ 10167 10162 10161 10158 ] final  159.70 input  -65.29 | X-H torsion
[ 10718 10713 10712 10709 ] final -144.89 input   66.30 | X-H torsion
[ 10763 10752 10751 10750 ] final  153.09 input  -60.55 | X-H torsion
[ 11005 11000 10999 10996 ] final  -96.12 input  -57.11 | X-H torsion

> <Gold.Protein.ActiveResidues>
 VAL166  LYS551  ARG553  GLY616  TRP617  ASP618  TYR619  PRO620  LYS621  CYS622 
 ASP623  PHE694  ASN695  SER759  ASP760  ASP761  ALA762  ILE779  LEU786  VAL792 
 PHE793  MET794  SER795  GLU796  ALA797  LYS798  CYS799  TRP800  GLU811  SER814 

> <Gold.Protein.RotatedAtoms>
  151.2201  133.4507  159.2600 H   0  0  0  0  0  0  0  0  0  0  0  0  # atno 6907 bound_to 6896
  151.0893  134.9906  159.8405 H   0  0  0  0  0  0  0  0  0  0  0  0  # atno 6908 bound_to 6896
  152.5433  134.2136  159.8812 H   0  0  0  0  0  0  0  0  0  0  0  0  # atno 6909 bound_to 6896
  145.9379  139.3863  143.0381 H   0  0  0  0  0  0  0  0  0  0  0  0  # atno 7974 bound_to 7965
  154.6598  140.0569  157.0049 H   0  0  0  0  0  0  0  0  0  0  0  0  # atno 8008 bound_to 7997
  155.1246  140.3250  155.4470 H   0  0  0  0  0  0  0  0  0  0  0  0  # atno 8009 bound_to 7997
  156.2613  140.1991  156.6367 H   0  0  0  0  0  0  0  0  0  0  0  0  # atno 8010 bound_to 7997
  139.4834  144.4705  151.8583 H   0  0  0  0  0  0  0  0  0  0  0  0  # atno 10167 bound_to 10162
  156.3757  130.7811  151.1997 H   0  0  0  0  0  0  0  0  0  0  0  0  # atno 10718 bound_to 10713
  154.1306  135.2827  155.3186 H   0  0  0  0  0  0  0  0  0  0  0  0  # atno 10763 bound_to 10752
  154.6358  135.5419  153.7736 H   0  0  0  0  0  0  0  0  0  0  0  0  # atno 10764 bound_to 10752
  153.0282  135.6474  154.1456 H   0  0  0  0  0  0  0  0  0  0  0  0  # atno 10765 bound_to 10752
  141.1421  133.8075  157.0529 H   0  0  0  0  0  0  0  0  0  0  0  0  # atno 11005 bound_to 11000
  145.8339  140.9616  143.0834 LP  0  0  0  0  0  0  0  0  0  0  0  0  # atno 17320 bound_to 7965
  144.6774  140.0197  143.7484 LP  0  0  0  0  0  0  0  0  0  0  0  0  # atno 17321 bound_to 7965
  140.4173  144.2290  150.5887 LP  0  0  0  0  0  0  0  0  0  0  0  0  # atno 17342 bound_to 10162
  140.4908  143.2348  151.8821 LP  0  0  0  0  0  0  0  0  0  0  0  0  # atno 17343 bound_to 10162
  157.7488  131.0359  150.4384 LP  0  0  0  0  0  0  0  0  0  0  0  0  # atno 17370 bound_to 10713
  156.4619  130.4034  149.6571 LP  0  0  0  0  0  0  0  0  0  0  0  0  # atno 17371 bound_to 10713
  140.0620  134.9749  157.1322 LP  0  0  0  0  0  0  0  0  0  0  0  0  # atno 17394 bound_to 11000
  140.3834  134.2263  155.7169 LP  0  0  0  0  0  0  0  0  0  0  0  0  # atno 17395 bound_to 11000

$$$$
