AV-unprocessed.smi:2440|AV-procd|sdf|9615|dock2
  -GOLD-   2272013253D 1   1.00000     0.00000
 Structure written by MMmdl.
 52 54  0  0  0  0  0  0  0  0  2 V2000
  148.1765  133.2194  152.8829 C   0  0  0  0  0  0  0  0  0  0  0  0
  149.1033  132.8028  154.0115 C   0  0  0  0  0  0  0  0  0  0  0  0
  149.2016  131.4425  154.3761 C   0  0  0  0  0  0  0  0  0  0  0  0
  149.9969  130.9914  155.3681 N   0  0  0  0  0  0  0  0  0  0  0  0
  150.7314  131.8969  156.0460 C   0  0  0  0  0  0  0  0  0  0  0  0
  150.7116  133.2772  155.7665 C   0  0  0  0  0  0  0  0  0  0  0  0
  149.8880  133.7480  154.7157 C   0  0  0  0  0  0  0  0  0  0  0  0
  149.7771  135.1250  154.3737 N   0  0  0  0  0  0  0  0  0  0  0  0
  150.1768  136.1979  155.0779 C   0  0  0  0  0  0  0  0  0  0  0  0
  150.7757  136.1631  156.1529 O   0  0  0  0  0  0  0  0  0  0  0  0
  149.8611  137.3373  154.4454 N   0  0  0  0  0  0  0  0  0  0  0  0
  150.1568  138.6804  154.9351 C   0  0  2  0  0  0  0  0  0  0  0  0
  151.5772  138.7249  155.5125 C   0  0  0  0  0  0  0  0  0  0  0  0
  151.8970  140.1013  156.1209 C   0  0  0  0  0  0  0  0  0  0  0  0
  150.9041  140.4867  157.1661 N   0  3  1  0  0  0  0  0  0  0  0  0
  151.1933  141.7560  157.9108 C   0  0  0  0  0  0  0  0  0  0  0  0
  151.2583  143.0262  157.0211 C   0  0  0  0  0  0  0  0  0  0  0  0
  151.5891  144.2880  157.8344 C   0  0  0  0  0  0  0  0  0  0  0  0
  152.9047  144.1260  158.6056 C   0  0  0  0  0  0  0  0  0  0  0  0
  152.8561  142.8838  159.5040 C   0  0  0  0  0  0  0  0  0  0  0  0
  152.5236  141.6212  158.6926 C   0  0  0  0  0  0  0  0  0  0  0  0
  149.5215  140.4713  156.6082 C   0  0  0  0  0  0  0  0  0  0  0  0
  149.1565  139.0973  156.0242 C   0  0  0  0  0  0  0  0  0  0  0  0
  147.6998  132.3540  152.4215 H   0  0  0  0  0  0  0  0  0  0  0  0
  148.7322  133.7496  152.1089 H   0  0  0  0  0  0  0  0  0  0  0  0
  147.3919  133.8766  153.2587 H   0  0  0  0  0  0  0  0  0  0  0  0
  148.6229  130.6909  153.8595 H   0  0  0  0  0  0  0  0  0  0  0  0
  151.3497  131.5105  156.8430 H   0  0  0  0  0  0  0  0  0  0  0  0
  151.3121  133.9427  156.3675 H   0  0  0  0  0  0  0  0  0  0  0  0
  149.3929  135.3114  153.4591 H   0  0  0  0  0  0  0  0  0  0  0  0
  149.3756  137.2701  153.5627 H   0  0  0  0  0  0  0  0  0  0  0  0
  150.1017  139.3901  154.1069 H   0  0  0  0  0  0  0  0  0  0  0  0
  151.6902  137.9572  156.2799 H   0  0  0  0  0  0  0  0  0  0  0  0
  152.3039  138.4909  154.7333 H   0  0  0  0  0  0  0  0  0  0  0  0
  152.8988  140.0317  156.5430 H   0  0  0  0  0  0  0  0  0  0  0  0
  151.9241  140.8635  155.3404 H   0  0  0  0  0  0  0  0  0  0  0  0
  150.3826  141.9139  158.6246 H   0  0  0  0  0  0  0  0  0  0  0  0
  152.0096  142.8977  156.2403 H   0  0  0  0  0  0  0  0  0  0  0  0
  150.3046  143.1986  156.5213 H   0  0  0  0  0  0  0  0  0  0  0  0
  151.6533  145.1509  157.1707 H   0  0  0  0  0  0  0  0  0  0  0  0
  150.7782  144.4962  158.5336 H   0  0  0  0  0  0  0  0  0  0  0  0
  153.7346  144.0402  157.9030 H   0  0  0  0  0  0  0  0  0  0  0  0
  153.0977  145.0153  159.2066 H   0  0  0  0  0  0  0  0  0  0  0  0
  153.8131  142.7575  160.0114 H   0  0  0  0  0  0  0  0  0  0  0  0
  152.1087  143.0250  160.2856 H   0  0  0  0  0  0  0  0  0  0  0  0
  152.4961  140.7743  159.3769 H   0  0  0  0  0  0  0  0  0  0  0  0
  153.3372  141.4187  157.9944 H   0  0  0  0  0  0  0  0  0  0  0  0
  148.7912  140.7246  157.3750 H   0  0  0  0  0  0  0  0  0  0  0  0
  149.4346  141.2361  155.8346 H   0  0  0  0  0  0  0  0  0  0  0  0
  148.1466  139.1313  155.6134 H   0  0  0  0  0  0  0  0  0  0  0  0
  149.1406  138.3546  156.8235 H   0  0  0  0  0  0  0  0  0  0  0  0
  150.9463  139.7512  157.8569 H   0  0  0  0  0  0  0  0  0  0  0  0
  1  2  1  0  0  0  0
  1 24  1  0  0  0  0
  1 25  1  0  0  0  0
  1 26  1  0  0  0  0
  2  7  1  0  0  0  0
  2  3  2  0  0  0  0
  3  4  1  0  0  0  0
  3 27  1  0  0  0  0
  4  5  2  0  0  0  0
  5  6  1  0  0  0  0
  5 28  1  0  0  0  0
  6  7  2  0  0  0  0
  6 29  1  0  0  0  0
  7  8  1  0  0  0  0
  8  9  1  0  0  0  0
  8 30  1  0  0  0  0
  9 10  2  0  0  0  0
  9 11  1  0  0  0  0
 11 12  1  0  0  0  0
 11 31  1  0  0  0  0
 12 23  1  0  0  0  0
 12 13  1  0  0  0  0
 12 32  1  0  0  0  0
 13 14  1  0  0  0  0
 13 33  1  0  0  0  0
 13 34  1  0  0  0  0
 14 15  1  0  0  0  0
 14 35  1  0  0  0  0
 14 36  1  0  0  0  0
 15 16  1  0  0  0  0
 15 22  1  0  0  0  0
 15 52  1  0  0  0  0
 16 21  1  0  0  0  0
 16 17  1  0  0  0  0
 16 37  1  0  0  0  0
 17 18  1  0  0  0  0
 17 38  1  0  0  0  0
 17 39  1  0  0  0  0
 18 19  1  0  0  0  0
 18 40  1  0  0  0  0
 18 41  1  0  0  0  0
 19 20  1  0  0  0  0
 19 42  1  0  0  0  0
 19 43  1  0  0  0  0
 20 21  1  0  0  0  0
 20 44  1  0  0  0  0
 20 45  1  0  0  0  0
 21 46  1  0  0  0  0
 21 47  1  0  0  0  0
 22 23  1  0  0  0  0
 22 48  1  0  0  0  0
 22 49  1  0  0  0  0
 23 50  1  0  0  0  0
 23 51  1  0  0  0  0
M  CHG  1  15   1
M  END
> <s_m_source_file>
AV-unprocessed.smi

> <i_m_source_file_index>
2440

> <i_lp_mmshare_version>
43012

> <i_f3d_flags>
0

> <s_epik_input>
W0NIM11jMVtjSF1uW2NIXVtjSF1jMVtOSF1DKD1PKVtOSF1bQ0hdMltDSDJdW0NIMl1OKFtDSDJdW0NIMl0yKVtDSF0zW0NIMl1bQ0gyXVtDSDJdW0NIMl1bQ0gyXTM=

> <s_epik_cmdline>
J2VwaWtfcHl0aG9uJywgJy1waCcsICc3LjAnLCAnLXRuJywgJzgnLCAnLW1hJywgJzIwMCcsICctbWV0YWxfYmluZGluZycsICctaW1hZScsICc8aW5maWxlLm1hZT4nLCAnLW9tYWUnLCAnPG91dGZpbGUubWFlPic=

> <r_epik_Ionization_Penalty>
0.180356

> <r_epik_Ionization_Penalty_Charging>
0.00171891

> <r_epik_Ionization_Penalty_Neutral>
0.178637

> <r_epik_State_Penalty>
0.173134

> <r_epik_Charging_Adjusted_Penalty>
0.174853

> <i_epik_Tot_Q>
1

> <i_epik_Tot_abs_Q>
1

> <r_epik_Metal_State_Penalty>
0.131816

> <b_epik_Metal_Only>
0

> <s_lp_Force_Field>
OPLS_2005

> <r_lp_Energy>
33.4917

> <b_lp_Chiralities_Consistent>
1

> <s_lp_Variant>
AV-unprocessed.smi:2440-1

> <Gold.Version>
5.8.1

> <Gold.Id.Protein>
6NUR|6NUR_protein|mol2

> <Gold.PLP.Fitness>
49.7883

> <Gold.PLP.PLP>
-44.8980

> <Gold.PLP.part.hbond>
-2.1203

> <Gold.PLP.part.metal>
0.0000

> <Gold.PLP.part.buried>
-4.7077

> <Gold.PLP.part.nonpolar>
-38.1193

> <Gold.PLP.part.repulsive>
0.1512

> <Gold.PLP.ligand.clash>
0.0000

> <Gold.PLP.ligand.torsion>
0.3382

> <Gold.PLP.Chemscore.Hbond>
1.8420

> <Gold.PLP.Chemscore.CHOScore>
0.0000

> <Gold.PLP.Chemscore.Metal>
0.0000

> <Gold.Chemscore.Hbonds>
donor molecule, donor type, donor heavy atom, donor atom, acceptor molecule, acceptor atom, score
      L1  H     8    30       P1  7948  0.85
      L1  H    11    31       P1  7948  0.98

> <Gold.PLP.Chemscore.Internal.Correction>
0.0407

> <Gold.Rescore>
     Score         DG    S(hbond)    S(metal)    S(lipo)     H(rot)  DE(clash)    DE(int)     intcor
     18.56     -21.53       1.45        0.00     121.50       1.17       0.03       2.94       ----

> <Gold.Chemscore.Fitness>
18.5605

> <Gold.Chemscore.DG>
-21.5289

> <Gold.Chemscore.ZeroCoef>
-5.4800

> <Gold.Chemscore.Hbond>
1.4467

> <Gold.Chemscore.Metal>
0.0000

> <Gold.Chemscore.Lipo>
121.5044

> <Gold.Chemscore.Internal_Hbond>
0.0000

> <Gold.Chemscore.DEClash>
0.0285

> <Gold.Chemscore.DEInternal>
2.9399

> <Gold.Chemscore.Rot>
1.1715

> <Gold.Chemscore.Internal.Correction>
   9.000000E+99

> <Gold.Chemscore.Hbonds>
donor molecule, donor type, donor heavy atom, donor atom, acceptor molecule, acceptor atom, score
      L1  H     8    30       P1  7948  0.15
      L1  H    11    31       P1  7948  0.86

> <Gold.Chemscore.Hbond.Weighted>
-4.8320

> <Gold.Chemscore.Metal.Weighted>
-0.0000

> <Gold.Chemscore.Lipo.Weighted>
-14.2160

> <Gold.Chemscore.Internal_Hbond.Weighted>
0.0000

> <Gold.Chemscore.DEClash.Weighted>
0.0285

> <Gold.Chemscore.DEInternal.Weighted>
2.9399

> <Gold.Chemscore.Rot.Weighted>
2.9991

> <Gold.Chemscore.Internal.Correction.Weighted>
   9.000000E+99

> <Gold.Protein.RotatedTorsions>
[ 6907 6896 6895 6894 ] final   91.81 input  -60.11 | X-H torsion
[ 7974 7965 7964 7962 ] final   79.89 input  175.53 | X-H torsion
[ 8008 7997 7996 7995 ] final  167.97 input   59.86 | X-H torsion
[ 10167 10162 10161 10158 ] final -150.02 input  -65.29 | X-H torsion
[ 10718 10713 10712 10709 ] final  -56.46 input   66.30 | X-H torsion
[ 10763 10752 10751 10750 ] final  -50.51 input  -60.55 | X-H torsion
[ 11005 11000 10999 10996 ] final  143.54 input  -57.11 | X-H torsion

> <Gold.Protein.ActiveResidues>
 VAL166  LYS551  ARG553  GLY616  TRP617  ASP618  TYR619  PRO620  LYS621  CYS622 
 ASP623  PHE694  ASN695  SER759  ASP760  ASP761  ALA762  ILE779  LEU786  VAL792 
 PHE793  MET794  SER795  GLU796  ALA797  LYS798  CYS799  TRP800  GLU811  SER814 

> <Gold.Protein.RotatedAtoms>
  152.5451  134.1600  159.8553 H   0  0  0  0  0  0  0  0  0  0  0  0  # atno 6907 bound_to 6896
  151.1619  133.4832  159.2601 H   0  0  0  0  0  0  0  0  0  0  0  0  # atno 6908 bound_to 6896
  151.1364  135.0168  159.8661 H   0  0  0  0  0  0  0  0  0  0  0  0  # atno 6909 bound_to 6896
  145.6583  139.2465  143.1937 H   0  0  0  0  0  0  0  0  0  0  0  0  # atno 7974 bound_to 7965
  156.1588  140.1603  156.8648 H   0  0  0  0  0  0  0  0  0  0  0  0  # atno 8008 bound_to 7997
  154.5140  140.0794  156.8082 H   0  0  0  0  0  0  0  0  0  0  0  0  # atno 8009 bound_to 7997
  155.3750  140.3402  155.4247 H   0  0  0  0  0  0  0  0  0  0  0  0  # atno 8010 bound_to 7997
  139.7391  143.8689  152.2557 H   0  0  0  0  0  0  0  0  0  0  0  0  # atno 10167 bound_to 10162
  156.1287  130.4161  150.0308 H   0  0  0  0  0  0  0  0  0  0  0  0  # atno 10718 bound_to 10713
  154.1115  135.6548  153.4886 H   0  0  0  0  0  0  0  0  0  0  0  0  # atno 10763 bound_to 10752
  153.0255  135.5249  154.7187 H   0  0  0  0  0  0  0  0  0  0  0  0  # atno 10764 bound_to 10752
  154.6368  135.2983  155.0120 H   0  0  0  0  0  0  0  0  0  0  0  0  # atno 10765 bound_to 10752
  140.0562  134.9229  157.1104 H   0  0  0  0  0  0  0  0  0  0  0  0  # atno 11005 bound_to 11000
  146.1147  140.7385  142.9486 LP  0  0  0  0  0  0  0  0  0  0  0  0  # atno 17320 bound_to 7965
  144.7098  140.3995  143.7089 LP  0  0  0  0  0  0  0  0  0  0  0  0  # atno 17321 bound_to 7965
  139.8635  144.7105  150.9072 LP  0  0  0  0  0  0  0  0  0  0  0  0  # atno 17342 bound_to 10162
  140.7783  143.3798  151.1498 LP  0  0  0  0  0  0  0  0  0  0  0  0  # atno 17343 bound_to 10162
  156.8226  130.9364  151.3640 LP  0  0  0  0  0  0  0  0  0  0  0  0  # atno 17370 bound_to 10713
  157.6467  130.8850  149.9551 LP  0  0  0  0  0  0  0  0  0  0  0  0  # atno 17371 bound_to 10713
  140.3840  134.2256  155.7169 LP  0  0  0  0  0  0  0  0  0  0  0  0  # atno 17394 bound_to 11000
  141.1953  133.8109  157.0721 LP  0  0  0  0  0  0  0  0  0  0  0  0  # atno 17395 bound_to 11000

$$$$
