AV-unprocessed.smi:1978|AV-procd|sdf|7996|dock5
  -GOLD-   2272010183D 1   1.00000     0.00000
 Structure written by MMmdl.
 45 46  0  0  0  0  0  0  0  0  2 V2000
  154.3165  122.5157  148.6176 C   0  0  0  0  0  0  0  0  0  0  0  0
  153.0756  123.2314  149.0281 C   0  0  0  0  0  0  0  0  0  0  0  0
  152.8500  124.4585  149.5859 C   0  0  0  0  0  0  0  0  0  0  0  0
  151.4362  124.4951  149.7162 C   0  0  0  0  0  0  0  0  0  0  0  0
  150.7845  125.6261  150.2705 N   0  0  0  0  0  0  0  0  0  0  0  0
  149.4665  125.8881  150.2765 C   0  0  0  0  0  0  0  0  0  0  0  0
  148.5977  125.1702  149.7804 O   0  0  0  0  0  0  0  0  0  0  0  0
  149.2000  127.0404  150.9099 N   0  0  0  0  0  0  0  0  0  0  0  0
  147.8688  127.6126  151.0988 C   0  0  0  0  0  0  0  0  0  0  0  0
  147.7525  128.4265  152.4120 C   0  0  2  0  0  0  0  0  0  0  0  0
  146.9380  127.7122  153.5134 C   0  0  0  0  0  0  0  0  0  0  0  0
  147.2594  129.8176  152.1442 N   0  3  1  0  0  0  0  0  0  0  0  0
  145.8584  129.8671  151.6290 C   0  0  0  0  0  0  0  0  0  0  0  0
  145.4989  131.2656  151.1090 C   0  0  0  0  0  0  0  0  0  0  0  0
  145.6779  132.3083  152.2140 C   0  0  0  0  0  0  0  0  0  0  0  0
  147.1056  132.2339  152.7639 C   0  0  0  0  0  0  0  0  0  0  0  0
  147.4669  130.8124  153.2505 C   0  0  2  0  0  0  0  0  0  0  0  0
  148.9040  130.8320  153.8111 C   0  0  0  0  0  0  0  0  0  0  0  0
  150.8516  123.3916  149.2759 N   0  0  0  0  0  0  0  0  0  0  0  0
  151.8993  122.5763  148.8323 O   0  0  0  0  0  0  0  0  0  0  0  0
  155.1966  123.1402  148.7715 H   0  0  0  0  0  0  0  0  0  0  0  0
  154.2750  122.2441  147.5628 H   0  0  0  0  0  0  0  0  0  0  0  0
  154.4448  121.6021  149.1982 H   0  0  0  0  0  0  0  0  0  0  0  0
  153.5810  125.2054  149.8575 H   0  0  0  0  0  0  0  0  0  0  0  0
  151.3858  126.3008  150.7199 H   0  0  0  0  0  0  0  0  0  0  0  0
  149.9772  127.5635  151.2862 H   0  0  0  0  0  0  0  0  0  0  0  0
  147.6733  128.2664  150.2482 H   0  0  0  0  0  0  0  0  0  0  0  0
  147.1220  126.8214  151.0445 H   0  0  0  0  0  0  0  0  0  0  0  0
  148.7780  128.4858  152.7675 H   0  0  0  0  0  0  0  0  0  0  0  0
  147.4174  126.7826  153.8192 H   0  0  0  0  0  0  0  0  0  0  0  0
  145.9325  127.4607  153.1757 H   0  0  0  0  0  0  0  0  0  0  0  0
  146.8480  128.3239  154.4105 H   0  0  0  0  0  0  0  0  0  0  0  0
  145.7095  129.1565  150.8186 H   0  0  0  0  0  0  0  0  0  0  0  0
  145.1619  129.5874  152.4204 H   0  0  0  0  0  0  0  0  0  0  0  0
  146.1285  131.5165  150.2541 H   0  0  0  0  0  0  0  0  0  0  0  0
  144.4691  131.2777  150.7510 H   0  0  0  0  0  0  0  0  0  0  0  0
  145.4720  133.3071  151.8279 H   0  0  0  0  0  0  0  0  0  0  0  0
  144.9613  132.1274  153.0163 H   0  0  0  0  0  0  0  0  0  0  0  0
  147.8081  132.5472  151.9900 H   0  0  0  0  0  0  0  0  0  0  0  0
  147.2111  132.9488  153.5809 H   0  0  0  0  0  0  0  0  0  0  0  0
  146.7929  130.5584  154.0699 H   0  0  0  0  0  0  0  0  0  0  0  0
  149.0459  131.6761  154.4866 H   0  0  0  0  0  0  0  0  0  0  0  0
  149.6436  130.9224  153.0149 H   0  0  0  0  0  0  0  0  0  0  0  0
  149.1317  129.9409  154.3954 H   0  0  0  0  0  0  0  0  0  0  0  0
  147.8393  130.1505  151.3873 H   0  0  0  0  0  0  0  0  0  0  0  0
  1  2  1  0  0  0  0
  1 21  1  0  0  0  0
  1 22  1  0  0  0  0
  1 23  1  0  0  0  0
  2 20  1  0  0  0  0
  2  3  2  0  0  0  0
  3  4  1  0  0  0  0
  3 24  1  0  0  0  0
  4  5  1  0  0  0  0
  4 19  2  0  0  0  0
  5  6  1  0  0  0  0
  5 25  1  0  0  0  0
  6  7  2  0  0  0  0
  6  8  1  0  0  0  0
  8  9  1  0  0  0  0
  8 26  1  0  0  0  0
  9 10  1  0  0  0  0
  9 27  1  0  0  0  0
  9 28  1  0  0  0  0
 10 11  1  0  0  0  0
 10 12  1  0  0  0  0
 10 29  1  0  0  0  0
 11 30  1  0  0  0  0
 11 31  1  0  0  0  0
 11 32  1  0  0  0  0
 12 17  1  0  0  0  0
 12 13  1  0  0  0  0
 12 45  1  0  0  0  0
 13 14  1  0  0  0  0
 13 33  1  0  0  0  0
 13 34  1  0  0  0  0
 14 15  1  0  0  0  0
 14 35  1  0  0  0  0
 14 36  1  0  0  0  0
 15 16  1  0  0  0  0
 15 37  1  0  0  0  0
 15 38  1  0  0  0  0
 16 17  1  0  0  0  0
 16 39  1  0  0  0  0
 16 40  1  0  0  0  0
 17 18  1  0  0  0  0
 17 41  1  0  0  0  0
 18 42  1  0  0  0  0
 18 43  1  0  0  0  0
 18 44  1  0  0  0  0
 19 20  1  0  0  0  0
M  CHG  1  12   1
M  END
> <s_m_source_file>
AV-unprocessed.smi

> <i_m_source_file_index>
1978

> <i_lp_mmshare_version>
43012

> <i_f3d_flags>
0

> <s_epik_input>
W0NIM11jMVtjSF1jKG5vMSlbTkhdQyg9TylbTkhdW0NIMl1bQ0BIXShbQ0gzXSlOMltDSDJdW0NIMl1bQ0gyXVtDSDJdW0NASF0yW0NIM10=

> <s_epik_cmdline>
J2VwaWtfcHl0aG9uJywgJy1waCcsICc3LjAnLCAnLXRuJywgJzgnLCAnLW1hJywgJzIwMCcsICctbWV0YWxfYmluZGluZycsICctaW1hZScsICc8aW5maWxlLm1hZT4nLCAnLW9tYWUnLCAnPG91dGZpbGUubWFlPic=

> <r_epik_Ionization_Penalty>
0.00265971

> <r_epik_Ionization_Penalty_Charging>
0.00262393

> <r_epik_Ionization_Penalty_Neutral>
3.57846e-05

> <r_epik_State_Penalty>
0.00182566

> <r_epik_Charging_Adjusted_Penalty>
0.00444959

> <i_epik_Tot_Q>
1

> <i_epik_Tot_abs_Q>
1

> <r_epik_Metal_State_Penalty>
0.0216344

> <b_epik_Metal_Only>
0

> <s_lp_Force_Field>
OPLS_2005

> <r_lp_Energy>
21.464

> <b_lp_Chiralities_Consistent>
1

> <s_lp_Variant>
AV-unprocessed.smi:1978-5

> <Gold.Version>
5.8.1

> <Gold.Id.Protein>
6NUR|6NUR_protein|mol2

> <Gold.PLP.Fitness>
39.3360

> <Gold.PLP.PLP>
-32.4141

> <Gold.PLP.part.hbond>
-3.0000

> <Gold.PLP.part.metal>
0.0000

> <Gold.PLP.part.buried>
-6.5178

> <Gold.PLP.part.nonpolar>
-24.1066

> <Gold.PLP.part.repulsive>
0.3948

> <Gold.PLP.ligand.clash>
0.0000

> <Gold.PLP.ligand.torsion>
0.9998

> <Gold.PLP.Chemscore.Hbond>
2.9280

> <Gold.PLP.Chemscore.CHOScore>
0.0000

> <Gold.PLP.Chemscore.Metal>
0.0000

> <Gold.Chemscore.Hbonds>
donor molecule, donor type, donor heavy atom, donor atom, acceptor molecule, acceptor atom, score
      L1  H     5    25       P1 10737  1.00
      L1  H     8    26       P1 10737  0.85
      L1  H    12    45       P1 10747  1.00

> <Gold.PLP.Chemscore.Internal.Correction>
0.1375

> <Gold.Rescore>
     Score         DG    S(hbond)    S(metal)    S(lipo)     H(rot)  DE(clash)    DE(int)     intcor
     17.32     -19.35       2.89        0.00      69.91       1.55       0.00       2.04       ----

> <Gold.Chemscore.Fitness>
17.3157

> <Gold.Chemscore.DG>
-19.3517

> <Gold.Chemscore.ZeroCoef>
-5.4800

> <Gold.Chemscore.Hbond>
2.8902

> <Gold.Chemscore.Metal>
0.0000

> <Gold.Chemscore.Lipo>
69.9114

> <Gold.Chemscore.Internal_Hbond>
0.0000

> <Gold.Chemscore.DEClash>
0.0000

> <Gold.Chemscore.DEInternal>
2.0359

> <Gold.Chemscore.Rot>
1.5474

> <Gold.Chemscore.Internal.Correction>
   9.000000E+99

> <Gold.Chemscore.Hbonds>
donor molecule, donor type, donor heavy atom, donor atom, acceptor molecule, acceptor atom, score
      L1  H     5    25       P1 10737  0.74
      L1  H     8    26       P1 10737  0.76
      L1  H    12    45       P1 10747  1.00

> <Gold.Chemscore.Hbond.Weighted>
-9.6533

> <Gold.Chemscore.Metal.Weighted>
-0.0000

> <Gold.Chemscore.Lipo.Weighted>
-8.1796

> <Gold.Chemscore.Internal_Hbond.Weighted>
0.0000

> <Gold.Chemscore.DEClash.Weighted>
0.0000

> <Gold.Chemscore.DEInternal.Weighted>
2.0359

> <Gold.Chemscore.Rot.Weighted>
3.9612

> <Gold.Chemscore.Internal.Correction.Weighted>
   9.000000E+99

> <Gold.Protein.RotatedTorsions>
[ 6907 6896 6895 6894 ] final -142.44 input  -60.11 | X-H torsion
[ 7974 7965 7964 7962 ] final   55.32 input  175.53 | X-H torsion
[ 8008 7997 7996 7995 ] final   20.37 input   59.86 | X-H torsion
[ 10167 10162 10161 10158 ] final  125.42 input  -65.29 | X-H torsion
[ 10718 10713 10712 10709 ] final   -3.20 input   66.30 | X-H torsion
[ 10763 10752 10751 10750 ] final -176.63 input  -60.55 | X-H torsion
[ 11005 11000 10999 10996 ] final -127.77 input  -57.11 | X-H torsion

> <Gold.Protein.ActiveResidues>
 VAL166  LYS551  ARG553  GLY616  TRP617  ASP618  TYR619  PRO620  LYS621  CYS622 
 ASP623  PHE694  ASN695  SER759  ASP760  ASP761  ALA762  ILE779  LEU786  VAL792 
 PHE793  MET794  SER795  GLU796  ALA797  LYS798  CYS799  TRP800  GLU811  SER814 

> <Gold.Protein.RotatedAtoms>
  151.0871  133.5344  159.2616 H   0  0  0  0  0  0  0  0  0  0  0  0  # atno 6907 bound_to 6896
  151.2226  135.0523  159.8965 H   0  0  0  0  0  0  0  0  0  0  0  0  # atno 6908 bound_to 6896
  152.5430  134.0672  159.8231 H   0  0  0  0  0  0  0  0  0  0  0  0  # atno 6909 bound_to 6896
  145.9516  139.3977  143.0302 H   0  0  0  0  0  0  0  0  0  0  0  0  # atno 7974 bound_to 7965
  154.9346  140.3045  155.5151 H   0  0  0  0  0  0  0  0  0  0  0  0  # atno 8008 bound_to 7997
  156.3001  140.2347  156.4346 H   0  0  0  0  0  0  0  0  0  0  0  0  # atno 8009 bound_to 7997
  154.8204  140.0423  157.1395 H   0  0  0  0  0  0  0  0  0  0  0  0  # atno 8010 bound_to 7997
  139.5687  144.6926  151.3839 H   0  0  0  0  0  0  0  0  0  0  0  0  # atno 10167 bound_to 10162
  156.7796  130.5326  149.5753 H   0  0  0  0  0  0  0  0  0  0  0  0  # atno 10718 bound_to 10713
  154.5700  135.2827  155.0836 H   0  0  0  0  0  0  0  0  0  0  0  0  # atno 10763 bound_to 10752
  154.2212  135.6391  153.5149 H   0  0  0  0  0  0  0  0  0  0  0  0  # atno 10764 bound_to 10752
  153.0054  135.5515  154.6321 H   0  0  0  0  0  0  0  0  0  0  0  0  # atno 10765 bound_to 10752
  140.9572  134.0985  157.4004 H   0  0  0  0  0  0  0  0  0  0  0  0  # atno 11005 bound_to 11000
  145.8163  140.9701  143.0922 LP  0  0  0  0  0  0  0  0  0  0  0  0  # atno 17320 bound_to 7965
  144.6797  139.9985  143.7484 LP  0  0  0  0  0  0  0  0  0  0  0  0  # atno 17321 bound_to 7965
  140.6971  143.7723  150.7343 LP  0  0  0  0  0  0  0  0  0  0  0  0  # atno 17342 bound_to 10162
  140.1222  143.4601  152.2306 LP  0  0  0  0  0  0  0  0  0  0  0  0  # atno 17343 bound_to 10162
  156.1226  130.6121  151.0216 LP  0  0  0  0  0  0  0  0  0  0  0  0  # atno 17370 bound_to 10713
  157.6652  131.0873  150.7744 LP  0  0  0  0  0  0  0  0  0  0  0  0  # atno 17371 bound_to 10713
  139.8866  135.0083  156.6509 LP  0  0  0  0  0  0  0  0  0  0  0  0  # atno 17394 bound_to 11000
  140.7519  133.8890  155.8353 LP  0  0  0  0  0  0  0  0  0  0  0  0  # atno 17395 bound_to 11000

$$$$
