AV-unprocessed.smi:850|AV-procd|sdf|3947|dock4
  -GOLD-   22720 1413D 1   1.00000     0.00000
 Structure written by MMmdl.
 40 42  0  0  0  0  0  0  0  0  1 V2000
  153.7390  140.7437  160.3925 C   0  0  0  0  0  0  0  0  0  0  0  0
  152.8825  141.4592  159.4545 N   0  0  0  0  0  0  0  0  0  0  0  0
  152.4571  141.0274  158.2443 C   0  0  0  0  0  0  0  0  0  0  0  0
  152.7256  139.9443  157.7248 O   0  0  0  0  0  0  0  0  0  0  0  0
  151.6859  141.9989  157.7000 N   0  0  0  0  0  0  0  0  0  0  0  0
  151.0173  141.9519  156.4009 C   0  0  0  0  0  0  0  0  0  0  0  0
  150.6689  140.5075  155.9883 C   0  0  2  0  0  0  0  0  0  0  0  0
  151.6569  140.0437  155.0901 O   0  0  0  0  0  0  0  0  0  0  0  0
  149.3175  140.4241  155.2628 C   0  0  0  0  0  0  0  0  0  0  0  0
  148.3164  140.9961  156.0946 O   0  0  0  0  0  0  0  0  0  0  0  0
  147.3450  141.7770  155.5068 C   0  0  0  0  0  0  0  0  0  0  0  0
  146.3669  142.3294  156.3595 C   0  0  0  0  0  0  0  0  0  0  0  0
  145.3384  143.1424  155.8455 C   0  0  0  0  0  0  0  0  0  0  0  0
  145.2779  143.4114  154.4660 C   0  0  0  0  0  0  0  0  0  0  0  0
  146.2464  142.8659  153.6032 C   0  0  0  0  0  0  0  0  0  0  0  0
  147.2749  142.0521  154.1173 C   0  0  0  0  0  0  0  0  0  0  0  0
  151.6224  143.0850  158.5848 C   0  0  0  0  0  0  0  0  0  0  0  0
  150.9684  144.3259  158.4860 C   0  0  0  0  0  0  0  0  0  0  0  0
  151.1075  145.2182  159.5750 C   0  0  0  0  0  0  0  0  0  0  0  0
  151.8781  144.8635  160.7129 C   0  0  0  0  0  0  0  0  0  0  0  0
  152.5280  143.6090  160.7851 C   0  0  0  0  0  0  0  0  0  0  0  0
  152.3738  142.7427  159.6893 C   0  0  0  0  0  0  0  0  0  0  0  0
  154.0448  139.7692  160.0096 H   0  0  0  0  0  0  0  0  0  0  0  0
  153.2144  140.5855  161.3352 H   0  0  0  0  0  0  0  0  0  0  0  0
  154.6398  141.3229  160.5959 H   0  0  0  0  0  0  0  0  0  0  0  0
  150.1024  142.5410  156.4832 H   0  0  0  0  0  0  0  0  0  0  0  0
  151.6116  142.4490  155.6335 H   0  0  0  0  0  0  0  0  0  0  0  0
  150.6466  139.8460  156.8556 H   0  0  0  0  0  0  0  0  0  0  0  0
  152.5066  140.2620  155.4416 H   0  0  0  0  0  0  0  0  0  0  0  0
  149.3745  140.9455  154.3056 H   0  0  0  0  0  0  0  0  0  0  0  0
  149.0664  139.3800  155.0667 H   0  0  0  0  0  0  0  0  0  0  0  0
  146.4068  142.1284  157.4201 H   0  0  0  0  0  0  0  0  0  0  0  0
  144.5963  143.5592  156.5104 H   0  0  0  0  0  0  0  0  0  0  0  0
  144.4895  144.0350  154.0704 H   0  0  0  0  0  0  0  0  0  0  0  0
  146.2009  143.0712  152.5439 H   0  0  0  0  0  0  0  0  0  0  0  0
  147.9984  141.6507  153.4241 H   0  0  0  0  0  0  0  0  0  0  0  0
  150.3846  144.5929  157.6178 H   0  0  0  0  0  0  0  0  0  0  0  0
  150.6209  146.1818  159.5399 H   0  0  0  0  0  0  0  0  0  0  0  0
  151.9701  145.5600  161.5333 H   0  0  0  0  0  0  0  0  0  0  0  0
  153.1175  143.3314  161.6464 H   0  0  0  0  0  0  0  0  0  0  0  0
  1  2  1  0  0  0  0
  1 23  1  0  0  0  0
  1 24  1  0  0  0  0
  1 25  1  0  0  0  0
  2 22  1  0  0  0  0
  2  3  1  0  0  0  0
  3  4  2  0  0  0  0
  3  5  1  0  0  0  0
  5  6  1  0  0  0  0
  5 17  1  0  0  0  0
  6  7  1  0  0  0  0
  6 26  1  0  0  0  0
  6 27  1  0  0  0  0
  7  8  1  0  0  0  0
  7  9  1  0  0  0  0
  7 28  1  0  0  0  0
  8 29  1  0  0  0  0
  9 10  1  0  0  0  0
  9 30  1  0  0  0  0
  9 31  1  0  0  0  0
 10 11  1  0  0  0  0
 11 16  1  0  0  0  0
 11 12  2  0  0  0  0
 12 13  1  0  0  0  0
 12 32  1  0  0  0  0
 13 14  2  0  0  0  0
 13 33  1  0  0  0  0
 14 15  1  0  0  0  0
 14 34  1  0  0  0  0
 15 16  2  0  0  0  0
 15 35  1  0  0  0  0
 16 36  1  0  0  0  0
 17 22  2  0  0  0  0
 17 18  1  0  0  0  0
 18 19  2  0  0  0  0
 18 37  1  0  0  0  0
 19 20  1  0  0  0  0
 19 38  1  0  0  0  0
 20 21  2  0  0  0  0
 20 39  1  0  0  0  0
 21 22  1  0  0  0  0
 21 40  1  0  0  0  0
M  END
> <s_m_source_file>
AV-unprocessed.smi

> <i_m_source_file_index>
850

> <i_lp_mmshare_version>
43012

> <i_f3d_flags>
0

> <s_epik_input>
W2NIXTFbY0hdW2NIXVtjSF1jKGMxMiluKFtDSDNdKWMoPU8pbjJbQ0gyXVtDQEhdKFtPSF0pW0NIMl1PYzNbY0hdW2NIXVtjSF1bY0hdW2NIXTM=

> <s_epik_cmdline>
J2VwaWtfcHl0aG9uJywgJy1waCcsICc3LjAnLCAnLXRuJywgJzgnLCAnLW1hJywgJzIwMCcsICctbWV0YWxfYmluZGluZycsICctaW1hZScsICc8aW5maWxlLm1hZT4nLCAnLW9tYWUnLCAnPG91dGZpbGUubWFlPic=

> <r_lp_tautomer_probability>
1

> <r_epik_Ionization_Penalty>
2.40205e-06

> <r_epik_Ionization_Penalty_Charging>
2.75209e-09

> <r_epik_Ionization_Penalty_Neutral>
2.3993e-06

> <r_epik_State_Penalty>
-0

> <r_epik_Charging_Adjusted_Penalty>
2.75209e-09

> <i_epik_Tot_Q>
0

> <i_epik_Tot_abs_Q>
0

> <r_epik_Metal_State_Penalty>
-0

> <b_epik_Metal_Only>
0

> <s_lp_Force_Field>
OPLS_2005

> <r_lp_Energy>
46.059

> <b_lp_Chiralities_Consistent>
1

> <s_lp_Variant>
AV-unprocessed.smi:850-1

> <Gold.Version>
5.8.1

> <Gold.Id.Protein>
6NUR|6NUR_protein|mol2

> <Gold.PLP.Fitness>
55.7632

> <Gold.PLP.PLP>
-52.0964

> <Gold.PLP.part.hbond>
-2.0000

> <Gold.PLP.part.metal>
0.0000

> <Gold.PLP.part.buried>
-8.6997

> <Gold.PLP.part.nonpolar>
-41.2878

> <Gold.PLP.part.repulsive>
0.0666

> <Gold.PLP.ligand.clash>
0.0007

> <Gold.PLP.ligand.torsion>
1.1958

> <Gold.PLP.Chemscore.Hbond>
2.0000

> <Gold.PLP.Chemscore.CHOScore>
0.0000

> <Gold.PLP.Chemscore.Metal>
0.0000

> <Gold.Chemscore.Hbonds>
donor molecule, donor type, donor heavy atom, donor atom, acceptor molecule, acceptor atom, score
      P1  H  7989  7998       L1     8  1.00
      P1  H  7997  8010       L1     4  1.00

> <Gold.PLP.Chemscore.Internal.Correction>
0.0591

> <Gold.Rescore>
     Score         DG    S(hbond)    S(metal)    S(lipo)     H(rot)  DE(clash)    DE(int)     intcor
     16.76     -19.78       1.52        0.00     125.24       2.12       0.29       2.73       ----

> <Gold.Chemscore.Fitness>
16.7556

> <Gold.Chemscore.DG>
-19.7831

> <Gold.Chemscore.ZeroCoef>
-5.4800

> <Gold.Chemscore.Hbond>
1.5191

> <Gold.Chemscore.Metal>
0.0000

> <Gold.Chemscore.Lipo>
125.2350

> <Gold.Chemscore.Internal_Hbond>
0.0000

> <Gold.Chemscore.DEClash>
0.2934

> <Gold.Chemscore.DEInternal>
2.7341

> <Gold.Chemscore.Rot>
2.1184

> <Gold.Chemscore.Internal.Correction>
   9.000000E+99

> <Gold.Chemscore.Hbonds>
donor molecule, donor type, donor heavy atom, donor atom, acceptor molecule, acceptor atom, score
      P1  H  7989  7998       L1     8  0.33
      P1  H  7997  8010       L1     4  0.73

> <Gold.Chemscore.Hbond.Weighted>
-5.0738

> <Gold.Chemscore.Metal.Weighted>
-0.0000

> <Gold.Chemscore.Lipo.Weighted>
-14.6525

> <Gold.Chemscore.Internal_Hbond.Weighted>
0.0000

> <Gold.Chemscore.DEClash.Weighted>
0.2934

> <Gold.Chemscore.DEInternal.Weighted>
2.7341

> <Gold.Chemscore.Rot.Weighted>
5.4231

> <Gold.Chemscore.Internal.Correction.Weighted>
   9.000000E+99

> <Gold.Protein.RotatedTorsions>
[ 6907 6896 6895 6894 ] final -136.62 input  -60.11 | X-H torsion
[ 7974 7965 7964 7962 ] final    0.05 input  175.53 | X-H torsion
[ 8008 7997 7996 7995 ] final   54.00 input   59.86 | X-H torsion
[ 10167 10162 10161 10158 ] final  143.15 input  -65.29 | X-H torsion
[ 10718 10713 10712 10709 ] final -147.93 input   66.30 | X-H torsion
[ 10763 10752 10751 10750 ] final   47.82 input  -60.55 | X-H torsion
[ 11005 11000 10999 10996 ] final -148.85 input  -57.11 | X-H torsion

> <Gold.Protein.ActiveResidues>
 VAL166  LYS551  ARG553  GLY616  TRP617  ASP618  TYR619  PRO620  LYS621  CYS622 
 ASP623  PHE694  ASN695  SER759  ASP760  ASP761  ALA762  ILE779  LEU786  VAL792 
 PHE793  MET794  SER795  GLU796  ALA797  LYS798  CYS799  TRP800  GLU811  SER814 

> <Gold.Protein.RotatedAtoms>
  151.0123  133.5954  159.2680 H   0  0  0  0  0  0  0  0  0  0  0  0  # atno 6907 bound_to 6896
  151.3101  135.0791  159.9279 H   0  0  0  0  0  0  0  0  0  0  0  0  # atno 6908 bound_to 6896
  152.5302  133.9789  159.7851 H   0  0  0  0  0  0  0  0  0  0  0  0  # atno 6909 bound_to 6896
  146.2431  140.1196  142.8341 H   0  0  0  0  0  0  0  0  0  0  0  0  # atno 7974 bound_to 7965
  155.4775  140.3467  155.4335 H   0  0  0  0  0  0  0  0  0  0  0  0  # atno 8008 bound_to 7997
  156.1060  140.1448  156.9432 H   0  0  0  0  0  0  0  0  0  0  0  0  # atno 8009 bound_to 7997
  154.4725  140.0896  156.7158 H   0  0  0  0  0  0  0  0  0  0  0  0  # atno 8010 bound_to 7997
  139.4976  144.6060  151.6378 H   0  0  0  0  0  0  0  0  0  0  0  0  # atno 10167 bound_to 10162
  156.4138  130.7995  151.2214 H   0  0  0  0  0  0  0  0  0  0  0  0  # atno 10718 bound_to 10713
  152.9796  135.5964  154.3825 H   0  0  0  0  0  0  0  0  0  0  0  0  # atno 10763 bound_to 10752
  154.3488  135.2767  155.2385 H   0  0  0  0  0  0  0  0  0  0  0  0  # atno 10764 bound_to 10752
  154.4433  135.6008  153.6199 H   0  0  0  0  0  0  0  0  0  0  0  0  # atno 10765 bound_to 10752
  140.7569  134.3343  157.5112 H   0  0  0  0  0  0  0  0  0  0  0  0  # atno 11005 bound_to 11000
  145.0418  140.8951  143.5048 LP  0  0  0  0  0  0  0  0  0  0  0  0  # atno 17320 bound_to 7965
  145.1278  139.2652  143.5555 LP  0  0  0  0  0  0  0  0  0  0  0  0  # atno 17321 bound_to 7965
  140.5721  144.0090  150.6222 LP  0  0  0  0  0  0  0  0  0  0  0  0  # atno 17342 bound_to 10162
  140.3211  143.3136  152.0783 LP  0  0  0  0  0  0  0  0  0  0  0  0  # atno 17343 bound_to 10162
  157.7507  131.0249  150.3897 LP  0  0  0  0  0  0  0  0  0  0  0  0  # atno 17370 bound_to 10713
  156.4201  130.3951  149.6831 LP  0  0  0  0  0  0  0  0  0  0  0  0  # atno 17371 bound_to 10713
  139.8777  134.9177  156.3186 LP  0  0  0  0  0  0  0  0  0  0  0  0  # atno 17394 bound_to 11000
  140.9699  133.7334  156.0520 LP  0  0  0  0  0  0  0  0  0  0  0  0  # atno 17395 bound_to 11000

$$$$
