AV-unprocessed.smi:1957|AV-procd|sdf|7905|dock10
  -GOLD-   2272010 63D 1   1.00000     0.00000
 Structure written by MMmdl.
 42 43  0  0  0  0  0  0  0  0  1 V2000
  153.9891  136.4287  164.2616 C   0  0  0  0  0  0  0  0  0  0  0  0
  154.6986  136.8569  163.1125 O   0  0  0  0  0  0  0  0  0  0  0  0
  153.8584  137.4865  162.1602 C   0  0  0  0  0  0  0  0  0  0  0  0
  154.7350  138.1576  161.0921 C   0  0  0  0  0  0  0  0  0  0  0  0
  154.0475  139.2915  160.4664 N   0  0  0  0  0  0  0  0  0  0  0  0
  153.1291  138.9287  159.4953 N   0  0  0  0  0  0  0  0  0  0  0  0
  152.4465  139.8360  158.8746 C   0  0  0  0  0  0  0  0  0  0  0  0
  151.4467  139.4874  157.8277 C   0  0  0  0  0  0  0  0  0  0  0  0
  151.3934  138.3630  157.3266 O   0  0  0  0  0  0  0  0  0  0  0  0
  150.6185  140.4861  157.4685 N   0  0  0  0  0  0  0  0  0  0  0  0
  149.5907  140.4095  156.4281 C   0  0  1  0  0  0  0  0  0  0  0  0
  148.8302  141.7553  156.4244 C   0  0  0  0  0  0  0  0  0  0  0  0
  147.4264  141.6724  155.7995 C   0  0  0  0  0  0  0  0  0  0  0  0
  147.4016  141.3399  154.2998 C   0  0  0  0  0  0  0  0  0  0  0  0
  147.9900  139.9592  153.9624 C   0  0  0  0  0  0  0  0  0  0  0  0
  149.4468  139.9647  153.9815 N   0  0  0  0  0  0  0  0  0  0  0  0
  150.2387  140.1893  155.0408 C   0  0  0  0  0  0  0  0  0  0  0  0
  151.4619  140.2236  154.9049 O   0  0  0  0  0  0  0  0  0  0  0  0
  152.6298  141.2447  159.1808 C   0  0  0  0  0  0  0  0  0  0  0  0
  153.5273  141.5829  160.1323 C   0  0  0  0  0  0  0  0  0  0  0  0
  154.3093  140.5767  160.8523 C   0  0  0  0  0  0  0  0  0  0  0  0
  155.1261  140.8592  161.7282 O   0  0  0  0  0  0  0  0  0  0  0  0
  154.6782  135.9601  164.9640 H   0  0  0  0  0  0  0  0  0  0  0  0
  153.2236  135.6966  164.0014 H   0  0  0  0  0  0  0  0  0  0  0  0
  153.5125  137.2692  164.7678 H   0  0  0  0  0  0  0  0  0  0  0  0
  153.2012  136.7490  161.6963 H   0  0  0  0  0  0  0  0  0  0  0  0
  153.2266  138.2256  162.6552 H   0  0  0  0  0  0  0  0  0  0  0  0
  155.6804  138.4806  161.5317 H   0  0  0  0  0  0  0  0  0  0  0  0
  155.0052  137.4218  160.3323 H   0  0  0  0  0  0  0  0  0  0  0  0
  150.7333  141.3786  157.9270 H   0  0  0  0  0  0  0  0  0  0  0  0
  148.9063  139.5910  156.6588 H   0  0  0  0  0  0  0  0  0  0  0  0
  148.6996  142.0914  157.4544 H   0  0  0  0  0  0  0  0  0  0  0  0
  149.4164  142.5361  155.9364 H   0  0  0  0  0  0  0  0  0  0  0  0
  146.8324  140.9362  156.3425 H   0  0  0  0  0  0  0  0  0  0  0  0
  146.9227  142.6278  155.9502 H   0  0  0  0  0  0  0  0  0  0  0  0
  146.3638  141.3627  153.9657 H   0  0  0  0  0  0  0  0  0  0  0  0
  147.9145  142.1176  153.7320 H   0  0  0  0  0  0  0  0  0  0  0  0
  147.6002  139.1880  154.6283 H   0  0  0  0  0  0  0  0  0  0  0  0
  147.6848  139.6766  152.9545 H   0  0  0  0  0  0  0  0  0  0  0  0
  149.9037  139.8143  153.0935 H   0  0  0  0  0  0  0  0  0  0  0  0
  152.0661  142.0089  158.6655 H   0  0  0  0  0  0  0  0  0  0  0  0
  153.6729  142.6264  160.3707 H   0  0  0  0  0  0  0  0  0  0  0  0
  1  2  1  0  0  0  0
  1 23  1  0  0  0  0
  1 24  1  0  0  0  0
  1 25  1  0  0  0  0
  2  3  1  0  0  0  0
  3  4  1  0  0  0  0
  3 26  1  0  0  0  0
  3 27  1  0  0  0  0
  4  5  1  0  0  0  0
  4 28  1  0  0  0  0
  4 29  1  0  0  0  0
  5 21  1  0  0  0  0
  5  6  1  0  0  0  0
  6  7  2  0  0  0  0
  7  8  1  0  0  0  0
  7 19  1  0  0  0  0
  8  9  2  0  0  0  0
  8 10  1  0  0  0  0
 10 11  1  0  0  0  0
 10 30  1  0  0  0  0
 11 17  1  0  0  0  0
 11 12  1  0  0  0  0
 11 31  1  0  0  0  0
 12 13  1  0  0  0  0
 12 32  1  0  0  0  0
 12 33  1  0  0  0  0
 13 14  1  0  0  0  0
 13 34  1  0  0  0  0
 13 35  1  0  0  0  0
 14 15  1  0  0  0  0
 14 36  1  0  0  0  0
 14 37  1  0  0  0  0
 15 16  1  0  0  0  0
 15 38  1  0  0  0  0
 15 39  1  0  0  0  0
 16 17  1  0  0  0  0
 16 40  1  0  0  0  0
 17 18  2  0  0  0  0
 19 20  2  0  0  0  0
 19 41  1  0  0  0  0
 20 21  1  0  0  0  0
 20 42  1  0  0  0  0
 21 22  2  0  0  0  0
M  END
> <s_m_source_file>
AV-unprocessed.smi

> <i_m_source_file_index>
1957

> <i_lp_mmshare_version>
43012

> <i_f3d_flags>
0

> <s_epik_input>
W0NIM11PW0NIMl1bQ0gyXW4xbmMoW2NIXVtjSF1jMT1PKUMoPU8pW05IXVtDQEBIXTJbQ0gyXVtDSDJdW0NIMl1bQ0gyXVtOSF1DMj1P

> <s_epik_cmdline>
J2VwaWtfcHl0aG9uJywgJy1waCcsICc3LjAnLCAnLXRuJywgJzgnLCAnLW1hJywgJzIwMCcsICctbWV0YWxfYmluZGluZycsICctaW1hZScsICc8aW5maWxlLm1hZT4nLCAnLW9tYWUnLCAnPG91dGZpbGUubWFlPic=

> <r_lp_tautomer_probability>
1

> <r_epik_Ionization_Penalty>
2.17512e-06

> <r_epik_Ionization_Penalty_Charging>
5.0222e-09

> <r_epik_Ionization_Penalty_Neutral>
2.1701e-06

> <r_epik_State_Penalty>
-0

> <r_epik_Charging_Adjusted_Penalty>
5.0222e-09

> <i_epik_Tot_Q>
0

> <i_epik_Tot_abs_Q>
0

> <r_epik_Metal_State_Penalty>
-0

> <b_epik_Metal_Only>
0

> <s_lp_Force_Field>
OPLS_2005

> <r_lp_Energy>
29.6922

> <b_lp_Chiralities_Consistent>
1

> <s_lp_Variant>
AV-unprocessed.smi:1957-2

> <Gold.Version>
5.8.1

> <Gold.Id.Protein>
6NUR|6NUR_protein|mol2

> <Gold.PLP.Fitness>
40.8049

> <Gold.PLP.PLP>
-36.4761

> <Gold.PLP.part.hbond>
-2.9533

> <Gold.PLP.part.metal>
0.0000

> <Gold.PLP.part.buried>
-3.8290

> <Gold.PLP.part.nonpolar>
-29.2343

> <Gold.PLP.part.repulsive>
0.2658

> <Gold.PLP.ligand.clash>
0.0638

> <Gold.PLP.ligand.torsion>
0.5573

> <Gold.PLP.Chemscore.Hbond>
1.8320

> <Gold.PLP.Chemscore.CHOScore>
0.0000

> <Gold.PLP.Chemscore.Metal>
0.0000

> <Gold.Chemscore.Hbonds>
donor molecule, donor type, donor heavy atom, donor atom, acceptor molecule, acceptor atom, score
      L1  H    16    40       P1  7957  0.83
      P1  H  7989  7998       L1    18  1.00

> <Gold.PLP.Chemscore.Internal.Correction>
0.0113

> <Gold.Rescore>
     Score         DG    S(hbond)    S(metal)    S(lipo)     H(rot)  DE(clash)    DE(int)     intcor
     14.65     -15.28       1.95        0.00      67.17       1.78       0.00       0.63       ----

> <Gold.Chemscore.Fitness>
14.6539

> <Gold.Chemscore.DG>
-15.2840

> <Gold.Chemscore.ZeroCoef>
-5.4800

> <Gold.Chemscore.Hbond>
1.9460

> <Gold.Chemscore.Metal>
0.0000

> <Gold.Chemscore.Lipo>
67.1699

> <Gold.Chemscore.Internal_Hbond>
0.0000

> <Gold.Chemscore.DEClash>
0.0000

> <Gold.Chemscore.DEInternal>
0.6301

> <Gold.Chemscore.Rot>
1.7791

> <Gold.Chemscore.Internal.Correction>
   9.000000E+99

> <Gold.Chemscore.Hbonds>
donor molecule, donor type, donor heavy atom, donor atom, acceptor molecule, acceptor atom, score
      L1  H    16    40       P1  7957  0.82
      P1  H  7989  7998       L1    18  0.42

> <Gold.Chemscore.Hbond.Weighted>
-6.4995

> <Gold.Chemscore.Metal.Weighted>
-0.0000

> <Gold.Chemscore.Lipo.Weighted>
-7.8589

> <Gold.Chemscore.Internal_Hbond.Weighted>
0.0000

> <Gold.Chemscore.DEClash.Weighted>
0.0000

> <Gold.Chemscore.DEInternal.Weighted>
0.6301

> <Gold.Chemscore.Rot.Weighted>
4.5544

> <Gold.Chemscore.Internal.Correction.Weighted>
   9.000000E+99

> <Gold.Protein.RotatedTorsions>
[ 6907 6896 6895 6894 ] final  -14.28 input  -60.11 | X-H torsion
[ 7974 7965 7964 7962 ] final  176.29 input  175.53 | X-H torsion
[ 8008 7997 7996 7995 ] final  114.11 input   59.86 | X-H torsion
[ 10167 10162 10161 10158 ] final  -25.46 input  -65.29 | X-H torsion
[ 10718 10713 10712 10709 ] final   70.95 input   66.30 | X-H torsion
[ 10763 10752 10751 10750 ] final -175.50 input  -60.55 | X-H torsion
[ 11005 11000 10999 10996 ] final -149.44 input  -57.11 | X-H torsion

> <Gold.Protein.ActiveResidues>
 VAL166  LYS551  ARG553  GLY616  TRP617  ASP618  TYR619  PRO620  LYS621  CYS622 
 ASP623  PHE694  ASN695  SER759  ASP760  ASP761  ALA762  ILE779  LEU786  VAL792 
 PHE793  MET794  SER795  GLU796  ALA797  LYS798  CYS799  TRP800  GLU811  SER814 

> <Gold.Protein.RotatedAtoms>
  151.3418  135.0865  159.9373 H   0  0  0  0  0  0  0  0  0  0  0  0  # atno 6907 bound_to 6896
  152.5209  133.9439  159.7650 H   0  0  0  0  0  0  0  0  0  0  0  0  # atno 6908 bound_to 6896
  150.9798  133.6204  159.2754 H   0  0  0  0  0  0  0  0  0  0  0  0  # atno 6909 bound_to 6896
  144.7187  140.0075  143.6440 H   0  0  0  0  0  0  0  0  0  0  0  0  # atno 7974 bound_to 7965
  156.2300  140.2966  156.0165 H   0  0  0  0  0  0  0  0  0  0  0  0  # atno 8008 bound_to 7997
  155.2250  140.0417  157.2971 H   0  0  0  0  0  0  0  0  0  0  0  0  # atno 8009 bound_to 7997
  154.5980  140.2419  155.7838 H   0  0  0  0  0  0  0  0  0  0  0  0  # atno 8010 bound_to 7997
  140.7286  143.4263  151.0871 H   0  0  0  0  0  0  0  0  0  0  0  0  # atno 10167 bound_to 10162
  157.6427  130.9503  150.0722 H   0  0  0  0  0  0  0  0  0  0  0  0  # atno 10718 bound_to 10713
  154.5836  135.2838  155.0708 H   0  0  0  0  0  0  0  0  0  0  0  0  # atno 10763 bound_to 10752
  154.2035  135.6420  153.5097 H   0  0  0  0  0  0  0  0  0  0  0  0  # atno 10764 bound_to 10752
  153.0096  135.5474  154.6498 H   0  0  0  0  0  0  0  0  0  0  0  0  # atno 10765 bound_to 10752
  140.7507  134.3410  157.5126 H   0  0  0  0  0  0  0  0  0  0  0  0  # atno 11005 bound_to 11000
  146.0285  139.3314  143.0769 LP  0  0  0  0  0  0  0  0  0  0  0  0  # atno 17320 bound_to 7965
  145.8481  140.9544  143.0764 LP  0  0  0  0  0  0  0  0  0  0  0  0  # atno 17321 bound_to 7965
  139.7915  143.8212  152.3152 LP  0  0  0  0  0  0  0  0  0  0  0  0  # atno 17342 bound_to 10162
  139.8197  144.7301  150.9588 LP  0  0  0  0  0  0  0  0  0  0  0  0  # atno 17343 bound_to 10162
  156.1722  130.3647  149.9149 LP  0  0  0  0  0  0  0  0  0  0  0  0  # atno 17370 bound_to 10713
  156.7121  130.8974  151.3610 LP  0  0  0  0  0  0  0  0  0  0  0  0  # atno 17371 bound_to 10713
  139.8788  134.9140  156.3097 LP  0  0  0  0  0  0  0  0  0  0  0  0  # atno 17394 bound_to 11000
  140.9753  133.7301  156.0593 LP  0  0  0  0  0  0  0  0  0  0  0  0  # atno 17395 bound_to 11000

$$$$
