AV-unprocessed.smi:3096|AV-procd|sdf|11797|dock3
  -GOLD-   2272017173D 1   1.00000     0.00000
 Structure written by MMmdl.
 33 33  0  0  0  0  0  0  0  0  2 V2000
  145.9856  132.7226  150.3352 C   0  0  0  0  0  0  0  0  0  0  0  0
  146.6470  133.6410  151.0609 C   0  0  0  0  0  0  0  0  0  0  0  0
  146.1380  134.3752  152.2932 C   0  0  0  0  0  0  0  0  0  0  0  0
  146.1515  135.8369  152.1143 N   0  0  0  0  0  0  0  0  0  0  0  0
  145.1117  136.6708  152.3161 C   0  0  0  0  0  0  0  0  0  0  0  0
  145.2654  137.9961  152.1292 N   0  3  0  0  0  0  0  0  0  0  0  0
  146.5055  138.6616  151.7129 C   0  0  0  0  0  0  0  0  0  0  0  0
  143.9181  136.1798  152.7007 N   0  0  0  0  0  0  0  0  0  0  0  0
  142.6951  136.9560  152.9452 C   0  0  0  0  0  0  0  0  0  0  0  0
  141.5432  136.0562  153.4182 C   0  0  0  0  0  0  0  0  0  0  0  0
  140.3410  136.8149  153.7120 N   0  0  0  0  0  0  0  0  0  0  0  0
  139.7834  137.8494  152.9908 C   0  0  0  0  0  0  0  0  0  0  0  0
  138.6550  138.2430  153.6514 C   0  0  0  0  0  0  0  0  0  0  0  0
  138.6054  137.3793  154.7809 C   0  0  0  0  0  0  0  0  0  0  0  0
  139.6155  136.5251  154.8145 N   0  0  0  0  0  0  0  0  0  0  0  0
  144.9804  132.4099  150.5769 H   0  0  0  0  0  0  0  0  0  0  0  0
  146.4525  132.2656  149.4751 H   0  0  0  0  0  0  0  0  0  0  0  0
  147.6504  133.9016  150.7572 H   0  0  0  0  0  0  0  0  0  0  0  0
  145.1173  134.0531  152.4995 H   0  0  0  0  0  0  0  0  0  0  0  0
  146.7447  134.1042  153.1575 H   0  0  0  0  0  0  0  0  0  0  0  0
  147.0302  136.2393  151.8211 H   0  0  0  0  0  0  0  0  0  0  0  0
  146.3488  139.7379  151.6410 H   0  0  0  0  0  0  0  0  0  0  0  0
  146.8270  138.2933  150.7386 H   0  0  0  0  0  0  0  0  0  0  0  0
  147.2992  138.4755  152.4367 H   0  0  0  0  0  0  0  0  0  0  0  0
  143.8318  135.1783  152.8052 H   0  0  0  0  0  0  0  0  0  0  0  0
  142.9099  137.6998  153.7127 H   0  0  0  0  0  0  0  0  0  0  0  0
  142.4172  137.4978  152.0405 H   0  0  0  0  0  0  0  0  0  0  0  0
  141.3104  135.3001  152.6666 H   0  0  0  0  0  0  0  0  0  0  0  0
  141.8390  135.5173  154.3190 H   0  0  0  0  0  0  0  0  0  0  0  0
  140.2300  138.2147  152.0777 H   0  0  0  0  0  0  0  0  0  0  0  0
  137.9693  139.0285  153.3704 H   0  0  0  0  0  0  0  0  0  0  0  0
  137.8701  137.3476  155.5713 H   0  0  0  0  0  0  0  0  0  0  0  0
  144.4666  138.5946  152.2845 H   0  0  0  0  0  0  0  0  0  0  0  0
  1  2  2  0  0  0  0
  1 16  1  0  0  0  0
  1 17  1  0  0  0  0
  2  3  1  0  0  0  0
  2 18  1  0  0  0  0
  3  4  1  0  0  0  0
  3 19  1  0  0  0  0
  3 20  1  0  0  0  0
  4  5  1  0  0  0  0
  4 21  1  0  0  0  0
  5  6  2  0  0  0  0
  5  8  1  0  0  0  0
  6  7  1  0  0  0  0
  6 33  1  0  0  0  0
  7 22  1  0  0  0  0
  7 23  1  0  0  0  0
  7 24  1  0  0  0  0
  8  9  1  0  0  0  0
  8 25  1  0  0  0  0
  9 10  1  0  0  0  0
  9 26  1  0  0  0  0
  9 27  1  0  0  0  0
 10 11  1  0  0  0  0
 10 28  1  0  0  0  0
 10 29  1  0  0  0  0
 11 15  1  0  0  0  0
 11 12  1  0  0  0  0
 12 13  2  0  0  0  0
 12 30  1  0  0  0  0
 13 14  1  0  0  0  0
 13 31  1  0  0  0  0
 14 15  2  0  0  0  0
 14 32  1  0  0  0  0
M  CHG  1   6   1
M  END
> <s_m_source_file>
AV-unprocessed.smi

> <i_m_source_file_index>
3096

> <i_lp_mmshare_version>
43012

> <i_f3d_flags>
0

> <s_epik_input>
W0NIMl09W0NIXVtDSDJdW05IXS9DKD1OL1tDSDNdKVtOSF1bQ0gyXVtDSDJdbjFbY0hdW2NIXVtjSF1uMQ==

> <s_epik_cmdline>
J2VwaWtfcHl0aG9uJywgJy1waCcsICc3LjAnLCAnLXRuJywgJzgnLCAnLW1hJywgJzIwMCcsICctbWV0YWxfYmluZGluZycsICctaW1hZScsICc8aW5maWxlLm1hZT4nLCAnLW9tYWUnLCAnPG91dGZpbGUubWFlPic=

> <r_lp_tautomer_probability>
1

> <r_epik_Ionization_Penalty>
5.14269e-05

> <r_epik_Ionization_Penalty_Charging>
1.55211e-07

> <r_epik_Ionization_Penalty_Neutral>
5.12717e-05

> <r_epik_State_Penalty>
-0

> <r_epik_Charging_Adjusted_Penalty>
1.55211e-07

> <i_epik_Tot_Q>
1

> <i_epik_Tot_abs_Q>
1

> <r_epik_Metal_State_Penalty>
-0

> <b_epik_Metal_Only>
0

> <s_epik_Chemistry_Notes>
This compound has an imine and may undergo hydrolysis.

> <s_lp_Force_Field>
OPLS_2005

> <r_lp_Energy>
6.72739

> <b_lp_Chiralities_Consistent>
1

> <s_lp_Variant>
AV-unprocessed.smi:3096-2

> <Gold.Version>
5.8.1

> <Gold.Id.Protein>
6NUR|6NUR_protein|mol2

> <Gold.PLP.Fitness>
46.6220

> <Gold.PLP.PLP>
-32.1466

> <Gold.PLP.part.hbond>
-3.6282

> <Gold.PLP.part.metal>
0.0000

> <Gold.PLP.part.buried>
-6.0486

> <Gold.PLP.part.nonpolar>
-23.1740

> <Gold.PLP.part.repulsive>
0.1286

> <Gold.PLP.ligand.clash>
0.0000

> <Gold.PLP.ligand.torsion>
0.2643

> <Gold.PLP.Chemscore.Hbond>
4.0000

> <Gold.PLP.Chemscore.CHOScore>
1.0000

> <Gold.PLP.Chemscore.Metal>
0.0000

> <Gold.Chemscore.Hbonds>
donor molecule, donor type, donor heavy atom, donor atom, acceptor molecule, acceptor atom, score
      L1  H     4    21       P1  7948  2.00
      L1  H     6    33       P1 10175  2.00
      L1  C    12    30       P1 10160  0.84

> <Gold.PLP.Chemscore.Internal.Correction>
0.0040

> <Gold.Rescore>
     Score         DG    S(hbond)    S(metal)    S(lipo)     H(rot)  DE(clash)    DE(int)     intcor
     14.04     -14.39       1.95        0.00      61.75       1.89       0.13       0.22       ----

> <Gold.Chemscore.Fitness>
14.0443

> <Gold.Chemscore.DG>
-14.3872

> <Gold.Chemscore.ZeroCoef>
-5.4800

> <Gold.Chemscore.Hbond>
1.9515

> <Gold.Chemscore.Metal>
0.0000

> <Gold.Chemscore.Lipo>
61.7539

> <Gold.Chemscore.Internal_Hbond>
0.0000

> <Gold.Chemscore.DEClash>
0.1268

> <Gold.Chemscore.DEInternal>
0.2161

> <Gold.Chemscore.Rot>
1.8891

> <Gold.Chemscore.Internal.Correction>
   9.000000E+99

> <Gold.Chemscore.Hbonds>
donor molecule, donor type, donor heavy atom, donor atom, acceptor molecule, acceptor atom, score
      L1  H     4    21       P1  7948  0.94
      L1  H     6    33       P1 10175  0.90

> <Gold.Chemscore.Hbond.Weighted>
-6.5180

> <Gold.Chemscore.Metal.Weighted>
-0.0000

> <Gold.Chemscore.Lipo.Weighted>
-7.2252

> <Gold.Chemscore.Internal_Hbond.Weighted>
0.0000

> <Gold.Chemscore.DEClash.Weighted>
0.1268

> <Gold.Chemscore.DEInternal.Weighted>
0.2161

> <Gold.Chemscore.Rot.Weighted>
4.8361

> <Gold.Chemscore.Internal.Correction.Weighted>
   9.000000E+99

> <Gold.Protein.RotatedTorsions>
[ 6907 6896 6895 6894 ] final  -22.91 input  -60.11 | X-H torsion
[ 7974 7965 7964 7962 ] final -134.83 input  175.53 | X-H torsion
[ 8008 7997 7996 7995 ] final  -43.90 input   59.86 | X-H torsion
[ 10167 10162 10161 10158 ] final  -46.50 input  -65.29 | X-H torsion
[ 10718 10713 10712 10709 ] final  134.18 input   66.30 | X-H torsion
[ 10763 10752 10751 10750 ] final  169.89 input  -60.55 | X-H torsion
[ 11005 11000 10999 10996 ] final  -85.17 input  -57.11 | X-H torsion

> <Gold.Protein.ActiveResidues>
 VAL166  LYS551  ARG553  GLY616  TRP617  ASP618  TYR619  PRO620  LYS621  CYS622 
 ASP623  PHE694  ASN695  SER759  ASP760  ASP761  ALA762  ILE779  LEU786  VAL792 
 PHE793  MET794  SER795  GLU796  ALA797  LYS798  CYS799  TRP800  GLU811  SER814 

> <Gold.Protein.RotatedAtoms>
  151.2117  135.0484  159.8913 H   0  0  0  0  0  0  0  0  0  0  0  0  # atno 6907 bound_to 6896
  152.5424  134.0737  159.8215 H   0  0  0  0  0  0  0  0  0  0  0  0  # atno 6908 bound_to 6896
  151.0891  133.5282  159.2648 H   0  0  0  0  0  0  0  0  0  0  0  0  # atno 6909 bound_to 6896
  144.9068  140.6843  143.5050 H   0  0  0  0  0  0  0  0  0  0  0  0  # atno 7974 bound_to 7965
  154.3997  140.1436  156.3595 H   0  0  0  0  0  0  0  0  0  0  0  0  # atno 8008 bound_to 7997
  155.8195  140.3470  155.5484 H   0  0  0  0  0  0  0  0  0  0  0  0  # atno 8009 bound_to 7997
  155.8303  140.0911  157.1787 H   0  0  0  0  0  0  0  0  0  0  0  0  # atno 8010 bound_to 7997
  140.6814  143.2828  151.3792 H   0  0  0  0  0  0  0  0  0  0  0  0  # atno 10167 bound_to 10162
  157.4698  131.1079  150.9817 H   0  0  0  0  0  0  0  0  0  0  0  0  # atno 10718 bound_to 10713
  154.3897  135.2754  155.2162 H   0  0  0  0  0  0  0  0  0  0  0  0  # atno 10763 bound_to 10752
  154.4234  135.5994  153.6027 H   0  0  0  0  0  0  0  0  0  0  0  0  # atno 10764 bound_to 10752
  152.9832  135.5978  154.4150 H   0  0  0  0  0  0  0  0  0  0  0  0  # atno 10765 bound_to 10752
  141.1644  133.7385  156.8975 H   0  0  0  0  0  0  0  0  0  0  0  0  # atno 11005 bound_to 11000
  145.3522  139.1703  143.4428 LP  0  0  0  0  0  0  0  0  0  0  0  0  # atno 17320 bound_to 7965
  146.3138  140.3575  142.8662 LP  0  0  0  0  0  0  0  0  0  0  0  0  # atno 17321 bound_to 7965
  139.6140  144.1040  152.2327 LP  0  0  0  0  0  0  0  0  0  0  0  0  # atno 17342 bound_to 10162
  140.0463  144.5968  150.7371 LP  0  0  0  0  0  0  0  0  0  0  0  0  # atno 17343 bound_to 10162
  157.0586  130.5816  149.5382 LP  0  0  0  0  0  0  0  0  0  0  0  0  # atno 17370 bound_to 10713
  156.0068  130.5155  150.7856 LP  0  0  0  0  0  0  0  0  0  0  0  0  # atno 17371 bound_to 10713
  140.1605  134.9168  157.2709 LP  0  0  0  0  0  0  0  0  0  0  0  0  # atno 17394 bound_to 11000
  140.2616  134.3564  155.7404 LP  0  0  0  0  0  0  0  0  0  0  0  0  # atno 17395 bound_to 11000

$$$$
