#       Name:                AV-unprocessed.smi:1954
#       Creating user name   scv26
#       Creation time:       Fri Mar 27 10:05:17 2020


#       File generated by GOLD software.
#

@<TRIPOS>MOLECULE
AV-unprocessed.smi:1954
    50    52     1
SMALL
NO_CHARGES


@<TRIPOS>ATOM
      1 ****        -0.2916   2.6723  -0.5211 O.2            1 S1                 0.0000
      2 ****        -0.7249   1.5707  -0.8599 C.2            1 S1                 0.0000
      3 ****         0.0565   0.5065  -1.0931 N.am           1 S1                 0.0000
      4 ****         1.5145   0.4751  -0.9810 C.3            1 S1                 0.0000
      5 ****         2.0095  -0.2893   0.2919 C.3            1 S1                 0.0000
      6 ****         1.3829  -1.6458   0.3597 N.3            1 S1                 0.0000
      7 ****         1.6171  -2.4054   1.5964 C.3            1 S1                 0.0000
      8 ****         0.8676  -3.7484   1.6106 C.3            1 S1                 0.0000
      9 ****         1.2414  -4.5201   0.4775 O.3            1 S1                 0.0000
     10 ****         0.9571  -3.8510  -0.7432 C.3            1 S1                 0.0000
     11 ****         1.7062  -2.5086  -0.7850 C.3            1 S1                 0.0000
     12 ****         1.7039   0.5956   1.5357 C.3            1 S1                 0.0000
     13 ****         2.6318   1.8148   1.5281 C.3            1 S1                 0.0000
     14 ****         4.1997   1.2895   0.7971 S.3            1 S1                 0.0000
     15 ****         3.5593  -0.3218   0.2613 C.3            1 S1                 0.0000
     16 ****        -2.0222   1.2677  -1.0415 N.am           1 S1                 0.0000
     17 ****        -3.1518   2.1143  -0.8847 C.ar           1 S1                 0.0000
     18 ****        -4.3960   1.5144  -1.1842 C.ar           1 S1                 0.0000
     19 ****        -5.5776   2.2708  -1.0609 C.ar           1 S1                 0.0000
     20 ****        -5.4848   3.6090  -0.6394 C.ar           1 S1                 0.0000
     21 ****        -4.2075   4.1290  -0.3600 C.ar           1 S1                 0.0000
     22 ****        -3.0738   3.4062  -0.4778 N.ar           1 S1                 0.0000
     23 ****        -0.3908  -0.3597  -1.3551 H              1 S1                 0.0000
     24 ****         1.9012   0.0130  -1.8881 H              1 S1                 0.0000
     25 ****         1.9160   1.4872  -1.0281 H              1 S1                 0.0000
     26 ****         2.6804  -2.5970   1.7349 H              1 S1                 0.0000
     27 ****         1.2729  -1.8524   2.4670 H              1 S1                 0.0000
     28 ****         1.1082  -4.3061   2.5159 H              1 S1                 0.0000
     29 ****        -0.2118  -3.5880   1.6118 H              1 S1                 0.0000
     30 ****         1.2672  -4.4832  -1.5752 H              1 S1                 0.0000
     31 ****        -0.1185  -3.6964  -0.8420 H              1 S1                 0.0000
     32 ****         1.4481  -2.0269  -1.7254 H              1 S1                 0.0000
     33 ****         2.7790  -2.7020  -0.8145 H              1 S1                 0.0000
     34 ****         0.6556   0.8847   1.6063 H              1 S1                 0.0000
     35 ****         1.9371   0.0711   2.4595 H              1 S1                 0.0000
     36 ****         2.2130   2.6195   0.9239 H              1 S1                 0.0000
     37 ****         2.7871   2.2115   2.5317 H              1 S1                 0.0000
     38 ****         3.9581  -1.0564   0.9590 H              1 S1                 0.0000
     39 ****         3.9538  -0.5745  -0.7233 H              1 S1                 0.0000
     40 ****        -2.2259   0.3213  -1.3263 H              1 S1                 0.0000
     41 ****        -4.4493   0.4848  -1.5073 H              1 S1                 0.0000
     42 ****        -6.5379   1.8308  -1.2861 H              1 S1                 0.0000
     43 ****        -6.3683   4.2208  -0.5331 H              1 S1                 0.0000
     44 ****        -4.0923   5.1517  -0.0329 H              1 S1                 0.0000
     45 ****         0.6923   2.8088  -0.4062 LP             1 S1                 0.0000
     46 ****        -0.9236   3.4305  -0.3608 LP             1 S1                 0.0000
     47 ****         0.4122  -1.4063   0.3392 LP             1 S1                 0.0000
     48 ****         0.7386  -5.3843   0.4960 LP             1 S1                 0.0000
     49 ****         2.2232  -4.7046   0.5229 LP             1 S1                 0.0000
     50 ****        -2.1870   3.8179  -0.2677 LP             1 S1                 0.0000
@<TRIPOS>BOND
    1    1    2 2     
    2    2    3 am    
    3    2   16 am    
    4    3    4 1     
    5    3   23 1     
    6    4    5 1     
    7    4   24 1     
    8    4   25 1     
    9    5   15 1     
   10    5    6 1     
   11    5   12 1     
   12    6   11 1     
   13    6    7 1     
   14    7    8 1     
   15    7   26 1     
   16    7   27 1     
   17    8    9 1     
   18    8   28 1     
   19    8   29 1     
   20    9   10 1     
   21   10   11 1     
   22   10   30 1     
   23   10   31 1     
   24   11   32 1     
   25   11   33 1     
   26   12   13 1     
   27   12   34 1     
   28   12   35 1     
   29   13   14 1     
   30   13   36 1     
   31   13   37 1     
   32   14   15 1     
   33   15   38 1     
   34   15   39 1     
   35   16   17 1     
   36   16   40 1     
   37   17   22 ar    
   38   17   18 ar    
   39   18   19 ar    
   40   18   41 1     
   41   19   20 ar    
   42   19   42 1     
   43   20   21 ar    
   44   20   43 1     
   45   21   22 ar    
   46   21   44 1     
   47    1   45 1     
   48    1   46 1     
   49    6   47 1     
   50    9   48 1     
   51    9   49 1     
   52   22   50 1     
@<TRIPOS>SUBSTRUCTURE
      1 S1             1
@<TRIPOS>SET
LONE_PAIRS      STATIC     ATOMS    <user>   **** ""
6 45 46 47 48 49 50
DONOR_HYDROGENS      STATIC     ATOMS    <user>   **** ""
2 23 40
ATOM$BLUE        STATIC     ATOMS    COLORGROUP SYSTEM
6 45 46 47 48 49 50
ATOM$RED        STATIC     ATOMS    COLORGROUP SYSTEM
2 23 40
