AV-unprocessed.smi:713|AV-procd|sdf|3479|dock6
  -GOLD-   22720 0473D 1   1.00000     0.00000
 Structure written by MMmdl.
 41 42  0  0  0  0  0  0  0  0  1 V2000
  151.0329  137.4083  154.6592 C   0  0  0  0  0  0  0  0  0  0  0  0
  150.4167  138.5529  155.4898 C   0  0  1  0  0  0  0  0  0  0  0  0
  151.4855  139.4607  156.1162 C   0  0  0  0  0  0  0  0  0  0  0  0
  152.4654  139.8195  155.4619 O   0  0  0  0  0  0  0  0  0  0  0  0
  151.2775  139.8325  157.3894 N   0  0  0  0  0  0  0  0  0  0  0  0
  152.1532  140.7034  158.1666 C   0  0  2  0  0  0  0  0  0  0  0  0
  152.6132  139.9703  159.4393 C   0  0  0  0  0  0  0  0  0  0  0  0
  153.4934  140.8739  160.3158 C   0  0  0  0  0  0  0  0  0  0  0  0
  152.7696  142.1823  160.6677 C   0  0  0  0  0  0  0  0  0  0  0  0
  152.3072  142.9295  159.4032 C   0  0  2  0  0  0  0  0  0  0  0  0
  151.4021  144.4695  159.8862 S   0  0  0  0  0  0  0  0  0  0  0  0
  149.7456  144.2293  159.1193 C   0  0  0  0  0  0  0  0  0  0  0  0
  151.2290  144.4742  161.3469 O   0  0  0  0  0  0  0  0  0  0  0  0
  152.0558  145.6124  159.2305 O   0  0  0  0  0  0  0  0  0  0  0  0
  151.4306  142.0190  158.5202 C   0  0  0  0  0  0  0  0  0  0  0  0
  149.4665  139.3529  154.7245 N   0  0  0  0  0  0  0  0  0  0  0  0
  148.4183  138.9060  153.9453 C   0  0  0  0  0  0  0  0  0  0  0  0
  147.7710  140.0042  153.4559 C   0  0  0  0  0  0  0  0  0  0  0  0
  148.4947  141.0965  154.0091 C   0  0  0  0  0  0  0  0  0  0  0  0
  149.4994  140.7053  154.7751 N   0  0  0  0  0  0  0  0  0  0  0  0
  151.6932  136.7925  155.2707 H   0  0  0  0  0  0  0  0  0  0  0  0
  151.6173  137.7781  153.8157 H   0  0  0  0  0  0  0  0  0  0  0  0
  150.2554  136.7558  154.2608 H   0  0  0  0  0  0  0  0  0  0  0  0
  149.8576  138.0894  156.3047 H   0  0  0  0  0  0  0  0  0  0  0  0
  150.4460  139.4946  157.8516 H   0  0  0  0  0  0  0  0  0  0  0  0
  153.0400  140.9366  157.5738 H   0  0  0  0  0  0  0  0  0  0  0  0
  151.7450  139.6442  160.0141 H   0  0  0  0  0  0  0  0  0  0  0  0
  153.1650  139.0679  159.1728 H   0  0  0  0  0  0  0  0  0  0  0  0
  153.7732  140.3473  161.2287 H   0  0  0  0  0  0  0  0  0  0  0  0
  154.4230  141.0997  159.7919 H   0  0  0  0  0  0  0  0  0  0  0  0
  151.9079  141.9623  161.2997 H   0  0  0  0  0  0  0  0  0  0  0  0
  153.4300  142.8185  161.2577 H   0  0  0  0  0  0  0  0  0  0  0  0
  153.1855  143.2412  158.8368 H   0  0  0  0  0  0  0  0  0  0  0  0
  149.1529  145.1335  159.2561 H   0  0  0  0  0  0  0  0  0  0  0  0
  149.2309  143.3950  159.5942 H   0  0  0  0  0  0  0  0  0  0  0  0
  149.8597  144.0325  158.0537 H   0  0  0  0  0  0  0  0  0  0  0  0
  151.1575  142.5400  157.6032 H   0  0  0  0  0  0  0  0  0  0  0  0
  150.4969  141.7946  159.0380 H   0  0  0  0  0  0  0  0  0  0  0  0
  148.2217  137.8533  153.8052 H   0  0  0  0  0  0  0  0  0  0  0  0
  146.9084  140.0243  152.8066 H   0  0  0  0  0  0  0  0  0  0  0  0
  148.3175  142.1545  153.8828 H   0  0  0  0  0  0  0  0  0  0  0  0
  1  2  1  0  0  0  0
  1 21  1  0  0  0  0
  1 22  1  0  0  0  0
  1 23  1  0  0  0  0
  2  3  1  0  0  0  0
  2 16  1  0  0  0  0
  2 24  1  0  0  0  0
  3  4  2  0  0  0  0
  3  5  1  0  0  0  0
  5  6  1  0  0  0  0
  5 25  1  0  0  0  0
  6 15  1  0  0  0  0
  6  7  1  0  0  0  0
  6 26  1  0  0  0  0
  7  8  1  0  0  0  0
  7 27  1  0  0  0  0
  7 28  1  0  0  0  0
  8  9  1  0  0  0  0
  8 29  1  0  0  0  0
  8 30  1  0  0  0  0
  9 10  1  0  0  0  0
  9 31  1  0  0  0  0
  9 32  1  0  0  0  0
 10 11  1  0  0  0  0
 10 15  1  0  0  0  0
 10 33  1  0  0  0  0
 11 12  1  0  0  0  0
 11 13  2  0  0  0  0
 11 14  2  0  0  0  0
 12 34  1  0  0  0  0
 12 35  1  0  0  0  0
 12 36  1  0  0  0  0
 15 37  1  0  0  0  0
 15 38  1  0  0  0  0
 16 20  1  0  0  0  0
 16 17  1  0  0  0  0
 17 18  2  0  0  0  0
 17 39  1  0  0  0  0
 18 19  1  0  0  0  0
 18 40  1  0  0  0  0
 19 20  2  0  0  0  0
 19 41  1  0  0  0  0
M  END
> <s_m_source_file>
AV-unprocessed.smi

> <i_m_source_file_index>
713

> <i_lp_mmshare_version>
43012

> <i_f3d_flags>
0

> <s_epik_input>
bjFbY0hdW2NIXVtjSF1uMVtDQEhdKFtDSDNdKUMoPU8pW05IXVtDQEBIXTJbQ0gyXVtDSDJdW0NIMl1bQ0BIXShbQ0gyXTIpUyg9TykoPU8pW0NIM10=

> <s_epik_cmdline>
J2VwaWtfcHl0aG9uJywgJy1waCcsICc3LjAnLCAnLXRuJywgJzgnLCAnLW1hJywgJzIwMCcsICctbWV0YWxfYmluZGluZycsICctaW1hZScsICc8aW5maWxlLm1hZT4nLCAnLW9tYWUnLCAnPG91dGZpbGUubWFlPic=

> <r_lp_tautomer_probability>
1

> <r_epik_Ionization_Penalty>
4.07816e-05

> <r_epik_Ionization_Penalty_Charging>
0

> <r_epik_Ionization_Penalty_Neutral>
4.07816e-05

> <r_epik_State_Penalty>
-0

> <r_epik_Charging_Adjusted_Penalty>
0

> <i_epik_Tot_Q>
0

> <i_epik_Tot_abs_Q>
0

> <r_epik_Metal_State_Penalty>
-0

> <b_epik_Metal_Only>
0

> <s_lp_Force_Field>
OPLS_2005

> <r_lp_Energy>
7.30822

> <b_lp_Chiralities_Consistent>
1

> <s_lp_Variant>
AV-unprocessed.smi:713-6

> <Gold.Version>
5.8.1

> <Gold.Id.Protein>
6NUR|6NUR_protein|mol2

> <Gold.PLP.Fitness>
45.3916

> <Gold.PLP.PLP>
-39.3924

> <Gold.PLP.part.hbond>
-2.8710

> <Gold.PLP.part.metal>
0.0000

> <Gold.PLP.part.buried>
-3.0350

> <Gold.PLP.part.nonpolar>
-35.1835

> <Gold.PLP.part.repulsive>
0.9475

> <Gold.PLP.ligand.clash>
0.0000

> <Gold.PLP.ligand.torsion>
0.8277

> <Gold.PLP.Chemscore.Hbond>
1.4723

> <Gold.PLP.Chemscore.CHOScore>
1.0000

> <Gold.PLP.Chemscore.Metal>
0.0000

> <Gold.Chemscore.Hbonds>
donor molecule, donor type, donor heavy atom, donor atom, acceptor molecule, acceptor atom, score
      P1  H  7989  7998       L1     4  0.13
      P1  H  7997  8009       L1     4  0.98
      L1  C    17    39       P1  7948  0.75

> <Gold.PLP.Chemscore.Internal.Correction>
0.2379

> <Gold.Rescore>
     Score         DG    S(hbond)    S(metal)    S(lipo)     H(rot)  DE(clash)    DE(int)     intcor
     15.21     -16.22       1.21        0.00      94.92       1.72       0.23       0.78       ----

> <Gold.Chemscore.Fitness>
15.2118

> <Gold.Chemscore.DG>
-16.2185

> <Gold.Chemscore.ZeroCoef>
-5.4800

> <Gold.Chemscore.Hbond>
1.2121

> <Gold.Chemscore.Metal>
0.0000

> <Gold.Chemscore.Lipo>
94.9204

> <Gold.Chemscore.Internal_Hbond>
0.0000

> <Gold.Chemscore.DEClash>
0.2314

> <Gold.Chemscore.DEInternal>
0.7753

> <Gold.Chemscore.Rot>
1.7249

> <Gold.Chemscore.Internal.Correction>
   9.000000E+99

> <Gold.Chemscore.Hbonds>
donor molecule, donor type, donor heavy atom, donor atom, acceptor molecule, acceptor atom, score
      P1  H  7989  7998       L1     4  0.08
      P1  H  7997  8009       L1     4  0.92

> <Gold.Chemscore.Hbond.Weighted>
-4.0485

> <Gold.Chemscore.Metal.Weighted>
-0.0000

> <Gold.Chemscore.Lipo.Weighted>
-11.1057

> <Gold.Chemscore.Internal_Hbond.Weighted>
0.0000

> <Gold.Chemscore.DEClash.Weighted>
0.2314

> <Gold.Chemscore.DEInternal.Weighted>
0.7753

> <Gold.Chemscore.Rot.Weighted>
4.4157

> <Gold.Chemscore.Internal.Correction.Weighted>
   9.000000E+99

> <Gold.Protein.RotatedTorsions>
[ 6907 6896 6895 6894 ] final  -72.28 input  -60.11 | X-H torsion
[ 7974 7965 7964 7962 ] final  -20.05 input  175.53 | X-H torsion
[ 8008 7997 7996 7995 ] final -141.85 input   59.86 | X-H torsion
[ 10167 10162 10161 10158 ] final   66.90 input  -65.29 | X-H torsion
[ 10718 10713 10712 10709 ] final   12.44 input   66.30 | X-H torsion
[ 10763 10752 10751 10750 ] final  -26.62 input  -60.55 | X-H torsion
[ 11005 11000 10999 10996 ] final   79.95 input  -57.11 | X-H torsion

> <Gold.Protein.ActiveResidues>
 VAL166  LYS551  ARG553  GLY616  TRP617  ASP618  TYR619  PRO620  LYS621  CYS622 
 ASP623  PHE694  ASN695  SER759  ASP760  ASP761  ALA762  ILE779  LEU786  VAL792 
 PHE793  MET794  SER795  GLU796  ALA797  LYS798  CYS799  TRP800  GLU811  SER814 

> <Gold.Protein.RotatedAtoms>
  150.7176  134.5186  159.5641 H   0  0  0  0  0  0  0  0  0  0  0  0  # atno 6907 bound_to 6896
  152.2746  134.7893  160.0417 H   0  0  0  0  0  0  0  0  0  0  0  0  # atno 6908 bound_to 6896
  151.8560  133.3413  159.3725 H   0  0  0  0  0  0  0  0  0  0  0  0  # atno 6909 bound_to 6896
  146.1809  140.4148  142.8495 H   0  0  0  0  0  0  0  0  0  0  0  0  # atno 7974 bound_to 7965
  155.4846  140.0563  157.2962 H   0  0  0  0  0  0  0  0  0  0  0  0  # atno 8008 bound_to 7997
  154.4647  140.2013  156.0102 H   0  0  0  0  0  0  0  0  0  0  0  0  # atno 8009 bound_to 7997
  156.0953  140.3227  155.7874 H   0  0  0  0  0  0  0  0  0  0  0  0  # atno 8010 bound_to 7997
  140.0954  144.4951  150.7071 H   0  0  0  0  0  0  0  0  0  0  0  0  # atno 10167 bound_to 10162
  157.0102  130.6114  149.5707 H   0  0  0  0  0  0  0  0  0  0  0  0  # atno 10718 bound_to 10713
  153.7188  135.6946  153.5018 H   0  0  0  0  0  0  0  0  0  0  0  0  # atno 10763 bound_to 10752
  153.2218  135.4367  155.0497 H   0  0  0  0  0  0  0  0  0  0  0  0  # atno 10764 bound_to 10752
  154.8291  135.3462  154.6723 H   0  0  0  0  0  0  0  0  0  0  0  0  # atno 10765 bound_to 10752
  139.9153  134.7882  156.1845 H   0  0  0  0  0  0  0  0  0  0  0  0  # atno 11005 bound_to 11000
  144.8313  140.6711  143.6289 LP  0  0  0  0  0  0  0  0  0  0  0  0  # atno 17320 bound_to 7965
  145.4080  139.1585  143.4141 LP  0  0  0  0  0  0  0  0  0  0  0  0  # atno 17321 bound_to 7965
  140.7006  143.2432  151.4875 LP  0  0  0  0  0  0  0  0  0  0  0  0  # atno 17342 bound_to 10162
  139.5701  144.1949  152.1823 LP  0  0  0  0  0  0  0  0  0  0  0  0  # atno 17343 bound_to 10162
  156.0139  130.5232  150.8074 LP  0  0  0  0  0  0  0  0  0  0  0  0  # atno 17370 bound_to 10713
  157.5326  131.0937  150.9934 LP  0  0  0  0  0  0  0  0  0  0  0  0  # atno 17371 bound_to 10713
  141.0622  133.6836  156.1974 LP  0  0  0  0  0  0  0  0  0  0  0  0  # atno 17394 bound_to 11000
  140.6643  134.4935  157.5585 LP  0  0  0  0  0  0  0  0  0  0  0  0  # atno 17395 bound_to 11000

$$$$
