AV-unprocessed.smi:1756|AV-procd|sdf|7074|dock1
  -GOLD-   22720 8293D 1   1.00000     0.00000
 Structure written by MMmdl.
 37 38  0  0  0  0  0  0  0  0  2 V2000
  151.2559  135.0625  155.6289 O   0  0  0  0  0  0  0  0  0  0  0  0
  150.5106  135.4585  154.7330 C   0  0  0  0  0  0  0  0  0  0  0  0
  150.4300  136.7434  154.3589 N   0  0  0  0  0  0  0  0  0  0  0  0
  151.1923  137.8456  154.9372 C   0  0  0  0  0  0  0  0  0  0  0  0
  150.2949  139.0406  155.3074 C   0  0  1  0  0  0  0  0  0  0  0  0
  151.0848  140.2932  155.7442 C   0  0  0  0  0  0  0  0  0  0  0  0
  150.1379  141.4720  155.9952 C   0  0  0  0  0  0  0  0  0  0  0  0
  149.2421  141.6874  154.7718 C   0  0  0  0  0  0  0  0  0  0  0  0
  148.5443  140.3743  154.3854 C   0  0  0  0  0  0  0  0  0  0  0  0
  149.5160  139.3584  154.1557 O   0  0  0  0  0  0  0  0  0  0  0  0
  149.6616  134.7011  154.0156 N   0  0  0  0  0  0  0  0  0  0  0  0
  149.4297  133.3159  154.0692 C   0  0  0  0  0  0  0  0  0  0  0  0
  150.2440  132.4102  154.6793 C   0  0  0  0  0  0  0  0  0  0  0  0
  149.9541  130.9818  154.6880 C   0  0  0  0  0  0  0  0  0  0  0  0
  150.7864  129.9593  155.4417 C   0  0  0  0  0  0  0  0  0  0  0  0
  150.0648  129.3521  156.3842 F   0  0  0  0  0  0  0  0  0  0  0  0
  151.2352  129.0302  154.5990 F   0  0  0  0  0  0  0  0  0  0  0  0
  151.8383  130.5360  156.0231 F   0  0  0  0  0  0  0  0  0  0  0  0
  148.7789  130.6811  154.0271 C   0  0  0  0  0  0  0  0  0  0  0  0
  147.9325  131.5098  153.3776 N   0  5  0  0  0  0  0  0  0  0  0  0
  148.2141  132.8432  153.3745 C   0  0  0  0  0  0  0  0  0  0  0  0
  147.4810  133.6542  152.8074 O   0  0  0  0  0  0  0  0  0  0  0  0
  149.7863  136.9788  153.6178 H   0  0  0  0  0  0  0  0  0  0  0  0
  151.7699  137.5178  155.8033 H   0  0  0  0  0  0  0  0  0  0  0  0
  151.9214  138.1602  154.1901 H   0  0  0  0  0  0  0  0  0  0  0  0
  149.6209  138.7353  156.1099 H   0  0  0  0  0  0  0  0  0  0  0  0
  151.6582  140.0914  156.6490 H   0  0  0  0  0  0  0  0  0  0  0  0
  151.8060  140.5605  154.9709 H   0  0  0  0  0  0  0  0  0  0  0  0
  149.5213  141.2661  156.8711 H   0  0  0  0  0  0  0  0  0  0  0  0
  150.7063  142.3756  156.2162 H   0  0  0  0  0  0  0  0  0  0  0  0
  148.5035  142.4629  154.9759 H   0  0  0  0  0  0  0  0  0  0  0  0
  149.8443  142.0397  153.9335 H   0  0  0  0  0  0  0  0  0  0  0  0
  147.8483  140.0585  155.1640 H   0  0  0  0  0  0  0  0  0  0  0  0
  147.9604  140.5142  153.4755 H   0  0  0  0  0  0  0  0  0  0  0  0
  149.0742  135.1909  153.3565 H   0  0  0  0  0  0  0  0  0  0  0  0
  151.1526  132.7204  155.1674 H   0  0  0  0  0  0  0  0  0  0  0  0
  148.4692  129.6142  154.0238 H   0  0  0  0  0  0  0  0  0  0  0  0
  1  2  2  0  0  0  0
  2  3  1  0  0  0  0
  2 11  1  0  0  0  0
  3  4  1  0  0  0  0
  3 23  1  0  0  0  0
  4  5  1  0  0  0  0
  4 24  1  0  0  0  0
  4 25  1  0  0  0  0
  5 10  1  0  0  0  0
  5  6  1  0  0  0  0
  5 26  1  0  0  0  0
  6  7  1  0  0  0  0
  6 27  1  0  0  0  0
  6 28  1  0  0  0  0
  7  8  1  0  0  0  0
  7 29  1  0  0  0  0
  7 30  1  0  0  0  0
  8  9  1  0  0  0  0
  8 31  1  0  0  0  0
  8 32  1  0  0  0  0
  9 10  1  0  0  0  0
  9 33  1  0  0  0  0
  9 34  1  0  0  0  0
 11 12  1  0  0  0  0
 11 35  1  0  0  0  0
 12 21  1  0  0  0  0
 12 13  2  0  0  0  0
 13 14  1  0  0  0  0
 13 36  1  0  0  0  0
 14 15  1  0  0  0  0
 14 19  2  0  0  0  0
 15 16  1  0  0  0  0
 15 17  1  0  0  0  0
 15 18  1  0  0  0  0
 19 20  1  0  0  0  0
 19 37  1  0  0  0  0
 20 21  1  0  0  0  0
 21 22  2  0  0  0  0
M  CHG  1  20  -1
M  END
> <s_m_source_file>
AV-unprocessed.smi

> <i_m_source_file_index>
1756

> <i_lp_mmshare_version>
43012

> <i_f3d_flags>
0

> <s_epik_input>
Tz1jMVtuSF1bY0hdYyhDKEYpKEYpRilbY0hdYzFbTkhdQyg9TylbTkhdW0NIMl1bQ0BASF0yW0NIMl1bQ0gyXVtDSDJdW0NIMl1PMg==

> <s_epik_cmdline>
J2VwaWtfcHl0aG9uJywgJy1waCcsICc3LjAnLCAnLXRuJywgJzgnLCAnLW1hJywgJzIwMCcsICctbWV0YWxfYmluZGluZycsICctaW1hZScsICc8aW5maWxlLm1hZT4nLCAnLW9tYWUnLCAnPG91dGZpbGUubWFlPic=

> <r_lp_tautomer_probability>
1

> <r_epik_Ionization_Penalty>
3.16985

> <r_epik_Ionization_Penalty_Charging>
0.174782

> <r_epik_Ionization_Penalty_Neutral>
2.99507

> <r_epik_State_Penalty>
2.99125

> <r_epik_Charging_Adjusted_Penalty>
3.16603

> <i_epik_Tot_Q>
-1

> <i_epik_Tot_abs_Q>
1

> <r_epik_Metal_State_Penalty>
0.453096

> <b_epik_Metal_Only>
1

> <s_lp_Force_Field>
OPLS_2005

> <r_lp_Energy>
20.8362

> <b_lp_Chiralities_Consistent>
1

> <s_lp_Variant>
AV-unprocessed.smi:1756-4

> <Gold.Version>
5.8.1

> <Gold.Id.Protein>
6NUR|6NUR_protein|mol2

> <Gold.PLP.Fitness>
44.6169

> <Gold.PLP.PLP>
-36.5582

> <Gold.PLP.part.hbond>
-4.3864

> <Gold.PLP.part.metal>
0.0000

> <Gold.PLP.part.buried>
-1.7292

> <Gold.PLP.part.nonpolar>
-31.7080

> <Gold.PLP.part.repulsive>
1.4285

> <Gold.PLP.ligand.clash>
0.0000

> <Gold.PLP.ligand.torsion>
0.1591

> <Gold.PLP.Chemscore.Hbond>
2.7680

> <Gold.PLP.Chemscore.CHOScore>
0.0000

> <Gold.PLP.Chemscore.Metal>
0.0000

> <Gold.Chemscore.Hbonds>
donor molecule, donor type, donor heavy atom, donor atom, acceptor molecule, acceptor atom, score
      L1  H     3    23       P1  7948  0.80
      L1  H    11    35       P1  7948  0.93
      P1  H 10752 10765       L1     1  0.94

> <Gold.PLP.Chemscore.Internal.Correction>
0.0727

> <Gold.Rescore>
     Score         DG    S(hbond)    S(metal)    S(lipo)     H(rot)  DE(clash)    DE(int)     intcor
     14.54     -16.20       1.95        0.00      65.06       1.32       0.41       1.24       ----

> <Gold.Chemscore.Fitness>
14.5439

> <Gold.Chemscore.DG>
-16.1981

> <Gold.Chemscore.ZeroCoef>
-5.4800

> <Gold.Chemscore.Hbond>
1.9454

> <Gold.Chemscore.Metal>
0.0000

> <Gold.Chemscore.Lipo>
65.0601

> <Gold.Chemscore.Internal_Hbond>
0.0000

> <Gold.Chemscore.DEClash>
0.4111

> <Gold.Chemscore.DEInternal>
1.2431

> <Gold.Chemscore.Rot>
1.3248

> <Gold.Chemscore.Internal.Correction>
   9.000000E+99

> <Gold.Chemscore.Hbonds>
donor molecule, donor type, donor heavy atom, donor atom, acceptor molecule, acceptor atom, score
      L1  H     3    23       P1  7948  0.45
      L1  H    11    35       P1  7948  0.27
      P1  H 10752 10765       L1     1  0.23

> <Gold.Chemscore.Hbond.Weighted>
-6.4976

> <Gold.Chemscore.Metal.Weighted>
-0.0000

> <Gold.Chemscore.Lipo.Weighted>
-7.6120

> <Gold.Chemscore.Internal_Hbond.Weighted>
0.0000

> <Gold.Chemscore.DEClash.Weighted>
0.4111

> <Gold.Chemscore.DEInternal.Weighted>
1.2431

> <Gold.Chemscore.Rot.Weighted>
3.3915

> <Gold.Chemscore.Internal.Correction.Weighted>
   9.000000E+99

> <Gold.Protein.RotatedTorsions>
[ 6907 6896 6895 6894 ] final   17.69 input  -60.11 | X-H torsion
[ 7974 7965 7964 7962 ] final   17.93 input  175.53 | X-H torsion
[ 8008 7997 7996 7995 ] final  -72.88 input   59.86 | X-H torsion
[ 10167 10162 10161 10158 ] final -150.54 input  -65.29 | X-H torsion
[ 10718 10713 10712 10709 ] final   39.66 input   66.30 | X-H torsion
[ 10763 10752 10751 10750 ] final -164.31 input  -60.55 | X-H torsion
[ 11005 11000 10999 10996 ] final -126.46 input  -57.11 | X-H torsion

> <Gold.Protein.ActiveResidues>
 VAL166  LYS551  ARG553  GLY616  TRP617  ASP618  TYR619  PRO620  LYS621  CYS622 
 ASP623  PHE694  ASN695  SER759  ASP760  ASP761  ALA762  ILE779  LEU786  VAL792 
 PHE793  MET794  SER795  GLU796  ALA797  LYS798  CYS799  TRP800  GLU811  SER814 

> <Gold.Protein.RotatedAtoms>
  151.8535  135.0549  160.0461 H   0  0  0  0  0  0  0  0  0  0  0  0  # atno 6907 bound_to 6896
  152.2718  133.5385  159.5452 H   0  0  0  0  0  0  0  0  0  0  0  0  # atno 6908 bound_to 6896
  150.7154  134.0603  159.3871 H   0  0  0  0  0  0  0  0  0  0  0  0  # atno 6909 bound_to 6896
  146.2202  139.8530  142.8619 H   0  0  0  0  0  0  0  0  0  0  0  0  # atno 7974 bound_to 7965
  154.5202  140.0789  156.8157 H   0  0  0  0  0  0  0  0  0  0  0  0  # atno 8008 bound_to 7997
  155.3593  140.3417  155.4222 H   0  0  0  0  0  0  0  0  0  0  0  0  # atno 8009 bound_to 7997
  156.1672  140.1608  156.8497 H   0  0  0  0  0  0  0  0  0  0  0  0  # atno 8010 bound_to 7997
  139.7346  143.8756  152.2545 H   0  0  0  0  0  0  0  0  0  0  0  0  # atno 10167 bound_to 10162
  157.3731  130.7712  149.7135 H   0  0  0  0  0  0  0  0  0  0  0  0  # atno 10718 bound_to 10713
  154.7040  135.2993  154.9298 H   0  0  0  0  0  0  0  0  0  0  0  0  # atno 10763 bound_to 10752
  154.0221  135.6681  153.4777 H   0  0  0  0  0  0  0  0  0  0  0  0  # atno 10764 bound_to 10752
  153.0703  135.5064  154.8200 H   0  0  0  0  0  0  0  0  0  0  0  0  # atno 10765 bound_to 10752
  140.9679  134.0846  157.3900 H   0  0  0  0  0  0  0  0  0  0  0  0  # atno 11005 bound_to 11000
  145.2782  141.0130  143.3733 LP  0  0  0  0  0  0  0  0  0  0  0  0  # atno 17320 bound_to 7965
  144.9171  139.4457  143.6559 LP  0  0  0  0  0  0  0  0  0  0  0  0  # atno 17321 bound_to 7965
  139.8689  144.7079  150.9011 LP  0  0  0  0  0  0  0  0  0  0  0  0  # atno 17342 bound_to 10162
  140.7776  143.3755  151.1571 LP  0  0  0  0  0  0  0  0  0  0  0  0  # atno 17343 bound_to 10162
  155.9760  130.4082  150.3812 LP  0  0  0  0  0  0  0  0  0  0  0  0  # atno 17370 bound_to 10713
  157.1906  131.0414  151.2702 LP  0  0  0  0  0  0  0  0  0  0  0  0  # atno 17371 bound_to 10713
  139.8901  135.0110  156.6718 LP  0  0  0  0  0  0  0  0  0  0  0  0  # atno 17394 bound_to 11000
  140.7372  133.9008  155.8252 LP  0  0  0  0  0  0  0  0  0  0  0  0  # atno 17395 bound_to 11000

$$$$
