AV-unprocessed.smi:2232|AV-procd|sdf|9039|dock2
  -GOLD-   2272012243D 1   1.00000     0.00000
 Structure written by MMmdl.
 43 44  0  0  0  0  0  0  0  0  2 V2000
  152.0254  145.9181  160.0535 C   0  0  0  0  0  0  0  0  0  0  0  0
  151.9466  144.5225  159.4711 C   0  0  0  0  0  0  0  0  0  0  0  0
  152.6970  143.4666  160.0227 C   0  0  0  0  0  0  0  0  0  0  0  0
  152.5826  142.1917  159.4346 C   0  0  0  0  0  0  0  0  0  0  0  0
  153.3581  141.0101  159.9777 C   0  0  0  0  0  0  0  0  0  0  0  0
  151.7913  141.9399  158.3701 N   0  0  0  0  0  0  0  0  0  0  0  0
  151.0653  142.9497  157.8294 C   0  0  0  0  0  0  0  0  0  0  0  0
  150.2088  142.7898  156.7078 N   0  0  0  0  0  0  0  0  0  0  0  0
  149.9140  141.6581  156.0443 C   0  0  0  0  0  0  0  0  0  0  0  0
  150.3328  140.5348  156.3268 O   0  0  0  0  0  0  0  0  0  0  0  0
  149.0936  141.8964  155.0105 N   0  0  0  0  0  0  0  0  0  0  0  0
  148.5960  140.8759  154.0951 C   0  0  0  0  0  0  0  0  0  0  0  0
  147.1350  141.1475  153.6862 C   0  0  0  0  0  0  0  0  0  0  0  0
  146.3235  139.9069  153.6199 N   0  3  0  0  0  0  0  0  0  0  0  0
  146.7434  139.0186  152.5095 C   0  0  0  0  0  0  0  0  0  0  0  0
  145.8497  137.7685  152.4496 C   0  0  0  0  0  0  0  0  0  0  0  0
  145.8984  137.0878  153.6970 O   0  0  0  0  0  0  0  0  0  0  0  0
  145.4147  137.8959  154.7622 C   0  0  0  0  0  0  0  0  0  0  0  0
  146.2901  139.1533  154.8986 C   0  0  0  0  0  0  0  0  0  0  0  0
  151.1209  144.2581  158.3598 C   0  0  0  0  0  0  0  0  0  0  0  0
  152.4955  145.9091  161.0374 H   0  0  0  0  0  0  0  0  0  0  0  0
  151.0272  146.3443  160.1584 H   0  0  0  0  0  0  0  0  0  0  0  0
  152.6099  146.5660  159.4000 H   0  0  0  0  0  0  0  0  0  0  0  0
  153.3428  143.6292  160.8733 H   0  0  0  0  0  0  0  0  0  0  0  0
  153.9966  141.3047  160.8110 H   0  0  0  0  0  0  0  0  0  0  0  0
  153.9903  140.5808  159.2000 H   0  0  0  0  0  0  0  0  0  0  0  0
  152.6734  140.2379  160.3296 H   0  0  0  0  0  0  0  0  0  0  0  0
  149.7829  143.6379  156.3645 H   0  0  0  0  0  0  0  0  0  0  0  0
  148.7915  142.8463  154.8481 H   0  0  0  0  0  0  0  0  0  0  0  0
  149.2532  140.8285  153.2265 H   0  0  0  0  0  0  0  0  0  0  0  0
  148.6690  139.9084  154.5927 H   0  0  0  0  0  0  0  0  0  0  0  0
  146.6976  141.8210  154.4249 H   0  0  0  0  0  0  0  0  0  0  0  0
  147.0820  141.6670  152.7282 H   0  0  0  0  0  0  0  0  0  0  0  0
  146.6849  139.5552  151.5618 H   0  0  0  0  0  0  0  0  0  0  0  0
  147.7854  138.7258  152.6491 H   0  0  0  0  0  0  0  0  0  0  0  0
  144.8202  138.0357  152.2060 H   0  0  0  0  0  0  0  0  0  0  0  0
  146.1978  137.0953  151.6661 H   0  0  0  0  0  0  0  0  0  0  0  0
  144.3715  138.1639  154.5875 H   0  0  0  0  0  0  0  0  0  0  0  0
  145.4439  137.3167  155.6854 H   0  0  0  0  0  0  0  0  0  0  0  0
  147.3046  138.8691  155.1830 H   0  0  0  0  0  0  0  0  0  0  0  0
  145.8975  139.7764  155.7010 H   0  0  0  0  0  0  0  0  0  0  0  0
  150.5380  145.0543  157.9196 H   0  0  0  0  0  0  0  0  0  0  0  0
  145.3756  140.1890  153.4149 H   0  0  0  0  0  0  0  0  0  0  0  0
  1  2  1  0  0  0  0
  1 21  1  0  0  0  0
  1 22  1  0  0  0  0
  1 23  1  0  0  0  0
  2 20  1  0  0  0  0
  2  3  2  0  0  0  0
  3  4  1  0  0  0  0
  3 24  1  0  0  0  0
  4  5  1  0  0  0  0
  4  6  2  0  0  0  0
  5 25  1  0  0  0  0
  5 26  1  0  0  0  0
  5 27  1  0  0  0  0
  6  7  1  0  0  0  0
  7  8  1  0  0  0  0
  7 20  2  0  0  0  0
  8  9  1  0  0  0  0
  8 28  1  0  0  0  0
  9 10  2  0  0  0  0
  9 11  1  0  0  0  0
 11 12  1  0  0  0  0
 11 29  1  0  0  0  0
 12 13  1  0  0  0  0
 12 30  1  0  0  0  0
 12 31  1  0  0  0  0
 13 14  1  0  0  0  0
 13 32  1  0  0  0  0
 13 33  1  0  0  0  0
 14 19  1  0  0  0  0
 14 15  1  0  0  0  0
 14 43  1  0  0  0  0
 15 16  1  0  0  0  0
 15 34  1  0  0  0  0
 15 35  1  0  0  0  0
 16 17  1  0  0  0  0
 16 36  1  0  0  0  0
 16 37  1  0  0  0  0
 17 18  1  0  0  0  0
 18 19  1  0  0  0  0
 18 38  1  0  0  0  0
 18 39  1  0  0  0  0
 19 40  1  0  0  0  0
 19 41  1  0  0  0  0
 20 42  1  0  0  0  0
M  CHG  1  14   1
M  END
> <s_m_source_file>
AV-unprocessed.smi

> <i_m_source_file_index>
2232

> <i_lp_mmshare_version>
43012

> <i_f3d_flags>
0

> <s_epik_input>
W0NIM11jMVtjSF1jKFtDSDNdKW5jKFtjSF0xKVtOSF1DKD1PKVtOSF1bQ0gyXVtDSDJdTjJbQ0gyXVtDSDJdT1tDSDJdW0NIMl0y

> <s_epik_cmdline>
J2VwaWtfcHl0aG9uJywgJy1waCcsICc3LjAnLCAnLXRuJywgJzgnLCAnLW1hJywgJzIwMCcsICctbWV0YWxfYmluZGluZycsICctaW1hZScsICc8aW5maWxlLm1hZT4nLCAnLW9tYWUnLCAnPG91dGZpbGUubWFlPic=

> <r_epik_Ionization_Penalty>
0.602717

> <r_epik_Ionization_Penalty_Charging>
0.602531

> <r_epik_Ionization_Penalty_Neutral>
0.000186219

> <r_epik_State_Penalty>
0.617039

> <r_epik_Charging_Adjusted_Penalty>
1.21957

> <i_epik_Tot_Q>
1

> <i_epik_Tot_abs_Q>
1

> <r_epik_Metal_State_Penalty>
0.617067

> <b_epik_Metal_Only>
0

> <s_lp_Force_Field>
OPLS_2005

> <r_lp_Energy>
15.6528

> <b_lp_Chiralities_Consistent>
1

> <s_lp_Variant>
AV-unprocessed.smi:2232-2

> <Gold.Version>
5.8.1

> <Gold.Id.Protein>
6NUR|6NUR_protein|mol2

> <Gold.PLP.Fitness>
53.7030

> <Gold.PLP.PLP>
-43.0044

> <Gold.PLP.part.hbond>
-3.0000

> <Gold.PLP.part.metal>
0.0000

> <Gold.PLP.part.buried>
-4.4126

> <Gold.PLP.part.nonpolar>
-36.5154

> <Gold.PLP.part.repulsive>
0.4261

> <Gold.PLP.ligand.clash>
0.0000

> <Gold.PLP.ligand.torsion>
0.4597

> <Gold.PLP.Chemscore.Hbond>
3.8640

> <Gold.PLP.Chemscore.CHOScore>
0.0000

> <Gold.PLP.Chemscore.Metal>
0.0000

> <Gold.Chemscore.Hbonds>
donor molecule, donor type, donor heavy atom, donor atom, acceptor molecule, acceptor atom, score
      L1  H     8    28       P1  8028  1.00
      L1  H    11    29       P1  8028  0.86
      L1  H    14    43       P1 10175  2.00

> <Gold.PLP.Chemscore.Internal.Correction>
0.0260

> <Gold.Rescore>
     Score         DG    S(hbond)    S(metal)    S(lipo)     H(rot)  DE(clash)    DE(int)     intcor
     20.96     -22.85       2.88        0.00      98.91       1.49       0.07       1.81       ----

> <Gold.Chemscore.Fitness>
20.9649

> <Gold.Chemscore.DG>
-22.8470

> <Gold.Chemscore.ZeroCoef>
-5.4800

> <Gold.Chemscore.Hbond>
2.8792

> <Gold.Chemscore.Metal>
0.0000

> <Gold.Chemscore.Lipo>
98.9108

> <Gold.Chemscore.Internal_Hbond>
0.0000

> <Gold.Chemscore.DEClash>
0.0685

> <Gold.Chemscore.DEInternal>
1.8137

> <Gold.Chemscore.Rot>
1.4930

> <Gold.Chemscore.Internal.Correction>
   9.000000E+99

> <Gold.Chemscore.Hbonds>
donor molecule, donor type, donor heavy atom, donor atom, acceptor molecule, acceptor atom, score
      L1  H     8    28       P1  8028  0.97
      L1  H    11    29       P1  8028  0.79
      L1  H    14    43       P1 10175  0.98

> <Gold.Chemscore.Hbond.Weighted>
-9.6164

> <Gold.Chemscore.Metal.Weighted>
-0.0000

> <Gold.Chemscore.Lipo.Weighted>
-11.5726

> <Gold.Chemscore.Internal_Hbond.Weighted>
0.0000

> <Gold.Chemscore.DEClash.Weighted>
0.0685

> <Gold.Chemscore.DEInternal.Weighted>
1.8137

> <Gold.Chemscore.Rot.Weighted>
3.8220

> <Gold.Chemscore.Internal.Correction.Weighted>
   9.000000E+99

> <Gold.Protein.RotatedTorsions>
[ 6907 6896 6895 6894 ] final -114.72 input  -60.11 | X-H torsion
[ 7974 7965 7964 7962 ] final  165.55 input  175.53 | X-H torsion
[ 8008 7997 7996 7995 ] final   75.61 input   59.86 | X-H torsion
[ 10167 10162 10161 10158 ] final  -99.77 input  -65.29 | X-H torsion
[ 10718 10713 10712 10709 ] final  137.43 input   66.30 | X-H torsion
[ 10763 10752 10751 10750 ] final  102.96 input  -60.55 | X-H torsion
[ 11005 11000 10999 10996 ] final  166.78 input  -57.11 | X-H torsion

> <Gold.Protein.ActiveResidues>
 VAL166  LYS551  ARG553  GLY616  TRP617  ASP618  TYR619  PRO620  LYS621  CYS622 
 ASP623  PHE694  ASN695  SER759  ASP760  ASP761  ALA762  ILE779  LEU786  VAL792 
 PHE793  MET794  SER795  GLU796  ALA797  LYS798  CYS799  TRP800  GLU811  SER814 

> <Gold.Protein.RotatedAtoms>
  150.7923  133.8761  159.3272 H   0  0  0  0  0  0  0  0  0  0  0  0  # atno 6907 bound_to 6896
  151.6595  135.0989  160.0186 H   0  0  0  0  0  0  0  0  0  0  0  0  # atno 6908 bound_to 6896
  152.3999  133.6764  159.6343 H   0  0  0  0  0  0  0  0  0  0  0  0  # atno 6909 bound_to 6896
  144.7498  139.8487  143.6370 H   0  0  0  0  0  0  0  0  0  0  0  0  # atno 7974 bound_to 7965
  155.8154  140.3471  155.5482 H   0  0  0  0  0  0  0  0  0  0  0  0  # atno 8008 bound_to 7997
  155.8398  140.0940  157.1762 H   0  0  0  0  0  0  0  0  0  0  0  0  # atno 8009 bound_to 7997
  154.4005  140.1396  156.3702 H   0  0  0  0  0  0  0  0  0  0  0  0  # atno 8010 bound_to 7997
  140.2590  143.3420  152.0644 H   0  0  0  0  0  0  0  0  0  0  0  0  # atno 10167 bound_to 10162
  157.4362  131.1053  151.0195 H   0  0  0  0  0  0  0  0  0  0  0  0  # atno 10718 bound_to 10713
  153.3464  135.3993  155.1612 H   0  0  0  0  0  0  0  0  0  0  0  0  # atno 10763 bound_to 10752
  154.8654  135.3646  154.5279 H   0  0  0  0  0  0  0  0  0  0  0  0  # atno 10764 bound_to 10752
  153.5727  135.7078  153.5557 H   0  0  0  0  0  0  0  0  0  0  0  0  # atno 10765 bound_to 10752
  140.2700  134.7834  157.3667 H   0  0  0  0  0  0  0  0  0  0  0  0  # atno 11005 bound_to 11000
  146.1431  139.4494  143.0096 LP  0  0  0  0  0  0  0  0  0  0  0  0  # atno 17320 bound_to 7965
  145.6986  141.0142  143.1516 LP  0  0  0  0  0  0  0  0  0  0  0  0  # atno 17321 bound_to 7965
  139.5023  144.6731  151.6194 LP  0  0  0  0  0  0  0  0  0  0  0  0  # atno 17342 bound_to 10162
  140.5981  143.9659  150.6368 LP  0  0  0  0  0  0  0  0  0  0  0  0  # atno 17343 bound_to 10162
  157.1074  130.6007  149.5474 LP  0  0  0  0  0  0  0  0  0  0  0  0  # atno 17370 bound_to 10713
  155.9931  130.4991  150.7368 LP  0  0  0  0  0  0  0  0  0  0  0  0  # atno 17371 bound_to 10713
  140.1382  134.5006  155.8052 LP  0  0  0  0  0  0  0  0  0  0  0  0  # atno 17394 bound_to 11000
  141.2179  133.6815  156.7162 LP  0  0  0  0  0  0  0  0  0  0  0  0  # atno 17395 bound_to 11000

$$$$
