AV-unprocessed.smi:2814|AV-procd|sdf|10840|dock2
  -GOLD-   2272015283D 1   1.00000     0.00000
 Structure written by MMmdl.
 38 39  0  0  0  0  0  0  0  0  2 V2000
  150.7101  141.3382  155.6732 C   0  0  0  0  0  0  0  0  0  0  0  0
  149.4292  141.0411  154.9224 C   0  0  0  0  0  0  0  0  0  0  0  0
  149.1111  139.7469  154.4572 C   0  0  0  0  0  0  0  0  0  0  0  0
  147.8922  139.5366  153.7633 C   0  0  0  0  0  0  0  0  0  0  0  0
  147.4888  138.2784  153.2401 N   0  0  0  0  0  0  0  0  0  0  0  0
  146.2620  137.7296  153.2421 C   0  0  0  0  0  0  0  0  0  0  0  0
  145.2472  138.2632  153.6897 O   0  0  0  0  0  0  0  0  0  0  0  0
  146.2746  136.5154  152.6741 N   0  0  0  0  0  0  0  0  0  0  0  0
  145.1181  135.6369  152.5079 C   0  0  0  0  0  0  0  0  0  0  0  0
  145.3180  134.6058  151.3743 C   0  0  0  0  0  0  0  0  0  0  0  0
  145.3306  135.3030  150.1409 O   0  0  0  0  0  0  0  0  0  0  0  0
  146.5794  133.7369  151.4857 C   0  0  0  0  0  0  0  0  0  0  0  0
  146.2952  132.4796  150.6543 C   0  0  0  0  0  0  0  0  0  0  0  0
  144.7673  132.3742  150.5352 C   0  0  0  0  0  0  0  0  0  0  0  0
  144.1895  133.5681  151.3067 C   0  0  0  0  0  0  0  0  0  0  0  0
  147.0448  140.6430  153.5355 C   0  0  0  0  0  0  0  0  0  0  0  0
  147.4135  141.9125  154.0241 C   0  0  0  0  0  0  0  0  0  0  0  0
  148.5758  142.0636  154.6939 N   0  3  0  0  0  0  0  0  0  0  0  0
  151.3128  140.4376  155.7948 H   0  0  0  0  0  0  0  0  0  0  0  0
  150.4867  141.7342  156.6643 H   0  0  0  0  0  0  0  0  0  0  0  0
  151.3052  142.0752  155.1333 H   0  0  0  0  0  0  0  0  0  0  0  0
  149.8098  138.9419  154.6278 H   0  0  0  0  0  0  0  0  0  0  0  0
  148.2051  137.7589  152.7541 H   0  0  0  0  0  0  0  0  0  0  0  0
  147.1565  136.1577  152.3374 H   0  0  0  0  0  0  0  0  0  0  0  0
  144.9049  135.1233  153.4470 H   0  0  0  0  0  0  0  0  0  0  0  0
  144.2425  136.2543  152.3038 H   0  0  0  0  0  0  0  0  0  0  0  0
  145.8009  134.7816  149.5083 H   0  0  0  0  0  0  0  0  0  0  0  0
  147.4856  134.2537  151.1673 H   0  0  0  0  0  0  0  0  0  0  0  0
  146.7243  133.4403  152.5253 H   0  0  0  0  0  0  0  0  0  0  0  0
  146.7364  132.5783  149.6618 H   0  0  0  0  0  0  0  0  0  0  0  0
  146.7300  131.5927  151.1161 H   0  0  0  0  0  0  0  0  0  0  0  0
  144.4752  132.4285  149.4856 H   0  0  0  0  0  0  0  0  0  0  0  0
  144.3920  131.4285  150.9278 H   0  0  0  0  0  0  0  0  0  0  0  0
  143.9333  133.2400  152.3153 H   0  0  0  0  0  0  0  0  0  0  0  0
  143.2753  133.9570  150.8558 H   0  0  0  0  0  0  0  0  0  0  0  0
  146.1155  140.5225  152.9974 H   0  0  0  0  0  0  0  0  0  0  0  0
  146.8184  142.8052  153.8985 H   0  0  0  0  0  0  0  0  0  0  0  0
  148.8236  142.9917  155.0379 H   0  0  0  0  0  0  0  0  0  0  0  0
  1  2  1  0  0  0  0
  1 19  1  0  0  0  0
  1 20  1  0  0  0  0
  1 21  1  0  0  0  0
  2 18  1  0  0  0  0
  2  3  2  0  0  0  0
  3  4  1  0  0  0  0
  3 22  1  0  0  0  0
  4  5  1  0  0  0  0
  4 16  2  0  0  0  0
  5  6  1  0  0  0  0
  5 23  1  0  0  0  0
  6  7  2  0  0  0  0
  6  8  1  0  0  0  0
  8  9  1  0  0  0  0
  8 24  1  0  0  0  0
  9 10  1  0  0  0  0
  9 25  1  0  0  0  0
  9 26  1  0  0  0  0
 10 15  1  0  0  0  0
 10 11  1  0  0  0  0
 10 12  1  0  0  0  0
 11 27  1  0  0  0  0
 12 13  1  0  0  0  0
 12 28  1  0  0  0  0
 12 29  1  0  0  0  0
 13 14  1  0  0  0  0
 13 30  1  0  0  0  0
 13 31  1  0  0  0  0
 14 15  1  0  0  0  0
 14 32  1  0  0  0  0
 14 33  1  0  0  0  0
 15 34  1  0  0  0  0
 15 35  1  0  0  0  0
 16 17  1  0  0  0  0
 16 36  1  0  0  0  0
 17 18  2  0  0  0  0
 17 37  1  0  0  0  0
 18 38  1  0  0  0  0
M  CHG  1  18   1
M  END
> <s_m_source_file>
AV-unprocessed.smi

> <i_m_source_file_index>
2814

> <i_lp_mmshare_version>
43012

> <i_f3d_flags>
0

> <s_epik_input>
W0NIM11jMVtjSF1jKFtjSF1bY0hdbjEpW05IXUMoPU8pW05IXVtDSDJdQzIoW09IXSlbQ0gyXVtDSDJdW0NIMl1bQ0gyXTI=

> <s_epik_cmdline>
J2VwaWtfcHl0aG9uJywgJy1waCcsICc3LjAnLCAnLXRuJywgJzgnLCAnLW1hJywgJzIwMCcsICctbWV0YWxfYmluZGluZycsICctaW1hZScsICc8aW5maWxlLm1hZT4nLCAnLW9tYWUnLCAnPG91dGZpbGUubWFlPic=

> <r_epik_Ionization_Penalty>
0.41638

> <r_epik_Ionization_Penalty_Charging>
0.416357

> <r_epik_Ionization_Penalty_Neutral>
2.25049e-05

> <r_epik_State_Penalty>
0.41674

> <r_epik_Charging_Adjusted_Penalty>
0.833097

> <i_epik_Tot_Q>
1

> <i_epik_Tot_abs_Q>
1

> <r_epik_Metal_State_Penalty>
0.654825

> <b_epik_Metal_Only>
0

> <s_lp_Force_Field>
OPLS_2005

> <r_lp_Energy>
34.0796

> <b_lp_Chiralities_Consistent>
1

> <s_lp_Variant>
AV-unprocessed.smi:2814-2

> <Gold.Version>
5.8.1

> <Gold.Id.Protein>
6NUR|6NUR_protein|mol2

> <Gold.PLP.Fitness>
49.6965

> <Gold.PLP.PLP>
-35.7347

> <Gold.PLP.part.hbond>
-3.9388

> <Gold.PLP.part.metal>
0.0000

> <Gold.PLP.part.buried>
-5.8112

> <Gold.PLP.part.nonpolar>
-27.3338

> <Gold.PLP.part.repulsive>
1.9397

> <Gold.PLP.ligand.clash>
0.0000

> <Gold.PLP.ligand.torsion>
0.5212

> <Gold.PLP.Chemscore.Hbond>
5.0000

> <Gold.PLP.Chemscore.CHOScore>
0.0000

> <Gold.PLP.Chemscore.Metal>
0.0000

> <Gold.Chemscore.Hbonds>
donor molecule, donor type, donor heavy atom, donor atom, acceptor molecule, acceptor atom, score
      L1  H     5    23       P1  7948  1.00
      L1  H     8    24       P1  7948  1.00
      L1  H    11    27       P1  7921  0.75
      L1  H    18    38       P1  8028  2.00

> <Gold.PLP.Chemscore.Internal.Correction>
0.0042

> <Gold.Rescore>
     Score         DG    S(hbond)    S(metal)    S(lipo)     H(rot)  DE(clash)    DE(int)     intcor
     20.51     -23.34       3.76        0.00      83.42       1.74       1.21       1.62       ----

> <Gold.Chemscore.Fitness>
20.5102

> <Gold.Chemscore.DG>
-23.3432

> <Gold.Chemscore.ZeroCoef>
-5.4800

> <Gold.Chemscore.Hbond>
3.7584

> <Gold.Chemscore.Metal>
0.0000

> <Gold.Chemscore.Lipo>
83.4172

> <Gold.Chemscore.Internal_Hbond>
0.0000

> <Gold.Chemscore.DEClash>
1.2098

> <Gold.Chemscore.DEInternal>
1.6232

> <Gold.Chemscore.Rot>
1.7382

> <Gold.Chemscore.Internal.Correction>
   9.000000E+99

> <Gold.Chemscore.Hbonds>
donor molecule, donor type, donor heavy atom, donor atom, acceptor molecule, acceptor atom, score
      L1  H     5    23       P1  7948  0.98
      L1  H     8    24       P1  7948  0.99
      L1  H    11    27       P1  7921  0.67
      L1  H    18    38       P1  8028  1.00

> <Gold.Chemscore.Hbond.Weighted>
-12.5531

> <Gold.Chemscore.Metal.Weighted>
-0.0000

> <Gold.Chemscore.Lipo.Weighted>
-9.7598

> <Gold.Chemscore.Internal_Hbond.Weighted>
0.0000

> <Gold.Chemscore.DEClash.Weighted>
1.2098

> <Gold.Chemscore.DEInternal.Weighted>
1.6232

> <Gold.Chemscore.Rot.Weighted>
4.4497

> <Gold.Chemscore.Internal.Correction.Weighted>
   9.000000E+99

> <Gold.Protein.RotatedTorsions>
[ 6907 6896 6895 6894 ] final   84.36 input  -60.11 | X-H torsion
[ 7974 7965 7964 7962 ] final  -70.46 input  175.53 | X-H torsion
[ 8008 7997 7996 7995 ] final  -30.56 input   59.86 | X-H torsion
[ 10167 10162 10161 10158 ] final -131.06 input  -65.29 | X-H torsion
[ 10718 10713 10712 10709 ] final  154.47 input   66.30 | X-H torsion
[ 10763 10752 10751 10750 ] final -161.90 input  -60.55 | X-H torsion
[ 11005 11000 10999 10996 ] final  113.51 input  -57.11 | X-H torsion

> <Gold.Protein.ActiveResidues>
 VAL166  LYS551  ARG553  GLY616  TRP617  ASP618  TYR619  PRO620  LYS621  CYS622 
 ASP623  PHE694  ASN695  SER759  ASP760  ASP761  ALA762  ILE779  LEU786  VAL792 
 PHE793  MET794  SER795  GLU796  ALA797  LYS798  CYS799  TRP800  GLU811  SER814 

> <Gold.Protein.RotatedAtoms>
  152.5350  134.2754  159.8986 H   0  0  0  0  0  0  0  0  0  0  0  0  # atno 6907 bound_to 6896
  151.2709  133.4249  159.2629 H   0  0  0  0  0  0  0  0  0  0  0  0  # atno 6908 bound_to 6896
  151.0368  134.9594  159.8197 H   0  0  0  0  0  0  0  0  0  0  0  0  # atno 6909 bound_to 6896
  145.6907  140.9154  143.0783 H   0  0  0  0  0  0  0  0  0  0  0  0  # atno 7974 bound_to 7965
  154.4246  140.1788  156.1427 H   0  0  0  0  0  0  0  0  0  0  0  0  # atno 8008 bound_to 7997
  155.9979  140.3363  155.6792 H   0  0  0  0  0  0  0  0  0  0  0  0  # atno 8009 bound_to 7997
  155.6283  140.0667  157.2647 H   0  0  0  0  0  0  0  0  0  0  0  0  # atno 8010 bound_to 7997
  139.9228  143.6362  152.2549 H   0  0  0  0  0  0  0  0  0  0  0  0  # atno 10167 bound_to 10162
  157.2312  131.0739  151.1851 H   0  0  0  0  0  0  0  0  0  0  0  0  # atno 10718 bound_to 10713
  154.7263  135.3036  154.8966 H   0  0  0  0  0  0  0  0  0  0  0  0  # atno 10763 bound_to 10752
  153.9823  135.6729  153.4754 H   0  0  0  0  0  0  0  0  0  0  0  0  # atno 10764 bound_to 10752
  153.0877  135.4975  154.8549 H   0  0  0  0  0  0  0  0  0  0  0  0  # atno 10765 bound_to 10752
  139.8955  134.9551  156.6751 H   0  0  0  0  0  0  0  0  0  0  0  0  # atno 11005 bound_to 11000
  144.6997  139.8818  143.7447 LP  0  0  0  0  0  0  0  0  0  0  0  0  # atno 17320 bound_to 7965
  146.0884  139.3873  143.0421 LP  0  0  0  0  0  0  0  0  0  0  0  0  # atno 17321 bound_to 7965
  139.6847  144.7652  151.1545 LP  0  0  0  0  0  0  0  0  0  0  0  0  # atno 17342 bound_to 10162
  140.7658  143.5674  150.9033 LP  0  0  0  0  0  0  0  0  0  0  0  0  # atno 17343 bound_to 10162
  157.3476  130.7065  149.6420 LP  0  0  0  0  0  0  0  0  0  0  0  0  # atno 17370 bound_to 10713
  155.9675  130.4262  150.4687 LP  0  0  0  0  0  0  0  0  0  0  0  0  # atno 17371 bound_to 10713
  140.7343  133.9032  155.8233 LP  0  0  0  0  0  0  0  0  0  0  0  0  # atno 17394 bound_to 11000
  141.0128  134.0997  157.4203 LP  0  0  0  0  0  0  0  0  0  0  0  0  # atno 17395 bound_to 11000

$$$$
