AV-unprocessed.smi:837|AV-procd|sdf|3905|dock1
  -GOLD-   22720 1363D 1   1.00000     0.00000
 Structure written by MMmdl.
 49 51  0  0  0  0  0  0  0  0  3 V2000
  148.7524  140.1200  157.1883 C   0  0  0  0  0  0  0  0  0  0  0  0
  147.7627  140.1603  156.0032 C   0  0  1  0  0  0  0  0  0  0  0  0
  147.4538  141.6263  155.6257 C   0  0  0  0  0  0  0  0  0  0  0  0
  146.4116  141.7224  154.5024 C   0  0  0  0  0  0  0  0  0  0  0  0
  146.8611  140.9438  153.2601 C   0  0  0  0  0  0  0  0  0  0  0  0
  147.1655  139.4769  153.6088 C   0  0  0  0  0  0  0  0  0  0  0  0
  148.1950  139.3129  154.7596 C   0  0  2  0  0  0  0  0  0  0  0  0
  148.2720  137.9050  155.1106 N   0  5  0  0  0  0  0  0  0  0  0  0
  149.5245  137.4559  154.8686 C   0  0  0  0  0  0  0  0  0  0  0  0
  149.9365  136.3075  155.0329 O   0  0  0  0  0  0  0  0  0  0  0  0
  150.3082  138.4401  154.3892 N   0  0  0  0  0  0  0  0  0  0  0  0
  151.7059  138.2687  153.9752 C   0  0  0  0  0  0  0  0  0  0  0  0
  152.6369  139.1169  154.8454 C   0  0  0  0  0  0  0  0  0  0  0  0
  153.7915  139.3423  154.4839 O   0  0  0  0  0  0  0  0  0  0  0  0
  152.1199  139.5646  155.9988 N   0  0  0  0  0  0  0  0  0  0  0  0
  152.8468  140.3034  157.0266 C   0  0  0  0  0  0  0  0  0  0  0  0
  152.2547  141.7017  157.3151 C   0  0  0  0  0  0  0  0  0  0  0  0
  152.7450  142.3403  158.6069 C   0  0  0  0  0  0  0  0  0  0  0  0
  153.6927  141.6776  159.4194 C   0  0  0  0  0  0  0  0  0  0  0  0
  154.1221  142.2827  160.6182 C   0  0  0  0  0  0  0  0  0  0  0  0
  153.5850  143.5319  160.9871 C   0  0  0  0  0  0  0  0  0  0  0  0
  152.6809  144.1370  160.1865 N   0  3  0  0  0  0  0  0  0  0  0  0
  152.2528  143.5962  159.0245 C   0  0  0  0  0  0  0  0  0  0  0  0
  149.6207  139.5821  154.2806 C   0  0  0  0  0  0  0  0  0  0  0  0
  150.0375  140.6636  153.8644 O   0  0  0  0  0  0  0  0  0  0  0  0
  149.7101  140.5752  156.9347 H   0  0  0  0  0  0  0  0  0  0  0  0
  148.9449  139.0989  157.5180 H   0  0  0  0  0  0  0  0  0  0  0  0
  148.3526  140.6621  158.0453 H   0  0  0  0  0  0  0  0  0  0  0  0
  146.8290  139.7310  156.3710 H   0  0  0  0  0  0  0  0  0  0  0  0
  147.0835  142.1615  156.5006 H   0  0  0  0  0  0  0  0  0  0  0  0
  148.3664  142.1401  155.3235 H   0  0  0  0  0  0  0  0  0  0  0  0
  145.4572  141.3295  154.8547 H   0  0  0  0  0  0  0  0  0  0  0  0
  146.2398  142.7675  154.2433 H   0  0  0  0  0  0  0  0  0  0  0  0
  146.0830  140.9859  152.4978 H   0  0  0  0  0  0  0  0  0  0  0  0
  147.7384  141.4201  152.8227 H   0  0  0  0  0  0  0  0  0  0  0  0
  146.2306  138.9860  153.8850 H   0  0  0  0  0  0  0  0  0  0  0  0
  147.5143  138.9667  152.7097 H   0  0  0  0  0  0  0  0  0  0  0  0
  152.0044  137.2220  154.0544 H   0  0  0  0  0  0  0  0  0  0  0  0
  151.8254  138.5310  152.9224 H   0  0  0  0  0  0  0  0  0  0  0  0
  151.1593  139.3282  156.2023 H   0  0  0  0  0  0  0  0  0  0  0  0
  152.9095  139.7157  157.9434 H   0  0  0  0  0  0  0  0  0  0  0  0
  153.8689  140.4168  156.6648 H   0  0  0  0  0  0  0  0  0  0  0  0
  152.4914  142.3666  156.4837 H   0  0  0  0  0  0  0  0  0  0  0  0
  151.1665  141.6403  157.3455 H   0  0  0  0  0  0  0  0  0  0  0  0
  154.0823  140.7106  159.1361 H   0  0  0  0  0  0  0  0  0  0  0  0
  154.8369  141.7857  161.2575 H   0  0  0  0  0  0  0  0  0  0  0  0
  153.8427  144.0563  161.8955 H   0  0  0  0  0  0  0  0  0  0  0  0
  151.5235  144.1743  158.4763 H   0  0  0  0  0  0  0  0  0  0  0  0
  152.3004  145.0380  160.4763 H   0  0  0  0  0  0  0  0  0  0  0  0
  1  2  1  0  0  0  0
  1 26  1  0  0  0  0
  1 27  1  0  0  0  0
  1 28  1  0  0  0  0
  2  7  1  0  0  0  0
  2  3  1  0  0  0  0
  2 29  1  0  0  0  0
  3  4  1  0  0  0  0
  3 30  1  0  0  0  0
  3 31  1  0  0  0  0
  4  5  1  0  0  0  0
  4 32  1  0  0  0  0
  4 33  1  0  0  0  0
  5  6  1  0  0  0  0
  5 34  1  0  0  0  0
  5 35  1  0  0  0  0
  6  7  1  0  0  0  0
  6 36  1  0  0  0  0
  6 37  1  0  0  0  0
  7 24  1  0  0  0  0
  7  8  1  0  0  0  0
  8  9  1  0  0  0  0
  9 10  2  0  0  0  0
  9 11  1  0  0  0  0
 11 12  1  0  0  0  0
 11 24  1  0  0  0  0
 12 13  1  0  0  0  0
 12 38  1  0  0  0  0
 12 39  1  0  0  0  0
 13 14  2  0  0  0  0
 13 15  1  0  0  0  0
 15 16  1  0  0  0  0
 15 40  1  0  0  0  0
 16 17  1  0  0  0  0
 16 41  1  0  0  0  0
 16 42  1  0  0  0  0
 17 18  1  0  0  0  0
 17 43  1  0  0  0  0
 17 44  1  0  0  0  0
 18 23  1  0  0  0  0
 18 19  2  0  0  0  0
 19 20  1  0  0  0  0
 19 45  1  0  0  0  0
 20 21  2  0  0  0  0
 20 46  1  0  0  0  0
 21 22  1  0  0  0  0
 21 47  1  0  0  0  0
 22 23  2  0  0  0  0
 22 49  1  0  0  0  0
 23 48  1  0  0  0  0
 24 25  2  0  0  0  0
M  CHG  1   8  -1
M  CHG  1  22   1
M  END
> <s_m_source_file>
AV-unprocessed.smi

> <i_m_source_file_index>
837

> <i_lp_mmshare_version>
43012

> <i_f3d_flags>
0

> <s_epik_input>
W0NIMl0xW0NIMl1bQ0gyXVtDSDJdW0NAQEhdKFtDSDNdKVtDQEBdMTJbTkhdQyg9TylOKEMyPU8pW0NIMl1DKD1PKVtOSF1bQ0gyXVtDSDJdYzNbY0hdW2NIXVtjSF1uW2NIXTM=

> <s_epik_cmdline>
J2VwaWtfcHl0aG9uJywgJy1waCcsICc3LjAnLCAnLXRuJywgJzgnLCAnLW1hJywgJzIwMCcsICctbWV0YWxfYmluZGluZycsICctaW1hZScsICc8aW5maWxlLm1hZT4nLCAnLW9tYWUnLCAnPG91dGZpbGUubWFlPic=

> <r_lp_tautomer_probability>
1

> <r_epik_Ionization_Penalty>
8.27169

> <r_epik_Ionization_Penalty_Charging>
8.27169

> <r_epik_Ionization_Penalty_Neutral>
1.56557e-07

> <r_epik_State_Penalty>
8.42098

> <r_epik_Charging_Adjusted_Penalty>
16.6927

> <i_epik_Tot_Q>
0

> <i_epik_Tot_abs_Q>
2

> <r_epik_Metal_State_Penalty>
4.38565

> <b_epik_Metal_Only>
1

> <s_lp_Force_Field>
OPLS_2005

> <r_lp_Energy>
12.2851

> <b_lp_Chiralities_Consistent>
1

> <s_lp_Variant>
AV-unprocessed.smi:837-14

> <Gold.Version>
5.8.1

> <Gold.Id.Protein>
6NUR|6NUR_protein|mol2

> <Gold.PLP.Fitness>
49.3034

> <Gold.PLP.PLP>
-44.6175

> <Gold.PLP.part.hbond>
-1.6560

> <Gold.PLP.part.metal>
0.0000

> <Gold.PLP.part.buried>
-6.9555

> <Gold.PLP.part.nonpolar>
-36.2417

> <Gold.PLP.part.repulsive>
1.1371

> <Gold.PLP.ligand.clash>
0.0000

> <Gold.PLP.ligand.torsion>
0.2941

> <Gold.PLP.Chemscore.Hbond>
1.7360

> <Gold.PLP.Chemscore.CHOScore>
0.0000

> <Gold.PLP.Chemscore.Metal>
0.0000

> <Gold.Chemscore.Hbonds>
donor molecule, donor type, donor heavy atom, donor atom, acceptor molecule, acceptor atom, score
      P1  H  7989  7998       L1    25  0.59
      P1  H  7997  8010       L1    14  0.93
      P1  H  8011  8017       L1    25  0.23

> <Gold.PLP.Chemscore.Internal.Correction>
0.0662

> <Gold.Rescore>
     Score         DG    S(hbond)    S(metal)    S(lipo)     H(rot)  DE(clash)    DE(int)     intcor
     17.92     -18.39       1.77        0.00     101.85       1.92       0.00       0.47       ----

> <Gold.Chemscore.Fitness>
17.9239

> <Gold.Chemscore.DG>
-18.3929

> <Gold.Chemscore.ZeroCoef>
-5.4800

> <Gold.Chemscore.Hbond>
1.7680

> <Gold.Chemscore.Metal>
0.0000

> <Gold.Chemscore.Lipo>
101.8508

> <Gold.Chemscore.Internal_Hbond>
0.0000

> <Gold.Chemscore.DEClash>
0.0009

> <Gold.Chemscore.DEInternal>
0.4681

> <Gold.Chemscore.Rot>
1.9175

> <Gold.Chemscore.Internal.Correction>
   9.000000E+99

> <Gold.Chemscore.Hbonds>
donor molecule, donor type, donor heavy atom, donor atom, acceptor molecule, acceptor atom, score
      P1  H  7989  7998       L1    25  0.59
      P1  H  7997  8010       L1    14  0.31
      P1  H  8011  8017       L1    25  0.23

> <Gold.Chemscore.Hbond.Weighted>
-5.9051

> <Gold.Chemscore.Metal.Weighted>
-0.0000

> <Gold.Chemscore.Lipo.Weighted>
-11.9165

> <Gold.Chemscore.Internal_Hbond.Weighted>
0.0000

> <Gold.Chemscore.DEClash.Weighted>
0.0009

> <Gold.Chemscore.DEInternal.Weighted>
0.4681

> <Gold.Chemscore.Rot.Weighted>
4.9087

> <Gold.Chemscore.Internal.Correction.Weighted>
   9.000000E+99

> <Gold.Protein.RotatedTorsions>
[ 6907 6896 6895 6894 ] final  -33.88 input  -60.11 | X-H torsion
[ 7974 7965 7964 7962 ] final -126.37 input  175.53 | X-H torsion
[ 8008 7997 7996 7995 ] final  102.39 input   59.86 | X-H torsion
[ 10167 10162 10161 10158 ] final -133.20 input  -65.29 | X-H torsion
[ 10718 10713 10712 10709 ] final   -7.24 input   66.30 | X-H torsion
[ 10763 10752 10751 10750 ] final  -34.03 input  -60.55 | X-H torsion
[ 11005 11000 10999 10996 ] final  167.77 input  -57.11 | X-H torsion

> <Gold.Protein.ActiveResidues>
 VAL166  LYS551  ARG553  GLY616  TRP617  ASP618  TYR619  PRO620  LYS621  CYS622 
 ASP623  PHE694  ASN695  SER759  ASP760  ASP761  ALA762  ILE779  LEU786  VAL792 
 PHE793  MET794  SER795  GLU796  ALA797  LYS798  CYS799  TRP800  GLU811  SER814 

> <Gold.Protein.RotatedAtoms>
  151.0598  134.9729  159.8254 H   0  0  0  0  0  0  0  0  0  0  0  0  # atno 6907 bound_to 6896
  152.5394  134.2431  159.8880 H   0  0  0  0  0  0  0  0  0  0  0  0  # atno 6908 bound_to 6896
  151.2451  133.4336  159.2642 H   0  0  0  0  0  0  0  0  0  0  0  0  # atno 6909 bound_to 6896
  144.9880  140.7704  143.4572 H   0  0  0  0  0  0  0  0  0  0  0  0  # atno 7974 bound_to 7965
  156.1388  140.3182  155.8462 H   0  0  0  0  0  0  0  0  0  0  0  0  # atno 8008 bound_to 7997
  155.4194  140.0511  157.3044 H   0  0  0  0  0  0  0  0  0  0  0  0  # atno 8009 bound_to 7997
  154.4959  140.2110  155.9461 H   0  0  0  0  0  0  0  0  0  0  0  0  # atno 8010 bound_to 7997
  139.9007  143.6611  152.2595 H   0  0  0  0  0  0  0  0  0  0  0  0  # atno 10167 bound_to 10162
  156.7201  130.5148  149.5870 H   0  0  0  0  0  0  0  0  0  0  0  0  # atno 10718 bound_to 10713
  153.8400  135.6858  153.4804 H   0  0  0  0  0  0  0  0  0  0  0  0  # atno 10763 bound_to 10752
  153.1459  135.4638  154.9564 H   0  0  0  0  0  0  0  0  0  0  0  0  # atno 10764 bound_to 10752
  154.7849  135.3281  154.7854 H   0  0  0  0  0  0  0  0  0  0  0  0  # atno 10765 bound_to 10752
  140.2802  134.7756  157.3752 H   0  0  0  0  0  0  0  0  0  0  0  0  # atno 11005 bound_to 11000
  145.2326  139.2108  143.5034 LP  0  0  0  0  0  0  0  0  0  0  0  0  # atno 17320 bound_to 7965
  146.3424  140.2206  142.8591 LP  0  0  0  0  0  0  0  0  0  0  0  0  # atno 17321 bound_to 7965
  139.7028  144.7632  151.1244 LP  0  0  0  0  0  0  0  0  0  0  0  0  # atno 17342 bound_to 10162
  140.7707  143.5435  150.9285 LP  0  0  0  0  0  0  0  0  0  0  0  0  # atno 17343 bound_to 10162
  156.1601  130.6368  151.0707 LP  0  0  0  0  0  0  0  0  0  0  0  0  # atno 17370 bound_to 10713
  157.6901  131.0812  150.7130 LP  0  0  0  0  0  0  0  0  0  0  0  0  # atno 17371 bound_to 10713
  140.1290  134.5119  155.8121 LP  0  0  0  0  0  0  0  0  0  0  0  0  # atno 17394 bound_to 11000
  141.2164  133.6783  156.7005 LP  0  0  0  0  0  0  0  0  0  0  0  0  # atno 17395 bound_to 11000

$$$$
