AV-unprocessed.smi:678|AV-procd|sdf|3314|dock1
  -GOLD-   22720 0273D 1   1.00000     0.00000
 Structure written by MMmdl.
 51 52  0  0  0  0  0  0  0  0  2 V2000
  152.9609  142.7821  162.0517 C   0  0  0  0  0  0  0  0  0  0  0  0
  152.3304  143.1804  160.7287 C   0  0  0  0  0  0  0  0  0  0  0  0
  151.9056  144.4426  160.5026 C   0  0  0  0  0  0  0  0  0  0  0  0
  151.2924  144.8100  159.2494 C   0  0  0  0  0  0  0  0  0  0  0  0
  151.1488  143.8625  158.3120 C   0  0  0  0  0  0  0  0  0  0  0  0
  151.5825  142.5403  158.5214 N   0  0  0  0  0  0  0  0  0  0  0  0
  151.3677  141.5817  157.4239 C   0  0  0  0  0  0  0  0  0  0  0  0
  149.9176  141.0853  157.3602 C   0  0  0  0  0  0  0  0  0  0  0  0
  149.6372  139.9346  157.6968 O   0  0  0  0  0  0  0  0  0  0  0  0
  149.0095  141.9652  156.9129 N   0  0  0  0  0  0  0  0  0  0  0  0
  147.5994  141.6786  156.6701 C   0  0  0  0  0  0  0  0  0  0  0  0
  147.4173  140.4749  155.7256 C   0  0  1  0  0  0  0  0  0  0  0  0
  145.9842  140.3499  155.1507 C   0  0  0  0  0  0  0  0  0  0  0  0
  145.8784  139.2497  154.1589 N   0  3  2  0  0  0  0  0  0  0  0  0
  145.7789  137.8896  154.7546 C   0  0  0  0  0  0  0  0  0  0  0  0
  145.5460  136.7923  153.6936 C   0  0  0  0  0  0  0  0  0  0  0  0
  144.3058  137.1114  152.8460 C   0  0  0  0  0  0  0  0  0  0  0  0
  145.4221  135.3979  154.3286 C   0  0  0  0  0  0  0  0  0  0  0  0
  146.9332  139.3779  153.1249 C   0  0  0  0  0  0  0  0  0  0  0  0
  148.3258  139.5116  153.7645 C   0  0  0  0  0  0  0  0  0  0  0  0
  148.3334  140.6273  154.6468 O   0  0  0  0  0  0  0  0  0  0  0  0
  152.1779  142.1442  159.6902 C   0  0  0  0  0  0  0  0  0  0  0  0
  152.5591  140.9832  159.8559 O   0  0  0  0  0  0  0  0  0  0  0  0
  153.1030  143.6470  162.7004 H   0  0  0  0  0  0  0  0  0  0  0  0
  153.9354  142.3191  161.8918 H   0  0  0  0  0  0  0  0  0  0  0  0
  152.3225  142.0708  162.5759 H   0  0  0  0  0  0  0  0  0  0  0  0
  152.0165  145.1940  161.2708 H   0  0  0  0  0  0  0  0  0  0  0  0
  150.9529  145.8202  159.0734 H   0  0  0  0  0  0  0  0  0  0  0  0
  150.6929  144.0540  157.3515 H   0  0  0  0  0  0  0  0  0  0  0  0
  151.6165  142.0249  156.4589 H   0  0  0  0  0  0  0  0  0  0  0  0
  152.0499  140.7363  157.5361 H   0  0  0  0  0  0  0  0  0  0  0  0
  149.3303  142.8933  156.6768 H   0  0  0  0  0  0  0  0  0  0  0  0
  147.0576  141.5248  157.6050 H   0  0  0  0  0  0  0  0  0  0  0  0
  147.1660  142.5672  156.2105 H   0  0  0  0  0  0  0  0  0  0  0  0
  147.6825  139.5723  156.2781 H   0  0  0  0  0  0  0  0  0  0  0  0
  145.2545  140.2086  155.9456 H   0  0  0  0  0  0  0  0  0  0  0  0
  145.7129  141.2815  154.6528 H   0  0  0  0  0  0  0  0  0  0  0  0
  146.6990  137.6540  155.2911 H   0  0  0  0  0  0  0  0  0  0  0  0
  144.9866  137.8692  155.5027 H   0  0  0  0  0  0  0  0  0  0  0  0
  146.3938  136.7674  153.0112 H   0  0  0  0  0  0  0  0  0  0  0  0
  143.4063  137.1625  153.4605 H   0  0  0  0  0  0  0  0  0  0  0  0
  144.1435  136.3505  152.0821 H   0  0  0  0  0  0  0  0  0  0  0  0
  144.4159  138.0680  152.3341 H   0  0  0  0  0  0  0  0  0  0  0  0
  144.5806  135.3489  155.0205 H   0  0  0  0  0  0  0  0  0  0  0  0
  146.3232  135.1292  154.8801 H   0  0  0  0  0  0  0  0  0  0  0  0
  145.2692  134.6334  153.5662 H   0  0  0  0  0  0  0  0  0  0  0  0
  146.9008  138.5368  152.4315 H   0  0  0  0  0  0  0  0  0  0  0  0
  146.7244  140.2694  152.5324 H   0  0  0  0  0  0  0  0  0  0  0  0
  148.6074  138.6021  154.2975 H   0  0  0  0  0  0  0  0  0  0  0  0
  149.0778  139.6709  152.9915 H   0  0  0  0  0  0  0  0  0  0  0  0
  145.0033  139.3829  153.6723 H   0  0  0  0  0  0  0  0  0  0  0  0
  1  2  1  0  0  0  0
  1 24  1  0  0  0  0
  1 25  1  0  0  0  0
  1 26  1  0  0  0  0
  2 22  1  0  0  0  0
  2  3  2  0  0  0  0
  3  4  1  0  0  0  0
  3 27  1  0  0  0  0
  4  5  2  0  0  0  0
  4 28  1  0  0  0  0
  5  6  1  0  0  0  0
  5 29  1  0  0  0  0
  6  7  1  0  0  0  0
  6 22  1  0  0  0  0
  7  8  1  0  0  0  0
  7 30  1  0  0  0  0
  7 31  1  0  0  0  0
  8  9  2  0  0  0  0
  8 10  1  0  0  0  0
 10 11  1  0  0  0  0
 10 32  1  0  0  0  0
 11 12  1  0  0  0  0
 11 33  1  0  0  0  0
 11 34  1  0  0  0  0
 12 21  1  0  0  0  0
 12 13  1  0  0  0  0
 12 35  1  0  0  0  0
 13 14  1  0  0  0  0
 13 36  1  0  0  0  0
 13 37  1  0  0  0  0
 14 15  1  0  0  0  0
 14 19  1  0  0  0  0
 14 51  1  0  0  0  0
 15 16  1  0  0  0  0
 15 38  1  0  0  0  0
 15 39  1  0  0  0  0
 16 17  1  0  0  0  0
 16 18  1  0  0  0  0
 16 40  1  0  0  0  0
 17 41  1  0  0  0  0
 17 42  1  0  0  0  0
 17 43  1  0  0  0  0
 18 44  1  0  0  0  0
 18 45  1  0  0  0  0
 18 46  1  0  0  0  0
 19 20  1  0  0  0  0
 19 47  1  0  0  0  0
 19 48  1  0  0  0  0
 20 21  1  0  0  0  0
 20 49  1  0  0  0  0
 20 50  1  0  0  0  0
 22 23  2  0  0  0  0
M  CHG  1  14   1
M  END
> <s_m_source_file>
AV-unprocessed.smi

> <i_m_source_file_index>
678

> <i_lp_mmshare_version>
43012

> <i_f3d_flags>
0

> <s_epik_input>
W0NIM11jMVtjSF1bY0hdW2NIXW4oYzE9TylbQ0gyXUMoPU8pW05IXVtDSDJdW0NAQEhdMltDSDJdTihbQ0gyXVtDSDJdTzIpW0NIMl1bQ0hdKFtDSDNdKVtDSDNd

> <s_epik_cmdline>
J2VwaWtfcHl0aG9uJywgJy1waCcsICc3LjAnLCAnLXRuJywgJzgnLCAnLW1hJywgJzIwMCcsICctbWV0YWxfYmluZGluZycsICctaW1hZScsICc8aW5maWxlLm1hZT4nLCAnLW9tYWUnLCAnPG91dGZpbGUubWFlPic=

> <r_lp_tautomer_probability>
1

> <r_epik_Ionization_Penalty>
0.0975937

> <r_epik_Ionization_Penalty_Charging>
0.0975937

> <r_epik_Ionization_Penalty_Neutral>
6.27044e-08

> <r_epik_State_Penalty>
0.0877056

> <r_epik_Charging_Adjusted_Penalty>
0.185299

> <i_epik_Tot_Q>
1

> <i_epik_Tot_abs_Q>
1

> <r_epik_Metal_State_Penalty>
0.0877109

> <b_epik_Metal_Only>
0

> <s_lp_Force_Field>
OPLS_2005

> <r_lp_Energy>
27.4135

> <b_lp_Chiralities_Consistent>
1

> <s_lp_Variant>
AV-unprocessed.smi:678-2

> <Gold.Version>
5.8.1

> <Gold.Id.Protein>
6NUR|6NUR_protein|mol2

> <Gold.PLP.Fitness>
48.8636

> <Gold.PLP.PLP>
-38.2626

> <Gold.PLP.part.hbond>
-2.0000

> <Gold.PLP.part.metal>
0.0000

> <Gold.PLP.part.buried>
-4.5693

> <Gold.PLP.part.nonpolar>
-32.2738

> <Gold.PLP.part.repulsive>
0.1105

> <Gold.PLP.ligand.clash>
0.0000

> <Gold.PLP.ligand.torsion>
0.5344

> <Gold.PLP.Chemscore.Hbond>
2.8320

> <Gold.PLP.Chemscore.CHOScore>
1.0000

> <Gold.PLP.Chemscore.Metal>
0.0000

> <Gold.Chemscore.Hbonds>
donor molecule, donor type, donor heavy atom, donor atom, acceptor molecule, acceptor atom, score
      L1  H    10    32       P1  8028  0.68
      L1  H    14    51       P1 10175  1.69
      L1  C     5    29       P1  8028  0.98

> <Gold.PLP.Chemscore.Internal.Correction>
0.1738

> <Gold.Rescore>
     Score         DG    S(hbond)    S(metal)    S(lipo)     H(rot)  DE(clash)    DE(int)     intcor
     16.41     -18.04       1.85        0.00      95.85       1.89       0.38       1.26       ----

> <Gold.Chemscore.Fitness>
16.4081

> <Gold.Chemscore.DG>
-18.0447

> <Gold.Chemscore.ZeroCoef>
-5.4800

> <Gold.Chemscore.Hbond>
1.8508

> <Gold.Chemscore.Metal>
0.0000

> <Gold.Chemscore.Lipo>
95.8472

> <Gold.Chemscore.Internal_Hbond>
0.0000

> <Gold.Chemscore.DEClash>
0.3794

> <Gold.Chemscore.DEInternal>
1.2572

> <Gold.Chemscore.Rot>
1.8871

> <Gold.Chemscore.Internal.Correction>
   9.000000E+99

> <Gold.Chemscore.Hbonds>
donor molecule, donor type, donor heavy atom, donor atom, acceptor molecule, acceptor atom, score
      L1  H    10    32       P1  8028  0.65
      L1  H    14    51       P1 10175  0.82

> <Gold.Chemscore.Hbond.Weighted>
-6.1815

> <Gold.Chemscore.Metal.Weighted>
-0.0000

> <Gold.Chemscore.Lipo.Weighted>
-11.2141

> <Gold.Chemscore.Internal_Hbond.Weighted>
0.0000

> <Gold.Chemscore.DEClash.Weighted>
0.3794

> <Gold.Chemscore.DEInternal.Weighted>
1.2572

> <Gold.Chemscore.Rot.Weighted>
4.8309

> <Gold.Chemscore.Internal.Correction.Weighted>
   9.000000E+99

> <Gold.Protein.RotatedTorsions>
[ 6907 6896 6895 6894 ] final  113.78 input  -60.11 | X-H torsion
[ 7974 7965 7964 7962 ] final  148.70 input  175.53 | X-H torsion
[ 8008 7997 7996 7995 ] final -143.22 input   59.86 | X-H torsion
[ 10167 10162 10161 10158 ] final -147.23 input  -65.29 | X-H torsion
[ 10718 10713 10712 10709 ] final   51.73 input   66.30 | X-H torsion
[ 10763 10752 10751 10750 ] final  -66.45 input  -60.55 | X-H torsion
[ 11005 11000 10999 10996 ] final  158.74 input  -57.11 | X-H torsion

> <Gold.Protein.ActiveResidues>
 VAL166  LYS551  ARG553  GLY616  TRP617  ASP618  TYR619  PRO620  LYS621  CYS622 
 ASP623  PHE694  ASN695  SER759  ASP760  ASP761  ALA762  ILE779  LEU786  VAL792 
 PHE793  MET794  SER795  GLU796  ALA797  LYS798  CYS799  TRP800  GLU811  SER814 

> <Gold.Protein.RotatedAtoms>
  152.4841  133.8328  159.7111 H   0  0  0  0  0  0  0  0  0  0  0  0  # atno 6907 bound_to 6896
  150.8913  133.7230  159.2910 H   0  0  0  0  0  0  0  0  0  0  0  0  # atno 6908 bound_to 6896
  151.4701  135.1049  159.9801 H   0  0  0  0  0  0  0  0  0  0  0  0  # atno 6909 bound_to 6896
  144.8494  139.6187  143.5981 H   0  0  0  0  0  0  0  0  0  0  0  0  # atno 7974 bound_to 7965
  155.5070  140.0580  157.2930 H   0  0  0  0  0  0  0  0  0  0  0  0  # atno 8008 bound_to 7997
  154.4566  140.1976  156.0312 H   0  0  0  0  0  0  0  0  0  0  0  0  # atno 8009 bound_to 7997
  156.0810  140.3247  155.7698 H   0  0  0  0  0  0  0  0  0  0  0  0  # atno 8010 bound_to 7997
  139.7641  143.8334  152.2613 H   0  0  0  0  0  0  0  0  0  0  0  0  # atno 10167 bound_to 10162
  157.5008  130.8437  149.8314 H   0  0  0  0  0  0  0  0  0  0  0  0  # atno 10718 bound_to 10713
  154.3600  135.6118  153.5686 H   0  0  0  0  0  0  0  0  0  0  0  0  # atno 10763 bound_to 10752
  152.9794  135.5813  154.4644 H   0  0  0  0  0  0  0  0  0  0  0  0  # atno 10764 bound_to 10752
  154.4380  135.2849  155.1844 H   0  0  0  0  0  0  0  0  0  0  0  0  # atno 10765 bound_to 10752
  140.1894  134.8418  157.2894 H   0  0  0  0  0  0  0  0  0  0  0  0  # atno 11005 bound_to 11000
  146.2772  139.6782  142.9255 LP  0  0  0  0  0  0  0  0  0  0  0  0  # atno 17320 bound_to 7965
  145.4531  141.0429  143.2793 LP  0  0  0  0  0  0  0  0  0  0  0  0  # atno 17321 bound_to 7965
  139.8348  144.7237  150.9404 LP  0  0  0  0  0  0  0  0  0  0  0  0  # atno 17342 bound_to 10162
  140.7809  143.4036  151.1107 LP  0  0  0  0  0  0  0  0  0  0  0  0  # atno 17343 bound_to 10162
  156.0228  130.3789  150.1911 LP  0  0  0  0  0  0  0  0  0  0  0  0  # atno 17370 bound_to 10713
  157.0101  130.9948  151.3368 LP  0  0  0  0  0  0  0  0  0  0  0  0  # atno 17371 bound_to 10713
  140.2177  134.4061  155.7581 LP  0  0  0  0  0  0  0  0  0  0  0  0  # atno 17394 bound_to 11000
  141.2226  133.7150  156.8440 LP  0  0  0  0  0  0  0  0  0  0  0  0  # atno 17395 bound_to 11000

$$$$
