AV-unprocessed.smi:2458|AV-procd|sdf|9708|dock4
  -GOLD-   2272013343D 1   1.00000     0.00000
 Structure written by MMmdl.
 47 48  0  0  0  0  0  0  0  0  1 V2000
  152.1412  144.6866  157.9250 C   0  0  0  0  0  0  0  0  0  0  0  0
  151.8700  144.4885  159.4292 C   0  0  0  0  0  0  0  0  0  0  0  0
  151.7940  145.8721  160.1037 C   0  0  0  0  0  0  0  0  0  0  0  0
  152.9057  143.5438  160.1080 C   0  0  1  0  0  0  0  0  0  0  0  0
  152.5372  143.2234  161.5780 C   0  0  0  0  0  0  0  0  0  0  0  0
  153.5481  142.2780  162.2471 C   0  0  0  0  0  0  0  0  0  0  0  0
  153.6930  140.9625  161.4613 C   0  0  2  0  0  0  0  0  0  0  0  0
  154.7089  140.0279  162.1327 C   0  0  0  0  0  0  0  0  0  0  0  0
  155.7804  140.4690  162.5496 O   0  0  0  0  0  0  0  0  0  0  0  0
  154.3611  138.7369  162.2304 N   0  0  0  0  0  0  0  0  0  0  0  0
  155.1899  137.7031  162.8366 C   0  0  0  0  0  0  0  0  0  0  0  0
  154.4121  136.9392  163.9231 C   0  0  2  0  0  0  0  0  0  0  0  0
  154.9018  137.3325  165.1901 O   0  0  0  0  0  0  0  0  0  0  0  0
  154.5235  135.4353  163.7287 C   0  0  0  0  0  0  0  0  0  0  0  0
  154.0008  134.5323  164.6798 C   0  0  0  0  0  0  0  0  0  0  0  0
  154.1397  133.1494  164.4544 C   0  0  0  0  0  0  0  0  0  0  0  0
  154.7988  132.7240  163.2840 C   0  0  0  0  0  0  0  0  0  0  0  0
  155.3051  133.5762  162.3673 N   0  0  0  0  0  0  0  0  0  0  0  0
  155.1675  134.9010  162.5912 C   0  0  0  0  0  0  0  0  0  0  0  0
  154.0978  141.2722  160.0086 C   0  0  0  0  0  0  0  0  0  0  0  0
  153.0906  142.2162  159.3319 C   0  0  0  0  0  0  0  0  0  0  0  0
  153.8682  144.0578  160.1148 H   0  0  0  0  0  0  0  0  0  0  0  0
  152.7223  140.4634  161.4469 H   0  0  0  0  0  0  0  0  0  0  0  0
  153.1553  145.0466  157.7487 H   0  0  0  0  0  0  0  0  0  0  0  0
  151.4538  145.4147  157.4935 H   0  0  0  0  0  0  0  0  0  0  0  0
  152.0056  143.7654  157.3596 H   0  0  0  0  0  0  0  0  0  0  0  0
  150.8838  144.0313  159.5208 H   0  0  0  0  0  0  0  0  0  0  0  0
  152.7731  146.3509  160.1381 H   0  0  0  0  0  0  0  0  0  0  0  0
  151.4106  145.8112  161.1214 H   0  0  0  0  0  0  0  0  0  0  0  0
  151.1210  146.5374  159.5621 H   0  0  0  0  0  0  0  0  0  0  0  0
  152.4937  144.1348  162.1729 H   0  0  0  0  0  0  0  0  0  0  0  0
  151.5419  142.7785  161.6195 H   0  0  0  0  0  0  0  0  0  0  0  0
  154.5133  142.7814  162.3236 H   0  0  0  0  0  0  0  0  0  0  0  0
  153.2278  142.0701  163.2691 H   0  0  0  0  0  0  0  0  0  0  0  0
  153.4617  138.4526  161.8699 H   0  0  0  0  0  0  0  0  0  0  0  0
  155.4785  137.0124  162.0423 H   0  0  0  0  0  0  0  0  0  0  0  0
  156.1118  138.1270  163.2388 H   0  0  0  0  0  0  0  0  0  0  0  0
  153.3565  137.2117  163.8774 H   0  0  0  0  0  0  0  0  0  0  0  0
  154.5123  136.7776  165.8485 H   0  0  0  0  0  0  0  0  0  0  0  0
  153.5039  134.8915  165.5690 H   0  0  0  0  0  0  0  0  0  0  0  0
  153.7519  132.4318  165.1622 H   0  0  0  0  0  0  0  0  0  0  0  0
  154.9238  131.6709  163.0800 H   0  0  0  0  0  0  0  0  0  0  0  0
  155.5867  135.5523  161.8385 H   0  0  0  0  0  0  0  0  0  0  0  0
  155.0886  141.7288  159.9807 H   0  0  0  0  0  0  0  0  0  0  0  0
  154.1693  140.3471  159.4347 H   0  0  0  0  0  0  0  0  0  0  0  0
  152.1292  141.7106  159.2316 H   0  0  0  0  0  0  0  0  0  0  0  0
  153.4463  142.4074  158.3203 H   0  0  0  0  0  0  0  0  0  0  0  0
  1  2  1  0  0  0  0
  1 24  1  0  0  0  0
  1 25  1  0  0  0  0
  1 26  1  0  0  0  0
  2  3  1  0  0  0  0
  2  4  1  0  0  0  0
  2 27  1  0  0  0  0
  3 28  1  0  0  0  0
  3 29  1  0  0  0  0
  3 30  1  0  0  0  0
  4 22  1  0  0  0  0
  4 21  1  0  0  0  0
  4  5  1  0  0  0  0
  5  6  1  0  0  0  0
  5 31  1  0  0  0  0
  5 32  1  0  0  0  0
  6  7  1  0  0  0  0
  6 33  1  0  0  0  0
  6 34  1  0  0  0  0
  7 23  1  0  0  0  0
  7  8  1  0  0  0  0
  7 20  1  0  0  0  0
  8  9  2  0  0  0  0
  8 10  1  0  0  0  0
 10 11  1  0  0  0  0
 10 35  1  0  0  0  0
 11 12  1  0  0  0  0
 11 36  1  0  0  0  0
 11 37  1  0  0  0  0
 12 13  1  0  0  0  0
 12 14  1  0  0  0  0
 12 38  1  0  0  0  0
 13 39  1  0  0  0  0
 14 19  1  0  0  0  0
 14 15  2  0  0  0  0
 15 16  1  0  0  0  0
 15 40  1  0  0  0  0
 16 17  2  0  0  0  0
 16 41  1  0  0  0  0
 17 18  1  0  0  0  0
 17 42  1  0  0  0  0
 18 19  2  0  0  0  0
 19 43  1  0  0  0  0
 20 21  1  0  0  0  0
 20 44  1  0  0  0  0
 20 45  1  0  0  0  0
 21 46  1  0  0  0  0
 21 47  1  0  0  0  0
M  END
> <s_m_source_file>
AV-unprocessed.smi

> <i_m_source_file_index>
2458

> <i_lp_mmshare_version>
43012

> <i_f3d_flags>
0

> <s_epik_input>
W0NIM11bQ0hdKFtDSDNdKVtDQEhdMVtDSDJdW0NIMl1bQ0BASF0oW0NIMl1bQ0gyXTEpQyg9TylbTkhdW0NIMl1bQ0BIXShbT0hdKWMyW2NIXVtjSF1bY0hdbltjSF0y

> <s_epik_cmdline>
J2VwaWtfcHl0aG9uJywgJy1waCcsICc3LjAnLCAnLXRuJywgJzgnLCAnLW1hJywgJzIwMCcsICctbWV0YWxfYmluZGluZycsICctaW1hZScsICc8aW5maWxlLm1hZT4nLCAnLW9tYWUnLCAnPG91dGZpbGUubWFlPic=

> <r_epik_Ionization_Penalty>
0.00169206

> <r_epik_Ionization_Penalty_Charging>
0

> <r_epik_Ionization_Penalty_Neutral>
0.00169206

> <r_epik_State_Penalty>
0.0011427

> <r_epik_Charging_Adjusted_Penalty>
0.0011427

> <i_epik_Tot_Q>
0

> <i_epik_Tot_abs_Q>
0

> <r_epik_Metal_State_Penalty>
-0

> <b_epik_Metal_Only>
0

> <s_lp_Force_Field>
OPLS_2005

> <r_lp_Energy>
18.0059

> <b_lp_Chiralities_Consistent>
1

> <s_lp_Variant>
AV-unprocessed.smi:2458-1

> <Gold.Version>
5.8.1

> <Gold.Id.Protein>
6NUR|6NUR_protein|mol2

> <Gold.PLP.Fitness>
52.9647

> <Gold.PLP.PLP>
-55.5115

> <Gold.PLP.part.hbond>
-2.0000

> <Gold.PLP.part.metal>
0.0000

> <Gold.PLP.part.buried>
-5.0731

> <Gold.PLP.part.nonpolar>
-48.0117

> <Gold.PLP.part.repulsive>
0.0036

> <Gold.PLP.ligand.clash>
0.0000

> <Gold.PLP.ligand.torsion>
1.2969

> <Gold.PLP.Chemscore.Hbond>
0.0000

> <Gold.PLP.Chemscore.CHOScore>
0.0000

> <Gold.PLP.Chemscore.Metal>
0.0000

> <Gold.PLP.Chemscore.Internal.Correction>
0.0471

> <Gold.Rescore>
     Score         DG    S(hbond)    S(metal)    S(lipo)     H(rot)  DE(clash)    DE(int)     intcor
     16.54     -17.93       0.00        0.00     151.48       2.06       0.31       1.09       ----

> <Gold.Chemscore.Fitness>
16.5372

> <Gold.Chemscore.DG>
-17.9325

> <Gold.Chemscore.ZeroCoef>
-5.4800

> <Gold.Chemscore.Hbond>
0.0000

> <Gold.Chemscore.Metal>
0.0000

> <Gold.Chemscore.Lipo>
151.4787

> <Gold.Chemscore.Internal_Hbond>
0.0000

> <Gold.Chemscore.DEClash>
0.3068

> <Gold.Chemscore.DEInternal>
1.0885

> <Gold.Chemscore.Rot>
2.0588

> <Gold.Chemscore.Internal.Correction>
   9.000000E+99

> <Gold.Chemscore.Hbond.Weighted>
-0.0000

> <Gold.Chemscore.Metal.Weighted>
-0.0000

> <Gold.Chemscore.Lipo.Weighted>
-17.7230

> <Gold.Chemscore.Internal_Hbond.Weighted>
0.0000

> <Gold.Chemscore.DEClash.Weighted>
0.3068

> <Gold.Chemscore.DEInternal.Weighted>
1.0885

> <Gold.Chemscore.Rot.Weighted>
5.2705

> <Gold.Chemscore.Internal.Correction.Weighted>
   9.000000E+99

> <Gold.Protein.RotatedTorsions>
[ 6907 6896 6895 6894 ] final  -84.94 input  -60.11 | X-H torsion
[ 7974 7965 7964 7962 ] final  163.06 input  175.53 | X-H torsion
[ 8008 7997 7996 7995 ] final   14.72 input   59.86 | X-H torsion
[ 10167 10162 10161 10158 ] final  152.95 input  -65.29 | X-H torsion
[ 10718 10713 10712 10709 ] final   35.22 input   66.30 | X-H torsion
[ 10763 10752 10751 10750 ] final   80.30 input  -60.55 | X-H torsion
[ 11005 11000 10999 10996 ] final  -16.75 input  -57.11 | X-H torsion

> <Gold.Protein.ActiveResidues>
 VAL166  LYS551  ARG553  GLY616  TRP617  ASP618  TYR619  PRO620  LYS621  CYS622 
 ASP623  PHE694  ASN695  SER759  ASP760  ASP761  ALA762  ILE779  LEU786  VAL792 
 PHE793  MET794  SER795  GLU796  ALA797  LYS798  CYS799  TRP800  GLU811  SER814 

> <Gold.Protein.RotatedAtoms>
  150.6873  134.3281  159.4814 H   0  0  0  0  0  0  0  0  0  0  0  0  # atno 6907 bound_to 6896
  152.1148  134.9245  160.0574 H   0  0  0  0  0  0  0  0  0  0  0  0  # atno 6908 bound_to 6896
  152.0474  133.3969  159.4399 H   0  0  0  0  0  0  0  0  0  0  0  0  # atno 6909 bound_to 6896
  144.7607  139.8129  143.6333 H   0  0  0  0  0  0  0  0  0  0  0  0  # atno 7974 bound_to 7965
  154.8524  140.2931  155.5590 H   0  0  0  0  0  0  0  0  0  0  0  0  # atno 8008 bound_to 7997
  156.3017  140.2493  156.3417 H   0  0  0  0  0  0  0  0  0  0  0  0  # atno 8009 bound_to 7997
  154.9007  140.0391  157.1880 H   0  0  0  0  0  0  0  0  0  0  0  0  # atno 8010 bound_to 7997
  139.4830  144.5315  151.7715 H   0  0  0  0  0  0  0  0  0  0  0  0  # atno 10167 bound_to 10162
  157.3199  130.7443  149.6778 H   0  0  0  0  0  0  0  0  0  0  0  0  # atno 10718 bound_to 10713
  153.1022  135.4807  154.8888 H   0  0  0  0  0  0  0  0  0  0  0  0  # atno 10763 bound_to 10752
  154.7392  135.3078  154.8761 H   0  0  0  0  0  0  0  0  0  0  0  0  # atno 10764 bound_to 10752
  153.9374  135.6838  153.4798 H   0  0  0  0  0  0  0  0  0  0  0  0  # atno 10765 bound_to 10752
  140.8099  133.8148  155.9553 H   0  0  0  0  0  0  0  0  0  0  0  0  # atno 11005 bound_to 11000
  146.1667  139.4801  142.9954 LP  0  0  0  0  0  0  0  0  0  0  0  0  # atno 17320 bound_to 7965
  145.6629  141.0236  143.1699 LP  0  0  0  0  0  0  0  0  0  0  0  0  # atno 17321 bound_to 7965
  140.4842  144.1406  150.5938 LP  0  0  0  0  0  0  0  0  0  0  0  0  # atno 17342 bound_to 10162
  140.4244  143.2596  151.9675 LP  0  0  0  0  0  0  0  0  0  0  0  0  # atno 17343 bound_to 10162
  155.9685  130.4226  150.4524 LP  0  0  0  0  0  0  0  0  0  0  0  0  # atno 17370 bound_to 10713
  157.2537  131.0552  151.2363 LP  0  0  0  0  0  0  0  0  0  0  0  0  # atno 17371 bound_to 10713
  140.9208  134.2144  157.4927 LP  0  0  0  0  0  0  0  0  0  0  0  0  # atno 17394 bound_to 11000
  139.8715  134.9791  156.5025 LP  0  0  0  0  0  0  0  0  0  0  0  0  # atno 17395 bound_to 11000

$$$$
