AV-unprocessed.smi:799|AV-procd|sdf|3786|dock3
  -GOLD-   22720 1223D 1   1.00000     0.00000
 Structure written by MMmdl.
 47 48  0  0  0  0  0  0  0  0  1 V2000
  144.7038  139.0371  156.9656 C   0  0  0  0  0  0  0  0  0  0  0  0
  145.6460  140.1735  156.6987 C   0  0  0  0  0  0  0  0  0  0  0  0
  146.6315  140.7196  157.5711 C   0  0  0  0  0  0  0  0  0  0  0  0
  147.1834  141.7179  156.8158 C   0  0  0  0  0  0  0  0  0  0  0  0
  148.1708  142.5888  157.1539 N   0  0  0  0  0  0  0  0  0  0  0  0
  148.6309  142.8971  158.3787 C   0  0  0  0  0  0  0  0  0  0  0  0
  148.2249  142.4067  159.4323 O   0  0  0  0  0  0  0  0  0  0  0  0
  149.6136  143.8116  158.3032 N   0  0  0  0  0  0  0  0  0  0  0  0
  150.4289  144.3800  159.3907 C   0  0  2  0  0  0  0  0  0  0  0  0
  149.4341  145.0185  160.3883 C   0  0  0  0  0  0  0  0  0  0  0  0
  151.3501  145.4968  158.8172 C   0  0  0  0  0  0  0  0  0  0  0  0
  151.9071  146.3111  159.8325 O   0  0  0  0  0  0  0  0  0  0  0  0
  151.2821  143.2568  160.0865 C   0  0  0  0  0  0  0  0  0  0  0  0
  152.0430  143.7260  161.3559 C   0  0  0  0  0  0  0  0  0  0  0  0
  152.7561  142.5598  162.0591 C   0  0  0  0  0  0  0  0  0  0  0  0
  153.7202  141.8401  161.1066 C   0  0  0  0  0  0  0  0  0  0  0  0
  152.9873  141.3634  159.8458 C   0  0  0  0  0  0  0  0  0  0  0  0
  152.2724  142.5279  159.1411 C   0  0  0  0  0  0  0  0  0  0  0  0
  146.5491  141.7527  155.5922 N   0  0  0  0  0  0  0  0  0  0  0  0
  146.7612  142.6215  154.4503 C   0  0  0  0  0  0  0  0  0  0  0  0
  145.6031  140.7915  155.5239 N   0  0  0  0  0  0  0  0  0  0  0  0
  144.8085  138.6704  157.9869 H   0  0  0  0  0  0  0  0  0  0  0  0
  144.8956  138.2017  156.2920 H   0  0  0  0  0  0  0  0  0  0  0  0
  143.6672  139.3456  156.8291 H   0  0  0  0  0  0  0  0  0  0  0  0
  146.8736  140.4189  158.5794 H   0  0  0  0  0  0  0  0  0  0  0  0
  148.6391  143.0326  156.3777 H   0  0  0  0  0  0  0  0  0  0  0  0
  149.8546  144.1346  157.3780 H   0  0  0  0  0  0  0  0  0  0  0  0
  149.9457  145.5430  161.1949 H   0  0  0  0  0  0  0  0  0  0  0  0
  148.7736  144.2793  160.8402 H   0  0  0  0  0  0  0  0  0  0  0  0
  148.7926  145.7510  159.8969 H   0  0  0  0  0  0  0  0  0  0  0  0
  152.1836  145.0688  158.2613 H   0  0  0  0  0  0  0  0  0  0  0  0
  150.8107  146.1366  158.1188 H   0  0  0  0  0  0  0  0  0  0  0  0
  151.8362  147.2145  159.5649 H   0  0  0  0  0  0  0  0  0  0  0  0
  150.5810  142.4909  160.4193 H   0  0  0  0  0  0  0  0  0  0  0  0
  152.7815  144.4838  161.0954 H   0  0  0  0  0  0  0  0  0  0  0  0
  151.3658  144.1911  162.0716 H   0  0  0  0  0  0  0  0  0  0  0  0
  153.3009  142.9273  162.9291 H   0  0  0  0  0  0  0  0  0  0  0  0
  152.0161  141.8522  162.4351 H   0  0  0  0  0  0  0  0  0  0  0  0
  154.5308  142.5141  160.8270 H   0  0  0  0  0  0  0  0  0  0  0  0
  154.1814  140.9919  161.6131 H   0  0  0  0  0  0  0  0  0  0  0  0
  153.6953  140.8948  159.1617 H   0  0  0  0  0  0  0  0  0  0  0  0
  152.2613  140.5942  160.1123 H   0  0  0  0  0  0  0  0  0  0  0  0
  151.7584  142.1294  158.2680 H   0  0  0  0  0  0  0  0  0  0  0  0
  153.0236  143.2243  158.7685 H   0  0  0  0  0  0  0  0  0  0  0  0
  147.5000  143.3891  154.6807 H   0  0  0  0  0  0  0  0  0  0  0  0
  145.8238  143.1068  154.1777 H   0  0  0  0  0  0  0  0  0  0  0  0
  147.1171  142.0330  153.6040 H   0  0  0  0  0  0  0  0  0  0  0  0
  1  2  1  0  0  0  0
  1 22  1  0  0  0  0
  1 23  1  0  0  0  0
  1 24  1  0  0  0  0
  2 21  2  0  0  0  0
  2  3  1  0  0  0  0
  3  4  2  0  0  0  0
  3 25  1  0  0  0  0
  4  5  1  0  0  0  0
  4 19  1  0  0  0  0
  5  6  1  0  0  0  0
  5 26  1  0  0  0  0
  6  7  2  0  0  0  0
  6  8  1  0  0  0  0
  8  9  1  0  0  0  0
  8 27  1  0  0  0  0
  9 10  1  0  0  0  0
  9 11  1  0  0  0  0
  9 13  1  0  0  0  0
 10 28  1  0  0  0  0
 10 29  1  0  0  0  0
 10 30  1  0  0  0  0
 11 12  1  0  0  0  0
 11 31  1  0  0  0  0
 11 32  1  0  0  0  0
 12 33  1  0  0  0  0
 13 18  1  0  0  0  0
 13 14  1  0  0  0  0
 13 34  1  0  0  0  0
 14 15  1  0  0  0  0
 14 35  1  0  0  0  0
 14 36  1  0  0  0  0
 15 16  1  0  0  0  0
 15 37  1  0  0  0  0
 15 38  1  0  0  0  0
 16 17  1  0  0  0  0
 16 39  1  0  0  0  0
 16 40  1  0  0  0  0
 17 18  1  0  0  0  0
 17 41  1  0  0  0  0
 17 42  1  0  0  0  0
 18 43  1  0  0  0  0
 18 44  1  0  0  0  0
 19 20  1  0  0  0  0
 19 21  1  0  0  0  0
 20 45  1  0  0  0  0
 20 46  1  0  0  0  0
 20 47  1  0  0  0  0
M  END
> <s_m_source_file>
AV-unprocessed.smi

> <i_m_source_file_index>
799

> <i_lp_mmshare_version>
43012

> <i_f3d_flags>
0

> <s_epik_input>
W0NIM11jMVtjSF1jKG4objEpW0NIM10pW05IXUMoPU8pW05IXVtDQEBdKFtDSDNdKShbQ0gyXVtPSF0pW0NIXTJbQ0gyXVtDSDJdW0NIMl1bQ0gyXVtDSDJdMg==

> <s_epik_cmdline>
J2VwaWtfcHl0aG9uJywgJy1waCcsICc3LjAnLCAnLXRuJywgJzgnLCAnLW1hJywgJzIwMCcsICctbWV0YWxfYmluZGluZycsICctaW1hZScsICc8aW5maWxlLm1hZT4nLCAnLW9tYWUnLCAnPG91dGZpbGUubWFlPic=

> <r_lp_tautomer_probability>
1

> <r_epik_Ionization_Penalty>
9.86025e-05

> <r_epik_Ionization_Penalty_Charging>
0

> <r_epik_Ionization_Penalty_Neutral>
9.86025e-05

> <r_epik_State_Penalty>
-0

> <r_epik_Charging_Adjusted_Penalty>
0

> <i_epik_Tot_Q>
0

> <i_epik_Tot_abs_Q>
0

> <r_epik_Metal_State_Penalty>
-0

> <b_epik_Metal_Only>
0

> <s_lp_Force_Field>
OPLS_2005

> <r_lp_Energy>
22.5502

> <b_lp_Chiralities_Consistent>
1

> <s_lp_Variant>
AV-unprocessed.smi:799-2

> <Gold.Version>
5.8.1

> <Gold.Id.Protein>
6NUR|6NUR_protein|mol2

> <Gold.PLP.Fitness>
42.5877

> <Gold.PLP.PLP>
-37.4236

> <Gold.PLP.part.hbond>
-6.6225

> <Gold.PLP.part.metal>
0.0000

> <Gold.PLP.part.buried>
0.3732

> <Gold.PLP.part.nonpolar>
-30.6875

> <Gold.PLP.part.repulsive>
0.2224

> <Gold.PLP.ligand.clash>
0.0000

> <Gold.PLP.ligand.torsion>
0.2407

> <Gold.PLP.Chemscore.Hbond>
1.8486

> <Gold.PLP.Chemscore.CHOScore>
0.0000

> <Gold.PLP.Chemscore.Metal>
0.0000

> <Gold.Chemscore.Hbonds>
donor molecule, donor type, donor heavy atom, donor atom, acceptor molecule, acceptor atom, score
      L1  H     5    26       P1  8028  0.78
      L1  H     8    27       P1  8028  0.76
      P1  H  6933  6944       L1     7  0.30
      P1  H  6934  6946       L1     7  0.04

> <Gold.PLP.Chemscore.Internal.Correction>
0.0997

> <Gold.Rescore>
     Score         DG    S(hbond)    S(metal)    S(lipo)     H(rot)  DE(clash)    DE(int)     intcor
     13.11     -16.75       1.58        0.00      95.28       2.01       0.60       3.04       ----

> <Gold.Chemscore.Fitness>
13.1062

> <Gold.Chemscore.DG>
-16.7503

> <Gold.Chemscore.ZeroCoef>
-5.4800

> <Gold.Chemscore.Hbond>
1.5808

> <Gold.Chemscore.Metal>
0.0000

> <Gold.Chemscore.Lipo>
95.2761

> <Gold.Chemscore.Internal_Hbond>
0.0000

> <Gold.Chemscore.DEClash>
0.6007

> <Gold.Chemscore.DEInternal>
3.0434

> <Gold.Chemscore.Rot>
2.0144

> <Gold.Chemscore.Internal.Correction>
   9.000000E+99

> <Gold.Chemscore.Hbonds>
donor molecule, donor type, donor heavy atom, donor atom, acceptor molecule, acceptor atom, score
      L1  H     5    26       P1  8028  0.73
      L1  H     8    27       P1  8028  0.35
      P1  H  6933  6944       L1     7  0.29
      P1  H  6934  6946       L1     7  0.04

> <Gold.Chemscore.Hbond.Weighted>
-5.2798

> <Gold.Chemscore.Metal.Weighted>
-0.0000

> <Gold.Chemscore.Lipo.Weighted>
-11.1473

> <Gold.Chemscore.Internal_Hbond.Weighted>
0.0000

> <Gold.Chemscore.DEClash.Weighted>
0.6007

> <Gold.Chemscore.DEInternal.Weighted>
3.0434

> <Gold.Chemscore.Rot.Weighted>
5.1568

> <Gold.Chemscore.Internal.Correction.Weighted>
   9.000000E+99

> <Gold.Protein.RotatedTorsions>
[ 6907 6896 6895 6894 ] final   30.65 input  -60.11 | X-H torsion
[ 7974 7965 7964 7962 ] final   57.88 input  175.53 | X-H torsion
[ 8008 7997 7996 7995 ] final -110.18 input   59.86 | X-H torsion
[ 10167 10162 10161 10158 ] final   64.52 input  -65.29 | X-H torsion
[ 10718 10713 10712 10709 ] final    3.41 input   66.30 | X-H torsion
[ 10763 10752 10751 10750 ] final -108.22 input  -60.55 | X-H torsion
[ 11005 11000 10999 10996 ] final   66.43 input  -57.11 | X-H torsion

> <Gold.Protein.ActiveResidues>
 VAL166  LYS551  ARG553  GLY616  TRP617  ASP618  TYR619  PRO620  LYS621  CYS622 
 ASP623  PHE694  ASN695  SER759  ASP760  ASP761  ALA762  ILE779  LEU786  VAL792 
 PHE793  MET794  SER795  GLU796  ALA797  LYS798  CYS799  TRP800  GLU811  SER814 

> <Gold.Protein.RotatedAtoms>
  152.0490  134.9665  160.0574 H   0  0  0  0  0  0  0  0  0  0  0  0  # atno 6907 bound_to 6896
  152.1073  133.4277  159.4623 H   0  0  0  0  0  0  0  0  0  0  0  0  # atno 6908 bound_to 6896
  150.6842  134.2608  159.4592 H   0  0  0  0  0  0  0  0  0  0  0  0  # atno 6909 bound_to 6896
  145.9242  139.3754  143.0460 H   0  0  0  0  0  0  0  0  0  0  0  0  # atno 7974 bound_to 7965
  154.9706  140.0397  157.2233 H   0  0  0  0  0  0  0  0  0  0  0  0  # atno 8008 bound_to 7997
  154.7804  140.2818  155.6046 H   0  0  0  0  0  0  0  0  0  0  0  0  # atno 8009 bound_to 7997
  156.2935  140.2592  156.2628 H   0  0  0  0  0  0  0  0  0  0  0  0  # atno 8010 bound_to 7997
  140.1212  144.4729  150.6919 H   0  0  0  0  0  0  0  0  0  0  0  0  # atno 10167 bound_to 10162
  156.8774  130.5641  149.5654 H   0  0  0  0  0  0  0  0  0  0  0  0  # atno 10718 bound_to 10713
  154.8122  135.4646  154.0547 H   0  0  0  0  0  0  0  0  0  0  0  0  # atno 10763 bound_to 10752
  153.1969  135.6863  153.8288 H   0  0  0  0  0  0  0  0  0  0  0  0  # atno 10764 bound_to 10752
  153.7786  135.3260  155.3340 H   0  0  0  0  0  0  0  0  0  0  0  0  # atno 10765 bound_to 10752
  139.9832  134.6710  156.0223 H   0  0  0  0  0  0  0  0  0  0  0  0  # atno 11005 bound_to 11000
  145.8510  140.9528  143.0749 LP  0  0  0  0  0  0  0  0  0  0  0  0  # atno 17320 bound_to 7965
  144.6756  140.0407  143.7481 LP  0  0  0  0  0  0  0  0  0  0  0  0  # atno 17321 bound_to 7965
  140.6871  143.2355  151.5232 LP  0  0  0  0  0  0  0  0  0  0  0  0  # atno 17342 bound_to 10162
  139.5568  144.2257  152.1625 LP  0  0  0  0  0  0  0  0  0  0  0  0  # atno 17343 bound_to 10162
  156.0695  130.5731  150.9355 LP  0  0  0  0  0  0  0  0  0  0  0  0  # atno 17370 bound_to 10713
  157.6160  131.0933  150.8709 LP  0  0  0  0  0  0  0  0  0  0  0  0  # atno 17371 bound_to 10713
  141.1501  133.6550  156.3988 LP  0  0  0  0  0  0  0  0  0  0  0  0  # atno 17394 bound_to 11000
  140.5054  134.6446  157.5264 LP  0  0  0  0  0  0  0  0  0  0  0  0  # atno 17395 bound_to 11000

$$$$
