AV-unprocessed.smi:1005|AV-procd|sdf|4371|dock1
  -GOLD-   22720 2283D 1   1.00000     0.00000
 Structure written by MMmdl.
 57 59  0  0  0  0  0  0  0  0  3 V2000
  153.7333  142.2626  160.0348 C   0  0  0  0  0  0  0  0  0  0  0  0
  152.5875  142.1175  159.0482 C   0  0  0  0  0  0  0  0  0  0  0  0
  151.9829  140.8518  158.8828 C   0  0  0  0  0  0  0  0  0  0  0  0
  150.9338  140.6648  157.9567 C   0  0  0  0  0  0  0  0  0  0  0  0
  150.2133  139.5277  157.6391 N   0  0  0  0  0  0  0  0  0  0  0  0
  149.3905  139.9846  156.7007 C   0  0  0  0  0  0  0  0  0  0  0  0
  149.4764  141.2921  156.3865 N   0  0  0  0  0  0  0  0  0  0  0  0
  148.6734  141.9989  155.4007 C   0  0  0  0  0  0  0  0  0  0  0  0
  148.4814  141.2087  154.0893 C   0  0  1  0  0  0  0  0  0  0  0  0
  149.7608  140.8499  153.6088 O   0  0  0  0  0  0  0  0  0  0  0  0
  147.6232  139.9302  154.2480 C   0  0  0  0  0  0  0  0  0  0  0  0
  148.1131  138.7926  153.4230 N   0  3  1  0  0  0  0  0  0  0  0  0
  149.0600  137.9099  154.1470 C   0  0  0  0  0  0  0  0  0  0  0  0
  148.3165  136.9738  155.1175 C   0  0  0  0  0  0  0  0  0  0  0  0
  147.3485  136.2168  154.3998 O   0  0  0  0  0  0  0  0  0  0  0  0
  146.3546  137.0332  153.7881 C   0  0  2  0  0  0  0  0  0  0  0  0
  145.3420  136.1091  153.0874 C   0  0  0  0  0  0  0  0  0  0  0  0
  145.9617  135.2880  152.0163 N   0  3  0  0  0  0  0  0  0  0  0  0
  146.3878  133.9467  152.4761 C   0  0  0  0  0  0  0  0  0  0  0  0
  145.1015  135.1985  150.8158 C   0  0  0  0  0  0  0  0  0  0  0  0
  147.0466  137.9781  152.7802 C   0  0  0  0  0  0  0  0  0  0  0  0
  150.4999  141.7874  157.1917 C   0  0  0  0  0  0  0  0  0  0  0  0
  151.0910  143.0541  157.3531 C   0  0  0  0  0  0  0  0  0  0  0  0
  152.1342  143.2245  158.2872 C   0  0  0  0  0  0  0  0  0  0  0  0
  152.7598  144.5976  158.4556 C   0  0  0  0  0  0  0  0  0  0  0  0
  153.8431  141.3691  160.6502 H   0  0  0  0  0  0  0  0  0  0  0  0
  153.5744  143.1082  160.7034 H   0  0  0  0  0  0  0  0  0  0  0  0
  154.6707  142.4193  159.5003 H   0  0  0  0  0  0  0  0  0  0  0  0
  152.3288  140.0070  159.4608 H   0  0  0  0  0  0  0  0  0  0  0  0
  148.6763  139.3317  156.2202 H   0  0  0  0  0  0  0  0  0  0  0  0
  147.7066  142.2302  155.8499 H   0  0  0  0  0  0  0  0  0  0  0  0
  149.1559  142.9551  155.1909 H   0  0  0  0  0  0  0  0  0  0  0  0
  148.0450  141.8826  153.3568 H   0  0  0  0  0  0  0  0  0  0  0  0
  149.6671  140.1812  152.9480 H   0  0  0  0  0  0  0  0  0  0  0  0
  147.6146  139.6496  155.3025 H   0  0  0  0  0  0  0  0  0  0  0  0
  146.5822  140.1181  153.9933 H   0  0  0  0  0  0  0  0  0  0  0  0
  149.6007  137.3106  153.4133 H   0  0  0  0  0  0  0  0  0  0  0  0
  149.8118  138.4990  154.6736 H   0  0  0  0  0  0  0  0  0  0  0  0
  149.0210  136.2867  155.5862 H   0  0  0  0  0  0  0  0  0  0  0  0
  147.8383  137.5327  155.9234 H   0  0  0  0  0  0  0  0  0  0  0  0
  145.8427  137.6207  154.5495 H   0  0  0  0  0  0  0  0  0  0  0  0
  144.8561  135.4522  153.8112 H   0  0  0  0  0  0  0  0  0  0  0  0
  144.5526  136.7298  152.6601 H   0  0  0  0  0  0  0  0  0  0  0  0
  145.5265  133.3609  152.7958 H   0  0  0  0  0  0  0  0  0  0  0  0
  147.0900  134.0049  153.3066 H   0  0  0  0  0  0  0  0  0  0  0  0
  146.8835  133.4050  151.6701 H   0  0  0  0  0  0  0  0  0  0  0  0
  144.1572  134.7037  151.0475 H   0  0  0  0  0  0  0  0  0  0  0  0
  145.5979  134.6349  150.0251 H   0  0  0  0  0  0  0  0  0  0  0  0
  144.8807  136.1912  150.4221 H   0  0  0  0  0  0  0  0  0  0  0  0
  146.3084  138.6033  152.2815 H   0  0  0  0  0  0  0  0  0  0  0  0
  147.5123  137.3844  151.9923 H   0  0  0  0  0  0  0  0  0  0  0  0
  150.7546  143.8892  156.7578 H   0  0  0  0  0  0  0  0  0  0  0  0
  152.3618  145.3083  157.7307 H   0  0  0  0  0  0  0  0  0  0  0  0
  153.8400  144.5487  158.3155 H   0  0  0  0  0  0  0  0  0  0  0  0
  152.5564  144.9867  159.4535 H   0  0  0  0  0  0  0  0  0  0  0  0
  146.7954  135.7781  151.7236 H   0  0  0  0  0  0  0  0  0  0  0  0
  148.6464  139.2171  152.6772 H   0  0  0  0  0  0  0  0  0  0  0  0
  1  2  1  0  0  0  0
  1 26  1  0  0  0  0
  1 27  1  0  0  0  0
  1 28  1  0  0  0  0
  2 24  1  0  0  0  0
  2  3  2  0  0  0  0
  3  4  1  0  0  0  0
  3 29  1  0  0  0  0
  4 22  2  0  0  0  0
  4  5  1  0  0  0  0
  5  6  2  0  0  0  0
  6  7  1  0  0  0  0
  6 30  1  0  0  0  0
  7  8  1  0  0  0  0
  7 22  1  0  0  0  0
  8  9  1  0  0  0  0
  8 31  1  0  0  0  0
  8 32  1  0  0  0  0
  9 10  1  0  0  0  0
  9 11  1  0  0  0  0
  9 33  1  0  0  0  0
 10 34  1  0  0  0  0
 11 12  1  0  0  0  0
 11 35  1  0  0  0  0
 11 36  1  0  0  0  0
 12 21  1  0  0  0  0
 12 13  1  0  0  0  0
 12 57  1  0  0  0  0
 13 14  1  0  0  0  0
 13 37  1  0  0  0  0
 13 38  1  0  0  0  0
 14 15  1  0  0  0  0
 14 39  1  0  0  0  0
 14 40  1  0  0  0  0
 15 16  1  0  0  0  0
 16 17  1  0  0  0  0
 16 21  1  0  0  0  0
 16 41  1  0  0  0  0
 17 18  1  0  0  0  0
 17 42  1  0  0  0  0
 17 43  1  0  0  0  0
 18 19  1  0  0  0  0
 18 20  1  0  0  0  0
 18 56  1  0  0  0  0
 19 44  1  0  0  0  0
 19 45  1  0  0  0  0
 19 46  1  0  0  0  0
 20 47  1  0  0  0  0
 20 48  1  0  0  0  0
 20 49  1  0  0  0  0
 21 50  1  0  0  0  0
 21 51  1  0  0  0  0
 22 23  1  0  0  0  0
 23 24  2  0  0  0  0
 23 52  1  0  0  0  0
 24 25  1  0  0  0  0
 25 53  1  0  0  0  0
 25 54  1  0  0  0  0
 25 55  1  0  0  0  0
M  CHG  1  12   1
M  CHG  1  18   1
M  END
> <s_m_source_file>
AV-unprocessed.smi

> <i_m_source_file_index>
1005

> <i_lp_mmshare_version>
43012

> <i_f3d_flags>
0

> <s_epik_input>
W0NIM11jKFtjSF0xKWMoW0NIM10pW2NIXWMoYzEyKW4oW2NIXW4yKVtDSDJdW0NASF0oW09IXSlbQ0gyXU4zW0NIMl1bQ0gyXU9bQ0BIXShbQ0gyXTMpW0NIMl1OKFtDSDNdKVtDSDNd

> <s_epik_cmdline>
J2VwaWtfcHl0aG9uJywgJy1waCcsICc3LjAnLCAnLXRuJywgJzgnLCAnLW1hJywgJzIwMCcsICctbWV0YWxfYmluZGluZycsICctaW1hZScsICc8aW5maWxlLm1hZT4nLCAnLW9tYWUnLCAnPG91dGZpbGUubWFlPic=

> <r_epik_Ionization_Penalty>
1.0968

> <r_epik_Ionization_Penalty_Charging>
1.0096

> <r_epik_Ionization_Penalty_Neutral>
0.0871956

> <r_epik_State_Penalty>
1.31185

> <r_epik_Charging_Adjusted_Penalty>
2.32145

> <i_epik_Tot_Q>
2

> <i_epik_Tot_abs_Q>
2

> <r_epik_Metal_State_Penalty>
1.22442

> <b_epik_Metal_Only>
0

> <s_lp_Force_Field>
OPLS_2005

> <r_lp_Energy>
34.2577

> <b_lp_Chiralities_Consistent>
1

> <s_lp_Variant>
AV-unprocessed.smi:1005-10

> <Gold.Version>
5.8.1

> <Gold.Id.Protein>
6NUR|6NUR_protein|mol2

> <Gold.PLP.Fitness>
48.5895

> <Gold.PLP.PLP>
-37.9451

> <Gold.PLP.part.hbond>
-5.7983

> <Gold.PLP.part.metal>
0.0000

> <Gold.PLP.part.buried>
5.0858

> <Gold.PLP.part.nonpolar>
-38.3602

> <Gold.PLP.part.repulsive>
1.4187

> <Gold.PLP.ligand.clash>
0.0000

> <Gold.PLP.ligand.torsion>
1.7855

> <Gold.PLP.Chemscore.Hbond>
4.5744

> <Gold.PLP.Chemscore.CHOScore>
0.0000

> <Gold.PLP.Chemscore.Metal>
0.0000

> <Gold.Chemscore.Hbonds>
donor molecule, donor type, donor heavy atom, donor atom, acceptor molecule, acceptor atom, score
      L1  H    10    34       P1  7957  0.78
      L1  H    12    57       P1  7957  1.00
      L1  H    18    56       P1  7948  1.27
      P1  H  7989  7998       L1    10  0.24
      P1  H  8011  8017       L1    10  0.52

> <Gold.PLP.Chemscore.Internal.Correction>
0.4922

> <Gold.Rescore>
     Score         DG    S(hbond)    S(metal)    S(lipo)     H(rot)  DE(clash)    DE(int)     intcor
     17.34     -24.19       2.98        0.00     129.03       2.48       5.01       1.84       ----

> <Gold.Chemscore.Fitness>
17.3405

> <Gold.Chemscore.DG>
-24.1919

> <Gold.Chemscore.ZeroCoef>
-5.4800

> <Gold.Chemscore.Hbond>
2.9843

> <Gold.Chemscore.Metal>
0.0000

> <Gold.Chemscore.Lipo>
129.0327

> <Gold.Chemscore.Internal_Hbond>
0.0000

> <Gold.Chemscore.DEClash>
5.0094

> <Gold.Chemscore.DEInternal>
1.8420

> <Gold.Chemscore.Rot>
2.4814

> <Gold.Chemscore.Internal.Correction>
   9.000000E+99

> <Gold.Chemscore.Hbonds>
donor molecule, donor type, donor heavy atom, donor atom, acceptor molecule, acceptor atom, score
      L1  H    10    34       P1  7957  0.78
      L1  H    12    57       P1  7957  0.98
      L1  H    18    56       P1  7948  0.61
      P1  H  7989  7998       L1    10  0.02
      P1  H  8011  8017       L1    10  0.01

> <Gold.Chemscore.Hbond.Weighted>
-9.9674

> <Gold.Chemscore.Metal.Weighted>
-0.0000

> <Gold.Chemscore.Lipo.Weighted>
-15.0968

> <Gold.Chemscore.Internal_Hbond.Weighted>
0.0000

> <Gold.Chemscore.DEClash.Weighted>
5.0094

> <Gold.Chemscore.DEInternal.Weighted>
1.8420

> <Gold.Chemscore.Rot.Weighted>
6.3524

> <Gold.Chemscore.Internal.Correction.Weighted>
   9.000000E+99

> <Gold.Protein.RotatedTorsions>
[ 6907 6896 6895 6894 ] final -115.74 input  -60.11 | X-H torsion
[ 7974 7965 7964 7962 ] final  150.33 input  175.53 | X-H torsion
[ 8008 7997 7996 7995 ] final  -34.00 input   59.86 | X-H torsion
[ 10167 10162 10161 10158 ] final   57.25 input  -65.29 | X-H torsion
[ 10718 10713 10712 10709 ] final   54.90 input   66.30 | X-H torsion
[ 10763 10752 10751 10750 ] final    0.09 input  -60.55 | X-H torsion
[ 11005 11000 10999 10996 ] final -178.29 input  -57.11 | X-H torsion

> <Gold.Protein.ActiveResidues>
 VAL166  LYS551  ARG553  GLY616  TRP617  ASP618  TYR619  PRO620  LYS621  CYS622 
 ASP623  PHE694  ASN695  SER759  ASP760  ASP761  ALA762  ILE779  LEU786  VAL792 
 PHE793  MET794  SER795  GLU796  ALA797  LYS798  CYS799  TRP800  GLU811  SER814 

> <Gold.Protein.RotatedAtoms>
  150.8001  133.8615  159.3232 H   0  0  0  0  0  0  0  0  0  0  0  0  # atno 6907 bound_to 6896
  151.6429  135.1009  160.0154 H   0  0  0  0  0  0  0  0  0  0  0  0  # atno 6908 bound_to 6896
  152.4088  133.6891  159.6414 H   0  0  0  0  0  0  0  0  0  0  0  0  # atno 6909 bound_to 6896
  144.8372  139.6395  143.6033 H   0  0  0  0  0  0  0  0  0  0  0  0  # atno 7974 bound_to 7965
  154.4133  140.1696  156.1978 H   0  0  0  0  0  0  0  0  0  0  0  0  # atno 8008 bound_to 7997
  155.9549  140.3398  155.6416 H   0  0  0  0  0  0  0  0  0  0  0  0  # atno 8009 bound_to 7997
  155.6822  140.0724  157.2471 H   0  0  0  0  0  0  0  0  0  0  0  0  # atno 8010 bound_to 7997
  140.2000  144.3997  150.6533 H   0  0  0  0  0  0  0  0  0  0  0  0  # atno 10167 bound_to 10162
  157.5298  130.8622  149.8671 H   0  0  0  0  0  0  0  0  0  0  0  0  # atno 10718 bound_to 10713
  153.3251  135.6971  153.6997 H   0  0  0  0  0  0  0  0  0  0  0  0  # atno 10763 bound_to 10752
  153.5821  135.3496  155.2879 H   0  0  0  0  0  0  0  0  0  0  0  0  # atno 10764 bound_to 10752
  154.8606  135.4297  154.2425 H   0  0  0  0  0  0  0  0  0  0  0  0  # atno 10765 bound_to 10752
  140.4314  134.6515  157.4714 H   0  0  0  0  0  0  0  0  0  0  0  0  # atno 11005 bound_to 11000
  146.2669  139.6541  142.9323 LP  0  0  0  0  0  0  0  0  0  0  0  0  # atno 17320 bound_to 7965
  145.4770  141.0437  143.2667 LP  0  0  0  0  0  0  0  0  0  0  0  0  # atno 17321 bound_to 7965
  140.6397  143.2201  151.6318 LP  0  0  0  0  0  0  0  0  0  0  0  0  # atno 17342 bound_to 10162
  139.5221  144.3173  152.0941 LP  0  0  0  0  0  0  0  0  0  0  0  0  # atno 17343 bound_to 10162
  156.0414  130.3738  150.1427 LP  0  0  0  0  0  0  0  0  0  0  0  0  # atno 17370 bound_to 10713
  156.9612  130.9805  151.3479 LP  0  0  0  0  0  0  0  0  0  0  0  0  # atno 17371 bound_to 10713
  140.0132  134.6659  155.9350 LP  0  0  0  0  0  0  0  0  0  0  0  0  # atno 17394 bound_to 11000
  141.1744  133.6539  156.4772 LP  0  0  0  0  0  0  0  0  0  0  0  0  # atno 17395 bound_to 11000

$$$$
