AV-unprocessed.smi:155|AV-procd|sdf|1283|dock5
  -GOLD-   2262018553D 1   1.00000     0.00000
 Structure written by MMmdl.
 64 67  0  0  0  0  0  0  0  0  3 V2000
  145.6325  132.0491  150.2385 C   0  0  0  0  0  0  0  0  0  0  0  0
  145.3520  133.4905  150.4364 N   0  3  0  0  0  0  0  0  0  0  0  0
  143.9839  133.7062  150.9594 C   0  0  0  0  0  0  0  0  0  0  0  0
  146.3818  134.1844  151.2529 C   0  0  0  0  0  0  0  0  0  0  0  0
  146.0791  134.1248  152.7659 C   0  0  0  0  0  0  0  0  0  0  0  0
  147.2803  134.3609  153.6120 N   0  3  2  0  0  0  0  0  0  0  0  0
  148.2427  133.2198  153.5951 C   0  0  0  0  0  0  0  0  0  0  0  0
  149.3054  133.2607  154.7122 C   0  0  0  0  0  0  0  0  0  0  0  0
  150.1129  134.5677  154.7686 C   0  0  0  0  0  0  0  0  0  0  0  0
  149.2801  135.7667  154.8756 N   0  0  0  0  0  0  0  0  0  0  0  0
  149.9995  136.9144  154.9402 C   0  0  0  0  0  0  0  0  0  0  0  0
  151.3252  136.9005  154.6390 N   0  0  0  0  0  0  0  0  0  0  0  0
  152.0370  138.0313  154.6815 C   0  0  0  0  0  0  0  0  0  0  0  0
  151.6296  139.2628  154.9959 N   0  0  0  0  0  0  0  0  0  0  0  0
  150.3012  139.2804  155.3029 C   0  0  0  0  0  0  0  0  0  0  0  0
  149.4200  138.1628  155.3001 C   0  0  0  0  0  0  0  0  0  0  0  0
  148.1437  138.5636  155.6789 N   0  0  0  0  0  0  0  0  0  0  0  0
  148.2615  139.8480  155.8822 C   0  0  0  0  0  0  0  0  0  0  0  0
  149.5243  140.3589  155.6843 N   0  0  0  0  0  0  0  0  0  0  0  0
  149.9393  141.7411  155.8444 C   0  0  0  0  0  0  0  0  0  0  0  0
  150.0576  142.1497  157.3283 C   0  0  2  0  0  0  0  0  0  0  0  0
  148.9959  143.0094  157.6943 O   0  0  0  0  0  0  0  0  0  0  0  0
  151.3955  142.8239  157.6971 C   0  0  1  0  0  0  0  0  0  0  0  0
  151.4618  144.3129  157.3522 C   0  0  0  0  0  0  0  0  0  0  0  0
  152.5295  144.8000  158.3047 C   0  0  0  0  0  0  0  0  0  0  0  0
  152.2199  143.9872  159.5577 C   0  0  0  0  0  0  0  0  0  0  0  0
  151.6503  142.7635  159.1002 O   0  0  0  0  0  0  0  0  0  0  0  0
  148.0224  135.7172  155.6305 C   0  0  0  0  0  0  0  0  0  0  0  0
  146.9293  134.8287  154.9830 C   0  0  0  0  0  0  0  0  0  0  0  0
  145.6497  131.5192  151.1919 H   0  0  0  0  0  0  0  0  0  0  0  0
  146.5886  131.8895  149.7419 H   0  0  0  0  0  0  0  0  0  0  0  0
  144.8646  131.5923  149.6130 H   0  0  0  0  0  0  0  0  0  0  0  0
  143.8768  133.2870  151.9608 H   0  0  0  0  0  0  0  0  0  0  0  0
  143.2436  133.2360  150.3112 H   0  0  0  0  0  0  0  0  0  0  0  0
  143.7477  134.7700  151.0055 H   0  0  0  0  0  0  0  0  0  0  0  0
  147.3423  133.7025  151.0695 H   0  0  0  0  0  0  0  0  0  0  0  0
  146.4845  135.2177  150.9174 H   0  0  0  0  0  0  0  0  0  0  0  0
  145.3398  134.8882  153.0055 H   0  0  0  0  0  0  0  0  0  0  0  0
  145.6303  133.1651  153.0272 H   0  0  0  0  0  0  0  0  0  0  0  0
  147.6922  132.2817  153.6792 H   0  0  0  0  0  0  0  0  0  0  0  0
  148.7498  133.2018  152.6303 H   0  0  0  0  0  0  0  0  0  0  0  0
  148.8469  133.0664  155.6821 H   0  0  0  0  0  0  0  0  0  0  0  0
  149.9988  132.4326  154.5626 H   0  0  0  0  0  0  0  0  0  0  0  0
  150.8009  134.5340  155.6148 H   0  0  0  0  0  0  0  0  0  0  0  0
  150.7284  134.6318  153.8716 H   0  0  0  0  0  0  0  0  0  0  0  0
  153.0823  137.9361  154.4263 H   0  0  0  0  0  0  0  0  0  0  0  0
  147.4273  140.4619  156.1909 H   0  0  0  0  0  0  0  0  0  0  0  0
  150.8931  141.8694  155.3324 H   0  0  0  0  0  0  0  0  0  0  0  0
  149.2204  142.3776  155.3269 H   0  0  0  0  0  0  0  0  0  0  0  0
  149.9463  141.2600  157.9494 H   0  0  0  0  0  0  0  0  0  0  0  0
  149.0825  143.8144  157.2075 H   0  0  0  0  0  0  0  0  0  0  0  0
  152.2215  142.3267  157.1848 H   0  0  0  0  0  0  0  0  0  0  0  0
  151.7083  144.4949  156.3057 H   0  0  0  0  0  0  0  0  0  0  0  0
  150.5164  144.8106  157.5702 H   0  0  0  0  0  0  0  0  0  0  0  0
  153.5182  144.5417  157.9230 H   0  0  0  0  0  0  0  0  0  0  0  0
  152.4975  145.8765  158.4751 H   0  0  0  0  0  0  0  0  0  0  0  0
  153.1057  143.8110  160.1680 H   0  0  0  0  0  0  0  0  0  0  0  0
  151.4810  144.5021  160.1730 H   0  0  0  0  0  0  0  0  0  0  0  0
  148.2247  135.3805  156.6482 H   0  0  0  0  0  0  0  0  0  0  0  0
  147.6176  136.7266  155.7203 H   0  0  0  0  0  0  0  0  0  0  0  0
  146.0111  135.4165  154.9570 H   0  0  0  0  0  0  0  0  0  0  0  0
  146.6996  133.9702  155.6160 H   0  0  0  0  0  0  0  0  0  0  0  0
  145.3670  133.9208  149.5224 H   0  0  0  0  0  0  0  0  0  0  0  0
  147.7646  135.1430  153.1940 H   0  0  0  0  0  0  0  0  0  0  0  0
  1  2  1  0  0  0  0
  1 30  1  0  0  0  0
  1 31  1  0  0  0  0
  1 32  1  0  0  0  0
  2  3  1  0  0  0  0
  2  4  1  0  0  0  0
  2 63  1  0  0  0  0
  3 33  1  0  0  0  0
  3 34  1  0  0  0  0
  3 35  1  0  0  0  0
  4  5  1  0  0  0  0
  4 36  1  0  0  0  0
  4 37  1  0  0  0  0
  5  6  1  0  0  0  0
  5 38  1  0  0  0  0
  5 39  1  0  0  0  0
  6 29  1  0  0  0  0
  6  7  1  0  0  0  0
  6 64  1  0  0  0  0
  7  8  1  0  0  0  0
  7 40  1  0  0  0  0
  7 41  1  0  0  0  0
  8  9  1  0  0  0  0
  8 42  1  0  0  0  0
  8 43  1  0  0  0  0
  9 10  1  0  0  0  0
  9 44  1  0  0  0  0
  9 45  1  0  0  0  0
 10 11  1  0  0  0  0
 10 28  1  0  0  0  0
 11 16  1  0  0  0  0
 11 12  2  0  0  0  0
 12 13  1  0  0  0  0
 13 14  2  0  0  0  0
 13 46  1  0  0  0  0
 14 15  1  0  0  0  0
 15 19  1  0  0  0  0
 15 16  2  0  0  0  0
 16 17  1  0  0  0  0
 17 18  2  0  0  0  0
 18 19  1  0  0  0  0
 18 47  1  0  0  0  0
 19 20  1  0  0  0  0
 20 21  1  0  0  0  0
 20 48  1  0  0  0  0
 20 49  1  0  0  0  0
 21 22  1  0  0  0  0
 21 23  1  0  0  0  0
 21 50  1  0  0  0  0
 22 51  1  0  0  0  0
 23 27  1  0  0  0  0
 23 24  1  0  0  0  0
 23 52  1  0  0  0  0
 24 25  1  0  0  0  0
 24 53  1  0  0  0  0
 24 54  1  0  0  0  0
 25 26  1  0  0  0  0
 25 55  1  0  0  0  0
 25 56  1  0  0  0  0
 26 27  1  0  0  0  0
 26 57  1  0  0  0  0
 26 58  1  0  0  0  0
 28 29  1  0  0  0  0
 28 59  1  0  0  0  0
 28 60  1  0  0  0  0
 29 61  1  0  0  0  0
 29 62  1  0  0  0  0
M  CHG  1   2   1
M  CHG  1   6   1
M  END
> <s_m_source_file>
AV-unprocessed.smi

> <i_m_source_file_index>
155

> <i_lp_mmshare_version>
43012

> <i_f3d_flags>
0

> <s_epik_input>
W0NIM11OKFtDSDNdKVtDSDJdW0NIMl1OMVtDSDJdW0NIMl1bQ0gyXU4oW0NIMl1bQ0gyXTEpYyhuW2NIXW4yKWMoYzIzKW5bY0hdbjNbQ0gyXVtDQEhdKFtPSF0pW0NAQEhdNFtDSDJdW0NIMl1bQ0gyXU80

> <s_epik_cmdline>
J2VwaWtfcHl0aG9uJywgJy1waCcsICc3LjAnLCAnLXRuJywgJzgnLCAnLW1hJywgJzIwMCcsICctbWV0YWxfYmluZGluZycsICctaW1hZScsICc8aW5maWxlLm1hZT4nLCAnLW9tYWUnLCAnPG91dGZpbGUubWFlPic=

> <r_lp_tautomer_probability>
1

> <r_epik_Ionization_Penalty>
3.0333

> <r_epik_Ionization_Penalty_Charging>
3.03317

> <r_epik_Ionization_Penalty_Neutral>
0.000131872

> <r_epik_State_Penalty>
1.99939

> <r_epik_Charging_Adjusted_Penalty>
5.03256

> <i_epik_Tot_Q>
2

> <i_epik_Tot_abs_Q>
2

> <r_epik_Metal_State_Penalty>
2.00021

> <b_epik_Metal_Only>
0

> <s_lp_Force_Field>
OPLS_2005

> <r_lp_Energy>
67.9245

> <b_lp_Chiralities_Consistent>
1

> <s_lp_Variant>
AV-unprocessed.smi:155-17

> <Gold.Version>
5.8.1

> <Gold.Id.Protein>
6NUR|6NUR_protein|mol2

> <Gold.PLP.Fitness>
64.5506

> <Gold.PLP.PLP>
-50.1187

> <Gold.PLP.part.hbond>
-5.0000

> <Gold.PLP.part.metal>
0.0000

> <Gold.PLP.part.buried>
-3.8050

> <Gold.PLP.part.nonpolar>
-40.5912

> <Gold.PLP.part.repulsive>
0.7379

> <Gold.PLP.ligand.clash>
0.0000

> <Gold.PLP.ligand.torsion>
1.8529

> <Gold.PLP.Chemscore.Hbond>
5.8535

> <Gold.PLP.Chemscore.CHOScore>
0.0000

> <Gold.PLP.Chemscore.Metal>
0.0000

> <Gold.Chemscore.Hbonds>
donor molecule, donor type, donor heavy atom, donor atom, acceptor molecule, acceptor atom, score
      L1  H     2    63       P1  7921  0.52
      L1  H     6    64       P1  7948  1.79
      L1  H    22    51       P1  8028  1.00
      P1  H  7989  7998       L1    14  0.57
      P1  H 10752 10763       L1    12  0.75

> <Gold.PLP.Chemscore.Internal.Correction>
0.5772

> <Gold.Rescore>
     Score         DG    S(hbond)    S(metal)    S(lipo)     H(rot)  DE(clash)    DE(int)     intcor
     17.39     -21.27       2.79        0.00     115.56       2.75       0.94       2.93       ----

> <Gold.Chemscore.Fitness>
17.3939

> <Gold.Chemscore.DG>
-21.2718

> <Gold.Chemscore.ZeroCoef>
-5.4800

> <Gold.Chemscore.Hbond>
2.7872

> <Gold.Chemscore.Metal>
0.0000

> <Gold.Chemscore.Lipo>
115.5622

> <Gold.Chemscore.Internal_Hbond>
0.0000

> <Gold.Chemscore.DEClash>
0.9437

> <Gold.Chemscore.DEInternal>
2.9342

> <Gold.Chemscore.Rot>
2.7493

> <Gold.Chemscore.Internal.Correction>
   9.000000E+99

> <Gold.Chemscore.Hbonds>
donor molecule, donor type, donor heavy atom, donor atom, acceptor molecule, acceptor atom, score
      L1  H     2    63       P1  7921  0.41
      L1  H     6    64       P1  7948  0.86
      L1  H    22    51       P1  8028  0.24
      P1  H  7989  7998       L1    14  0.13
      P1  H 10752 10763       L1    12  0.11

> <Gold.Chemscore.Hbond.Weighted>
-9.3093

> <Gold.Chemscore.Metal.Weighted>
-0.0000

> <Gold.Chemscore.Lipo.Weighted>
-13.5208

> <Gold.Chemscore.Internal_Hbond.Weighted>
0.0000

> <Gold.Chemscore.DEClash.Weighted>
0.9437

> <Gold.Chemscore.DEInternal.Weighted>
2.9342

> <Gold.Chemscore.Rot.Weighted>
7.0383

> <Gold.Chemscore.Internal.Correction.Weighted>
   9.000000E+99

> <Gold.Protein.RotatedTorsions>
[ 6907 6896 6895 6894 ] final -152.65 input  -60.11 | X-H torsion
[ 7974 7965 7964 7962 ] final  167.55 input  175.53 | X-H torsion
[ 8008 7997 7996 7995 ] final   22.79 input   59.86 | X-H torsion
[ 10167 10162 10161 10158 ] final  116.85 input  -65.29 | X-H torsion
[ 10718 10713 10712 10709 ] final -108.79 input   66.30 | X-H torsion
[ 10763 10752 10751 10750 ] final   50.09 input  -60.55 | X-H torsion
[ 11005 11000 10999 10996 ] final  138.24 input  -57.11 | X-H torsion

> <Gold.Protein.ActiveResidues>
 VAL166  LYS551  ARG553  GLY616  TRP617  ASP618  TYR619  PRO620  LYS621  CYS622 
 ASP623  PHE694  ASN695  SER759  ASP760  ASP761  ALA762  ILE779  LEU786  VAL792 
 PHE793  MET794  SER795  GLU796  ALA797  LYS798  CYS799  TRP800  GLU811  SER814 

> <Gold.Protein.RotatedAtoms>
  151.2309  133.4451  159.2603 H   0  0  0  0  0  0  0  0  0  0  0  0  # atno 6907 bound_to 6896
  151.0796  134.9850  159.8359 H   0  0  0  0  0  0  0  0  0  0  0  0  # atno 6908 bound_to 6896
  152.5422  134.2249  159.8855 H   0  0  0  0  0  0  0  0  0  0  0  0  # atno 6909 bound_to 6896
  144.7420  139.8777  143.6394 H   0  0  0  0  0  0  0  0  0  0  0  0  # atno 7974 bound_to 7965
  154.9711  140.3090  155.4987 H   0  0  0  0  0  0  0  0  0  0  0  0  # atno 8008 bound_to 7997
  156.2965  140.2284  156.4742 H   0  0  0  0  0  0  0  0  0  0  0  0  # atno 8009 bound_to 7997
  154.7876  140.0442  157.1164 H   0  0  0  0  0  0  0  0  0  0  0  0  # atno 8010 bound_to 7997
  139.6219  144.7102  151.2617 H   0  0  0  0  0  0  0  0  0  0  0  0  # atno 10167 bound_to 10162
  156.0503  130.5731  150.8010 H   0  0  0  0  0  0  0  0  0  0  0  0  # atno 10718 bound_to 10713
  152.9785  135.5890  154.4196 H   0  0  0  0  0  0  0  0  0  0  0  0  # atno 10763 bound_to 10752
  154.3822  135.2767  155.2206 H   0  0  0  0  0  0  0  0  0  0  0  0  # atno 10764 bound_to 10752
  154.4115  135.6080  153.6010 H   0  0  0  0  0  0  0  0  0  0  0  0  # atno 10765 bound_to 10752
  140.0169  134.9414  157.0395 H   0  0  0  0  0  0  0  0  0  0  0  0  # atno 11005 bound_to 11000
  146.1234  139.4256  143.0214 LP  0  0  0  0  0  0  0  0  0  0  0  0  # atno 17320 bound_to 7965
  145.7271  141.0055  143.1371 LP  0  0  0  0  0  0  0  0  0  0  0  0  # atno 17321 bound_to 7965
  140.7387  143.6640  150.8139 LP  0  0  0  0  0  0  0  0  0  0  0  0  # atno 17342 bound_to 10162
  140.0252  143.5500  152.2783 LP  0  0  0  0  0  0  0  0  0  0  0  0  # atno 17343 bound_to 10162
  157.5423  131.0941  150.9811 LP  0  0  0  0  0  0  0  0  0  0  0  0  # atno 17370 bound_to 10713
  157.0090  130.5629  149.5319 LP  0  0  0  0  0  0  0  0  0  0  0  0  # atno 17371 bound_to 10713
  140.4454  134.1637  155.7177 LP  0  0  0  0  0  0  0  0  0  0  0  0  # atno 17394 bound_to 11000
  141.1749  133.8535  157.1454 LP  0  0  0  0  0  0  0  0  0  0  0  0  # atno 17395 bound_to 11000

$$$$
