#       Name:                AV-unprocessed.smi:485
#       Creating user name   scv26
#       Creation time:       Thu Mar 26 23:12:45 2020


#       File generated by GOLD software.
#

@<TRIPOS>MOLECULE
AV-unprocessed.smi:485
    41    43     1
SMALL
NO_CHARGES


@<TRIPOS>ATOM
      1 ****        -0.1946   3.8125   0.4649 O.3            1 S1                 0.0000
      2 ****        -0.2902   3.4250  -0.8879 C.3            1 S1                 0.0000
      3 ****        -0.7743   2.0205  -1.0419 C.2            1 S1                 0.0000
      4 ****        -2.0797   1.6322  -1.0824 N.pl3          1 S1                 1.0000
      5 ****        -2.1574   0.2455  -1.2103 C.ar           1 S1                 0.0000
      6 ****        -3.2601  -0.5999  -1.2858 C.ar           1 S1                 0.0000
      7 ****        -2.9931  -1.9793  -1.4055 C.ar           1 S1                 0.0000
      8 ****        -1.6723  -2.4698  -1.4464 C.ar           1 S1                 0.0000
      9 ****        -0.5629  -1.6026  -1.3720 C.ar           1 S1                 0.0000
     10 ****        -0.8336  -0.2387  -1.2532 C.ar           1 S1                 0.0000
     11 ****        -0.0130   0.8923  -1.1447 N.pl3          1 S1                 0.0000
     12 ****         1.4513   0.7336  -1.1354 C.3            1 S1                 0.0000
     13 ****         2.0407   0.7842   0.2884 C.3            1 S1                 0.0000
     14 ****         3.4487   0.8182   0.1814 O.3            1 S1                 0.0000
     15 ****         1.5533  -0.3661   1.1584 C.ar           1 S1                 0.0000
     16 ****         0.5102  -0.1519   2.0852 C.ar           1 S1                 0.0000
     17 ****         0.0306  -1.2159   2.8731 C.ar           1 S1                 0.0000
     18 ****         0.5919  -2.5004   2.7396 C.ar           1 S1                 0.0000
     19 ****         1.6333  -2.7202   1.8177 C.ar           1 S1                 0.0000
     20 ****         2.1128  -1.6566   1.0290 C.ar           1 S1                 0.0000
     21 ****         0.1214   4.7027   0.5013 H              1 S1                 0.0000
     22 ****        -0.9737   4.1004  -1.4029 H              1 S1                 0.0000
     23 ****         0.6846   3.5367  -1.3618 H              1 S1                 0.0000
     24 ****        -4.2731  -0.2265  -1.2518 H              1 S1                 0.0000
     25 ****        -3.8176  -2.6751  -1.4654 H              1 S1                 0.0000
     26 ****        -1.5055  -3.5336  -1.5353 H              1 S1                 0.0000
     27 ****         0.4424  -1.9954  -1.3989 H              1 S1                 0.0000
     28 ****         1.7278  -0.1873  -1.6481 H              1 S1                 0.0000
     29 ****         1.8626   1.5439  -1.7380 H              1 S1                 0.0000
     30 ****         1.7486   1.7226   0.7608 H              1 S1                 0.0000
     31 ****         3.8112   0.9526   1.0440 H              1 S1                 0.0000
     32 ****         0.0681   0.8285   2.1878 H              1 S1                 0.0000
     33 ****        -0.7691  -1.0466   3.5789 H              1 S1                 0.0000
     34 ****         0.2239  -3.3167   3.3437 H              1 S1                 0.0000
     35 ****         2.0635  -3.7054   1.7134 H              1 S1                 0.0000
     36 ****         2.9052  -1.8372   0.3173 H              1 S1                 0.0000
     37 ****        -2.8601   2.2732  -1.0178 H              1 S1                 0.0000
     38 ****         0.4424   3.2088   0.9443 LP             1 S1                 0.0000
     39 ****        -1.0952   3.7566   0.8960 LP             1 S1                 0.0000
     40 ****         3.7234   1.5679  -0.4207 LP             1 S1                 0.0000
     41 ****         3.7797  -0.0481  -0.1926 LP             1 S1                 0.0000
@<TRIPOS>BOND
    1    1    2 1     
    2    1   21 1     
    3    2    3 1     
    4    2   22 1     
    5    2   23 1     
    6    3   11 1     
    7    3    4 2     
    8    4    5 1     
    9    4   37 1     
   10    5   10 ar    
   11    5    6 ar    
   12    6    7 ar    
   13    6   24 1     
   14    7    8 ar    
   15    7   25 1     
   16    8    9 ar    
   17    8   26 1     
   18    9   10 ar    
   19    9   27 1     
   20   10   11 1     
   21   11   12 1     
   22   12   13 1     
   23   12   28 1     
   24   12   29 1     
   25   13   14 1     
   26   13   15 1     
   27   13   30 1     
   28   14   31 1     
   29   15   20 ar    
   30   15   16 ar    
   31   16   17 ar    
   32   16   32 1     
   33   17   18 ar    
   34   17   33 1     
   35   18   19 ar    
   36   18   34 1     
   37   19   20 ar    
   38   19   35 1     
   39   20   36 1     
   40    1   38 1     
   41    1   39 1     
   42   14   40 1     
   43   14   41 1     
@<TRIPOS>SUBSTRUCTURE
      1 S1             1
@<TRIPOS>SET
LONE_PAIRS      STATIC     ATOMS    <user>   **** ""
4 38 39 40 41
DONOR_HYDROGENS      STATIC     ATOMS    <user>   **** ""
3 21 37 31
ATOM$BLUE        STATIC     ATOMS    COLORGROUP SYSTEM
4 38 39 40 41
ATOM$RED        STATIC     ATOMS    COLORGROUP SYSTEM
3 21 37 31
