AV-unprocessed.smi:476|AV-procd|sdf|2669|dock5
  -GOLD-   2262023 83D 1   1.00000     0.00000
 Structure written by MMmdl.
 39 40  0  0  0  0  0  0  0  0  1 V2000
  152.1792  144.0110  160.5986 C   0  0  0  0  0  0  0  0  0  0  0  0
  152.7794  142.7293  160.0481 C   0  0  0  0  0  0  0  0  0  0  0  0
  153.7528  142.0160  160.6242 C   0  0  0  0  0  0  0  0  0  0  0  0
  154.1582  140.5749  159.7241 S   0  0  0  0  0  0  0  0  0  0  0  0
  152.9114  140.9837  158.4919 C   0  0  0  0  0  0  0  0  0  0  0  0
  152.6898  140.2798  157.5080 O   0  0  0  0  0  0  0  0  0  0  0  0
  152.2935  142.1810  158.8529 N   0  0  0  0  0  0  0  0  0  0  0  0
  151.2395  142.8013  158.0396 C   0  0  0  0  0  0  0  0  0  0  0  0
  150.0608  141.8567  157.7755 C   0  0  0  0  0  0  0  0  0  0  0  0
  150.0984  140.6814  158.1423 O   0  0  0  0  0  0  0  0  0  0  0  0
  149.0101  142.3944  157.1383 N   0  0  0  0  0  0  0  0  0  0  0  0
  147.8100  141.6687  156.7328 C   0  0  0  0  0  0  0  0  0  0  0  0
  146.5117  142.3525  157.2094 C   0  0  0  0  0  0  0  0  0  0  0  0
  145.7564  143.0759  156.1035 C   0  0  0  0  0  0  0  0  0  0  0  0
  146.1509  143.0203  154.8162 C   0  0  0  0  0  0  0  0  0  0  0  0
  145.4564  143.7489  153.6797 C   0  0  0  0  0  0  0  0  0  0  0  0
  144.4883  144.8309  154.1856 C   0  0  0  0  0  0  0  0  0  0  0  0
  143.6499  144.3163  155.3625 C   0  0  0  0  0  0  0  0  0  0  0  0
  144.5411  143.8853  156.5412 C   0  0  0  0  0  0  0  0  0  0  0  0
  152.4457  144.1345  161.6487 H   0  0  0  0  0  0  0  0  0  0  0  0
  151.0909  144.0015  160.5368 H   0  0  0  0  0  0  0  0  0  0  0  0
  152.5571  144.8734  160.0494 H   0  0  0  0  0  0  0  0  0  0  0  0
  154.2571  142.2512  161.5499 H   0  0  0  0  0  0  0  0  0  0  0  0
  150.8682  143.7202  158.4918 H   0  0  0  0  0  0  0  0  0  0  0  0
  151.6689  143.1062  157.0832 H   0  0  0  0  0  0  0  0  0  0  0  0
  149.0603  143.3698  156.8812 H   0  0  0  0  0  0  0  0  0  0  0  0
  147.7959  141.5424  155.6493 H   0  0  0  0  0  0  0  0  0  0  0  0
  147.8728  140.6659  157.1558 H   0  0  0  0  0  0  0  0  0  0  0  0
  145.8565  141.6030  157.6552 H   0  0  0  0  0  0  0  0  0  0  0  0
  146.7376  143.0625  158.0054 H   0  0  0  0  0  0  0  0  0  0  0  0
  147.0127  142.4289  154.5427 H   0  0  0  0  0  0  0  0  0  0  0  0
  146.2065  144.1986  153.0289 H   0  0  0  0  0  0  0  0  0  0  0  0
  144.9200  143.0104  153.0833 H   0  0  0  0  0  0  0  0  0  0  0  0
  145.0559  145.7056  154.5060 H   0  0  0  0  0  0  0  0  0  0  0  0
  143.8418  145.1623  153.3726 H   0  0  0  0  0  0  0  0  0  0  0  0
  142.9449  145.0810  155.6898 H   0  0  0  0  0  0  0  0  0  0  0  0
  143.0514  143.4670  155.0301 H   0  0  0  0  0  0  0  0  0  0  0  0
  143.9513  143.3041  157.2506 H   0  0  0  0  0  0  0  0  0  0  0  0
  144.8965  144.7677  157.0744 H   0  0  0  0  0  0  0  0  0  0  0  0
  1  2  1  0  0  0  0
  1 20  1  0  0  0  0
  1 21  1  0  0  0  0
  1 22  1  0  0  0  0
  2  7  1  0  0  0  0
  2  3  2  0  0  0  0
  3  4  1  0  0  0  0
  3 23  1  0  0  0  0
  4  5  1  0  0  0  0
  5  6  2  0  0  0  0
  5  7  1  0  0  0  0
  7  8  1  0  0  0  0
  8  9  1  0  0  0  0
  8 24  1  0  0  0  0
  8 25  1  0  0  0  0
  9 10  2  0  0  0  0
  9 11  1  0  0  0  0
 11 12  1  0  0  0  0
 11 26  1  0  0  0  0
 12 13  1  0  0  0  0
 12 27  1  0  0  0  0
 12 28  1  0  0  0  0
 13 14  1  0  0  0  0
 13 29  1  0  0  0  0
 13 30  1  0  0  0  0
 14 19  1  0  0  0  0
 14 15  2  0  0  0  0
 15 16  1  0  0  0  0
 15 31  1  0  0  0  0
 16 17  1  0  0  0  0
 16 32  1  0  0  0  0
 16 33  1  0  0  0  0
 17 18  1  0  0  0  0
 17 34  1  0  0  0  0
 17 35  1  0  0  0  0
 18 19  1  0  0  0  0
 18 36  1  0  0  0  0
 18 37  1  0  0  0  0
 19 38  1  0  0  0  0
 19 39  1  0  0  0  0
M  END
> <s_m_source_file>
AV-unprocessed.smi

> <i_m_source_file_index>
476

> <i_lp_mmshare_version>
43012

> <i_f3d_flags>
0

> <s_epik_input>
W0NIM11jMVtjSF1zYyg9TyluMVtDSDJdQyg9TylbTkhdW0NIMl1bQ0gyXUMyPVtDSF1bQ0gyXVtDSDJdW0NIMl1bQ0gyXTI=

> <s_epik_cmdline>
J2VwaWtfcHl0aG9uJywgJy1waCcsICc3LjAnLCAnLXRuJywgJzgnLCAnLW1hJywgJzIwMCcsICctbWV0YWxfYmluZGluZycsICctaW1hZScsICc8aW5maWxlLm1hZT4nLCAnLW9tYWUnLCAnPG91dGZpbGUubWFlPic=

> <r_lp_tautomer_probability>
1

> <r_epik_Ionization_Penalty>
1.31088e-06

> <r_epik_Ionization_Penalty_Charging>
1.18065e-06

> <r_epik_Ionization_Penalty_Neutral>
1.30231e-07

> <r_epik_State_Penalty>
-0

> <r_epik_Charging_Adjusted_Penalty>
1.18065e-06

> <i_epik_Tot_Q>
0

> <i_epik_Tot_abs_Q>
0

> <r_epik_Metal_State_Penalty>
-0

> <b_epik_Metal_Only>
0

> <s_lp_Force_Field>
OPLS_2005

> <r_lp_Energy>
10.5339

> <b_lp_Chiralities_Consistent>
1

> <s_lp_Variant>
AV-unprocessed.smi:476-1

> <Gold.Version>
5.8.1

> <Gold.Id.Protein>
6NUR|6NUR_protein|mol2

> <Gold.PLP.Fitness>
44.5563

> <Gold.PLP.PLP>
-39.4141

> <Gold.PLP.part.hbond>
-2.0000

> <Gold.PLP.part.metal>
0.0000

> <Gold.PLP.part.buried>
-5.9267

> <Gold.PLP.part.nonpolar>
-31.9224

> <Gold.PLP.part.repulsive>
0.0218

> <Gold.PLP.ligand.clash>
0.0000

> <Gold.PLP.ligand.torsion>
0.4323

> <Gold.PLP.Chemscore.Hbond>
1.9913

> <Gold.PLP.Chemscore.CHOScore>
0.0000

> <Gold.PLP.Chemscore.Metal>
0.0000

> <Gold.Chemscore.Hbonds>
donor molecule, donor type, donor heavy atom, donor atom, acceptor molecule, acceptor atom, score
      L1  H    11    26       P1  8028  1.00
      P1  H  7997  8010       L1     6  0.94

> <Gold.PLP.Chemscore.Internal.Correction>
0.0330

> <Gold.Rescore>
     Score         DG    S(hbond)    S(metal)    S(lipo)     H(rot)  DE(clash)    DE(int)     intcor
     14.11     -17.18       1.71        0.00      88.78       1.72       0.08       2.98       ----

> <Gold.Chemscore.Fitness>
14.1147

> <Gold.Chemscore.DG>
-17.1764

> <Gold.Chemscore.ZeroCoef>
-5.4800

> <Gold.Chemscore.Hbond>
1.7114

> <Gold.Chemscore.Metal>
0.0000

> <Gold.Chemscore.Lipo>
88.7819

> <Gold.Chemscore.Internal_Hbond>
0.0000

> <Gold.Chemscore.DEClash>
0.0834

> <Gold.Chemscore.DEInternal>
2.9783

> <Gold.Chemscore.Rot>
1.7215

> <Gold.Chemscore.Internal.Correction>
   9.000000E+99

> <Gold.Chemscore.Hbonds>
donor molecule, donor type, donor heavy atom, donor atom, acceptor molecule, acceptor atom, score
      L1  H    11    26       P1  8028  0.82
      P1  H  7997  8010       L1     6  0.24

> <Gold.Chemscore.Hbond.Weighted>
-5.7160

> <Gold.Chemscore.Metal.Weighted>
-0.0000

> <Gold.Chemscore.Lipo.Weighted>
-10.3875

> <Gold.Chemscore.Internal_Hbond.Weighted>
0.0000

> <Gold.Chemscore.DEClash.Weighted>
0.0834

> <Gold.Chemscore.DEInternal.Weighted>
2.9783

> <Gold.Chemscore.Rot.Weighted>
4.4070

> <Gold.Chemscore.Internal.Correction.Weighted>
   9.000000E+99

> <Gold.Protein.RotatedTorsions>
[ 6907 6896 6895 6894 ] final  113.28 input  -60.11 | X-H torsion
[ 7974 7965 7964 7962 ] final -106.59 input  175.53 | X-H torsion
[ 8008 7997 7996 7995 ] final   48.14 input   59.86 | X-H torsion
[ 10167 10162 10161 10158 ] final  147.83 input  -65.29 | X-H torsion
[ 10718 10713 10712 10709 ] final  123.10 input   66.30 | X-H torsion
[ 10763 10752 10751 10750 ] final  -73.94 input  -60.55 | X-H torsion
[ 11005 11000 10999 10996 ] final  -45.80 input  -57.11 | X-H torsion

> <Gold.Protein.ActiveResidues>
 VAL166  LYS551  ARG553  GLY616  TRP617  ASP618  TYR619  PRO620  LYS621  CYS622 
 ASP623  PHE694  ASN695  SER759  ASP760  ASP761  ALA762  ILE779  LEU786  VAL792 
 PHE793  MET794  SER795  GLU796  ALA797  LYS798  CYS799  TRP800  GLU811  SER814 

> <Gold.Protein.RotatedAtoms>
  152.4870  133.8398  159.7146 H   0  0  0  0  0  0  0  0  0  0  0  0  # atno 6907 bound_to 6896
  150.8964  133.7166  159.2897 H   0  0  0  0  0  0  0  0  0  0  0  0  # atno 6908 bound_to 6896
  151.4621  135.1043  159.9780 H   0  0  0  0  0  0  0  0  0  0  0  0  # atno 6909 bound_to 6896
  145.2160  140.9115  143.3287 H   0  0  0  0  0  0  0  0  0  0  0  0  # atno 7974 bound_to 7965
  155.3807  140.3428  155.4246 H   0  0  0  0  0  0  0  0  0  0  0  0  # atno 8008 bound_to 7997
  156.1612  140.1601  156.8643 H   0  0  0  0  0  0  0  0  0  0  0  0  # atno 8009 bound_to 7997
  154.5141  140.0783  156.8029 H   0  0  0  0  0  0  0  0  0  0  0  0  # atno 8010 bound_to 7997
  139.4884  144.5725  151.7027 H   0  0  0  0  0  0  0  0  0  0  0  0  # atno 10167 bound_to 10162
  157.5691  131.1084  150.8400 H   0  0  0  0  0  0  0  0  0  0  0  0  # atno 10718 bound_to 10713
  154.4663  135.5881  153.6290 H   0  0  0  0  0  0  0  0  0  0  0  0  # atno 10763 bound_to 10752
  152.9829  135.6056  154.3423 H   0  0  0  0  0  0  0  0  0  0  0  0  # atno 10764 bound_to 10752
  154.3300  135.2842  155.2455 H   0  0  0  0  0  0  0  0  0  0  0  0  # atno 10765 bound_to 10752
  141.0538  133.6733  156.3064 H   0  0  0  0  0  0  0  0  0  0  0  0  # atno 11005 bound_to 11000
  144.9811  139.3783  143.6262 LP  0  0  0  0  0  0  0  0  0  0  0  0  # atno 17320 bound_to 7965
  146.3387  139.8952  142.8803 LP  0  0  0  0  0  0  0  0  0  0  0  0  # atno 17321 bound_to 7965
  140.5315  144.0722  150.6055 LP  0  0  0  0  0  0  0  0  0  0  0  0  # atno 17342 bound_to 10162
  140.3714  143.2852  152.0274 LP  0  0  0  0  0  0  0  0  0  0  0  0  # atno 17343 bound_to 10162
  156.8876  130.5201  149.5288 LP  0  0  0  0  0  0  0  0  0  0  0  0  # atno 17370 bound_to 10713
  156.0737  130.5764  150.9433 LP  0  0  0  0  0  0  0  0  0  0  0  0  # atno 17371 bound_to 10713
  140.6003  134.5561  157.5516 LP  0  0  0  0  0  0  0  0  0  0  0  0  # atno 17394 bound_to 11000
  139.9373  134.7852  156.0770 LP  0  0  0  0  0  0  0  0  0  0  0  0  # atno 17395 bound_to 11000

$$$$
