AV-unprocessed.smi:1703|AV-procd|sdf|6856|dock8
  -GOLD-   22720 8 43D 1   1.00000     0.00000
 Structure written by MMmdl.
 48 50  0  0  0  0  0  0  0  0  1 V2000
  145.2075  141.8264  158.3283 C   0  0  0  0  0  0  0  0  0  0  0  0
  145.6673  141.4852  156.9073 C   0  0  2  0  0  0  0  0  0  0  0  0
  147.2028  141.4762  156.7768 C   0  0  0  0  0  0  0  0  0  0  0  0
  147.6318  141.2259  155.4023 N   0  0  0  0  0  0  0  0  0  0  0  0
  149.0882  141.2279  155.2504 C   0  0  0  0  0  0  0  0  0  0  0  0
  149.7887  139.8861  155.5434 C   0  0  1  0  0  0  0  0  0  0  0  0
  151.1573  140.0141  155.2117 O   0  0  0  0  0  0  0  0  0  0  0  0
  149.6609  139.4946  157.0283 C   0  0  0  0  0  0  0  0  0  0  0  0
  150.7688  139.9850  157.8388 N   0  0  0  0  0  0  0  0  0  0  0  0
  151.7282  139.2630  158.4719 C   0  0  0  0  0  0  0  0  0  0  0  0
  151.7608  137.7624  158.4003 C   0  0  0  0  0  0  0  0  0  0  0  0
  151.6837  137.1301  159.6617 O   0  0  0  0  0  0  0  0  0  0  0  0
  152.6367  139.9751  159.1432 N   0  0  0  0  0  0  0  0  0  0  0  0
  152.2245  141.2759  158.9318 C   0  0  0  0  0  0  0  0  0  0  0  0
  152.7722  142.4976  159.3846 C   0  0  0  0  0  0  0  0  0  0  0  0
  152.1704  143.7234  159.0325 C   0  0  0  0  0  0  0  0  0  0  0  0
  151.0158  143.7452  158.2235 C   0  0  0  0  0  0  0  0  0  0  0  0
  150.4542  142.5390  157.7622 C   0  0  0  0  0  0  0  0  0  0  0  0
  151.0576  141.3177  158.1180 C   0  0  0  0  0  0  0  0  0  0  0  0
  147.0166  142.2201  154.5300 C   0  0  0  0  0  0  0  0  0  0  0  0
  145.4810  142.2273  154.6544 C   0  0  2  0  0  0  0  0  0  0  0  0
  144.8328  143.3209  153.7992 C   0  0  0  0  0  0  0  0  0  0  0  0
  145.1281  142.4566  156.0156 O   0  0  0  0  0  0  0  0  0  0  0  0
  145.5785  141.0951  159.0467 H   0  0  0  0  0  0  0  0  0  0  0  0
  144.1192  141.8342  158.3942 H   0  0  0  0  0  0  0  0  0  0  0  0
  145.5667  142.8094  158.6344 H   0  0  0  0  0  0  0  0  0  0  0  0
  145.2734  140.5033  156.6390 H   0  0  0  0  0  0  0  0  0  0  0  0
  147.6034  142.4317  157.1199 H   0  0  0  0  0  0  0  0  0  0  0  0
  147.5996  140.7133  157.4448 H   0  0  0  0  0  0  0  0  0  0  0  0
  149.3428  141.5229  154.2310 H   0  0  0  0  0  0  0  0  0  0  0  0
  149.5111  142.0012  155.8938 H   0  0  0  0  0  0  0  0  0  0  0  0
  149.3620  139.0890  154.9372 H   0  0  0  0  0  0  0  0  0  0  0  0
  151.5177  139.1475  155.0991 H   0  0  0  0  0  0  0  0  0  0  0  0
  148.7297  139.8844  157.4412 H   0  0  0  0  0  0  0  0  0  0  0  0
  149.5990  138.4116  157.1307 H   0  0  0  0  0  0  0  0  0  0  0  0
  150.9252  137.4066  157.7981 H   0  0  0  0  0  0  0  0  0  0  0  0
  152.6804  137.4482  157.9070 H   0  0  0  0  0  0  0  0  0  0  0  0
  151.2358  137.7108  160.2578 H   0  0  0  0  0  0  0  0  0  0  0  0
  153.6574  142.4913  160.0034 H   0  0  0  0  0  0  0  0  0  0  0  0
  152.5975  144.6514  159.3834 H   0  0  0  0  0  0  0  0  0  0  0  0
  150.5621  144.6881  157.9562 H   0  0  0  0  0  0  0  0  0  0  0  0
  149.5727  142.5529  157.1385 H   0  0  0  0  0  0  0  0  0  0  0  0
  147.4058  143.2114  154.7690 H   0  0  0  0  0  0  0  0  0  0  0  0
  147.2915  142.0201  153.4937 H   0  0  0  0  0  0  0  0  0  0  0  0
  145.0849  141.2589  154.3441 H   0  0  0  0  0  0  0  0  0  0  0  0
  145.0692  143.1860  152.7436 H   0  0  0  0  0  0  0  0  0  0  0  0
  145.1783  144.3113  154.0964 H   0  0  0  0  0  0  0  0  0  0  0  0
  143.7476  143.3019  153.9015 H   0  0  0  0  0  0  0  0  0  0  0  0
  1  2  1  0  0  0  0
  1 24  1  0  0  0  0
  1 25  1  0  0  0  0
  1 26  1  0  0  0  0
  2 23  1  0  0  0  0
  2  3  1  0  0  0  0
  2 27  1  0  0  0  0
  3  4  1  0  0  0  0
  3 28  1  0  0  0  0
  3 29  1  0  0  0  0
  4  5  1  0  0  0  0
  4 20  1  0  0  0  0
  5  6  1  0  0  0  0
  5 30  1  0  0  0  0
  5 31  1  0  0  0  0
  6  7  1  0  0  0  0
  6  8  1  0  0  0  0
  6 32  1  0  0  0  0
  7 33  1  0  0  0  0
  8  9  1  0  0  0  0
  8 34  1  0  0  0  0
  8 35  1  0  0  0  0
  9 19  1  0  0  0  0
  9 10  1  0  0  0  0
 10 11  1  0  0  0  0
 10 13  2  0  0  0  0
 11 12  1  0  0  0  0
 11 36  1  0  0  0  0
 11 37  1  0  0  0  0
 12 38  1  0  0  0  0
 13 14  1  0  0  0  0
 14 19  2  0  0  0  0
 14 15  1  0  0  0  0
 15 16  2  0  0  0  0
 15 39  1  0  0  0  0
 16 17  1  0  0  0  0
 16 40  1  0  0  0  0
 17 18  2  0  0  0  0
 17 41  1  0  0  0  0
 18 19  1  0  0  0  0
 18 42  1  0  0  0  0
 20 21  1  0  0  0  0
 20 43  1  0  0  0  0
 20 44  1  0  0  0  0
 21 22  1  0  0  0  0
 21 23  1  0  0  0  0
 21 45  1  0  0  0  0
 22 46  1  0  0  0  0
 22 47  1  0  0  0  0
 22 48  1  0  0  0  0
M  END
> <s_m_source_file>
AV-unprocessed.smi

> <i_m_source_file_index>
1703

> <i_lp_mmshare_version>
43012

> <i_f3d_flags>
0

> <s_epik_input>
W0NIM11bQ0BASF0xW0NIMl1OKFtDSDJdW0NASF0oTzEpW0NIM10pW0NIMl1bQ0BIXShbT0hdKVtDSDJdbihjKG4yKVtDSDJdW09IXSljKGMyMylbY0hdW2NIXVtjSF1bY0hdMw==

> <s_epik_cmdline>
J2VwaWtfcHl0aG9uJywgJy1waCcsICc3LjAnLCAnLXRuJywgJzgnLCAnLW1hJywgJzIwMCcsICctbWV0YWxfYmluZGluZycsICctaW1hZScsICc8aW5maWxlLm1hZT4nLCAnLW9tYWUnLCAnPG91dGZpbGUubWFlPic=

> <r_epik_Ionization_Penalty>
0.307685

> <r_epik_Ionization_Penalty_Charging>
0

> <r_epik_Ionization_Penalty_Neutral>
0.307685

> <r_epik_State_Penalty>
0.277856

> <r_epik_Charging_Adjusted_Penalty>
0.277856

> <i_epik_Tot_Q>
0

> <i_epik_Tot_abs_Q>
0

> <r_epik_Metal_State_Penalty>
0.238959

> <b_epik_Metal_Only>
0

> <s_lp_Force_Field>
OPLS_2005

> <r_lp_Energy>
30.3815

> <b_lp_Chiralities_Consistent>
1

> <s_lp_Variant>
AV-unprocessed.smi:1703-4

> <Gold.Version>
5.8.1

> <Gold.Id.Protein>
6NUR|6NUR_protein|mol2

> <Gold.PLP.Fitness>
44.8145

> <Gold.PLP.PLP>
-40.2988

> <Gold.PLP.part.hbond>
-1.9970

> <Gold.PLP.part.metal>
0.0000

> <Gold.PLP.part.buried>
-5.2866

> <Gold.PLP.part.nonpolar>
-35.0215

> <Gold.PLP.part.repulsive>
0.2839

> <Gold.PLP.ligand.clash>
0.0000

> <Gold.PLP.ligand.torsion>
0.7751

> <Gold.PLP.Chemscore.Hbond>
2.0000

> <Gold.PLP.Chemscore.CHOScore>
0.0000

> <Gold.PLP.Chemscore.Metal>
0.0000

> <Gold.Chemscore.Hbonds>
donor molecule, donor type, donor heavy atom, donor atom, acceptor molecule, acceptor atom, score
      P1  H  6896  6907       L1    12  1.00
      P1  H  7989  7998       L1     7  1.00

> <Gold.PLP.Chemscore.Internal.Correction>
0.0659

> <Gold.Rescore>
     Score         DG    S(hbond)    S(metal)    S(lipo)     H(rot)  DE(clash)    DE(int)     intcor
     15.46     -16.41       1.87        0.00     102.89       2.88       0.03       0.93       ----

> <Gold.Chemscore.Fitness>
15.4577

> <Gold.Chemscore.DG>
-16.4103

> <Gold.Chemscore.ZeroCoef>
-5.4800

> <Gold.Chemscore.Hbond>
1.8740

> <Gold.Chemscore.Metal>
0.0000

> <Gold.Chemscore.Lipo>
102.8925

> <Gold.Chemscore.Internal_Hbond>
0.0000

> <Gold.Chemscore.DEClash>
0.0263

> <Gold.Chemscore.DEInternal>
0.9264

> <Gold.Chemscore.Rot>
2.8778

> <Gold.Chemscore.Internal.Correction>
   9.000000E+99

> <Gold.Chemscore.Hbonds>
donor molecule, donor type, donor heavy atom, donor atom, acceptor molecule, acceptor atom, score
      P1  H  6896  6907       L1    12  0.88
      P1  H  7989  7998       L1     7  0.33

> <Gold.Chemscore.Hbond.Weighted>
-6.2590

> <Gold.Chemscore.Metal.Weighted>
-0.0000

> <Gold.Chemscore.Lipo.Weighted>
-12.0384

> <Gold.Chemscore.Internal_Hbond.Weighted>
0.0000

> <Gold.Chemscore.DEClash.Weighted>
0.0263

> <Gold.Chemscore.DEInternal.Weighted>
0.9264

> <Gold.Chemscore.Rot.Weighted>
7.3671

> <Gold.Chemscore.Internal.Correction.Weighted>
   9.000000E+99

> <Gold.Protein.RotatedTorsions>
[ 6907 6896 6895 6894 ] final  -12.87 input  -60.11 | X-H torsion
[ 7974 7965 7964 7962 ] final  -78.82 input  175.53 | X-H torsion
[ 8008 7997 7996 7995 ] final  148.76 input   59.86 | X-H torsion
[ 10167 10162 10161 10158 ] final   74.57 input  -65.29 | X-H torsion
[ 10718 10713 10712 10709 ] final -133.55 input   66.30 | X-H torsion
[ 10763 10752 10751 10750 ] final    0.51 input  -60.55 | X-H torsion
[ 11005 11000 10999 10996 ] final  -27.01 input  -57.11 | X-H torsion

> <Gold.Protein.ActiveResidues>
 VAL166  LYS551  ARG553  GLY616  TRP617  ASP618  TYR619  PRO620  LYS621  CYS622 
 ASP623  PHE694  ASN695  SER759  ASP760  ASP761  ALA762  ILE779  LEU786  VAL792 
 PHE793  MET794  SER795  GLU796  ALA797  LYS798  CYS799  TRP800  GLU811  SER814 

> <Gold.Protein.RotatedAtoms>
  151.3637  135.0909  159.9442 H   0  0  0  0  0  0  0  0  0  0  0  0  # atno 6907 bound_to 6896
  152.5155  133.9233  159.7555 H   0  0  0  0  0  0  0  0  0  0  0  0  # atno 6908 bound_to 6896
  150.9632  133.6368  159.2780 H   0  0  0  0  0  0  0  0  0  0  0  0  # atno 6909 bound_to 6896
  145.5813  140.9448  143.1342 H   0  0  0  0  0  0  0  0  0  0  0  0  # atno 7974 bound_to 7965
  156.2780  140.2120  156.5749 H   0  0  0  0  0  0  0  0  0  0  0  0  # atno 8008 bound_to 7997
  154.7105  140.0512  157.0569 H   0  0  0  0  0  0  0  0  0  0  0  0  # atno 8009 bound_to 7997
  155.0612  140.3166  155.4663 H   0  0  0  0  0  0  0  0  0  0  0  0  # atno 8010 bound_to 7997
  140.0123  144.5605  150.7649 H   0  0  0  0  0  0  0  0  0  0  0  0  # atno 10167 bound_to 10162
  156.2461  130.7125  151.1006 H   0  0  0  0  0  0  0  0  0  0  0  0  # atno 10718 bound_to 10713
  153.3198  135.6968  153.7041 H   0  0  0  0  0  0  0  0  0  0  0  0  # atno 10763 bound_to 10752
  153.5886  135.3484  155.2903 H   0  0  0  0  0  0  0  0  0  0  0  0  # atno 10764 bound_to 10752
  154.8595  135.4312  154.2358 H   0  0  0  0  0  0  0  0  0  0  0  0  # atno 10765 bound_to 10752
  140.9081  133.7479  156.0633 H   0  0  0  0  0  0  0  0  0  0  0  0  # atno 11005 bound_to 11000
  144.7392  139.7496  143.7317 LP  0  0  0  0  0  0  0  0  0  0  0  0  # atno 17320 bound_to 7965
  146.1714  139.4866  142.9925 LP  0  0  0  0  0  0  0  0  0  0  0  0  # atno 17321 bound_to 7965
  140.7376  143.2768  151.3718 LP  0  0  0  0  0  0  0  0  0  0  0  0  # atno 17342 bound_to 10162
  139.6197  144.0932  152.2379 LP  0  0  0  0  0  0  0  0  0  0  0  0  # atno 17343 bound_to 10162
  157.7195  131.0690  150.6192 LP  0  0  0  0  0  0  0  0  0  0  0  0  # atno 17370 bound_to 10713
  156.6268  130.4421  149.5801 LP  0  0  0  0  0  0  0  0  0  0  0  0  # atno 17371 bound_to 10713
  140.8145  134.3360  157.5401 LP  0  0  0  0  0  0  0  0  0  0  0  0  # atno 17394 bound_to 11000
  139.8753  134.9273  156.3423 LP  0  0  0  0  0  0  0  0  0  0  0  0  # atno 17395 bound_to 11000

$$$$
