AV-unprocessed.smi:862|AV-procd|sdf|3983|dock9
  -GOLD-   22720 1463D 1   1.00000     0.00000
 Structure written by MMmdl.
 45 47  0  0  0  0  0  0  0  0  3 V2000
  143.2955  133.9787  156.1864 N   0  0  0  0  0  0  0  0  0  0  0  0
  144.2087  134.7709  156.7564 C   0  0  0  0  0  0  0  0  0  0  0  0
  143.8770  135.6495  157.5503 O   0  0  0  0  0  0  0  0  0  0  0  0
  145.4972  134.5003  156.4274 N   0  0  0  0  0  0  0  0  0  0  0  0
  145.9672  133.9354  155.1514 C   0  0  0  0  0  0  0  0  0  0  0  0
  146.6374  135.0513  154.3284 C   0  0  0  0  0  0  0  0  0  0  0  0
  147.7943  135.7088  155.1159 C   0  0  0  0  0  0  0  0  0  0  0  0
  148.3446  136.8797  154.3957 N   0  3  0  0  0  0  0  0  0  0  0  0
  149.4567  137.5955  155.0649 C   0  0  1  0  0  0  0  0  0  0  0  0
  150.7489  136.7781  155.1498 C   0  0  0  0  0  0  0  0  0  0  0  0
  151.8602  137.8157  155.3403 C   0  0  0  0  0  0  0  0  0  0  0  0
  151.3332  139.1307  154.7451 C   0  0  0  0  0  0  0  0  0  0  0  0
  149.8947  138.8422  154.2803 C   0  0  2  0  0  0  0  0  0  0  0  0
  148.9860  139.9923  154.4208 N   0  0  0  0  0  0  0  0  0  0  0  0
  147.6694  140.0491  154.0384 C   0  0  0  0  0  0  0  0  0  0  0  0
  147.2208  141.3056  154.3548 C   0  0  0  0  0  0  0  0  0  0  0  0
  148.2800  141.9650  154.9172 N   0  3  0  0  0  0  0  0  0  0  0  0
  149.3514  141.1666  154.9572 C   0  0  0  0  0  0  0  0  0  0  0  0
  147.3180  136.1350  156.5201 C   0  0  0  0  0  0  0  0  0  0  0  0
  146.6207  134.9710  157.2470 C   0  0  0  0  0  0  0  0  0  0  0  0
  142.3170  134.1170  156.3933 H   0  0  0  0  0  0  0  0  0  0  0  0
  143.5846  133.2414  155.5605 H   0  0  0  0  0  0  0  0  0  0  0  0
  146.6859  133.1404  155.3562 H   0  0  0  0  0  0  0  0  0  0  0  0
  145.1806  133.4669  154.5603 H   0  0  0  0  0  0  0  0  0  0  0  0
  146.9952  134.6356  153.3877 H   0  0  0  0  0  0  0  0  0  0  0  0
  145.8912  135.8036  154.0682 H   0  0  0  0  0  0  0  0  0  0  0  0
  148.5867  134.9710  155.2536 H   0  0  0  0  0  0  0  0  0  0  0  0
  148.6267  136.5966  153.4680 H   0  0  0  0  0  0  0  0  0  0  0  0
  149.1517  137.8848  156.0719 H   0  0  0  0  0  0  0  0  0  0  0  0
  150.7325  136.0472  155.9586 H   0  0  0  0  0  0  0  0  0  0  0  0
  150.9146  136.2398  154.2151 H   0  0  0  0  0  0  0  0  0  0  0  0
  152.0633  137.9510  156.4036 H   0  0  0  0  0  0  0  0  0  0  0  0
  152.7915  137.4965  154.8709 H   0  0  0  0  0  0  0  0  0  0  0  0
  151.3710  139.9123  155.5051 H   0  0  0  0  0  0  0  0  0  0  0  0
  151.9504  139.4678  153.9113 H   0  0  0  0  0  0  0  0  0  0  0  0
  149.9342  138.5881  153.2191 H   0  0  0  0  0  0  0  0  0  0  0  0
  147.1598  139.2151  153.5770 H   0  0  0  0  0  0  0  0  0  0  0  0
  146.2532  141.7685  154.2228 H   0  0  0  0  0  0  0  0  0  0  0  0
  150.3220  141.4253  155.3420 H   0  0  0  0  0  0  0  0  0  0  0  0
  148.1641  136.4856  157.1122 H   0  0  0  0  0  0  0  0  0  0  0  0
  146.6255  136.9748  156.4412 H   0  0  0  0  0  0  0  0  0  0  0  0
  146.3096  135.2853  158.2444 H   0  0  0  0  0  0  0  0  0  0  0  0
  147.3220  134.1501  157.4036 H   0  0  0  0  0  0  0  0  0  0  0  0
  147.5882  137.5430  154.3059 H   0  0  0  0  0  0  0  0  0  0  0  0
  148.2596  142.9213  155.2499 H   0  0  0  0  0  0  0  0  0  0  0  0
  1  2  1  0  0  0  0
  1 21  1  0  0  0  0
  1 22  1  0  0  0  0
  2  3  2  0  0  0  0
  2  4  1  0  0  0  0
  4 20  1  0  0  0  0
  4  5  1  0  0  0  0
  5  6  1  0  0  0  0
  5 23  1  0  0  0  0
  5 24  1  0  0  0  0
  6  7  1  0  0  0  0
  6 25  1  0  0  0  0
  6 26  1  0  0  0  0
  7  8  1  0  0  0  0
  7 19  1  0  0  0  0
  7 27  1  0  0  0  0
  8  9  1  0  0  0  0
  8 28  1  0  0  0  0
  8 44  1  0  0  0  0
  9 13  1  0  0  0  0
  9 10  1  0  0  0  0
  9 29  1  0  0  0  0
 10 11  1  0  0  0  0
 10 30  1  0  0  0  0
 10 31  1  0  0  0  0
 11 12  1  0  0  0  0
 11 32  1  0  0  0  0
 11 33  1  0  0  0  0
 12 13  1  0  0  0  0
 12 34  1  0  0  0  0
 12 35  1  0  0  0  0
 13 14  1  0  0  0  0
 13 36  1  0  0  0  0
 14 18  1  0  0  0  0
 14 15  1  0  0  0  0
 15 16  2  0  0  0  0
 15 37  1  0  0  0  0
 16 17  1  0  0  0  0
 16 38  1  0  0  0  0
 17 18  2  0  0  0  0
 17 45  1  0  0  0  0
 18 39  1  0  0  0  0
 19 20  1  0  0  0  0
 19 40  1  0  0  0  0
 19 41  1  0  0  0  0
 20 42  1  0  0  0  0
 20 43  1  0  0  0  0
M  CHG  1   8   1
M  CHG  1  17   1
M  END
> <s_m_source_file>
AV-unprocessed.smi

> <i_m_source_file_index>
862

> <i_lp_mmshare_version>
43012

> <i_f3d_flags>
0

> <s_epik_input>
W05IMl1DKD1PKU4xW0NIMl1bQ0gyXVtDSF0oW0NIMl1bQ0gyXTEpW05IXVtDQEBIXTJbQ0gyXVtDSDJdW0NIMl1bQ0BIXTJuM1tjSF1bY0hdbltjSF0z

> <s_epik_cmdline>
J2VwaWtfcHl0aG9uJywgJy1waCcsICc3LjAnLCAnLXRuJywgJzgnLCAnLW1hJywgJzIwMCcsICctbWV0YWxfYmluZGluZycsICctaW1hZScsICc8aW5maWxlLm1hZT4nLCAnLW9tYWUnLCAnPG91dGZpbGUubWFlPic=

> <r_lp_tautomer_probability>
1

> <r_epik_Ionization_Penalty>
1.30217

> <r_epik_Ionization_Penalty_Charging>
0.00439521

> <r_epik_Ionization_Penalty_Neutral>
1.29777

> <r_epik_State_Penalty>
0.977606

> <r_epik_Charging_Adjusted_Penalty>
0.982001

> <i_epik_Tot_Q>
2

> <i_epik_Tot_abs_Q>
2

> <r_epik_Metal_State_Penalty>
1.03289

> <b_epik_Metal_Only>
0

> <s_lp_Force_Field>
OPLS_2005

> <r_lp_Energy>
66.2462

> <b_lp_Chiralities_Consistent>
1

> <s_lp_Variant>
AV-unprocessed.smi:862-8

> <Gold.Version>
5.8.1

> <Gold.Id.Protein>
6NUR|6NUR_protein|mol2

> <Gold.PLP.Fitness>
44.0425

> <Gold.PLP.PLP>
-27.2212

> <Gold.PLP.part.hbond>
-4.0000

> <Gold.PLP.part.metal>
0.0000

> <Gold.PLP.part.buried>
-1.8986

> <Gold.PLP.part.nonpolar>
-21.3312

> <Gold.PLP.part.repulsive>
0.2037

> <Gold.PLP.ligand.clash>
0.0000

> <Gold.PLP.ligand.torsion>
0.2863

> <Gold.PLP.Chemscore.Hbond>
5.7840

> <Gold.PLP.Chemscore.CHOScore>
0.0000

> <Gold.PLP.Chemscore.Metal>
0.0000

> <Gold.Chemscore.Hbonds>
donor molecule, donor type, donor heavy atom, donor atom, acceptor molecule, acceptor atom, score
      L1  H     1    21       P1 11000  1.00
      L1  H     1    22       P1 10957  0.64
      L1  H     8    28       P1  7948  2.00
      L1  H    17    45       P1  8028  2.00

> <Gold.PLP.Chemscore.Internal.Correction>
0.0421

> <Gold.Rescore>
     Score         DG    S(hbond)    S(metal)    S(lipo)     H(rot)  DE(clash)    DE(int)     intcor
     17.85     -18.16       3.40        0.00      48.11       1.68       0.00       0.31       ----

> <Gold.Chemscore.Fitness>
17.8511

> <Gold.Chemscore.DG>
-18.1637

> <Gold.Chemscore.ZeroCoef>
-5.4800

> <Gold.Chemscore.Hbond>
3.4008

> <Gold.Chemscore.Metal>
0.0000

> <Gold.Chemscore.Lipo>
48.1141

> <Gold.Chemscore.Internal_Hbond>
0.0000

> <Gold.Chemscore.DEClash>
0.0000

> <Gold.Chemscore.DEInternal>
0.3126

> <Gold.Chemscore.Rot>
1.6814

> <Gold.Chemscore.Internal.Correction>
   9.000000E+99

> <Gold.Chemscore.Hbonds>
donor molecule, donor type, donor heavy atom, donor atom, acceptor molecule, acceptor atom, score
      L1  H     1    21       P1 11000  0.87
      L1  H     1    22       P1 10957  0.64
      L1  H     8    28       P1  7948  1.00
      L1  H    17    45       P1  8028  0.98

> <Gold.Chemscore.Hbond.Weighted>
-11.3587

> <Gold.Chemscore.Metal.Weighted>
-0.0000

> <Gold.Chemscore.Lipo.Weighted>
-5.6293

> <Gold.Chemscore.Internal_Hbond.Weighted>
0.0000

> <Gold.Chemscore.DEClash.Weighted>
0.0000

> <Gold.Chemscore.DEInternal.Weighted>
0.3126

> <Gold.Chemscore.Rot.Weighted>
4.3043

> <Gold.Chemscore.Internal.Correction.Weighted>
   9.000000E+99

> <Gold.Protein.RotatedTorsions>
[ 6907 6896 6895 6894 ] final -106.37 input  -60.11 | X-H torsion
[ 7974 7965 7964 7962 ] final  159.60 input  175.53 | X-H torsion
[ 8008 7997 7996 7995 ] final    2.98 input   59.86 | X-H torsion
[ 10167 10162 10161 10158 ] final    3.46 input  -65.29 | X-H torsion
[ 10718 10713 10712 10709 ] final    8.39 input   66.30 | X-H torsion
[ 10763 10752 10751 10750 ] final  136.31 input  -60.55 | X-H torsion
[ 11005 11000 10999 10996 ] final  123.90 input  -57.11 | X-H torsion

> <Gold.Protein.ActiveResidues>
 VAL166  LYS551  ARG553  GLY616  TRP617  ASP618  TYR619  PRO620  LYS621  CYS622 
 ASP623  PHE694  ASN695  SER759  ASP760  ASP761  ALA762  ILE779  LEU786  VAL792 
 PHE793  MET794  SER795  GLU796  ALA797  LYS798  CYS799  TRP800  GLU811  SER814 

> <Gold.Protein.RotatedAtoms>
  150.7386  133.9986  159.3630 H   0  0  0  0  0  0  0  0  0  0  0  0  # atno 6907 bound_to 6896
  151.7939  135.0726  160.0400 H   0  0  0  0  0  0  0  0  0  0  0  0  # atno 6908 bound_to 6896
  152.3189  133.5795  159.5767 H   0  0  0  0  0  0  0  0  0  0  0  0  # atno 6909 bound_to 6896
  144.7781  139.7640  143.6270 H   0  0  0  0  0  0  0  0  0  0  0  0  # atno 7974 bound_to 7965
  154.6981  140.2667  155.6746 H   0  0  0  0  0  0  0  0  0  0  0  0  # atno 8008 bound_to 7997
  156.2755  140.2777  156.1506 H   0  0  0  0  0  0  0  0  0  0  0  0  # atno 8009 bound_to 7997
  155.0802  140.0372  157.2627 H   0  0  0  0  0  0  0  0  0  0  0  0  # atno 8010 bound_to 7997
  140.6585  143.7366  150.7695 H   0  0  0  0  0  0  0  0  0  0  0  0  # atno 10167 bound_to 10162
  156.9510  130.5897  149.5656 H   0  0  0  0  0  0  0  0  0  0  0  0  # atno 10718 bound_to 10713
  153.8544  135.3075  155.3434 H   0  0  0  0  0  0  0  0  0  0  0  0  # atno 10763 bound_to 10752
  154.7877  135.4800  153.9985 H   0  0  0  0  0  0  0  0  0  0  0  0  # atno 10764 bound_to 10752
  153.1499  135.6841  153.8992 H   0  0  0  0  0  0  0  0  0  0  0  0  # atno 10765 bound_to 10752
  139.9334  134.9640  156.8329 H   0  0  0  0  0  0  0  0  0  0  0  0  # atno 11005 bound_to 11000
  146.1973  139.5247  142.9766 LP  0  0  0  0  0  0  0  0  0  0  0  0  # atno 17320 bound_to 7965
  145.6127  141.0337  143.1957 LP  0  0  0  0  0  0  0  0  0  0  0  0  # atno 17321 bound_to 7965
  140.1030  143.4770  152.2414 LP  0  0  0  0  0  0  0  0  0  0  0  0  # atno 17342 bound_to 10162
  139.5812  144.7511  151.3634 LP  0  0  0  0  0  0  0  0  0  0  0  0  # atno 17343 bound_to 10162
  156.0363  130.5450  150.8661 LP  0  0  0  0  0  0  0  0  0  0  0  0  # atno 17370 bound_to 10713
  157.5722  131.0946  150.9400 LP  0  0  0  0  0  0  0  0  0  0  0  0  # atno 17371 bound_to 10713
  140.6141  134.0055  155.7589 LP  0  0  0  0  0  0  0  0  0  0  0  0  # atno 17394 bound_to 11000
  141.0935  133.9880  157.3199 LP  0  0  0  0  0  0  0  0  0  0  0  0  # atno 17395 bound_to 11000

$$$$
