AV-unprocessed.smi:1041|AV-procd|sdf|4532|dock9
  -GOLD-   22720 2553D 1   1.00000     0.00000
 Structure written by MMmdl.
 52 53  0  0  0  0  0  0  0  0  1 V2000
  152.4933  143.3781  159.4798 C   0  0  0  0  0  0  0  0  0  0  0  0
  151.5547  143.2884  158.4225 O   0  0  0  0  0  0  0  0  0  0  0  0
  150.6708  142.1893  158.5718 C   0  0  0  0  0  0  0  0  0  0  0  0
  149.8478  142.0161  157.2847 C   0  0  0  0  0  0  0  0  0  0  0  0
  150.0560  140.7564  156.5693 N   0  0  0  0  0  0  0  0  0  0  0  0
  151.4331  140.2928  156.7344 C   0  0  0  0  0  0  0  0  0  0  0  0
  151.6825  138.9304  156.0674 C   0  0  0  0  0  0  0  0  0  0  0  0
  151.3506  138.9861  154.5652 C   0  0  0  0  0  0  0  0  0  0  0  0
  151.5591  137.6125  153.8969 C   0  0  0  0  0  0  0  0  0  0  0  0
  150.4547  136.7000  154.1739 N   0  0  0  0  0  0  0  0  0  0  0  0
  150.4172  135.7870  155.1570 C   0  0  0  0  0  0  0  0  0  0  0  0
  151.3366  135.6059  155.9544 O   0  0  0  0  0  0  0  0  0  0  0  0
  149.1332  134.9633  155.2700 C   0  0  0  0  0  0  0  0  0  0  0  0
  149.2944  133.4543  155.0901 C   0  0  0  0  0  0  0  0  0  0  0  0
  148.7585  132.7714  154.0365 C   0  0  0  0  0  0  0  0  0  0  0  0
  147.9480  133.4475  152.9443 C   0  0  0  0  0  0  0  0  0  0  0  0
  148.9275  131.3869  153.8958 N   0  0  0  0  0  0  0  0  0  0  0  0
  149.6088  130.7497  154.7904 C   0  0  0  0  0  0  0  0  0  0  0  0
  149.8631  129.2576  154.7545 C   0  0  0  0  0  0  0  0  0  0  0  0
  150.1796  131.3864  155.8909 N   0  0  0  0  0  0  0  0  0  0  0  0
  150.0641  132.7153  156.1098 C   0  0  0  0  0  0  0  0  0  0  0  0
  150.5713  133.2271  157.1067 O   0  0  0  0  0  0  0  0  0  0  0  0
  149.9192  139.5358  154.3914 C   0  0  0  0  0  0  0  0  0  0  0  0
  149.7420  140.8667  155.1424 C   0  0  0  0  0  0  0  0  0  0  0  0
  150.6984  130.8364  156.5600 H   0  0  0  0  0  0  0  0  0  0  0  0
  153.1446  144.2373  159.3197 H   0  0  0  0  0  0  0  0  0  0  0  0
  153.1188  142.4858  159.5284 H   0  0  0  0  0  0  0  0  0  0  0  0
  151.9942  143.5086  160.4408 H   0  0  0  0  0  0  0  0  0  0  0  0
  151.2258  141.2816  158.8106 H   0  0  0  0  0  0  0  0  0  0  0  0
  149.9951  142.3741  159.4082 H   0  0  0  0  0  0  0  0  0  0  0  0
  148.7883  142.1370  157.5153 H   0  0  0  0  0  0  0  0  0  0  0  0
  150.1046  142.8442  156.6229 H   0  0  0  0  0  0  0  0  0  0  0  0
  152.1244  141.0311  156.3248 H   0  0  0  0  0  0  0  0  0  0  0  0
  151.6669  140.2086  157.7965 H   0  0  0  0  0  0  0  0  0  0  0  0
  152.7224  138.6355  156.2114 H   0  0  0  0  0  0  0  0  0  0  0  0
  151.0729  138.1688  156.5559 H   0  0  0  0  0  0  0  0  0  0  0  0
  152.0400  139.6932  154.1002 H   0  0  0  0  0  0  0  0  0  0  0  0
  151.6116  137.7365  152.8150 H   0  0  0  0  0  0  0  0  0  0  0  0
  152.5159  137.1830  154.1987 H   0  0  0  0  0  0  0  0  0  0  0  0
  149.6445  136.7775  153.5758 H   0  0  0  0  0  0  0  0  0  0  0  0
  148.6858  135.1546  156.2457 H   0  0  0  0  0  0  0  0  0  0  0  0
  148.4090  135.3584  154.5568 H   0  0  0  0  0  0  0  0  0  0  0  0
  148.5570  134.1765  152.4097 H   0  0  0  0  0  0  0  0  0  0  0  0
  147.0838  133.9593  153.3682 H   0  0  0  0  0  0  0  0  0  0  0  0
  147.5810  132.7223  152.2168 H   0  0  0  0  0  0  0  0  0  0  0  0
  148.9169  128.7160  154.7476 H   0  0  0  0  0  0  0  0  0  0  0  0
  150.4392  128.9259  155.6196 H   0  0  0  0  0  0  0  0  0  0  0  0
  150.4171  128.9929  153.8537 H   0  0  0  0  0  0  0  0  0  0  0  0
  149.6930  139.6874  153.3361 H   0  0  0  0  0  0  0  0  0  0  0  0
  149.1953  138.8087  154.7625 H   0  0  0  0  0  0  0  0  0  0  0  0
  148.7117  141.1933  155.0083 H   0  0  0  0  0  0  0  0  0  0  0  0
  150.3710  141.6306  154.6826 H   0  0  0  0  0  0  0  0  0  0  0  0
  1  2  1  0  0  0  0
  1 26  1  0  0  0  0
  1 27  1  0  0  0  0
  1 28  1  0  0  0  0
  2  3  1  0  0  0  0
  3  4  1  0  0  0  0
  3 29  1  0  0  0  0
  3 30  1  0  0  0  0
  4  5  1  0  0  0  0
  4 31  1  0  0  0  0
  4 32  1  0  0  0  0
  5 24  1  0  0  0  0
  5  6  1  0  0  0  0
  6  7  1  0  0  0  0
  6 33  1  0  0  0  0
  6 34  1  0  0  0  0
  7  8  1  0  0  0  0
  7 35  1  0  0  0  0
  7 36  1  0  0  0  0
  8  9  1  0  0  0  0
  8 23  1  0  0  0  0
  8 37  1  0  0  0  0
  9 10  1  0  0  0  0
  9 38  1  0  0  0  0
  9 39  1  0  0  0  0
 10 11  1  0  0  0  0
 10 40  1  0  0  0  0
 11 12  2  0  0  0  0
 11 13  1  0  0  0  0
 13 14  1  0  0  0  0
 13 41  1  0  0  0  0
 13 42  1  0  0  0  0
 14 21  1  0  0  0  0
 14 15  2  0  0  0  0
 15 16  1  0  0  0  0
 15 17  1  0  0  0  0
 16 43  1  0  0  0  0
 16 44  1  0  0  0  0
 16 45  1  0  0  0  0
 17 18  2  0  0  0  0
 18 19  1  0  0  0  0
 18 20  1  0  0  0  0
 19 46  1  0  0  0  0
 19 47  1  0  0  0  0
 19 48  1  0  0  0  0
 20 25  1  0  0  0  0
 20 21  1  0  0  0  0
 21 22  2  0  0  0  0
 23 24  1  0  0  0  0
 23 49  1  0  0  0  0
 23 50  1  0  0  0  0
 24 51  1  0  0  0  0
 24 52  1  0  0  0  0
M  END
> <s_m_source_file>
AV-unprocessed.smi

> <i_m_source_file_index>
1041

> <i_lp_mmshare_version>
43012

> <i_f3d_flags>
0

> <s_epik_input>
W0NIM11PW0NIMl1bQ0gyXU4xW0NIMl1bQ0gyXVtDSF0oW0NIMl1bQ0gyXTEpW0NIMl1bTkhdQyg9TylbQ0gyXWMyYyhbQ0gzXSluYyhbQ0gzXSlbbkhdYzI9Tw==

> <s_epik_cmdline>
J2VwaWtfcHl0aG9uJywgJy1waCcsICc3LjAnLCAnLXRuJywgJzgnLCAnLW1hJywgJzIwMCcsICctbWV0YWxfYmluZGluZycsICctaW1hZScsICc8aW5maWxlLm1hZT4nLCAnLW9tYWUnLCAnPG91dGZpbGUubWFlPic=

> <r_lp_tautomer_probability>
0.839158

> <r_epik_Ionization_Penalty>
2.47116

> <r_epik_Ionization_Penalty_Charging>
0.00036358

> <r_epik_Ionization_Penalty_Neutral>
2.4708

> <r_epik_State_Penalty>
2.72392

> <r_epik_Charging_Adjusted_Penalty>
2.72428

> <i_epik_Tot_Q>
0

> <i_epik_Tot_abs_Q>
0

> <r_epik_Metal_State_Penalty>
2.89755

> <b_epik_Metal_Only>
0

> <s_lp_Force_Field>
OPLS_2005

> <r_lp_Energy>
27.3294

> <b_lp_Chiralities_Consistent>
1

> <s_lp_Variant>
AV-unprocessed.smi:1041-5

> <Gold.Version>
5.8.1

> <Gold.Id.Protein>
6NUR|6NUR_protein|mol2

> <Gold.PLP.Fitness>
48.9192

> <Gold.PLP.PLP>
-42.4017

> <Gold.PLP.part.hbond>
-4.0000

> <Gold.PLP.part.metal>
0.0000

> <Gold.PLP.part.buried>
-1.3912

> <Gold.PLP.part.nonpolar>
-37.1569

> <Gold.PLP.part.repulsive>
0.2830

> <Gold.PLP.ligand.clash>
0.0558

> <Gold.PLP.ligand.torsion>
1.0469

> <Gold.PLP.Chemscore.Hbond>
2.8400

> <Gold.PLP.Chemscore.CHOScore>
0.0000

> <Gold.PLP.Chemscore.Metal>
0.0000

> <Gold.Chemscore.Hbonds>
donor molecule, donor type, donor heavy atom, donor atom, acceptor molecule, acceptor atom, score
      L1  H    10    40       P1  7948  0.82
      P1  H  6896  6907       L1    22  0.55
      P1  H 10752 10763       L1    12  1.00

> <Gold.PLP.Chemscore.Internal.Correction>
0.1470

> <Gold.Rescore>
     Score         DG    S(hbond)    S(metal)    S(lipo)     H(rot)  DE(clash)    DE(int)     intcor
     14.21     -17.76       2.31        0.00      90.54       2.36       1.15       2.39       ----

> <Gold.Chemscore.Fitness>
14.2150

> <Gold.Chemscore.DG>
-17.7580

> <Gold.Chemscore.ZeroCoef>
-5.4800

> <Gold.Chemscore.Hbond>
2.3130

> <Gold.Chemscore.Metal>
0.0000

> <Gold.Chemscore.Lipo>
90.5439

> <Gold.Chemscore.Internal_Hbond>
0.0000

> <Gold.Chemscore.DEClash>
1.1498

> <Gold.Chemscore.DEInternal>
2.3932

> <Gold.Chemscore.Rot>
2.3598

> <Gold.Chemscore.Internal.Correction>
   9.000000E+99

> <Gold.Chemscore.Hbonds>
donor molecule, donor type, donor heavy atom, donor atom, acceptor molecule, acceptor atom, score
      L1  H    10    40       P1  7948  0.53
      P1  H  6896  6907       L1    22  0.54
      P1  H 10752 10763       L1    12  0.71

> <Gold.Chemscore.Hbond.Weighted>
-7.7254

> <Gold.Chemscore.Metal.Weighted>
-0.0000

> <Gold.Chemscore.Lipo.Weighted>
-10.5936

> <Gold.Chemscore.Internal_Hbond.Weighted>
0.0000

> <Gold.Chemscore.DEClash.Weighted>
1.1498

> <Gold.Chemscore.DEInternal.Weighted>
2.3932

> <Gold.Chemscore.Rot.Weighted>
6.0410

> <Gold.Chemscore.Internal.Correction.Weighted>
   9.000000E+99

> <Gold.Protein.RotatedTorsions>
[ 6907 6896 6895 6894 ] final -151.14 input  -60.11 | X-H torsion
[ 7974 7965 7964 7962 ] final  133.67 input  175.53 | X-H torsion
[ 8008 7997 7996 7995 ] final -160.36 input   59.86 | X-H torsion
[ 10167 10162 10161 10158 ] final   99.12 input  -65.29 | X-H torsion
[ 10718 10713 10712 10709 ] final   86.24 input   66.30 | X-H torsion
[ 10763 10752 10751 10750 ] final   83.08 input  -60.55 | X-H torsion
[ 11005 11000 10999 10996 ] final   16.91 input  -57.11 | X-H torsion

> <Gold.Protein.ActiveResidues>
 VAL166  LYS551  ARG553  GLY616  TRP617  ASP618  TYR619  PRO620  LYS621  CYS622 
 ASP623  PHE694  ASN695  SER759  ASP760  ASP761  ALA762  ILE779  LEU786  VAL792 
 PHE793  MET794  SER795  GLU796  ALA797  LYS798  CYS799  TRP800  GLU811  SER814 

> <Gold.Protein.RotatedAtoms>
  151.2087  133.4568  159.2597 H   0  0  0  0  0  0  0  0  0  0  0  0  # atno 6907 bound_to 6896
  151.0998  134.9965  159.8453 H   0  0  0  0  0  0  0  0  0  0  0  0  # atno 6908 bound_to 6896
  152.5442  134.2015  159.8767 H   0  0  0  0  0  0  0  0  0  0  0  0  # atno 6909 bound_to 6896
  144.9841  139.4473  143.5371 H   0  0  0  0  0  0  0  0  0  0  0  0  # atno 7974 bound_to 7965
  155.7762  140.0859  157.2082 H   0  0  0  0  0  0  0  0  0  0  0  0  # atno 8008 bound_to 7997
  154.3993  140.1516  156.3057 H   0  0  0  0  0  0  0  0  0  0  0  0  # atno 8009 bound_to 7997
  155.8698  140.3426  155.5816 H   0  0  0  0  0  0  0  0  0  0  0  0  # atno 8010 bound_to 7997
  139.7646  144.6943  151.0243 H   0  0  0  0  0  0  0  0  0  0  0  0  # atno 10167 bound_to 10162
  157.6926  131.0207  150.2943 H   0  0  0  0  0  0  0  0  0  0  0  0  # atno 10718 bound_to 10713
  153.1259  135.4704  154.9271 H   0  0  0  0  0  0  0  0  0  0  0  0  # atno 10763 bound_to 10752
  154.7619  135.3134  154.8363 H   0  0  0  0  0  0  0  0  0  0  0  0  # atno 10764 bound_to 10752
  153.8917  135.6884  153.4814 H   0  0  0  0  0  0  0  0  0  0  0  0  # atno 10765 bound_to 10752
  140.4419  134.1313  155.7691 H   0  0  0  0  0  0  0  0  0  0  0  0  # atno 11005 bound_to 11000
  146.3415  139.9132  142.8777 LP  0  0  0  0  0  0  0  0  0  0  0  0  # atno 17320 bound_to 7965
  145.2378  140.9998  143.3953 LP  0  0  0  0  0  0  0  0  0  0  0  0  # atno 17321 bound_to 7965
  140.7810  143.4658  151.0215 LP  0  0  0  0  0  0  0  0  0  0  0  0  # atno 17342 bound_to 10162
  139.8343  143.7649  152.3180 LP  0  0  0  0  0  0  0  0  0  0  0  0  # atno 17343 bound_to 10162
  156.3469  130.3824  149.7361 LP  0  0  0  0  0  0  0  0  0  0  0  0  # atno 17370 bound_to 10713
  156.4852  130.8059  151.3072 LP  0  0  0  0  0  0  0  0  0  0  0  0  # atno 17371 bound_to 10713
  141.1702  133.8624  157.1594 LP  0  0  0  0  0  0  0  0  0  0  0  0  # atno 17394 bound_to 11000
  140.0064  135.0006  157.0302 LP  0  0  0  0  0  0  0  0  0  0  0  0  # atno 17395 bound_to 11000

$$$$
