AV-unprocessed.smi:1966|AV-procd|sdf|7952|dock10
  -GOLD-   2272010123D 1   1.00000     0.00000
 Structure written by MMmdl.
 53 54  0  0  0  0  0  0  0  0  1 V2000
  154.0798  133.7318  164.6850 C   0  0  0  0  0  0  0  0  0  0  0  0
  154.8539  134.7499  163.8547 C   0  0  0  0  0  0  0  0  0  0  0  0
  154.9941  135.9017  164.2645 O   0  0  0  0  0  0  0  0  0  0  0  0
  155.3550  134.3107  162.6893 N   0  0  0  0  0  0  0  0  0  0  0  0
  156.1214  135.1180  161.7370 C   0  0  2  0  0  0  0  0  0  0  0  0
  155.1747  136.1387  161.0753 C   0  0  0  0  0  0  0  0  0  0  0  0
  154.1683  135.7484  160.4818 O   0  0  0  0  0  0  0  0  0  0  0  0
  155.5287  137.4308  161.2034 N   0  0  0  0  0  0  0  0  0  0  0  0
  154.8791  138.5777  160.6738 C   0  0  0  0  0  0  0  0  0  0  0  0
  155.4600  139.8671  160.6336 C   0  0  0  0  0  0  0  0  0  0  0  0
  154.7095  140.9359  160.1077 C   0  0  0  0  0  0  0  0  0  0  0  0
  153.4010  140.6865  159.6462 C   0  0  0  0  0  0  0  0  0  0  0  0
  152.6523  141.7497  159.1223 N   0  0  0  0  0  0  0  0  0  0  0  0
  152.7013  142.9550  159.9395 C   0  0  0  0  0  0  0  0  0  0  0  0
  151.9779  144.1209  159.2367 C   0  0  1  0  0  0  0  0  0  0  0  0
  152.7736  144.7207  158.0637 C   0  0  0  0  0  0  0  0  0  0  0  0
  150.6617  143.7199  158.8454 O   0  0  0  0  0  0  0  0  0  0  0  0
  150.6077  142.5498  158.0281 C   0  0  2  0  0  0  0  0  0  0  0  0
  149.1366  142.2527  157.7209 C   0  0  0  0  0  0  0  0  0  0  0  0
  151.2910  141.3810  158.7607 C   0  0  0  0  0  0  0  0  0  0  0  0
  152.8331  139.4581  159.6943 N   0  0  0  0  0  0  0  0  0  0  0  0
  153.5575  138.4379  160.2013 C   0  0  0  0  0  0  0  0  0  0  0  0
  156.7324  134.1788  160.6550 C   0  0  0  0  0  0  0  0  0  0  0  0
  155.6476  133.3712  159.9151 C   0  0  0  0  0  0  0  0  0  0  0  0
  157.7831  133.2036  161.2262 C   0  0  0  0  0  0  0  0  0  0  0  0
  153.4327  133.1258  164.0501 H   0  0  0  0  0  0  0  0  0  0  0  0
  153.4562  134.2332  165.4258 H   0  0  0  0  0  0  0  0  0  0  0  0
  154.7696  133.0699  165.2089 H   0  0  0  0  0  0  0  0  0  0  0  0
  155.1819  133.3500  162.4312 H   0  0  0  0  0  0  0  0  0  0  0  0
  156.9267  135.6372  162.2616 H   0  0  0  0  0  0  0  0  0  0  0  0
  156.3218  137.6160  161.8006 H   0  0  0  0  0  0  0  0  0  0  0  0
  156.4537  140.0589  161.0079 H   0  0  0  0  0  0  0  0  0  0  0  0
  155.1315  141.9293  160.0655 H   0  0  0  0  0  0  0  0  0  0  0  0
  152.2204  142.7566  160.8985 H   0  0  0  0  0  0  0  0  0  0  0  0
  153.7370  143.2226  160.1521 H   0  0  0  0  0  0  0  0  0  0  0  0
  151.8478  144.9183  159.9686 H   0  0  0  0  0  0  0  0  0  0  0  0
  153.7249  145.1251  158.4104 H   0  0  0  0  0  0  0  0  0  0  0  0
  152.2211  145.5354  157.5952 H   0  0  0  0  0  0  0  0  0  0  0  0
  152.9983  143.9822  157.2948 H   0  0  0  0  0  0  0  0  0  0  0  0
  151.1186  142.7379  157.0837 H   0  0  0  0  0  0  0  0  0  0  0  0
  149.0377  141.3678  157.0919 H   0  0  0  0  0  0  0  0  0  0  0  0
  148.6725  143.0873  157.1948 H   0  0  0  0  0  0  0  0  0  0  0  0
  148.5697  142.0788  158.6360 H   0  0  0  0  0  0  0  0  0  0  0  0
  151.3060  140.4951  158.1243 H   0  0  0  0  0  0  0  0  0  0  0  0
  150.7297  141.1238  159.6603 H   0  0  0  0  0  0  0  0  0  0  0  0
  153.0650  137.4767  160.2258 H   0  0  0  0  0  0  0  0  0  0  0  0
  157.2366  134.7936  159.9070 H   0  0  0  0  0  0  0  0  0  0  0  0
  155.0717  132.7573  160.6081 H   0  0  0  0  0  0  0  0  0  0  0  0
  156.0904  132.7057  159.1734 H   0  0  0  0  0  0  0  0  0  0  0  0
  154.9494  134.0170  159.3826 H   0  0  0  0  0  0  0  0  0  0  0  0
  157.3590  132.5880  162.0200 H   0  0  0  0  0  0  0  0  0  0  0  0
  158.6499  133.7239  161.6340 H   0  0  0  0  0  0  0  0  0  0  0  0
  158.1566  132.5326  160.4522 H   0  0  0  0  0  0  0  0  0  0  0  0
  1  2  1  0  0  0  0
  1 26  1  0  0  0  0
  1 27  1  0  0  0  0
  1 28  1  0  0  0  0
  2  3  2  0  0  0  0
  2  4  1  0  0  0  0
  4  5  1  0  0  0  0
  4 29  1  0  0  0  0
  5  6  1  0  0  0  0
  5 23  1  0  0  0  0
  5 30  1  0  0  0  0
  6  7  2  0  0  0  0
  6  8  1  0  0  0  0
  8  9  1  0  0  0  0
  8 31  1  0  0  0  0
  9 22  1  0  0  0  0
  9 10  2  0  0  0  0
 10 11  1  0  0  0  0
 10 32  1  0  0  0  0
 11 12  2  0  0  0  0
 11 33  1  0  0  0  0
 12 13  1  0  0  0  0
 12 21  1  0  0  0  0
 13 20  1  0  0  0  0
 13 14  1  0  0  0  0
 14 15  1  0  0  0  0
 14 34  1  0  0  0  0
 14 35  1  0  0  0  0
 15 16  1  0  0  0  0
 15 17  1  0  0  0  0
 15 36  1  0  0  0  0
 16 37  1  0  0  0  0
 16 38  1  0  0  0  0
 16 39  1  0  0  0  0
 17 18  1  0  0  0  0
 18 19  1  0  0  0  0
 18 20  1  0  0  0  0
 18 40  1  0  0  0  0
 19 41  1  0  0  0  0
 19 42  1  0  0  0  0
 19 43  1  0  0  0  0
 20 44  1  0  0  0  0
 20 45  1  0  0  0  0
 21 22  2  0  0  0  0
 22 46  1  0  0  0  0
 23 24  1  0  0  0  0
 23 25  1  0  0  0  0
 23 47  1  0  0  0  0
 24 48  1  0  0  0  0
 24 49  1  0  0  0  0
 24 50  1  0  0  0  0
 25 51  1  0  0  0  0
 25 52  1  0  0  0  0
 25 53  1  0  0  0  0
M  END
> <s_m_source_file>
AV-unprocessed.smi

> <i_m_source_file_index>
1966

> <i_lp_mmshare_version>
43012

> <i_f3d_flags>
0

> <s_epik_input>
W0NIM11DKD1PKVtOSF1bQ0BASF0oW0NIXShbQ0gzXSlbQ0gzXSlDKD1PKVtOSF1jMVtjSF1bY0hdYyhuW2NIXTEpTjJbQ0gyXVtDQEBIXShbQ0gzXSlPW0NAQEhdKFtDSDNdKVtDSDJdMg==

> <s_epik_cmdline>
J2VwaWtfcHl0aG9uJywgJy1waCcsICc3LjAnLCAnLXRuJywgJzgnLCAnLW1hJywgJzIwMCcsICctbWV0YWxfYmluZGluZycsICctaW1hZScsICc8aW5maWxlLm1hZT4nLCAnLW9tYWUnLCAnPG91dGZpbGUubWFlPic=

> <r_lp_tautomer_probability>
1

> <r_epik_Ionization_Penalty>
0.000679699

> <r_epik_Ionization_Penalty_Charging>
0

> <r_epik_Ionization_Penalty_Neutral>
0.000679699

> <r_epik_State_Penalty>
0.000430485

> <r_epik_Charging_Adjusted_Penalty>
0.000430485

> <i_epik_Tot_Q>
0

> <i_epik_Tot_abs_Q>
0

> <r_epik_Metal_State_Penalty>
-0

> <b_epik_Metal_Only>
0

> <s_lp_Force_Field>
OPLS_2005

> <r_lp_Energy>
29.6381

> <b_lp_Chiralities_Consistent>
1

> <s_lp_Variant>
AV-unprocessed.smi:1966-5

> <Gold.Version>
5.8.1

> <Gold.Id.Protein>
6NUR|6NUR_protein|mol2

> <Gold.PLP.Fitness>
40.1807

> <Gold.PLP.PLP>
-37.7548

> <Gold.PLP.part.hbond>
-1.0000

> <Gold.PLP.part.metal>
0.0000

> <Gold.PLP.part.buried>
-5.6764

> <Gold.PLP.part.nonpolar>
-31.1479

> <Gold.PLP.part.repulsive>
0.2282

> <Gold.PLP.ligand.clash>
0.0000

> <Gold.PLP.ligand.torsion>
0.3472

> <Gold.PLP.Chemscore.Hbond>
0.9913

> <Gold.PLP.Chemscore.CHOScore>
0.0000

> <Gold.PLP.Chemscore.Metal>
0.0000

> <Gold.Chemscore.Hbonds>
donor molecule, donor type, donor heavy atom, donor atom, acceptor molecule, acceptor atom, score
      P1  H  6896  6908       L1     7  0.86

> <Gold.PLP.Chemscore.Internal.Correction>
0.1465

> <Gold.Rescore>
     Score         DG    S(hbond)    S(metal)    S(lipo)     H(rot)  DE(clash)    DE(int)     intcor
     13.51     -16.60       1.00        0.00     103.21       1.68       0.03       3.06       ----

> <Gold.Chemscore.Fitness>
13.5066

> <Gold.Chemscore.DG>
-16.6011

> <Gold.Chemscore.ZeroCoef>
-5.4800

> <Gold.Chemscore.Hbond>
0.9986

> <Gold.Chemscore.Metal>
0.0000

> <Gold.Chemscore.Lipo>
103.2130

> <Gold.Chemscore.Internal_Hbond>
0.0000

> <Gold.Chemscore.DEClash>
0.0345

> <Gold.Chemscore.DEInternal>
3.0600

> <Gold.Chemscore.Rot>
1.6759

> <Gold.Chemscore.Internal.Correction>
   9.000000E+99

> <Gold.Chemscore.Hbonds>
donor molecule, donor type, donor heavy atom, donor atom, acceptor molecule, acceptor atom, score
      P1  H  6896  6908       L1     7  0.84

> <Gold.Chemscore.Hbond.Weighted>
-3.3353

> <Gold.Chemscore.Metal.Weighted>
-0.0000

> <Gold.Chemscore.Lipo.Weighted>
-12.0759

> <Gold.Chemscore.Internal_Hbond.Weighted>
0.0000

> <Gold.Chemscore.DEClash.Weighted>
0.0345

> <Gold.Chemscore.DEInternal.Weighted>
3.0600

> <Gold.Chemscore.Rot.Weighted>
4.2902

> <Gold.Chemscore.Internal.Correction.Weighted>
   9.000000E+99

> <Gold.Protein.RotatedTorsions>
[ 6907 6896 6895 6894 ] final  -69.55 input  -60.11 | X-H torsion
[ 7974 7965 7964 7962 ] final   18.68 input  175.53 | X-H torsion
[ 8008 7997 7996 7995 ] final    7.59 input   59.86 | X-H torsion
[ 10167 10162 10161 10158 ] final   62.51 input  -65.29 | X-H torsion
[ 10718 10713 10712 10709 ] final  114.53 input   66.30 | X-H torsion
[ 10763 10752 10751 10750 ] final  101.46 input  -60.55 | X-H torsion
[ 11005 11000 10999 10996 ] final -166.14 input  -57.11 | X-H torsion

> <Gold.Protein.ActiveResidues>
 VAL166  LYS551  ARG553  GLY616  TRP617  ASP618  TYR619  PRO620  LYS621  CYS622 
 ASP623  PHE694  ASN695  SER759  ASP760  ASP761  ALA762  ILE779  LEU786  VAL792 
 PHE793  MET794  SER795  GLU796  ALA797  LYS798  CYS799  TRP800  GLU811  SER814 

> <Gold.Protein.RotatedAtoms>
  150.7300  134.5581  159.5828 H   0  0  0  0  0  0  0  0  0  0  0  0  # atno 6907 bound_to 6896
  152.3051  134.7561  160.0358 H   0  0  0  0  0  0  0  0  0  0  0  0  # atno 6908 bound_to 6896
  151.8128  133.3348  159.3597 H   0  0  0  0  0  0  0  0  0  0  0  0  # atno 6909 bound_to 6896
  146.2176  139.8422  142.8638 H   0  0  0  0  0  0  0  0  0  0  0  0  # atno 7974 bound_to 7965
  154.7559  140.2775  155.6254 H   0  0  0  0  0  0  0  0  0  0  0  0  # atno 8008 bound_to 7997
  156.2905  140.2669  156.2251 H   0  0  0  0  0  0  0  0  0  0  0  0  # atno 8009 bound_to 7997
  155.0078  140.0372  157.2377 H   0  0  0  0  0  0  0  0  0  0  0  0  # atno 8010 bound_to 7997
  140.1432  144.4534  150.6800 H   0  0  0  0  0  0  0  0  0  0  0  0  # atno 10167 bound_to 10162
  157.6276  131.1000  150.7198 H   0  0  0  0  0  0  0  0  0  0  0  0  # atno 10718 bound_to 10713
  153.3269  135.4044  155.1463 H   0  0  0  0  0  0  0  0  0  0  0  0  # atno 10763 bound_to 10752
  154.8614  135.3601  154.5522 H   0  0  0  0  0  0  0  0  0  0  0  0  # atno 10764 bound_to 10752
  153.5958  135.7072  153.5463 H   0  0  0  0  0  0  0  0  0  0  0  0  # atno 10765 bound_to 10752
  140.5678  134.5268  157.5156 H   0  0  0  0  0  0  0  0  0  0  0  0  # atno 11005 bound_to 11000
  145.2887  141.0160  143.3676 LP  0  0  0  0  0  0  0  0  0  0  0  0  # atno 17320 bound_to 7965
  144.9094  139.4548  143.6594 LP  0  0  0  0  0  0  0  0  0  0  0  0  # atno 17321 bound_to 7965
  140.6748  143.2300  151.5535 LP  0  0  0  0  0  0  0  0  0  0  0  0  # atno 17342 bound_to 10162
  139.5462  144.2515  152.1446 LP  0  0  0  0  0  0  0  0  0  0  0  0  # atno 17343 bound_to 10162
  156.7544  130.4779  149.5450 LP  0  0  0  0  0  0  0  0  0  0  0  0  # atno 17370 bound_to 10713
  156.1458  130.6276  151.0529 LP  0  0  0  0  0  0  0  0  0  0  0  0  # atno 17371 bound_to 10713
  139.9376  134.7846  156.0761 LP  0  0  0  0  0  0  0  0  0  0  0  0  # atno 17394 bound_to 11000
  141.1075  133.6655  156.2899 LP  0  0  0  0  0  0  0  0  0  0  0  0  # atno 17395 bound_to 11000

$$$$
