AV-unprocessed.smi:1641|AV-procd|sdf|6567|dock1
  -GOLD-   22720 7253D 1   1.00000     0.00000
 Structure written by MMmdl.
 41 42  0  0  0  0  0  0  0  0  3 V2000
  149.0386  140.7830  155.1771 C   0  0  0  0  0  0  0  0  0  0  0  0
  149.9454  139.6093  155.0316 C   0  0  0  0  0  0  0  0  0  0  0  0
  151.2712  139.7288  154.9276 N   0  0  0  0  0  0  0  0  0  0  0  0
  151.8987  138.4975  154.8041 N   0  0  0  0  0  0  0  0  0  0  0  0
  151.0424  137.4662  154.8267 C   0  0  0  0  0  0  0  0  0  0  0  0
  151.4480  136.1900  154.7199 N   0  5  0  0  0  0  0  0  0  0  0  0
  150.6510  135.1897  155.1572 C   0  0  0  0  0  0  0  0  0  0  0  0
  150.6627  134.6825  156.2814 O   0  0  0  0  0  0  0  0  0  0  0  0
  149.7867  134.7457  154.2336 N   0  0  0  0  0  0  0  0  0  0  0  0
  148.8209  133.6703  154.4236 C   0  0  0  0  0  0  0  0  0  0  0  0
  149.1959  132.4298  153.5921 C   0  0  0  0  0  0  0  0  0  0  0  0
  148.0594  131.9405  152.7739 N   0  3  1  0  0  0  0  0  0  0  0  0
  147.2105  130.9699  153.5044 C   0  0  0  0  0  0  0  0  0  0  0  0
  146.0771  130.4348  152.6071 C   0  0  2  0  0  0  0  0  0  0  0  0
  146.5569  129.4358  151.5389 C   0  0  0  0  0  0  0  0  0  0  0  0
  145.3416  131.5197  152.0408 O   0  0  0  0  0  0  0  0  0  0  0  0
  146.1257  132.4548  151.3041 C   0  0  1  0  0  0  0  0  0  0  0  0
  145.1863  133.5459  150.7787 C   0  0  0  0  0  0  0  0  0  0  0  0
  147.2261  133.0311  152.2130 C   0  0  0  0  0  0  0  0  0  0  0  0
  149.3558  137.9563  154.9853 S   0  0  0  0  0  0  0  0  0  0  0  0
  149.0171  141.1098  156.2169 H   0  0  0  0  0  0  0  0  0  0  0  0
  148.0260  140.5187  154.8714 H   0  0  0  0  0  0  0  0  0  0  0  0
  149.3852  141.6088  154.5553 H   0  0  0  0  0  0  0  0  0  0  0  0
  149.8080  135.1906  153.3274 H   0  0  0  0  0  0  0  0  0  0  0  0
  148.7468  133.4360  155.4859 H   0  0  0  0  0  0  0  0  0  0  0  0
  147.8410  134.0388  154.1192 H   0  0  0  0  0  0  0  0  0  0  0  0
  150.0225  132.7031  152.9344 H   0  0  0  0  0  0  0  0  0  0  0  0
  149.5645  131.6229  154.2276 H   0  0  0  0  0  0  0  0  0  0  0  0
  147.8161  130.1399  153.8708 H   0  0  0  0  0  0  0  0  0  0  0  0
  146.7848  131.4607  154.3812 H   0  0  0  0  0  0  0  0  0  0  0  0
  145.3756  129.8973  153.2459 H   0  0  0  0  0  0  0  0  0  0  0  0
  146.9930  128.5520  152.0052 H   0  0  0  0  0  0  0  0  0  0  0  0
  147.3156  129.8621  150.8831 H   0  0  0  0  0  0  0  0  0  0  0  0
  145.7255  129.1026  150.9173 H   0  0  0  0  0  0  0  0  0  0  0  0
  146.5805  131.9596  150.4460 H   0  0  0  0  0  0  0  0  0  0  0  0
  145.7328  134.2871  150.1947 H   0  0  0  0  0  0  0  0  0  0  0  0
  144.6879  134.0661  151.5972 H   0  0  0  0  0  0  0  0  0  0  0  0
  144.4151  133.1201  150.1363 H   0  0  0  0  0  0  0  0  0  0  0  0
  146.7811  133.6047  153.0279 H   0  0  0  0  0  0  0  0  0  0  0  0
  147.8421  133.7224  151.6388 H   0  0  0  0  0  0  0  0  0  0  0  0
  148.4605  131.4380  151.9950 H   0  0  0  0  0  0  0  0  0  0  0  0
  1  2  1  0  0  0  0
  1 21  1  0  0  0  0
  1 22  1  0  0  0  0
  1 23  1  0  0  0  0
  2 20  1  0  0  0  0
  2  3  2  0  0  0  0
  3  4  1  0  0  0  0
  4  5  2  0  0  0  0
  5  6  1  0  0  0  0
  5 20  1  0  0  0  0
  6  7  1  0  0  0  0
  7  8  2  0  0  0  0
  7  9  1  0  0  0  0
  9 10  1  0  0  0  0
  9 24  1  0  0  0  0
 10 11  1  0  0  0  0
 10 25  1  0  0  0  0
 10 26  1  0  0  0  0
 11 12  1  0  0  0  0
 11 27  1  0  0  0  0
 11 28  1  0  0  0  0
 12 19  1  0  0  0  0
 12 13  1  0  0  0  0
 12 41  1  0  0  0  0
 13 14  1  0  0  0  0
 13 29  1  0  0  0  0
 13 30  1  0  0  0  0
 14 15  1  0  0  0  0
 14 16  1  0  0  0  0
 14 31  1  0  0  0  0
 15 32  1  0  0  0  0
 15 33  1  0  0  0  0
 15 34  1  0  0  0  0
 16 17  1  0  0  0  0
 17 18  1  0  0  0  0
 17 19  1  0  0  0  0
 17 35  1  0  0  0  0
 18 36  1  0  0  0  0
 18 37  1  0  0  0  0
 18 38  1  0  0  0  0
 19 39  1  0  0  0  0
 19 40  1  0  0  0  0
M  CHG  1   6  -1
M  CHG  1  12   1
M  END
> <s_m_source_file>
AV-unprocessed.smi

> <i_m_source_file_index>
1641

> <i_lp_mmshare_version>
43012

> <i_f3d_flags>
0

> <s_epik_input>
W0NIM11jMW5uYyhzMSlbTkhdQyg9TylbTkhdW0NIMl1bQ0gyXU4yW0NIMl1bQ0BASF0oW0NIM10pT1tDQEBIXShbQ0gzXSlbQ0gyXTI=

> <s_epik_cmdline>
J2VwaWtfcHl0aG9uJywgJy1waCcsICc3LjAnLCAnLXRuJywgJzgnLCAnLW1hJywgJzIwMCcsICctbWV0YWxfYmluZGluZycsICctaW1hZScsICc8aW5maWxlLm1hZT4nLCAnLW9tYWUnLCAnPG91dGZpbGUubWFlPic=

> <r_lp_tautomer_probability>
1

> <r_epik_Ionization_Penalty>
3.5343

> <r_epik_Ionization_Penalty_Charging>
3.42778

> <r_epik_Ionization_Penalty_Neutral>
0.106519

> <r_epik_State_Penalty>
3.62118

> <r_epik_Charging_Adjusted_Penalty>
7.04896

> <i_epik_Tot_Q>
0

> <i_epik_Tot_abs_Q>
2

> <r_epik_Metal_State_Penalty>
1.13984

> <b_epik_Metal_Only>
1

> <s_lp_Force_Field>
OPLS_2005

> <r_lp_Energy>
10.2007

> <b_lp_Chiralities_Consistent>
1

> <s_lp_Variant>
AV-unprocessed.smi:1641-12

> <Gold.Version>
5.8.1

> <Gold.Id.Protein>
6NUR|6NUR_protein|mol2

> <Gold.PLP.Fitness>
45.8766

> <Gold.PLP.PLP>
-36.2597

> <Gold.PLP.part.hbond>
-4.0677

> <Gold.PLP.part.metal>
0.0000

> <Gold.PLP.part.buried>
-5.7165

> <Gold.PLP.part.nonpolar>
-27.7161

> <Gold.PLP.part.repulsive>
0.5232

> <Gold.PLP.ligand.clash>
0.0000

> <Gold.PLP.ligand.torsion>
1.5311

> <Gold.PLP.Chemscore.Hbond>
4.1888

> <Gold.PLP.Chemscore.CHOScore>
0.0000

> <Gold.PLP.Chemscore.Metal>
0.0000

> <Gold.Chemscore.Hbonds>
donor molecule, donor type, donor heavy atom, donor atom, acceptor molecule, acceptor atom, score
      L1  H     9    24       P1  7948  0.20
      L1  H    12    41       P1 10747  1.00
      P1  H  7989  7998       L1     3  1.00
      P1  H 10752 10765       L1     6  2.00

> <Gold.PLP.Chemscore.Internal.Correction>
0.1128

> <Gold.Rescore>
     Score         DG    S(hbond)    S(metal)    S(lipo)     H(rot)  DE(clash)    DE(int)     intcor
     16.95     -18.79       2.59        0.00      75.16       1.61       0.17       1.68       ----

> <Gold.Chemscore.Fitness>
16.9496

> <Gold.Chemscore.DG>
-18.7949

> <Gold.Chemscore.ZeroCoef>
-5.4800

> <Gold.Chemscore.Hbond>
2.5853

> <Gold.Chemscore.Metal>
0.0000

> <Gold.Chemscore.Lipo>
75.1610

> <Gold.Chemscore.Internal_Hbond>
0.0000

> <Gold.Chemscore.DEClash>
0.1686

> <Gold.Chemscore.DEInternal>
1.6767

> <Gold.Chemscore.Rot>
1.6070

> <Gold.Chemscore.Internal.Correction>
   9.000000E+99

> <Gold.Chemscore.Hbonds>
donor molecule, donor type, donor heavy atom, donor atom, acceptor molecule, acceptor atom, score
      L1  H    12    41       P1 10747  1.00
      P1  H  7989  7998       L1     3  0.54
      P1  H 10752 10765       L1     6  0.78

> <Gold.Chemscore.Hbond.Weighted>
-8.6349

> <Gold.Chemscore.Metal.Weighted>
-0.0000

> <Gold.Chemscore.Lipo.Weighted>
-8.7938

> <Gold.Chemscore.Internal_Hbond.Weighted>
0.0000

> <Gold.Chemscore.DEClash.Weighted>
0.1686

> <Gold.Chemscore.DEInternal.Weighted>
1.6767

> <Gold.Chemscore.Rot.Weighted>
4.1139

> <Gold.Chemscore.Internal.Correction.Weighted>
   9.000000E+99

> <Gold.Protein.RotatedTorsions>
[ 6907 6896 6895 6894 ] final  135.58 input  -60.11 | X-H torsion
[ 7974 7965 7964 7962 ] final   90.44 input  175.53 | X-H torsion
[ 8008 7997 7996 7995 ] final -178.88 input   59.86 | X-H torsion
[ 10167 10162 10161 10158 ] final  -38.67 input  -65.29 | X-H torsion
[ 10718 10713 10712 10709 ] final  125.48 input   66.30 | X-H torsion
[ 10763 10752 10751 10750 ] final  166.84 input  -60.55 | X-H torsion
[ 11005 11000 10999 10996 ] final  130.53 input  -57.11 | X-H torsion

> <Gold.Protein.ActiveResidues>
 VAL166  LYS551  ARG553  GLY616  TRP617  ASP618  TYR619  PRO620  LYS621  CYS622 
 ASP623  PHE694  ASN695  SER759  ASP760  ASP761  ALA762  ILE779  LEU786  VAL792 
 PHE793  MET794  SER795  GLU796  ALA797  LYS798  CYS799  TRP800  GLU811  SER814 

> <Gold.Protein.RotatedAtoms>
  152.2988  133.5634  159.5604 H   0  0  0  0  0  0  0  0  0  0  0  0  # atno 6907 bound_to 6896
  150.7268  134.0321  159.3746 H   0  0  0  0  0  0  0  0  0  0  0  0  # atno 6908 bound_to 6896
  151.8222  135.0648  160.0477 H   0  0  0  0  0  0  0  0  0  0  0  0  # atno 6909 bound_to 6896
  145.5190  139.2279  143.2682 H   0  0  0  0  0  0  0  0  0  0  0  0  # atno 7974 bound_to 7965
  156.0240  140.1267  157.0328 H   0  0  0  0  0  0  0  0  0  0  0  0  # atno 8008 bound_to 7997
  154.4323  140.1063  156.6074 H   0  0  0  0  0  0  0  0  0  0  0  0  # atno 8009 bound_to 7997
  155.5904  140.3469  155.4567 H   0  0  0  0  0  0  0  0  0  0  0  0  # atno 8010 bound_to 7997
  140.7085  143.3262  151.2675 H   0  0  0  0  0  0  0  0  0  0  0  0  # atno 10167 bound_to 10162
  157.5499  131.1094  150.8719 H   0  0  0  0  0  0  0  0  0  0  0  0  # atno 10718 bound_to 10713
  154.3449  135.2753  155.2403 H   0  0  0  0  0  0  0  0  0  0  0  0  # atno 10763 bound_to 10752
  154.4657  135.5896  153.6290 H   0  0  0  0  0  0  0  0  0  0  0  0  # atno 10764 bound_to 10752
  152.9854  135.6076  154.3654 H   0  0  0  0  0  0  0  0  0  0  0  0  # atno 10765 bound_to 10752
  139.9677  134.9586  156.9308 H   0  0  0  0  0  0  0  0  0  0  0  0  # atno 11005 bound_to 11000
  146.2118  140.6001  142.9056 LP  0  0  0  0  0  0  0  0  0  0  0  0  # atno 17320 bound_to 7965
  144.7686  140.5587  143.6686 LP  0  0  0  0  0  0  0  0  0  0  0  0  # atno 17321 bound_to 7965
  139.6731  143.9985  152.2765 LP  0  0  0  0  0  0  0  0  0  0  0  0  # atno 17342 bound_to 10162
  139.9590  144.6570  150.8097 LP  0  0  0  0  0  0  0  0  0  0  0  0  # atno 17343 bound_to 10162
  156.9247  130.5328  149.5279 LP  0  0  0  0  0  0  0  0  0  0  0  0  # atno 17370 bound_to 10713
  156.0568  130.5628  150.9108 LP  0  0  0  0  0  0  0  0  0  0  0  0  # atno 17371 bound_to 10713
  140.5360  134.0767  155.7328 LP  0  0  0  0  0  0  0  0  0  0  0  0  # atno 17394 bound_to 11000
  141.1357  133.9225  157.2438 LP  0  0  0  0  0  0  0  0  0  0  0  0  # atno 17395 bound_to 11000

$$$$
