AV-unprocessed.smi:249|AV-procd|sdf|1902|dock6
  -GOLD-   2262020583D 1   1.00000     0.00000
 Structure written by MMmdl.
 64 67  0  0  0  0  0  0  0  0  2 V2000
  151.9489  145.1427  159.3047 C   0  0  0  0  0  0  0  0  0  0  0  0
  151.8243  143.7184  159.8700 C   0  0  0  0  0  0  0  0  0  0  0  0
  151.7904  142.6610  158.8176 N   0  3  2  0  0  0  0  0  0  0  0  0
  150.5954  142.7979  157.9357 C   0  0  0  0  0  0  0  0  0  0  0  0
  150.6149  141.7976  156.7726 C   0  0  0  0  0  0  0  0  0  0  0  0
  150.6946  140.3561  157.3001 C   0  0  1  0  0  0  0  0  0  0  0  0
  150.6279  139.3406  156.2406 N   0  0  0  0  0  0  0  0  0  0  0  0
  151.4823  139.5374  155.0749 C   0  0  0  0  0  0  0  0  0  0  0  0
  150.5216  138.0450  156.6213 C   0  0  0  0  0  0  0  0  0  0  0  0
  151.4188  137.1302  156.1676 N   0  0  0  0  0  0  0  0  0  0  0  0
  151.3177  135.8511  156.5423 C   0  0  0  0  0  0  0  0  0  0  0  0
  150.4132  135.2852  157.3446 N   0  0  0  0  0  0  0  0  0  0  0  0
  149.5069  136.2008  157.7922 C   0  0  0  0  0  0  0  0  0  0  0  0
  149.4876  137.5888  157.4819 C   0  0  0  0  0  0  0  0  0  0  0  0
  148.4164  138.2048  158.1170 N   0  0  0  0  0  0  0  0  0  0  0  0
  147.8322  137.2336  158.7655 C   0  0  0  0  0  0  0  0  0  0  0  0
  148.4256  135.9984  158.6299 N   0  0  0  0  0  0  0  0  0  0  0  0
  147.9932  134.7507  159.2338 C   0  0  0  0  0  0  0  0  0  0  0  0
  146.4912  134.7447  159.6110 C   0  0  1  0  0  0  0  0  0  0  0  0
  145.7979  133.4032  159.2709 C   0  0  0  0  0  0  0  0  0  0  0  0
  146.1131  132.9759  157.9616 O   0  0  0  0  0  0  0  0  0  0  0  0
  146.2766  135.1676  161.0862 C   0  0  2  0  0  0  0  0  0  0  0  0
  147.1877  136.2800  161.5752 C   0  0  0  0  0  0  0  0  0  0  0  0
  147.0840  136.1357  163.0890 C   0  0  0  0  0  0  0  0  0  0  0  0
  146.9258  134.7424  163.3280 O   0  0  0  0  0  0  0  0  0  0  0  0
  146.5948  134.0749  162.1138 C   0  0  0  0  0  0  0  0  0  0  0  0
  151.9372  140.2369  158.2001 C   0  0  0  0  0  0  0  0  0  0  0  0
  151.9192  141.2652  159.3520 C   0  0  1  0  0  0  0  0  0  0  0  0
  153.1804  141.0545  160.2160 C   0  0  0  0  0  0  0  0  0  0  0  0
  152.1255  145.8560  160.1102 H   0  0  0  0  0  0  0  0  0  0  0  0
  151.0455  145.4695  158.7911 H   0  0  0  0  0  0  0  0  0  0  0  0
  152.7852  145.2202  158.6093 H   0  0  0  0  0  0  0  0  0  0  0  0
  152.6883  143.5837  160.5163 H   0  0  0  0  0  0  0  0  0  0  0  0
  150.9434  143.6368  160.5084 H   0  0  0  0  0  0  0  0  0  0  0  0
  149.6885  142.6641  158.5280 H   0  0  0  0  0  0  0  0  0  0  0  0
  150.5447  143.7968  157.5062 H   0  0  0  0  0  0  0  0  0  0  0  0
  149.7186  141.9347  156.1672 H   0  0  0  0  0  0  0  0  0  0  0  0
  151.4647  142.0173  156.1254 H   0  0  0  0  0  0  0  0  0  0  0  0
  149.8211  140.1843  157.9311 H   0  0  0  0  0  0  0  0  0  0  0  0
  151.1990  138.8570  154.2708 H   0  0  0  0  0  0  0  0  0  0  0  0
  152.5317  139.3642  155.3152 H   0  0  0  0  0  0  0  0  0  0  0  0
  151.3838  140.5558  154.6988 H   0  0  0  0  0  0  0  0  0  0  0  0
  152.0676  135.1851  156.1412 H   0  0  0  0  0  0  0  0  0  0  0  0
  146.9502  137.3925  159.3691 H   0  0  0  0  0  0  0  0  0  0  0  0
  148.2138  133.9363  158.5425 H   0  0  0  0  0  0  0  0  0  0  0  0
  148.6122  134.5809  160.1150 H   0  0  0  0  0  0  0  0  0  0  0  0
  146.0070  135.5007  158.9911 H   0  0  0  0  0  0  0  0  0  0  0  0
  146.0921  132.6243  159.9738 H   0  0  0  0  0  0  0  0  0  0  0  0
  144.7149  133.4898  159.3597 H   0  0  0  0  0  0  0  0  0  0  0  0
  145.3070  132.8087  157.4972 H   0  0  0  0  0  0  0  0  0  0  0  0
  145.2421  135.4841  161.2293 H   0  0  0  0  0  0  0  0  0  0  0  0
  148.2148  136.1040  161.2520 H   0  0  0  0  0  0  0  0  0  0  0  0
  146.8841  137.2690  161.2311 H   0  0  0  0  0  0  0  0  0  0  0  0
  147.9546  136.5354  163.6090 H   0  0  0  0  0  0  0  0  0  0  0  0
  146.1990  136.6540  163.4596 H   0  0  0  0  0  0  0  0  0  0  0  0
  145.7609  133.3882  162.2617 H   0  0  0  0  0  0  0  0  0  0  0  0
  147.4611  133.4893  161.8029 H   0  0  0  0  0  0  0  0  0  0  0  0
  151.9851  139.2283  158.6125 H   0  0  0  0  0  0  0  0  0  0  0  0
  152.8466  140.3772  157.6139 H   0  0  0  0  0  0  0  0  0  0  0  0
  151.0467  141.0632  159.9756 H   0  0  0  0  0  0  0  0  0  0  0  0
  153.3190  139.9982  160.4492 H   0  0  0  0  0  0  0  0  0  0  0  0
  153.1185  141.5656  161.1761 H   0  0  0  0  0  0  0  0  0  0  0  0
  154.0792  141.3958  159.7013 H   0  0  0  0  0  0  0  0  0  0  0  0
  152.6003  142.8149  158.2338 H   0  0  0  0  0  0  0  0  0  0  0  0
  1  2  1  0  0  0  0
  1 30  1  0  0  0  0
  1 31  1  0  0  0  0
  1 32  1  0  0  0  0
  2  3  1  0  0  0  0
  2 33  1  0  0  0  0
  2 34  1  0  0  0  0
  3 28  1  0  0  0  0
  3  4  1  0  0  0  0
  3 64  1  0  0  0  0
  4  5  1  0  0  0  0
  4 35  1  0  0  0  0
  4 36  1  0  0  0  0
  5  6  1  0  0  0  0
  5 37  1  0  0  0  0
  5 38  1  0  0  0  0
  6  7  1  0  0  0  0
  6 27  1  0  0  0  0
  6 39  1  0  0  0  0
  7  8  1  0  0  0  0
  7  9  1  0  0  0  0
  8 40  1  0  0  0  0
  8 41  1  0  0  0  0
  8 42  1  0  0  0  0
  9 14  1  0  0  0  0
  9 10  2  0  0  0  0
 10 11  1  0  0  0  0
 11 12  2  0  0  0  0
 11 43  1  0  0  0  0
 12 13  1  0  0  0  0
 13 17  1  0  0  0  0
 13 14  2  0  0  0  0
 14 15  1  0  0  0  0
 15 16  2  0  0  0  0
 16 17  1  0  0  0  0
 16 44  1  0  0  0  0
 17 18  1  0  0  0  0
 18 19  1  0  0  0  0
 18 45  1  0  0  0  0
 18 46  1  0  0  0  0
 19 20  1  0  0  0  0
 19 22  1  0  0  0  0
 19 47  1  0  0  0  0
 20 21  1  0  0  0  0
 20 48  1  0  0  0  0
 20 49  1  0  0  0  0
 21 50  1  0  0  0  0
 22 26  1  0  0  0  0
 22 23  1  0  0  0  0
 22 51  1  0  0  0  0
 23 24  1  0  0  0  0
 23 52  1  0  0  0  0
 23 53  1  0  0  0  0
 24 25  1  0  0  0  0
 24 54  1  0  0  0  0
 24 55  1  0  0  0  0
 25 26  1  0  0  0  0
 26 56  1  0  0  0  0
 26 57  1  0  0  0  0
 27 28  1  0  0  0  0
 27 58  1  0  0  0  0
 27 59  1  0  0  0  0
 28 29  1  0  0  0  0
 28 60  1  0  0  0  0
 29 61  1  0  0  0  0
 29 62  1  0  0  0  0
 29 63  1  0  0  0  0
M  CHG  1   3   1
M  END
> <s_m_source_file>
AV-unprocessed.smi

> <i_m_source_file_index>
249

> <i_lp_mmshare_version>
43012

> <i_f3d_flags>
0

> <s_epik_input>
W0NIM11bQ0gyXU4xW0NIMl1bQ0gyXVtDQEhdKFtDSDJdW0NASF0xW0NIM10pTihbQ0gzXSljKG5bY0hdbjIpYyhjMjMpbltjSF1uM1tDSDJdW0NASF0oW0NIMl1bT0hdKVtDQEBIXTRbQ0gyXVtDSDJdT1tDSDJdNA==

> <s_epik_cmdline>
J2VwaWtfcHl0aG9uJywgJy1waCcsICc3LjAnLCAnLXRuJywgJzgnLCAnLW1hJywgJzIwMCcsICctbWV0YWxfYmluZGluZycsICctaW1hZScsICc8aW5maWxlLm1hZT4nLCAnLW9tYWUnLCAnPG91dGZpbGUubWFlPic=

> <r_lp_tautomer_probability>
1

> <r_epik_Ionization_Penalty>
0.00294688

> <r_epik_Ionization_Penalty_Charging>
0.00169971

> <r_epik_Ionization_Penalty_Neutral>
0.00124717

> <r_epik_State_Penalty>
-0

> <r_epik_Charging_Adjusted_Penalty>
0.00169971

> <i_epik_Tot_Q>
1

> <i_epik_Tot_abs_Q>
1

> <r_epik_Metal_State_Penalty>
-0

> <b_epik_Metal_Only>
0

> <s_lp_Force_Field>
OPLS_2005

> <r_lp_Energy>
53.6229

> <b_lp_Chiralities_Consistent>
1

> <s_lp_Variant>
AV-unprocessed.smi:249-5

> <Gold.Version>
5.8.1

> <Gold.Id.Protein>
6NUR|6NUR_protein|mol2

> <Gold.PLP.Fitness>
45.6136

> <Gold.PLP.PLP>
-47.1132

> <Gold.PLP.part.hbond>
-3.0000

> <Gold.PLP.part.metal>
0.0000

> <Gold.PLP.part.buried>
-5.3523

> <Gold.PLP.part.nonpolar>
-39.7581

> <Gold.PLP.part.repulsive>
0.1169

> <Gold.PLP.ligand.clash>
0.0000

> <Gold.PLP.ligand.torsion>
1.5622

> <Gold.PLP.Chemscore.Hbond>
0.2425

> <Gold.PLP.Chemscore.CHOScore>
0.0000

> <Gold.PLP.Chemscore.Metal>
0.0000

> <Gold.Chemscore.Hbonds>
donor molecule, donor type, donor heavy atom, donor atom, acceptor molecule, acceptor atom, score
      P1  H  6896  6907       L1    12  0.14

> <Gold.PLP.Chemscore.Internal.Correction>
0.8973

> <Gold.Rescore>
     Score         DG    S(hbond)    S(metal)    S(lipo)     H(rot)  DE(clash)    DE(int)     intcor
      9.75     -12.40       0.03        0.00     121.87       2.90       0.04       2.62       ----

> <Gold.Chemscore.Fitness>
9.7458

> <Gold.Chemscore.DG>
-12.4049

> <Gold.Chemscore.ZeroCoef>
-5.4800

> <Gold.Chemscore.Hbond>
0.0275

> <Gold.Chemscore.Metal>
0.0000

> <Gold.Chemscore.Lipo>
121.8682

> <Gold.Chemscore.Internal_Hbond>
0.0000

> <Gold.Chemscore.DEClash>
0.0425

> <Gold.Chemscore.DEInternal>
2.6166

> <Gold.Chemscore.Rot>
2.9006

> <Gold.Chemscore.Internal.Correction>
   9.000000E+99

> <Gold.Chemscore.Hbonds>
donor molecule, donor type, donor heavy atom, donor atom, acceptor molecule, acceptor atom, score
      P1  H  6896  6907       L1    12  0.02

> <Gold.Chemscore.Hbond.Weighted>
-0.0920

> <Gold.Chemscore.Metal.Weighted>
-0.0000

> <Gold.Chemscore.Lipo.Weighted>
-14.2586

> <Gold.Chemscore.Internal_Hbond.Weighted>
0.0000

> <Gold.Chemscore.DEClash.Weighted>
0.0425

> <Gold.Chemscore.DEInternal.Weighted>
2.6166

> <Gold.Chemscore.Rot.Weighted>
7.4256

> <Gold.Chemscore.Internal.Correction.Weighted>
   9.000000E+99

> <Gold.Protein.RotatedTorsions>
[ 6907 6896 6895 6894 ] final  -96.67 input  -60.11 | X-H torsion
[ 7974 7965 7964 7962 ] final  -63.38 input  175.53 | X-H torsion
[ 8008 7997 7996 7995 ] final -147.83 input   59.86 | X-H torsion
[ 10167 10162 10161 10158 ] final -141.67 input  -65.29 | X-H torsion
[ 10718 10713 10712 10709 ] final   -1.54 input   66.30 | X-H torsion
[ 10763 10752 10751 10750 ] final   72.78 input  -60.55 | X-H torsion
[ 11005 11000 10999 10996 ] final -161.05 input  -57.11 | X-H torsion

> <Gold.Protein.ActiveResidues>
 VAL166  LYS551  ARG553  GLY616  TRP617  ASP618  TYR619  PRO620  LYS621  CYS622 
 ASP623  PHE694  ASN695  SER759  ASP760  ASP761  ALA762  ILE779  LEU786  VAL792 
 PHE793  MET794  SER795  GLU796  ALA797  LYS798  CYS799  TRP800  GLU811  SER814 

> <Gold.Protein.RotatedAtoms>
  150.6995  134.1467  159.4125 H   0  0  0  0  0  0  0  0  0  0  0  0  # atno 6907 bound_to 6896
  151.9451  135.0193  160.0547 H   0  0  0  0  0  0  0  0  0  0  0  0  # atno 6908 bound_to 6896
  152.2060  133.4840  159.5121 H   0  0  0  0  0  0  0  0  0  0  0  0  # atno 6909 bound_to 6896
  145.7797  140.8768  143.0337 H   0  0  0  0  0  0  0  0  0  0  0  0  # atno 7974 bound_to 7965
  155.5818  140.0644  157.2781 H   0  0  0  0  0  0  0  0  0  0  0  0  # atno 8008 bound_to 7997
  154.4330  140.1851  156.1031 H   0  0  0  0  0  0  0  0  0  0  0  0  # atno 8009 bound_to 7997
  156.0299  140.3307  155.7132 H   0  0  0  0  0  0  0  0  0  0  0  0  # atno 8010 bound_to 7997
  139.8162  143.7636  152.2665 H   0  0  0  0  0  0  0  0  0  0  0  0  # atno 10167 bound_to 10162
  156.8041  130.5402  149.5717 H   0  0  0  0  0  0  0  0  0  0  0  0  # atno 10718 bound_to 10713
  153.0480  135.5087  154.7795 H   0  0  0  0  0  0  0  0  0  0  0  0  # atno 10763 bound_to 10752
  154.6679  135.2948  154.9783 H   0  0  0  0  0  0  0  0  0  0  0  0  # atno 10764 bound_to 10752
  154.0611  135.6691  153.4864 H   0  0  0  0  0  0  0  0  0  0  0  0  # atno 10765 bound_to 10752
  140.6247  134.4713  157.5226 H   0  0  0  0  0  0  0  0  0  0  0  0  # atno 11005 bound_to 11000
  144.6798  139.9972  143.7484 LP  0  0  0  0  0  0  0  0  0  0  0  0  # atno 17320 bound_to 7965
  146.0086  139.3151  143.0884 LP  0  0  0  0  0  0  0  0  0  0  0  0  # atno 17321 bound_to 7965
  139.7800  144.7448  151.0102 LP  0  0  0  0  0  0  0  0  0  0  0  0  # atno 17342 bound_to 10162
  140.7815  143.4553  151.0355 LP  0  0  0  0  0  0  0  0  0  0  0  0  # atno 17343 bound_to 10162
  156.1083  130.6021  151.0007 LP  0  0  0  0  0  0  0  0  0  0  0  0  # atno 17370 bound_to 10713
  157.6539  131.0892  150.7991 LP  0  0  0  0  0  0  0  0  0  0  0  0  # atno 17371 bound_to 10713
  139.9139  134.8286  156.1432 LP  0  0  0  0  0  0  0  0  0  0  0  0  # atno 17394 bound_to 11000
  141.0717  133.6793  156.2154 LP  0  0  0  0  0  0  0  0  0  0  0  0  # atno 17395 bound_to 11000

$$$$
