AV-unprocessed.smi:2445|AV-procd|sdf|9638|dock9
  -GOLD-   2272013273D 1   1.00000     0.00000
 Structure written by MMmdl.
 40 41  0  0  0  0  0  0  0  0  1 V2000
  146.4338  140.7754  154.7780 C   0  0  0  0  0  0  0  0  0  0  0  0
  147.8649  140.3587  154.8174 C   0  0  0  0  0  0  0  0  0  0  0  0
  148.9495  141.1128  155.1909 C   0  0  0  0  0  0  0  0  0  0  0  0
  150.1643  140.4279  155.1207 N   0  0  0  0  0  0  0  0  0  0  0  0
  150.0191  139.1682  154.7005 C   0  0  0  0  0  0  0  0  0  0  0  0
  151.1682  138.2230  154.5130 C   0  0  1  0  0  0  0  0  0  0  0  0
  152.5114  138.8758  154.8695 C   0  0  0  0  0  0  0  0  0  0  0  0
  150.9603  136.8760  155.2405 C   0  0  0  0  0  0  0  0  0  0  0  0
  150.1487  135.9365  154.4715 N   0  0  0  0  0  0  0  0  0  0  0  0
  149.7381  134.7396  154.9111 C   0  0  0  0  0  0  0  0  0  0  0  0
  149.9625  134.3059  156.0411 O   0  0  0  0  0  0  0  0  0  0  0  0
  149.0621  134.0705  153.9671 N   0  0  0  0  0  0  0  0  0  0  0  0
  148.5202  132.7192  154.1118 C   0  0  2  0  0  0  0  0  0  0  0  0
  149.6261  131.7371  154.4945 C   0  0  0  0  0  0  0  0  0  0  0  0
  149.4326  130.5687  153.5345 C   0  0  0  0  0  0  0  0  0  0  0  0
  148.9126  131.1892  152.3723 O   0  0  0  0  0  0  0  0  0  0  0  0
  147.9427  132.1341  152.8013 C   0  0  2  0  0  0  0  0  0  0  0  0
  147.6235  133.1158  151.6625 C   0  0  0  0  0  0  0  0  0  0  0  0
  148.3434  138.7460  154.3572 S   0  0  0  0  0  0  0  0  0  0  0  0
  146.3130  141.8013  155.1265 H   0  0  0  0  0  0  0  0  0  0  0  0
  145.8263  140.1309  155.4134 H   0  0  0  0  0  0  0  0  0  0  0  0
  146.0411  140.7167  153.7628 H   0  0  0  0  0  0  0  0  0  0  0  0
  148.9484  142.1416  155.5198 H   0  0  0  0  0  0  0  0  0  0  0  0
  151.2155  138.0009  153.4456 H   0  0  0  0  0  0  0  0  0  0  0  0
  152.6755  139.7805  154.2835 H   0  0  0  0  0  0  0  0  0  0  0  0
  153.3414  138.1981  154.6680 H   0  0  0  0  0  0  0  0  0  0  0  0
  152.5551  139.1489  155.9241 H   0  0  0  0  0  0  0  0  0  0  0  0
  151.9208  136.4230  155.4909 H   0  0  0  0  0  0  0  0  0  0  0  0
  150.4459  137.0464  156.1866 H   0  0  0  0  0  0  0  0  0  0  0  0
  149.9117  136.2048  153.5275 H   0  0  0  0  0  0  0  0  0  0  0  0
  148.9265  134.5184  153.0728 H   0  0  0  0  0  0  0  0  0  0  0  0
  147.7449  132.7053  154.8803 H   0  0  0  0  0  0  0  0  0  0  0  0
  150.6119  132.1751  154.3296 H   0  0  0  0  0  0  0  0  0  0  0  0
  149.5732  131.4280  155.5388 H   0  0  0  0  0  0  0  0  0  0  0  0
  150.3596  130.0336  153.3279 H   0  0  0  0  0  0  0  0  0  0  0  0
  148.7040  129.8574  153.9272 H   0  0  0  0  0  0  0  0  0  0  0  0
  147.0351  131.5785  153.0441 H   0  0  0  0  0  0  0  0  0  0  0  0
  146.8820  133.8513  151.9750 H   0  0  0  0  0  0  0  0  0  0  0  0
  147.2182  132.5859  150.8004 H   0  0  0  0  0  0  0  0  0  0  0  0
  148.5131  133.6506  151.3291 H   0  0  0  0  0  0  0  0  0  0  0  0
  1  2  1  0  0  0  0
  1 20  1  0  0  0  0
  1 21  1  0  0  0  0
  1 22  1  0  0  0  0
  2 19  1  0  0  0  0
  2  3  2  0  0  0  0
  3  4  1  0  0  0  0
  3 23  1  0  0  0  0
  4  5  2  0  0  0  0
  5  6  1  0  0  0  0
  5 19  1  0  0  0  0
  6  7  1  0  0  0  0
  6  8  1  0  0  0  0
  6 24  1  0  0  0  0
  7 25  1  0  0  0  0
  7 26  1  0  0  0  0
  7 27  1  0  0  0  0
  8  9  1  0  0  0  0
  8 28  1  0  0  0  0
  8 29  1  0  0  0  0
  9 10  1  0  0  0  0
  9 30  1  0  0  0  0
 10 11  2  0  0  0  0
 10 12  1  0  0  0  0
 12 13  1  0  0  0  0
 12 31  1  0  0  0  0
 13 17  1  0  0  0  0
 13 14  1  0  0  0  0
 13 32  1  0  0  0  0
 14 15  1  0  0  0  0
 14 33  1  0  0  0  0
 14 34  1  0  0  0  0
 15 16  1  0  0  0  0
 15 35  1  0  0  0  0
 15 36  1  0  0  0  0
 16 17  1  0  0  0  0
 17 18  1  0  0  0  0
 17 37  1  0  0  0  0
 18 38  1  0  0  0  0
 18 39  1  0  0  0  0
 18 40  1  0  0  0  0
M  END
> <s_m_source_file>
AV-unprocessed.smi

> <i_m_source_file_index>
2445

> <i_lp_mmshare_version>
43012

> <i_f3d_flags>
0

> <s_epik_input>
W0NIM11jMVtjSF1uYyhzMSlbQ0BIXShbQ0gzXSlbQ0gyXVtOSF1DKD1PKVtOSF1bQ0BASF0yW0NIMl1bQ0gyXU9bQ0BIXTJbQ0gzXQ==

> <s_epik_cmdline>
J2VwaWtfcHl0aG9uJywgJy1waCcsICc3LjAnLCAnLXRuJywgJzgnLCAnLW1hJywgJzIwMCcsICctbWV0YWxfYmluZGluZycsICctaW1hZScsICc8aW5maWxlLm1hZT4nLCAnLW9tYWUnLCAnPG91dGZpbGUubWFlPic=

> <r_epik_Ionization_Penalty>
0.000649483

> <r_epik_Ionization_Penalty_Charging>
0

> <r_epik_Ionization_Penalty_Neutral>
0.000649483

> <r_epik_State_Penalty>
0.000379895

> <r_epik_Charging_Adjusted_Penalty>
0.000379895

> <i_epik_Tot_Q>
0

> <i_epik_Tot_abs_Q>
0

> <r_epik_Metal_State_Penalty>
-0

> <b_epik_Metal_Only>
0

> <s_lp_Force_Field>
OPLS_2005

> <r_lp_Energy>
6.13351

> <b_lp_Chiralities_Consistent>
1

> <s_lp_Variant>
AV-unprocessed.smi:2445-6

> <Gold.Version>
5.8.1

> <Gold.Id.Protein>
6NUR|6NUR_protein|mol2

> <Gold.PLP.Fitness>
44.8867

> <Gold.PLP.PLP>
-34.0744

> <Gold.PLP.part.hbond>
-3.4532

> <Gold.PLP.part.metal>
0.0000

> <Gold.PLP.part.buried>
-3.3602

> <Gold.PLP.part.nonpolar>
-30.7513

> <Gold.PLP.part.repulsive>
3.5653

> <Gold.PLP.ligand.clash>
0.0000

> <Gold.PLP.ligand.torsion>
0.4125

> <Gold.PLP.Chemscore.Hbond>
2.8500

> <Gold.PLP.Chemscore.CHOScore>
1.0000

> <Gold.PLP.Chemscore.Metal>
0.0000

> <Gold.Chemscore.Hbonds>
donor molecule, donor type, donor heavy atom, donor atom, acceptor molecule, acceptor atom, score
      L1  H     9    30       P1  7948  0.75
      L1  H    12    31       P1  7948  0.58
      P1  H  7989  7998       L1     4  0.30
      L1  C     3    23       P1  8028  0.88

> <Gold.PLP.Chemscore.Internal.Correction>
0.0873

> <Gold.Rescore>
     Score         DG    S(hbond)    S(metal)    S(lipo)     H(rot)  DE(clash)    DE(int)     intcor
     13.40     -15.18       1.23        0.00      81.30       1.53       0.30       1.47       ----

> <Gold.Chemscore.Fitness>
13.4015

> <Gold.Chemscore.DG>
-15.1773

> <Gold.Chemscore.ZeroCoef>
-5.4800

> <Gold.Chemscore.Hbond>
1.2299

> <Gold.Chemscore.Metal>
0.0000

> <Gold.Chemscore.Lipo>
81.3045

> <Gold.Chemscore.Internal_Hbond>
0.0000

> <Gold.Chemscore.DEClash>
0.3015

> <Gold.Chemscore.DEInternal>
1.4742

> <Gold.Chemscore.Rot>
1.5325

> <Gold.Chemscore.Internal.Correction>
   9.000000E+99

> <Gold.Chemscore.Hbonds>
donor molecule, donor type, donor heavy atom, donor atom, acceptor molecule, acceptor atom, score
      L1  H     9    30       P1  7948  0.09
      L1  H    12    31       P1  7948  0.04
      P1  H  7989  7998       L1     4  0.02

> <Gold.Chemscore.Hbond.Weighted>
-4.1080

> <Gold.Chemscore.Metal.Weighted>
-0.0000

> <Gold.Chemscore.Lipo.Weighted>
-9.5126

> <Gold.Chemscore.Internal_Hbond.Weighted>
0.0000

> <Gold.Chemscore.DEClash.Weighted>
0.3015

> <Gold.Chemscore.DEInternal.Weighted>
1.4742

> <Gold.Chemscore.Rot.Weighted>
3.9233

> <Gold.Chemscore.Internal.Correction.Weighted>
   9.000000E+99

> <Gold.Protein.RotatedTorsions>
[ 6907 6896 6895 6894 ] final   31.74 input  -60.11 | X-H torsion
[ 7974 7965 7964 7962 ] final  143.91 input  175.53 | X-H torsion
[ 8008 7997 7996 7995 ] final    9.73 input   59.86 | X-H torsion
[ 10167 10162 10161 10158 ] final -100.01 input  -65.29 | X-H torsion
[ 10718 10713 10712 10709 ] final   22.53 input   66.30 | X-H torsion
[ 10763 10752 10751 10750 ] final   85.82 input  -60.55 | X-H torsion
[ 11005 11000 10999 10996 ] final  -26.60 input  -57.11 | X-H torsion

> <Gold.Protein.ActiveResidues>
 VAL166  LYS551  ARG553  GLY616  TRP617  ASP618  TYR619  PRO620  LYS621  CYS622 
 ASP623  PHE694  ASN695  SER759  ASP760  ASP761  ALA762  ILE779  LEU786  VAL792 
 PHE793  MET794  SER795  GLU796  ALA797  LYS798  CYS799  TRP800  GLU811  SER814 

> <Gold.Protein.RotatedAtoms>
  152.0646  134.9572  160.0574 H   0  0  0  0  0  0  0  0  0  0  0  0  # atno 6907 bound_to 6896
  152.0922  133.4201  159.4557 H   0  0  0  0  0  0  0  0  0  0  0  0  # atno 6908 bound_to 6896
  150.6837  134.2778  159.4658 H   0  0  0  0  0  0  0  0  0  0  0  0  # atno 6909 bound_to 6896
  144.8881  139.5599  143.5811 H   0  0  0  0  0  0  0  0  0  0  0  0  # atno 7974 bound_to 7965
  154.7839  140.2824  155.6042 H   0  0  0  0  0  0  0  0  0  0  0  0  # atno 8008 bound_to 7997
  156.2954  140.2618  156.2599 H   0  0  0  0  0  0  0  0  0  0  0  0  # atno 8009 bound_to 7997
  154.9751  140.0375  157.2242 H   0  0  0  0  0  0  0  0  0  0  0  0  # atno 8010 bound_to 7997
  140.2564  143.3437  152.0667 H   0  0  0  0  0  0  0  0  0  0  0  0  # atno 10167 bound_to 10162
  157.1536  130.6685  149.6020 H   0  0  0  0  0  0  0  0  0  0  0  0  # atno 10718 bound_to 10713
  153.1511  135.4603  154.9638 H   0  0  0  0  0  0  0  0  0  0  0  0  # atno 10763 bound_to 10752
  154.7825  135.3193  154.7960 H   0  0  0  0  0  0  0  0  0  0  0  0  # atno 10764 bound_to 10752
  153.8466  135.6925  153.4851 H   0  0  0  0  0  0  0  0  0  0  0  0  # atno 10765 bound_to 10752
  140.9044  133.7502  156.0586 H   0  0  0  0  0  0  0  0  0  0  0  0  # atno 11005 bound_to 11000
  146.3037  139.7508  142.9072 LP  0  0  0  0  0  0  0  0  0  0  0  0  # atno 17320 bound_to 7965
  145.3833  141.0361  143.3165 LP  0  0  0  0  0  0  0  0  0  0  0  0  # atno 17321 bound_to 7965
  139.5030  144.6746  151.6159 LP  0  0  0  0  0  0  0  0  0  0  0  0  # atno 17342 bound_to 10162
  140.6000  143.9627  150.6380 LP  0  0  0  0  0  0  0  0  0  0  0  0  # atno 17343 bound_to 10162
  155.9766  130.4736  150.6539 LP  0  0  0  0  0  0  0  0  0  0  0  0  # atno 17370 bound_to 10713
  157.4198  131.0835  151.1142 LP  0  0  0  0  0  0  0  0  0  0  0  0  # atno 17371 bound_to 10713
  140.8189  134.3312  157.5388 LP  0  0  0  0  0  0  0  0  0  0  0  0  # atno 17394 bound_to 11000
  139.8747  134.9298  156.3485 LP  0  0  0  0  0  0  0  0  0  0  0  0  # atno 17395 bound_to 11000

$$$$
