AV-unprocessed.smi:2189|AV-procd|sdf|8886|dock2
  -GOLD-   2272012 83D 1   1.00000     0.00000
 Structure written by MMmdl.
 38 40  0  0  0  0  0  0  0  0  2 V2000
  153.0182  137.3600  159.6876 O   0  0  0  0  0  0  0  0  0  0  0  0
  153.6178  137.7985  160.6780 C   0  0  0  0  0  0  0  0  0  0  0  0
  153.9410  139.1119  160.8870 N   0  5  0  0  0  0  0  0  0  0  0  0
  153.4372  140.2498  160.1125 C   0  0  0  0  0  0  0  0  0  0  0  0
  153.9794  141.5768  160.6942 C   0  0  0  0  0  0  0  0  0  0  0  0
  153.2605  142.8375  160.2164 C   0  0  0  0  0  0  0  0  0  0  0  0
  153.1589  143.1254  158.8360 C   0  0  0  0  0  0  0  0  0  0  0  0
  152.4842  144.2944  158.4365 C   0  0  0  0  0  0  0  0  0  0  0  0
  151.9460  145.1382  159.4264 C   0  0  0  0  0  0  0  0  0  0  0  0
  152.1103  144.7743  160.7775 C   0  0  0  0  0  0  0  0  0  0  0  0
  152.7558  143.6561  161.1722 N   0  0  0  0  0  0  0  0  0  0  0  0
  154.0565  136.8531  161.7220 C   0  0  0  0  0  0  0  0  0  0  0  0
  154.1112  137.2896  163.0080 C   0  0  0  0  0  0  0  0  0  0  0  0
  154.5174  136.4266  164.0888 C   0  0  0  0  0  0  0  0  0  0  0  0
  154.8764  135.1737  163.7899 C   0  0  0  0  0  0  0  0  0  0  0  0
  154.8761  134.6682  162.4908 N   0  0  0  0  0  0  0  0  0  0  0  0
  155.3922  133.3162  162.3078 C   0  0  0  0  0  0  0  0  0  0  0  0
  154.5370  132.5542  161.3123 C   0  0  0  0  0  0  0  0  0  0  0  0
  154.7137  133.4404  159.7229 S   0  0  0  0  0  0  0  0  0  0  0  0
  156.1366  133.4259  159.3490 O   0  0  0  0  0  0  0  0  0  0  0  0
  153.7162  132.9006  158.7863 O   0  0  0  0  0  0  0  0  0  0  0  0
  154.2807  134.9897  160.1885 N   0  0  0  0  0  0  0  0  0  0  0  0
  154.4171  135.4568  161.3977 C   0  0  0  0  0  0  0  0  0  0  0  0
  153.7006  140.1966  159.0553 H   0  0  0  0  0  0  0  0  0  0  0  0
  152.3476  140.2805  160.1390 H   0  0  0  0  0  0  0  0  0  0  0  0
  153.9102  141.5392  161.7819 H   0  0  0  0  0  0  0  0  0  0  0  0
  155.0435  141.6691  160.4722 H   0  0  0  0  0  0  0  0  0  0  0  0
  153.5780  142.4550  158.1002 H   0  0  0  0  0  0  0  0  0  0  0  0
  152.3809  144.5382  157.3897 H   0  0  0  0  0  0  0  0  0  0  0  0
  151.4206  146.0421  159.1570 H   0  0  0  0  0  0  0  0  0  0  0  0
  151.7131  145.3999  161.5633 H   0  0  0  0  0  0  0  0  0  0  0  0
  153.8593  138.3098  163.2594 H   0  0  0  0  0  0  0  0  0  0  0  0
  154.5313  136.7823  165.1081 H   0  0  0  0  0  0  0  0  0  0  0  0
  155.1916  134.4798  164.5554 H   0  0  0  0  0  0  0  0  0  0  0  0
  156.4285  133.3682  161.9727 H   0  0  0  0  0  0  0  0  0  0  0  0
  155.3973  132.7736  163.2534 H   0  0  0  0  0  0  0  0  0  0  0  0
  154.8818  131.5289  161.1822 H   0  0  0  0  0  0  0  0  0  0  0  0
  153.4860  132.5355  161.6029 H   0  0  0  0  0  0  0  0  0  0  0  0
  1  2  2  0  0  0  0
  2  3  1  0  0  0  0
  2 12  1  0  0  0  0
  3  4  1  0  0  0  0
  4  5  1  0  0  0  0
  4 24  1  0  0  0  0
  4 25  1  0  0  0  0
  5  6  1  0  0  0  0
  5 26  1  0  0  0  0
  5 27  1  0  0  0  0
  6 11  1  0  0  0  0
  6  7  2  0  0  0  0
  7  8  1  0  0  0  0
  7 28  1  0  0  0  0
  8  9  2  0  0  0  0
  8 29  1  0  0  0  0
  9 10  1  0  0  0  0
  9 30  1  0  0  0  0
 10 11  2  0  0  0  0
 10 31  1  0  0  0  0
 12 23  1  0  0  0  0
 12 13  2  0  0  0  0
 13 14  1  0  0  0  0
 13 32  1  0  0  0  0
 14 15  2  0  0  0  0
 14 33  1  0  0  0  0
 15 16  1  0  0  0  0
 15 34  1  0  0  0  0
 16 23  1  0  0  0  0
 16 17  1  0  0  0  0
 17 18  1  0  0  0  0
 17 35  1  0  0  0  0
 17 36  1  0  0  0  0
 18 19  1  0  0  0  0
 18 37  1  0  0  0  0
 18 38  1  0  0  0  0
 19 20  2  0  0  0  0
 19 21  2  0  0  0  0
 19 22  1  0  0  0  0
 22 23  2  0  0  0  0
M  CHG  1   3  -1
M  END
> <s_m_source_file>
AV-unprocessed.smi

> <i_m_source_file_index>
2189

> <i_lp_mmshare_version>
43012

> <i_f3d_flags>
0

> <s_epik_input>
W0NIMl0xW0NIMl1TKD1PKSg9TylOPUMoTjEyKUMoPVtDSF1bQ0hdPVtDSF0yKUMoPU8pW05IXVtDSDJdW0NIMl1jM1tjSF1bY0hdW2NIXVtjSF1uMw==

> <s_epik_cmdline>
J2VwaWtfcHl0aG9uJywgJy1waCcsICc3LjAnLCAnLXRuJywgJzgnLCAnLW1hJywgJzIwMCcsICctbWV0YWxfYmluZGluZycsICctaW1hZScsICc8aW5maWxlLm1hZT4nLCAnLW9tYWUnLCAnPG91dGZpbGUubWFlPic=

> <r_epik_Ionization_Penalty>
5.6695

> <r_epik_Ionization_Penalty_Charging>
5.5942

> <r_epik_Ionization_Penalty_Neutral>
0.0753022

> <r_epik_State_Penalty>
5.60818

> <r_epik_Charging_Adjusted_Penalty>
11.2024

> <i_epik_Tot_Q>
-1

> <i_epik_Tot_abs_Q>
1

> <r_epik_Metal_State_Penalty>
1.61782

> <b_epik_Metal_Only>
1

> <s_lp_Force_Field>
OPLS_2005

> <r_lp_Energy>
39.8175

> <b_lp_Chiralities_Consistent>
1

> <s_lp_Variant>
AV-unprocessed.smi:2189-3

> <Gold.Version>
5.8.1

> <Gold.Id.Protein>
6NUR|6NUR_protein|mol2

> <Gold.PLP.Fitness>
52.1898

> <Gold.PLP.PLP>
-49.7600

> <Gold.PLP.part.hbond>
-1.7336

> <Gold.PLP.part.metal>
0.0000

> <Gold.PLP.part.buried>
-6.0316

> <Gold.PLP.part.nonpolar>
-43.1425

> <Gold.PLP.part.repulsive>
0.1070

> <Gold.PLP.ligand.clash>
0.0000

> <Gold.PLP.ligand.torsion>
0.5050

> <Gold.PLP.Chemscore.Hbond>
0.9913

> <Gold.PLP.Chemscore.CHOScore>
0.0000

> <Gold.PLP.Chemscore.Metal>
0.0000

> <Gold.Chemscore.Hbonds>
donor molecule, donor type, donor heavy atom, donor atom, acceptor molecule, acceptor atom, score
      P1  H  6896  6908       L1    21  0.80

> <Gold.PLP.Chemscore.Internal.Correction>
0.4661

> <Gold.Rescore>
     Score         DG    S(hbond)    S(metal)    S(lipo)     H(rot)  DE(clash)    DE(int)     intcor
     16.66     -18.68       0.85        0.00     120.07       1.44       0.05       1.96       ----

> <Gold.Chemscore.Fitness>
16.6634

> <Gold.Chemscore.DG>
-18.6802

> <Gold.Chemscore.ZeroCoef>
-5.4800

> <Gold.Chemscore.Hbond>
0.8523

> <Gold.Chemscore.Metal>
0.0000

> <Gold.Chemscore.Lipo>
120.0715

> <Gold.Chemscore.Internal_Hbond>
0.0000

> <Gold.Chemscore.DEClash>
0.0532

> <Gold.Chemscore.DEInternal>
1.9636

> <Gold.Chemscore.Rot>
1.4433

> <Gold.Chemscore.Internal.Correction>
   9.000000E+99

> <Gold.Chemscore.Hbonds>
donor molecule, donor type, donor heavy atom, donor atom, acceptor molecule, acceptor atom, score
      P1  H  6896  6908       L1    21  0.12

> <Gold.Chemscore.Hbond.Weighted>
-2.8467

> <Gold.Chemscore.Metal.Weighted>
-0.0000

> <Gold.Chemscore.Lipo.Weighted>
-14.0484

> <Gold.Chemscore.Internal_Hbond.Weighted>
0.0000

> <Gold.Chemscore.DEClash.Weighted>
0.0532

> <Gold.Chemscore.DEInternal.Weighted>
1.9636

> <Gold.Chemscore.Rot.Weighted>
3.6949

> <Gold.Chemscore.Internal.Correction.Weighted>
   9.000000E+99

> <Gold.Protein.RotatedTorsions>
[ 6907 6896 6895 6894 ] final   12.94 input  -60.11 | X-H torsion
[ 7974 7965 7964 7962 ] final -145.12 input  175.53 | X-H torsion
[ 8008 7997 7996 7995 ] final   77.01 input   59.86 | X-H torsion
[ 10167 10162 10161 10158 ] final -105.99 input  -65.29 | X-H torsion
[ 10718 10713 10712 10709 ] final  118.70 input   66.30 | X-H torsion
[ 10763 10752 10751 10750 ] final   52.87 input  -60.55 | X-H torsion
[ 11005 11000 10999 10996 ] final -133.95 input  -57.11 | X-H torsion

> <Gold.Protein.ActiveResidues>
 VAL166  LYS551  ARG553  GLY616  TRP617  ASP618  TYR619  PRO620  LYS621  CYS622 
 ASP623  PHE694  ASN695  SER759  ASP760  ASP761  ALA762  ILE779  LEU786  VAL792 
 PHE793  MET794  SER795  GLU796  ALA797  LYS798  CYS799  TRP800  GLU811  SER814 

> <Gold.Protein.RotatedAtoms>
  151.7783  135.0768  160.0369 H   0  0  0  0  0  0  0  0  0  0  0  0  # atno 6907 bound_to 6896
  152.3241  133.5881  159.5773 H   0  0  0  0  0  0  0  0  0  0  0  0  # atno 6908 bound_to 6896
  150.7385  133.9883  159.3640 H   0  0  0  0  0  0  0  0  0  0  0  0  # atno 6909 bound_to 6896
  144.8250  140.5624  143.5553 H   0  0  0  0  0  0  0  0  0  0  0  0  # atno 7974 bound_to 7965
  155.8355  140.3464  155.5599 H   0  0  0  0  0  0  0  0  0  0  0  0  # atno 8008 bound_to 7997
  155.8196  140.0911  157.1876 H   0  0  0  0  0  0  0  0  0  0  0  0  # atno 8009 bound_to 7997
  154.4004  140.1432  156.3472 H   0  0  0  0  0  0  0  0  0  0  0  0  # atno 8010 bound_to 7997
  140.1926  143.3880  152.1194 H   0  0  0  0  0  0  0  0  0  0  0  0  # atno 10167 bound_to 10162
  157.6012  131.1050  150.7793 H   0  0  0  0  0  0  0  0  0  0  0  0  # atno 10718 bound_to 10713
  152.9791  135.5798  154.4650 H   0  0  0  0  0  0  0  0  0  0  0  0  # atno 10763 bound_to 10752
  154.4220  135.2772  155.1971 H   0  0  0  0  0  0  0  0  0  0  0  0  # atno 10764 bound_to 10752
  154.3716  135.6166  153.5797 H   0  0  0  0  0  0  0  0  0  0  0  0  # atno 10765 bound_to 10752
  140.9034  134.1661  157.4443 H   0  0  0  0  0  0  0  0  0  0  0  0  # atno 11005 bound_to 11000
  145.5021  139.1483  143.3651 LP  0  0  0  0  0  0  0  0  0  0  0  0  # atno 17320 bound_to 7965
  146.2555  140.5161  142.8875 LP  0  0  0  0  0  0  0  0  0  0  0  0  # atno 17321 bound_to 7965
  139.5250  144.7090  151.5265 LP  0  0  0  0  0  0  0  0  0  0  0  0  # atno 17342 bound_to 10162
  140.6445  143.8822  150.6724 LP  0  0  0  0  0  0  0  0  0  0  0  0  # atno 17343 bound_to 10162
  156.8192  130.4978  149.5345 LP  0  0  0  0  0  0  0  0  0  0  0  0  # atno 17370 bound_to 10713
  156.1086  130.6023  151.0011 LP  0  0  0  0  0  0  0  0  0  0  0  0  # atno 17371 bound_to 10713
  139.8746  134.9907  156.5516 LP  0  0  0  0  0  0  0  0  0  0  0  0  # atno 17394 bound_to 11000
  140.8201  133.8360  155.8888 LP  0  0  0  0  0  0  0  0  0  0  0  0  # atno 17395 bound_to 11000

$$$$
