AV-unprocessed.smi:1053|AV-procd|sdf|4617|dock6
  -GOLD-   22720 3123D 1   1.00000     0.00000
 Structure written by MMmdl.
 38 39  0  0  0  0  0  0  0  0  2 V2000
  144.4760  132.9315  150.6082 C   0  0  0  0  0  0  0  0  0  0  0  0
  143.5001  133.4830  151.6570 C   0  0  0  0  0  0  0  0  0  0  0  0
  143.5367  134.9640  151.7477 N   0  3  1  0  0  0  0  0  0  0  0  0
  142.4104  135.5063  152.5440 C   0  0  0  0  0  0  0  0  0  0  0  0
  142.4637  137.0417  152.5751 C   0  0  0  0  0  0  0  0  0  0  0  0
  143.7208  137.4581  153.0904 O   0  0  0  0  0  0  0  0  0  0  0  0
  144.8092  137.0383  152.2736 C   0  0  1  0  0  0  0  0  0  0  0  0
  146.1148  137.6106  152.8512 C   0  0  0  0  0  0  0  0  0  0  0  0
  146.0871  139.0643  152.9456 N   0  0  0  0  0  0  0  0  0  0  0  0
  147.0155  139.8321  153.6254 C   0  0  0  0  0  0  0  0  0  0  0  0
  146.8757  141.1626  153.6141 N   0  0  0  0  0  0  0  0  0  0  0  0
  147.7977  141.8833  154.2878 C   0  0  0  0  0  0  0  0  0  0  0  0
  148.8629  141.2682  154.9743 C   0  0  0  0  0  0  0  0  0  0  0  0
  148.9116  139.8572  154.9196 C   0  0  0  0  0  0  0  0  0  0  0  0
  150.0044  139.0578  155.6132 C   0  0  0  0  0  0  0  0  0  0  0  0
  150.7103  138.3816  154.7068 F   0  0  0  0  0  0  0  0  0  0  0  0
  150.8354  139.8504  156.2910 F   0  0  0  0  0  0  0  0  0  0  0  0
  149.4564  138.1919  156.4661 F   0  0  0  0  0  0  0  0  0  0  0  0
  147.9807  139.1465  154.2407 N   0  0  0  0  0  0  0  0  0  0  0  0
  144.8281  135.4970  152.2495 C   0  0  0  0  0  0  0  0  0  0  0  0
  144.3523  131.8535  150.5013 H   0  0  0  0  0  0  0  0  0  0  0  0
  145.5156  133.1103  150.8814 H   0  0  0  0  0  0  0  0  0  0  0  0
  144.3008  133.3819  149.6307 H   0  0  0  0  0  0  0  0  0  0  0  0
  142.4943  133.1699  151.3736 H   0  0  0  0  0  0  0  0  0  0  0  0
  143.6970  133.0419  152.6351 H   0  0  0  0  0  0  0  0  0  0  0  0
  141.4611  135.1818  152.1162 H   0  0  0  0  0  0  0  0  0  0  0  0
  142.4572  135.1113  153.5601 H   0  0  0  0  0  0  0  0  0  0  0  0
  142.3050  137.4609  151.5801 H   0  0  0  0  0  0  0  0  0  0  0  0
  141.6729  137.4327  153.2153 H   0  0  0  0  0  0  0  0  0  0  0  0
  144.6742  137.4136  151.2571 H   0  0  0  0  0  0  0  0  0  0  0  0
  146.3420  137.1623  153.8191 H   0  0  0  0  0  0  0  0  0  0  0  0
  146.9449  137.3517  152.1936 H   0  0  0  0  0  0  0  0  0  0  0  0
  145.2730  139.5448  152.5908 H   0  0  0  0  0  0  0  0  0  0  0  0
  147.6852  142.9574  154.2782 H   0  0  0  0  0  0  0  0  0  0  0  0
  149.5959  141.8521  155.5107 H   0  0  0  0  0  0  0  0  0  0  0  0
  145.0186  135.1074  153.2511 H   0  0  0  0  0  0  0  0  0  0  0  0
  145.6463  135.1589  151.6143 H   0  0  0  0  0  0  0  0  0  0  0  0
  143.4151  135.3156  150.8085 H   0  0  0  0  0  0  0  0  0  0  0  0
  1  2  1  0  0  0  0
  1 21  1  0  0  0  0
  1 22  1  0  0  0  0
  1 23  1  0  0  0  0
  2  3  1  0  0  0  0
  2 24  1  0  0  0  0
  2 25  1  0  0  0  0
  3 20  1  0  0  0  0
  3  4  1  0  0  0  0
  3 38  1  0  0  0  0
  4  5  1  0  0  0  0
  4 26  1  0  0  0  0
  4 27  1  0  0  0  0
  5  6  1  0  0  0  0
  5 28  1  0  0  0  0
  5 29  1  0  0  0  0
  6  7  1  0  0  0  0
  7  8  1  0  0  0  0
  7 20  1  0  0  0  0
  7 30  1  0  0  0  0
  8  9  1  0  0  0  0
  8 31  1  0  0  0  0
  8 32  1  0  0  0  0
  9 10  1  0  0  0  0
  9 33  1  0  0  0  0
 10 19  1  0  0  0  0
 10 11  2  0  0  0  0
 11 12  1  0  0  0  0
 12 13  2  0  0  0  0
 12 34  1  0  0  0  0
 13 14  1  0  0  0  0
 13 35  1  0  0  0  0
 14 15  1  0  0  0  0
 14 19  2  0  0  0  0
 15 16  1  0  0  0  0
 15 17  1  0  0  0  0
 15 18  1  0  0  0  0
 20 36  1  0  0  0  0
 20 37  1  0  0  0  0
M  CHG  1   3   1
M  END
> <s_m_source_file>
AV-unprocessed.smi

> <i_m_source_file_index>
1053

> <i_lp_mmshare_version>
43012

> <i_f3d_flags>
0

> <s_epik_input>
W0NIM11bQ0gyXU4xW0NIMl1bQ0gyXU9bQ0BIXShbQ0gyXTEpW0NIMl1bTkhdYzJuW2NIXVtjSF1jKG4yKUMoRikoRilG

> <s_epik_cmdline>
J2VwaWtfcHl0aG9uJywgJy1waCcsICc3LjAnLCAnLXRuJywgJzgnLCAnLW1hJywgJzIwMCcsICctbWV0YWxfYmluZGluZycsICctaW1hZScsICc8aW5maWxlLm1hZT4nLCAnLW9tYWUnLCAnPG91dGZpbGUubWFlPic=

> <r_lp_tautomer_probability>
1

> <r_epik_Ionization_Penalty>
0.178506

> <r_epik_Ionization_Penalty_Charging>
0.178504

> <r_epik_Ionization_Penalty_Neutral>
2.47619e-06

> <r_epik_State_Penalty>
0.167974

> <r_epik_Charging_Adjusted_Penalty>
0.346478

> <i_epik_Tot_Q>
1

> <i_epik_Tot_abs_Q>
1

> <r_epik_Metal_State_Penalty>
0.167974

> <b_epik_Metal_Only>
0

> <s_lp_Force_Field>
OPLS_2005

> <r_lp_Energy>
10.9386

> <b_lp_Chiralities_Consistent>
1

> <s_lp_Variant>
AV-unprocessed.smi:1053-1

> <Gold.Version>
5.8.1

> <Gold.Id.Protein>
6NUR|6NUR_protein|mol2

> <Gold.PLP.Fitness>
40.6101

> <Gold.PLP.PLP>
-34.8350

> <Gold.PLP.part.hbond>
-1.0000

> <Gold.PLP.part.metal>
0.0000

> <Gold.PLP.part.buried>
-4.4771

> <Gold.PLP.part.nonpolar>
-29.2676

> <Gold.PLP.part.repulsive>
0.5362

> <Gold.PLP.ligand.clash>
0.0000

> <Gold.PLP.ligand.torsion>
0.1227

> <Gold.PLP.Chemscore.Hbond>
1.0000

> <Gold.PLP.Chemscore.CHOScore>
1.0000

> <Gold.PLP.Chemscore.Metal>
0.0000

> <Gold.Chemscore.Hbonds>
donor molecule, donor type, donor heavy atom, donor atom, acceptor molecule, acceptor atom, score
      L1  H     9    33       P1 10175  1.00
      L1  C    12    34       P1  8028  1.00

> <Gold.PLP.Chemscore.Internal.Correction>
0.0205

> <Gold.Rescore>
     Score         DG    S(hbond)    S(metal)    S(lipo)     H(rot)  DE(clash)    DE(int)     intcor
     12.24     -12.37       1.00        0.00      64.44       1.55       0.06       0.08       ----

> <Gold.Chemscore.Fitness>
12.2359

> <Gold.Chemscore.DG>
-12.3687

> <Gold.Chemscore.ZeroCoef>
-5.4800

> <Gold.Chemscore.Hbond>
0.9968

> <Gold.Chemscore.Metal>
0.0000

> <Gold.Chemscore.Lipo>
64.4437

> <Gold.Chemscore.Internal_Hbond>
0.0000

> <Gold.Chemscore.DEClash>
0.0573

> <Gold.Chemscore.DEInternal>
0.0754

> <Gold.Chemscore.Rot>
1.5549

> <Gold.Chemscore.Internal.Correction>
   9.000000E+99

> <Gold.Chemscore.Hbonds>
donor molecule, donor type, donor heavy atom, donor atom, acceptor molecule, acceptor atom, score
      L1  H     9    33       P1 10175  1.00

> <Gold.Chemscore.Hbond.Weighted>
-3.3293

> <Gold.Chemscore.Metal.Weighted>
-0.0000

> <Gold.Chemscore.Lipo.Weighted>
-7.5399

> <Gold.Chemscore.Internal_Hbond.Weighted>
0.0000

> <Gold.Chemscore.DEClash.Weighted>
0.0573

> <Gold.Chemscore.DEInternal.Weighted>
0.0754

> <Gold.Chemscore.Rot.Weighted>
3.9806

> <Gold.Chemscore.Internal.Correction.Weighted>
   9.000000E+99

> <Gold.Protein.RotatedTorsions>
[ 6907 6896 6895 6894 ] final   53.84 input  -60.11 | X-H torsion
[ 7974 7965 7964 7962 ] final   12.69 input  175.53 | X-H torsion
[ 8008 7997 7996 7995 ] final  -33.59 input   59.86 | X-H torsion
[ 10167 10162 10161 10158 ] final -155.03 input  -65.29 | X-H torsion
[ 10718 10713 10712 10709 ] final  151.81 input   66.30 | X-H torsion
[ 10763 10752 10751 10750 ] final   -5.80 input  -60.55 | X-H torsion
[ 11005 11000 10999 10996 ] final -107.24 input  -57.11 | X-H torsion

> <Gold.Protein.ActiveResidues>
 VAL166  LYS551  ARG553  GLY616  TRP617  ASP618  TYR619  PRO620  LYS621  CYS622 
 ASP623  PHE694  ASN695  SER759  ASP760  ASP761  ALA762  ILE779  LEU786  VAL792 
 PHE793  MET794  SER795  GLU796  ALA797  LYS798  CYS799  TRP800  GLU811  SER814 

> <Gold.Protein.RotatedAtoms>
  152.3379  134.7174  160.0271 H   0  0  0  0  0  0  0  0  0  0  0  0  # atno 6907 bound_to 6896
  151.7569  133.3325  159.3415 H   0  0  0  0  0  0  0  0  0  0  0  0  # atno 6908 bound_to 6896
  150.7461  134.6073  159.6112 H   0  0  0  0  0  0  0  0  0  0  0  0  # atno 6909 bound_to 6896
  146.2346  139.9299  142.8498 H   0  0  0  0  0  0  0  0  0  0  0  0  # atno 7974 bound_to 7965
  154.4145  140.1706  156.1912 H   0  0  0  0  0  0  0  0  0  0  0  0  # atno 8008 bound_to 7997
  155.9602  140.3394  155.6460 H   0  0  0  0  0  0  0  0  0  0  0  0  # atno 8009 bound_to 7997
  155.6759  140.0717  157.2493 H   0  0  0  0  0  0  0  0  0  0  0  0  # atno 8010 bound_to 7997
  139.6965  143.9334  152.2409 H   0  0  0  0  0  0  0  0  0  0  0  0  # atno 10167 bound_to 10162
  157.2659  131.0807  151.1633 H   0  0  0  0  0  0  0  0  0  0  0  0  # atno 10718 bound_to 10713
  153.4036  135.7005  153.6409 H   0  0  0  0  0  0  0  0  0  0  0  0  # atno 10763 bound_to 10752
  153.4932  135.3668  155.2503 H   0  0  0  0  0  0  0  0  0  0  0  0  # atno 10764 bound_to 10752
  154.8712  135.4094  154.3375 H   0  0  0  0  0  0  0  0  0  0  0  0  # atno 10765 bound_to 10752
  141.0964  133.8963  157.1952 H   0  0  0  0  0  0  0  0  0  0  0  0  # atno 11005 bound_to 11000
  145.2054  140.9873  143.4131 LP  0  0  0  0  0  0  0  0  0  0  0  0  # atno 17320 bound_to 7965
  144.9737  139.3854  143.6296 LP  0  0  0  0  0  0  0  0  0  0  0  0  # atno 17321 bound_to 7965
  139.9165  144.6825  150.8507 LP  0  0  0  0  0  0  0  0  0  0  0  0  # atno 17342 bound_to 10162
  140.7697  143.3406  151.2217 LP  0  0  0  0  0  0  0  0  0  0  0  0  # atno 17343 bound_to 10162
  157.3125  130.6897  149.6223 LP  0  0  0  0  0  0  0  0  0  0  0  0  # atno 17370 bound_to 10713
  155.9663  130.4359  150.5112 LP  0  0  0  0  0  0  0  0  0  0  0  0  # atno 17371 bound_to 10713
  139.9802  135.0101  156.9731 LP  0  0  0  0  0  0  0  0  0  0  0  0  # atno 17394 bound_to 11000
  140.5129  134.0984  155.7274 LP  0  0  0  0  0  0  0  0  0  0  0  0  # atno 17395 bound_to 11000

$$$$
