AV-unprocessed.smi:2018|AV-procd|sdf|8169|dock8
  -GOLD-   2272010413D 1   1.00000     0.00000
 Structure written by MMmdl.
 35 36  0  0  0  0  0  0  0  0  1 V2000
  151.9629  144.0764  158.6271 C   0  0  0  0  0  0  0  0  0  0  0  0
  152.4978  143.3799  159.8310 C   0  0  0  0  0  0  0  0  0  0  0  0
  153.3302  142.3371  159.7725 N   0  0  0  0  0  0  0  0  0  0  0  0
  153.6869  141.8615  161.0385 C   0  0  0  0  0  0  0  0  0  0  0  0
  154.6146  140.6918  161.1654 C   0  0  0  0  0  0  0  0  0  0  0  0
  153.9771  139.3858  160.6629 C   0  0  0  0  0  0  0  0  0  0  0  0
  154.3104  138.2596  161.5272 N   0  0  0  0  0  0  0  0  0  0  0  0
  154.0773  136.9660  161.2388 C   0  0  0  0  0  0  0  0  0  0  0  0
  153.5553  136.5996  160.1853 O   0  0  0  0  0  0  0  0  0  0  0  0
  154.4817  135.9818  162.2784 C   0  0  0  0  0  0  0  0  0  0  0  0
  154.7836  134.7672  161.9401 N   0  0  0  0  0  0  0  0  0  0  0  0
  155.1816  133.8252  162.8669 N   0  0  0  0  0  0  0  0  0  0  0  0
  155.7409  132.6012  162.2965 C   0  0  0  0  0  0  0  0  0  0  0  0
  155.0595  133.9654  164.2105 C   0  0  0  0  0  0  0  0  0  0  0  0
  155.4367  133.1217  165.0235 O   0  0  0  0  0  0  0  0  0  0  0  0
  154.3812  135.2463  164.7045 C   0  0  0  0  0  0  0  0  0  0  0  0
  154.5709  136.4228  163.7263 C   0  0  0  0  0  0  0  0  0  0  0  0
  153.1053  142.5641  162.0641 C   0  0  0  0  0  0  0  0  0  0  0  0
  152.0888  143.8509  161.4760 S   0  0  0  0  0  0  0  0  0  0  0  0
  152.5153  143.7798  157.7348 H   0  0  0  0  0  0  0  0  0  0  0  0
  152.0523  145.1558  158.7495 H   0  0  0  0  0  0  0  0  0  0  0  0
  150.9116  143.8245  158.4883 H   0  0  0  0  0  0  0  0  0  0  0  0
  155.5327  140.8852  160.6090 H   0  0  0  0  0  0  0  0  0  0  0  0
  154.9174  140.5756  162.2068 H   0  0  0  0  0  0  0  0  0  0  0  0
  152.8936  139.4928  160.5878 H   0  0  0  0  0  0  0  0  0  0  0  0
  154.3366  139.1578  159.6589 H   0  0  0  0  0  0  0  0  0  0  0  0
  154.7432  138.4758  162.4139 H   0  0  0  0  0  0  0  0  0  0  0  0
  155.1542  131.7319  162.5976 H   0  0  0  0  0  0  0  0  0  0  0  0
  156.7672  132.4547  162.6365 H   0  0  0  0  0  0  0  0  0  0  0  0
  155.7563  132.6270  161.2056 H   0  0  0  0  0  0  0  0  0  0  0  0
  153.3180  135.0308  164.8172 H   0  0  0  0  0  0  0  0  0  0  0  0
  154.7548  135.5116  165.6941 H   0  0  0  0  0  0  0  0  0  0  0  0
  155.5381  136.8969  163.8978 H   0  0  0  0  0  0  0  0  0  0  0  0
  153.8155  137.1780  163.9468 H   0  0  0  0  0  0  0  0  0  0  0  0
  153.2126  142.4020  163.1265 H   0  0  0  0  0  0  0  0  0  0  0  0
  1  2  1  0  0  0  0
  1 20  1  0  0  0  0
  1 21  1  0  0  0  0
  1 22  1  0  0  0  0
  2 19  1  0  0  0  0
  2  3  2  0  0  0  0
  3  4  1  0  0  0  0
  4  5  1  0  0  0  0
  4 18  2  0  0  0  0
  5  6  1  0  0  0  0
  5 23  1  0  0  0  0
  5 24  1  0  0  0  0
  6  7  1  0  0  0  0
  6 25  1  0  0  0  0
  6 26  1  0  0  0  0
  7  8  1  0  0  0  0
  7 27  1  0  0  0  0
  8  9  2  0  0  0  0
  8 10  1  0  0  0  0
 10 17  1  0  0  0  0
 10 11  2  0  0  0  0
 11 12  1  0  0  0  0
 12 13  1  0  0  0  0
 12 14  1  0  0  0  0
 13 28  1  0  0  0  0
 13 29  1  0  0  0  0
 13 30  1  0  0  0  0
 14 15  2  0  0  0  0
 14 16  1  0  0  0  0
 16 17  1  0  0  0  0
 16 31  1  0  0  0  0
 16 32  1  0  0  0  0
 17 33  1  0  0  0  0
 17 34  1  0  0  0  0
 18 19  1  0  0  0  0
 18 35  1  0  0  0  0
M  END
> <s_m_source_file>
AV-unprocessed.smi

> <i_m_source_file_index>
2018

> <i_lp_mmshare_version>
43012

> <i_f3d_flags>
0

> <s_epik_input>
W0NIM11jMW5jKFtjSF1zMSlbQ0gyXVtDSDJdW05IXUMoPU8pQzI9Tk4oW0NIM10pQyg9TylbQ0gyXVtDSDJdMg==

> <s_epik_cmdline>
J2VwaWtfcHl0aG9uJywgJy1waCcsICc3LjAnLCAnLXRuJywgJzgnLCAnLW1hJywgJzIwMCcsICctbWV0YWxfYmluZGluZycsICctaW1hZScsICc8aW5maWxlLm1hZT4nLCAnLW9tYWUnLCAnPG91dGZpbGUubWFlPic=

> <r_epik_Ionization_Penalty>
0.000694267

> <r_epik_Ionization_Penalty_Charging>
0

> <r_epik_Ionization_Penalty_Neutral>
0.000694267

> <r_epik_State_Penalty>
0.000389372

> <r_epik_Charging_Adjusted_Penalty>
0.000389372

> <i_epik_Tot_Q>
0

> <i_epik_Tot_abs_Q>
0

> <r_epik_Metal_State_Penalty>
0.0645979

> <b_epik_Metal_Only>
0

> <s_epik_Chemistry_Notes>
This compound has an imine and may undergo hydrolysis.

> <s_lp_Force_Field>
OPLS_2005

> <r_lp_Energy>
11.1599

> <b_lp_Chiralities_Consistent>
1

> <s_lp_Variant>
AV-unprocessed.smi:2018-1

> <Gold.Version>
5.8.1

> <Gold.Id.Protein>
6NUR|6NUR_protein|mol2

> <Gold.PLP.Fitness>
43.5510

> <Gold.PLP.PLP>
-42.6278

> <Gold.PLP.part.hbond>
-0.6459

> <Gold.PLP.part.metal>
0.0000

> <Gold.PLP.part.buried>
-3.3620

> <Gold.PLP.part.nonpolar>
-38.5983

> <Gold.PLP.part.repulsive>
0.0831

> <Gold.PLP.ligand.clash>
0.0000

> <Gold.PLP.ligand.torsion>
0.6855

> <Gold.PLP.Chemscore.Hbond>
0.7638

> <Gold.PLP.Chemscore.CHOScore>
0.0000

> <Gold.PLP.Chemscore.Metal>
0.0000

> <Gold.Chemscore.Hbonds>
donor molecule, donor type, donor heavy atom, donor atom, acceptor molecule, acceptor atom, score
      P1  H  6896  6908       L1     9  0.73

> <Gold.PLP.Chemscore.Internal.Correction>
0.0030

> <Gold.Rescore>
     Score         DG    S(hbond)    S(metal)    S(lipo)     H(rot)  DE(clash)    DE(int)     intcor
     16.53     -17.04       0.98        0.00     102.61       1.45       0.04       0.47       ----

> <Gold.Chemscore.Fitness>
16.5282

> <Gold.Chemscore.DG>
-17.0377

> <Gold.Chemscore.ZeroCoef>
-5.4800

> <Gold.Chemscore.Hbond>
0.9757

> <Gold.Chemscore.Metal>
0.0000

> <Gold.Chemscore.Lipo>
102.6144

> <Gold.Chemscore.Internal_Hbond>
0.0000

> <Gold.Chemscore.DEClash>
0.0425

> <Gold.Chemscore.DEInternal>
0.4670

> <Gold.Chemscore.Rot>
1.4480

> <Gold.Chemscore.Internal.Correction>
   9.000000E+99

> <Gold.Chemscore.Hbonds>
donor molecule, donor type, donor heavy atom, donor atom, acceptor molecule, acceptor atom, score
      P1  H  6896  6908       L1     9  0.72

> <Gold.Chemscore.Hbond.Weighted>
-3.2588

> <Gold.Chemscore.Metal.Weighted>
-0.0000

> <Gold.Chemscore.Lipo.Weighted>
-12.0059

> <Gold.Chemscore.Internal_Hbond.Weighted>
0.0000

> <Gold.Chemscore.DEClash.Weighted>
0.0425

> <Gold.Chemscore.DEInternal.Weighted>
0.4670

> <Gold.Chemscore.Rot.Weighted>
3.7070

> <Gold.Chemscore.Internal.Correction.Weighted>
   9.000000E+99

> <Gold.Protein.RotatedTorsions>
[ 6907 6896 6895 6894 ] final  -83.23 input  -60.11 | X-H torsion
[ 7974 7965 7964 7962 ] final -169.26 input  175.53 | X-H torsion
[ 8008 7997 7996 7995 ] final   97.31 input   59.86 | X-H torsion
[ 10167 10162 10161 10158 ] final   60.76 input  -65.29 | X-H torsion
[ 10718 10713 10712 10709 ] final   72.85 input   66.30 | X-H torsion
[ 10763 10752 10751 10750 ] final -109.07 input  -60.55 | X-H torsion
[ 11005 11000 10999 10996 ] final   25.86 input  -57.11 | X-H torsion

> <Gold.Protein.ActiveResidues>
 VAL166  LYS551  ARG553  GLY616  TRP617  ASP618  TYR619  PRO620  LYS621  CYS622 
 ASP623  PHE694  ASN695  SER759  ASP760  ASP761  ALA762  ILE779  LEU786  VAL792 
 PHE793  MET794  SER795  GLU796  ALA797  LYS798  CYS799  TRP800  GLU811  SER814 

> <Gold.Protein.RotatedAtoms>
  150.6888  134.3544  159.4922 H   0  0  0  0  0  0  0  0  0  0  0  0  # atno 6907 bound_to 6896
  152.1381  134.9081  160.0564 H   0  0  0  0  0  0  0  0  0  0  0  0  # atno 6908 bound_to 6896
  152.0225  133.3869  159.4301 H   0  0  0  0  0  0  0  0  0  0  0  0  # atno 6909 bound_to 6896
  144.7188  140.2247  143.6311 H   0  0  0  0  0  0  0  0  0  0  0  0  # atno 7974 bound_to 7965
  156.0888  140.3260  155.7789 H   0  0  0  0  0  0  0  0  0  0  0  0  # atno 8008 bound_to 7997
  155.5030  140.0571  157.2953 H   0  0  0  0  0  0  0  0  0  0  0  0  # atno 8009 bound_to 7997
  154.4625  140.1973  156.0221 H   0  0  0  0  0  0  0  0  0  0  0  0  # atno 8010 bound_to 7997
  140.1621  144.4360  150.6704 H   0  0  0  0  0  0  0  0  0  0  0  0  # atno 10167 bound_to 10162
  157.6520  130.9599  150.0987 H   0  0  0  0  0  0  0  0  0  0  0  0  # atno 10718 bound_to 10713
  154.8172  135.4614  154.0676 H   0  0  0  0  0  0  0  0  0  0  0  0  # atno 10763 bound_to 10752
  153.2060  135.6875  153.8179 H   0  0  0  0  0  0  0  0  0  0  0  0  # atno 10764 bound_to 10752
  153.7647  135.3279  155.3319 H   0  0  0  0  0  0  0  0  0  0  0  0  # atno 10765 bound_to 10752
  140.3432  134.2309  155.7687 H   0  0  0  0  0  0  0  0  0  0  0  0  # atno 11005 bound_to 11000
  145.8468  139.2156  143.1795 LP  0  0  0  0  0  0  0  0  0  0  0  0  # atno 17320 bound_to 7965
  146.0297  140.8270  142.9882 LP  0  0  0  0  0  0  0  0  0  0  0  0  # atno 17321 bound_to 7965
  140.6636  143.2260  151.5796 LP  0  0  0  0  0  0  0  0  0  0  0  0  # atno 17342 bound_to 10162
  139.5376  144.2736  152.1285 LP  0  0  0  0  0  0  0  0  0  0  0  0  # atno 17343 bound_to 10162
  156.1916  130.3655  149.8903 LP  0  0  0  0  0  0  0  0  0  0  0  0  # atno 17370 bound_to 10713
  156.6830  130.8865  151.3578 LP  0  0  0  0  0  0  0  0  0  0  0  0  # atno 17371 bound_to 10713
  141.2033  133.7917  157.0349 LP  0  0  0  0  0  0  0  0  0  0  0  0  # atno 17394 bound_to 11000
  140.0763  134.9673  157.1551 LP  0  0  0  0  0  0  0  0  0  0  0  0  # atno 17395 bound_to 11000

$$$$
