#       Name:                AV-unprocessed.smi:281
#       Creating user name   scv26
#       Creation time:       Thu Mar 26 21:39:45 2020


#       File generated by GOLD software.
#

@<TRIPOS>MOLECULE
AV-unprocessed.smi:281
    67    71     1
SMALL
NO_CHARGES


@<TRIPOS>ATOM
      1 ****        -4.4057  -0.0625   3.6510 C.3            1 S1                 0.0000
      2 ****        -3.6292   0.1937   2.3557 C.3            1 S1                 0.0000
      3 ****        -2.1096   0.1194   2.5700 C.3            1 S1                 0.0000
      4 ****        -1.4044   0.4526   1.3348 N.3            1 S1                 0.0000
      5 ****        -0.0661   0.2143   1.2922 C.ar           1 S1                 0.0000
      6 ****         0.6243   0.0208   2.4491 N.ar           1 S1                 0.0000
      7 ****         1.9406  -0.2054   2.4260 C.ar           1 S1                 0.0000
      8 ****         2.7545  -0.2837   1.3725 N.ar           1 S1                 0.0000
      9 ****         2.0717  -0.1012   0.2065 C.ar           1 S1                 0.0000
     10 ****         0.6760   0.1535   0.0769 C.ar           1 S1                 0.0000
     11 ****         0.3471   0.2780  -1.2674 N.2            1 S1                 0.0000
     12 ****         1.4797   0.1174  -1.8939 C.2            1 S1                 0.0000
     13 ****         2.5669  -0.1264  -1.0861 N.pl3          1 S1                 0.0000
     14 ****         3.9400  -0.3457  -1.5164 C.3            1 S1                 0.0000
     15 ****         4.2041  -1.7749  -2.0490 C.3            1 S1                 0.0000
     16 ****         3.4453  -1.9701  -3.2288 O.3            1 S1                 0.0000
     17 ****         5.6825  -2.0169  -2.3618 C.3            1 S1                 0.0000
     18 ****         6.1307  -2.9693  -1.2596 C.3            1 S1                 0.0000
     19 ****         4.9786  -3.7661  -1.0529 O.3            1 S1                 0.0000
     20 ****         3.8629  -2.8875  -1.0369 C.3            1 S1                 0.0000
     21 ****        -1.8167   1.7316   0.7610 C.3            1 S1                 0.0000
     22 ****        -3.3614   1.8450   0.6399 C.3            1 S1                 0.0000
     23 ****        -3.7613   3.2871   0.3515 C.3            1 S1                 0.0000
     24 ****        -3.7925   3.3353  -1.1669 C.3            1 S1                 0.0000
     25 ****        -4.3929   2.1006  -1.5143 O.3            1 S1                 0.0000
     26 ****        -4.0315   1.1073  -0.5569 C.3            1 S1                 0.0000
     27 ****        -3.2238   0.0078  -1.2637 C.3            1 S1                 0.0000
     28 ****        -3.9643   1.4973   1.8883 O.3            1 S1                 0.0000
     29 ****        -4.1926  -1.0558   4.0465 H              1 S1                 0.0000
     30 ****        -5.4803   0.0028   3.4793 H              1 S1                 0.0000
     31 ****        -4.1460   0.6672   4.4186 H              1 S1                 0.0000
     32 ****        -3.9345  -0.5527   1.6218 H              1 S1                 0.0000
     33 ****        -1.8091   0.8111   3.3587 H              1 S1                 0.0000
     34 ****        -1.8371  -0.8856   2.8950 H              1 S1                 0.0000
     35 ****         2.4083  -0.3430   3.3899 H              1 S1                 0.0000
     36 ****         1.5518   0.1658  -2.9708 H              1 S1                 0.0000
     37 ****         4.1792   0.3940  -2.2819 H              1 S1                 0.0000
     38 ****         4.6007  -0.1351  -0.6744 H              1 S1                 0.0000
     39 ****         3.5973  -2.8501  -3.5387 H              1 S1                 0.0000
     40 ****         5.8039  -2.5112  -3.3274 H              1 S1                 0.0000
     41 ****         6.2780  -1.1035  -2.3864 H              1 S1                 0.0000
     42 ****         6.9933  -3.5711  -1.5462 H              1 S1                 0.0000
     43 ****         6.3738  -2.4264  -0.3448 H              1 S1                 0.0000
     44 ****         3.7759  -2.4885  -0.0261 H              1 S1                 0.0000
     45 ****         2.9356  -3.4159  -1.2625 H              1 S1                 0.0000
     46 ****        -1.4457   2.5145   1.4240 H              1 S1                 0.0000
     47 ****        -1.3529   1.9115  -0.2073 H              1 S1                 0.0000
     48 ****        -4.7641   3.4852   0.7334 H              1 S1                 0.0000
     49 ****        -3.0905   4.0277   0.7880 H              1 S1                 0.0000
     50 ****        -4.3616   4.1811  -1.5530 H              1 S1                 0.0000
     51 ****        -2.7835   3.3800  -1.5790 H              1 S1                 0.0000
     52 ****        -4.9722   0.6711  -0.2184 H              1 S1                 0.0000
     53 ****        -2.9252  -0.7826  -0.5759 H              1 S1                 0.0000
     54 ****        -2.3287   0.4120  -1.7335 H              1 S1                 0.0000
     55 ****        -3.8183  -0.4555  -2.0510 H              1 S1                 0.0000
     56 ****        -1.7316  -0.2522   0.7054 LP             1 S1                 0.0000
     57 ****         0.1417   0.0482   3.3245 LP             1 S1                 0.0000
     58 ****         3.7382  -0.4542   1.4302 LP             1 S1                 0.0000
     59 ****        -0.5541   0.4515  -1.6646 LP             1 S1                 0.0000
     60 ****         3.7300  -1.3124  -3.9262 LP             1 S1                 0.0000
     61 ****         2.4733  -1.8452  -3.0298 LP             1 S1                 0.0000
     62 ****         5.0475  -4.2495  -0.1802 LP             1 S1                 0.0000
     63 ****         4.8824  -4.4297  -1.7948 LP             1 S1                 0.0000
     64 ****        -4.0768   1.8201  -2.4206 LP             1 S1                 0.0000
     65 ****        -5.3873   2.2056  -1.5259 LP             1 S1                 0.0000
     66 ****        -3.6696   2.1620   2.5748 LP             1 S1                 0.0000
     67 ****        -4.9574   1.5465   1.7815 LP             1 S1                 0.0000
@<TRIPOS>BOND
    1    1    2 1     
    2    1   29 1     
    3    1   30 1     
    4    1   31 1     
    5    2   28 1     
    6    2    3 1     
    7    2   32 1     
    8    3    4 1     
    9    3   33 1     
   10    3   34 1     
   11    4    5 1     
   12    4   21 1     
   13    5   10 ar    
   14    5    6 ar    
   15    6    7 ar    
   16    7    8 ar    
   17    7   35 1     
   18    8    9 ar    
   19    9   13 1     
   20    9   10 ar    
   21   10   11 1     
   22   11   12 2     
   23   12   13 1     
   24   12   36 1     
   25   13   14 1     
   26   14   15 1     
   27   14   37 1     
   28   14   38 1     
   29   15   20 1     
   30   15   16 1     
   31   15   17 1     
   32   16   39 1     
   33   17   18 1     
   34   17   40 1     
   35   17   41 1     
   36   18   19 1     
   37   18   42 1     
   38   18   43 1     
   39   19   20 1     
   40   20   44 1     
   41   20   45 1     
   42   21   22 1     
   43   21   46 1     
   44   21   47 1     
   45   22   26 1     
   46   22   23 1     
   47   22   28 1     
   48   23   24 1     
   49   23   48 1     
   50   23   49 1     
   51   24   25 1     
   52   24   50 1     
   53   24   51 1     
   54   25   26 1     
   55   26   27 1     
   56   26   52 1     
   57   27   53 1     
   58   27   54 1     
   59   27   55 1     
   60    4   56 1     
   61    6   57 1     
   62    8   58 1     
   63   11   59 1     
   64   16   60 1     
   65   16   61 1     
   66   19   62 1     
   67   19   63 1     
   68   25   64 1     
   69   25   65 1     
   70   28   66 1     
   71   28   67 1     
@<TRIPOS>SUBSTRUCTURE
      1 S1             1
@<TRIPOS>SET
LONE_PAIRS      STATIC     ATOMS    <user>   **** ""
12 56 57 58 59 60 61 62 63 64 65 66 67
DONOR_HYDROGENS      STATIC     ATOMS    <user>   **** ""
1 39
ATOM$BLUE        STATIC     ATOMS    COLORGROUP SYSTEM
12 56 57 58 59 60 61 62 63 64 65 66 67
ATOM$RED        STATIC     ATOMS    COLORGROUP SYSTEM
1 39
