#       Name:                AV-unprocessed.smi:1200
#       Creating user name   scv26
#       Creation time:       Fri Mar 27 04:04:42 2020


#       File generated by GOLD software.
#

@<TRIPOS>MOLECULE
AV-unprocessed.smi:1200
    48    49     1
SMALL
NO_CHARGES


@<TRIPOS>ATOM
      1 ****        -5.6418   3.7056  -0.2069 C.3            1 S1                 0.0000
      2 ****        -5.1890   2.3299  -0.3752 N.pl3          1 S1                -1.0000
      3 ****        -4.5169   1.8904  -1.4727 C.2            1 S1                 0.0000
      4 ****        -4.1585   2.4893  -2.4922 O.2            1 S1                 0.0000
      5 ****        -4.1554   0.4063  -1.3425 C.3            1 S1                 0.0000
      6 ****        -2.6856   0.2514  -1.2103 N.4            1 S1                 1.0000
      7 ****        -2.2103  -1.0692  -1.6945 C.3            1 S1                 0.0000
      8 ****        -0.6740  -1.1407  -1.6902 C.3            1 S1                 0.0000
      9 ****        -0.1062  -0.8448  -0.2926 C.3            1 S1                 0.0000
     10 ****         1.3530  -0.8266  -0.3432 N.am           1 S1                 0.0000
     11 ****         2.1655  -1.0703   0.6952 C.2            1 S1                 0.0000
     12 ****         1.7571  -1.3601   1.8190 O.2            1 S1                 0.0000
     13 ****         3.4561  -0.9631   0.3341 N.am           1 S1                 0.0000
     14 ****         4.6288  -1.1147   1.1250 C.ar           1 S1                 0.0000
     15 ****         4.6481  -1.1825   2.5402 C.ar           1 S1                 0.0000
     16 ****         5.8855  -1.3219   3.1979 C.ar           1 S1                 0.0000
     17 ****         7.0583  -1.3830   2.4210 C.ar           1 S1                 0.0000
     18 ****         7.0570  -1.3105   1.0737 N.ar           1 S1                 0.0000
     19 ****         5.8669  -1.1775   0.4501 C.ar           1 S1                 0.0000
     20 ****        -0.6492   0.5054   0.2095 C.3            1 S1                 0.0000
     21 ****        -2.1853   0.5431   0.1602 C.3            1 S1                 0.0000
     22 ****        -6.1741   3.8449   0.7337 H              1 S1                 0.0000
     23 ****        -6.3237   4.0198  -0.9976 H              1 S1                 0.0000
     24 ****        -4.8152   4.4167  -0.2016 H              1 S1                 0.0000
     25 ****        -4.6690  -0.0877  -0.5146 H              1 S1                 0.0000
     26 ****        -4.5024  -0.0824  -2.2540 H              1 S1                 0.0000
     27 ****        -2.6285  -1.8597  -1.0691 H              1 S1                 0.0000
     28 ****        -2.5719  -1.2418  -2.7090 H              1 S1                 0.0000
     29 ****        -0.3508  -2.1274  -2.0246 H              1 S1                 0.0000
     30 ****        -0.2783  -0.4243  -2.4121 H              1 S1                 0.0000
     31 ****        -0.4350  -1.6360   0.3843 H              1 S1                 0.0000
     32 ****         1.7749  -0.6014  -1.2323 H              1 S1                 0.0000
     33 ****         3.6242  -0.7699  -0.6424 H              1 S1                 0.0000
     34 ****         3.7526  -1.1216   3.1373 H              1 S1                 0.0000
     35 ****         5.9343  -1.3771   4.2753 H              1 S1                 0.0000
     36 ****         8.0230  -1.4885   2.8948 H              1 S1                 0.0000
     37 ****         5.9059  -1.1202  -0.6281 H              1 S1                 0.0000
     38 ****        -0.3123   0.6916   1.2301 H              1 S1                 0.0000
     39 ****        -0.2488   1.3170  -0.4003 H              1 S1                 0.0000
     40 ****        -2.5242   1.5268   0.4860 H              1 S1                 0.0000
     41 ****        -2.6012  -0.1807   0.8626 H              1 S1                 0.0000
     42 ****        -2.2822   0.9436  -1.8256 H              1 S1                 0.0000
     43 ****        -5.3830   1.6749   0.3551 LP             1 S1                 0.0000
     44 ****        -4.3620   3.4627  -2.5978 LP             1 S1                 0.0000
     45 ****        -3.6650   2.0007  -3.2116 LP             1 S1                 0.0000
     46 ****         0.7744  -1.4235   1.9929 LP             1 S1                 0.0000
     47 ****         2.4078  -1.5322   2.5586 LP             1 S1                 0.0000
     48 ****         7.9100  -1.3538   0.5538 LP             1 S1                 0.0000
@<TRIPOS>BOND
    1    1    2 1     
    2    1   22 1     
    3    1   23 1     
    4    1   24 1     
    5    2    3 1     
    6    3    4 2     
    7    3    5 1     
    8    5    6 1     
    9    5   25 1     
   10    5   26 1     
   11    6   21 1     
   12    6    7 1     
   13    6   42 1     
   14    7    8 1     
   15    7   27 1     
   16    7   28 1     
   17    8    9 1     
   18    8   29 1     
   19    8   30 1     
   20    9   10 1     
   21    9   20 1     
   22    9   31 1     
   23   10   11 am    
   24   10   32 1     
   25   11   12 2     
   26   11   13 am    
   27   13   14 1     
   28   13   33 1     
   29   14   19 ar    
   30   14   15 ar    
   31   15   16 ar    
   32   15   34 1     
   33   16   17 ar    
   34   16   35 1     
   35   17   18 ar    
   36   17   36 1     
   37   18   19 ar    
   38   19   37 1     
   39   20   21 1     
   40   20   38 1     
   41   20   39 1     
   42   21   40 1     
   43   21   41 1     
   44    2   43 1     
   45    4   44 1     
   46    4   45 1     
   47   12   46 1     
   48   12   47 1     
   49   18   48 1     
@<TRIPOS>SUBSTRUCTURE
      1 S1             1
@<TRIPOS>SET
LONE_PAIRS      STATIC     ATOMS    <user>   **** ""
6 43 44 45 46 47 48
DONOR_HYDROGENS      STATIC     ATOMS    <user>   **** ""
3 42 32 33
ATOM$BLUE        STATIC     ATOMS    COLORGROUP SYSTEM
6 43 44 45 46 47 48
ATOM$RED        STATIC     ATOMS    COLORGROUP SYSTEM
3 42 32 33
