AV-unprocessed.smi:1803|AV-procd|sdf|7288|dock8
  -GOLD-   22720 8543D 1   1.00000     0.00000
 Structure written by MMmdl.
 35 37  0  0  0  0  0  0  0  0  3 V2000
  152.0848  140.1669  155.0321 O   0  0  0  0  0  0  0  0  0  0  0  0
  152.0446  139.5130  156.0735 C   0  0  0  0  0  0  0  0  0  0  0  0
  152.7866  139.8103  157.1716 N   0  5  0  0  0  0  0  0  0  0  0  0
  152.4807  140.8258  158.0006 C   0  0  0  0  0  0  0  0  0  0  0  0
  151.4057  141.6094  157.8148 N   0  0  0  0  0  0  0  0  0  0  0  0
  151.2695  142.5885  158.7892 N   0  0  0  0  0  0  0  0  0  0  0  0
  152.2581  142.5275  159.6811 C   0  0  0  0  0  0  0  0  0  0  0  0
  153.4406  141.2634  159.4156 S   0  0  0  0  0  0  0  0  0  0  0  0
  151.2173  138.4525  156.1426 N   0  0  0  0  0  0  0  0  0  0  0  0
  150.3043  138.0125  155.0925 C   0  0  1  0  0  0  0  0  0  0  0  0
  149.1381  137.1677  155.6220 C   0  0  0  0  0  0  0  0  0  0  0  0
  147.9541  137.4928  154.6942 C   0  0  0  0  0  0  0  0  0  0  0  0
  148.4557  138.4871  153.7197 N   0  3  1  0  0  0  0  0  0  0  0  0
  147.4410  139.3750  153.0971 C   0  0  0  0  0  0  0  0  0  0  0  0
  147.0079  140.5246  154.0227 C   0  0  0  0  0  0  0  0  0  0  0  0
  148.2277  141.3008  154.5289 C   0  0  0  0  0  0  0  0  0  0  0  0
  149.1789  140.3439  155.2548 C   0  0  0  0  0  0  0  0  0  0  0  0
  149.6123  139.1648  154.3456 C   0  0  1  0  0  0  0  0  0  0  0  0
  152.2902  143.2294  160.5009 H   0  0  0  0  0  0  0  0  0  0  0  0
  151.2018  137.9326  157.0079 H   0  0  0  0  0  0  0  0  0  0  0  0
  150.8545  137.4067  154.3693 H   0  0  0  0  0  0  0  0  0  0  0  0
  149.3818  136.1048  155.6222 H   0  0  0  0  0  0  0  0  0  0  0  0
  148.8876  137.4466  156.6470 H   0  0  0  0  0  0  0  0  0  0  0  0
  147.5898  136.6079  154.1719 H   0  0  0  0  0  0  0  0  0  0  0  0
  147.1268  137.9001  155.2766 H   0  0  0  0  0  0  0  0  0  0  0  0
  147.8769  139.7930  152.1890 H   0  0  0  0  0  0  0  0  0  0  0  0
  146.5783  138.7862  152.7831 H   0  0  0  0  0  0  0  0  0  0  0  0
  146.3357  141.1965  153.4883 H   0  0  0  0  0  0  0  0  0  0  0  0
  146.4417  140.1347  154.8692 H   0  0  0  0  0  0  0  0  0  0  0  0
  148.7427  141.7770  153.6936 H   0  0  0  0  0  0  0  0  0  0  0  0
  147.9135  142.0995  155.2013 H   0  0  0  0  0  0  0  0  0  0  0  0
  150.0549  140.8953  155.5983 H   0  0  0  0  0  0  0  0  0  0  0  0
  148.6860  139.9677  156.1521 H   0  0  0  0  0  0  0  0  0  0  0  0
  150.2617  139.5508  153.5586 H   0  0  0  0  0  0  0  0  0  0  0  0
  148.8469  137.9357  152.9692 H   0  0  0  0  0  0  0  0  0  0  0  0
  1  2  2  0  0  0  0
  2  3  1  0  0  0  0
  2  9  1  0  0  0  0
  3  4  1  0  0  0  0
  4  8  1  0  0  0  0
  4  5  2  0  0  0  0
  5  6  1  0  0  0  0
  6  7  2  0  0  0  0
  7  8  1  0  0  0  0
  7 19  1  0  0  0  0
  9 10  1  0  0  0  0
  9 20  1  0  0  0  0
 10 18  1  0  0  0  0
 10 11  1  0  0  0  0
 10 21  1  0  0  0  0
 11 12  1  0  0  0  0
 11 22  1  0  0  0  0
 11 23  1  0  0  0  0
 12 13  1  0  0  0  0
 12 24  1  0  0  0  0
 12 25  1  0  0  0  0
 13 18  1  0  0  0  0
 13 14  1  0  0  0  0
 13 35  1  0  0  0  0
 14 15  1  0  0  0  0
 14 26  1  0  0  0  0
 14 27  1  0  0  0  0
 15 16  1  0  0  0  0
 15 28  1  0  0  0  0
 15 29  1  0  0  0  0
 16 17  1  0  0  0  0
 16 30  1  0  0  0  0
 16 31  1  0  0  0  0
 17 18  1  0  0  0  0
 17 32  1  0  0  0  0
 17 33  1  0  0  0  0
 18 34  1  0  0  0  0
M  CHG  1   3  -1
M  CHG  1  13   1
M  END
> <s_m_source_file>
AV-unprocessed.smi

> <i_m_source_file_index>
1803

> <i_lp_mmshare_version>
43012

> <i_f3d_flags>
0

> <s_epik_input>
czFbY0hdbm5jMVtOSF1DKD1PKVtOSF1bQ0BIXShbQ0gyXVtDSDJdMilbQ0BASF0oTjIzKVtDSDJdW0NIMl1bQ0gyXVtDSDJdMw==

> <s_epik_cmdline>
J2VwaWtfcHl0aG9uJywgJy1waCcsICc3LjAnLCAnLXRuJywgJzgnLCAnLW1hJywgJzIwMCcsICctbWV0YWxfYmluZGluZycsICctaW1hZScsICc8aW5maWxlLm1hZT4nLCAnLW9tYWUnLCAnPG91dGZpbGUubWFlPic=

> <r_lp_tautomer_probability>
1

> <r_epik_Ionization_Penalty>
3.78828

> <r_epik_Ionization_Penalty_Charging>
3.7591

> <r_epik_Ionization_Penalty_Neutral>
0.0291838

> <r_epik_State_Penalty>
3.757

> <r_epik_Charging_Adjusted_Penalty>
7.51609

> <i_epik_Tot_Q>
0

> <i_epik_Tot_abs_Q>
2

> <r_epik_Metal_State_Penalty>
0.558016

> <b_epik_Metal_Only>
1

> <s_lp_Force_Field>
OPLS_2005

> <r_lp_Energy>
30.1197

> <b_lp_Chiralities_Consistent>
1

> <s_lp_Variant>
AV-unprocessed.smi:1803-10

> <Gold.Version>
5.8.1

> <Gold.Id.Protein>
6NUR|6NUR_protein|mol2

> <Gold.PLP.Fitness>
38.4819

> <Gold.PLP.PLP>
-26.2585

> <Gold.PLP.part.hbond>
-3.4220

> <Gold.PLP.part.metal>
0.0000

> <Gold.PLP.part.buried>
-1.5418

> <Gold.PLP.part.nonpolar>
-20.1692

> <Gold.PLP.part.repulsive>
0.1723

> <Gold.PLP.ligand.clash>
0.0000

> <Gold.PLP.ligand.torsion>
1.0182

> <Gold.PLP.Chemscore.Hbond>
4.7520

> <Gold.PLP.Chemscore.CHOScore>
0.0000

> <Gold.PLP.Chemscore.Metal>
0.0000

> <Gold.Chemscore.Hbonds>
donor molecule, donor type, donor heavy atom, donor atom, acceptor molecule, acceptor atom, score
      L1  H    13    35       P1  7948  2.00
      P1  H  7989  7998       L1     1  0.74
      P1  H  7997  8008       L1     3  2.00

> <Gold.PLP.Chemscore.Internal.Correction>
0.0038

> <Gold.Rescore>
     Score         DG    S(hbond)    S(metal)    S(lipo)     H(rot)  DE(clash)    DE(int)     intcor
     15.43     -17.72       2.47        0.00      55.99       1.00       0.01       2.28       ----

> <Gold.Chemscore.Fitness>
15.4261

> <Gold.Chemscore.DG>
-17.7175

> <Gold.Chemscore.ZeroCoef>
-5.4800

> <Gold.Chemscore.Hbond>
2.4690

> <Gold.Chemscore.Metal>
0.0000

> <Gold.Chemscore.Lipo>
55.9929

> <Gold.Chemscore.Internal_Hbond>
0.0000

> <Gold.Chemscore.DEClash>
0.0130

> <Gold.Chemscore.DEInternal>
2.2783

> <Gold.Chemscore.Rot>
1.0000

> <Gold.Chemscore.Internal.Correction>
   9.000000E+99

> <Gold.Chemscore.Hbonds>
donor molecule, donor type, donor heavy atom, donor atom, acceptor molecule, acceptor atom, score
      L1  H    13    35       P1  7948  0.92
      P1  H  7989  7998       L1     1  0.74
      P1  H  7997  8008       L1     3  0.34

> <Gold.Chemscore.Hbond.Weighted>
-8.2463

> <Gold.Chemscore.Metal.Weighted>
-0.0000

> <Gold.Chemscore.Lipo.Weighted>
-6.5512

> <Gold.Chemscore.Internal_Hbond.Weighted>
0.0000

> <Gold.Chemscore.DEClash.Weighted>
0.0130

> <Gold.Chemscore.DEInternal.Weighted>
2.2783

> <Gold.Chemscore.Rot.Weighted>
2.5600

> <Gold.Chemscore.Internal.Correction.Weighted>
   9.000000E+99

> <Gold.Protein.RotatedTorsions>
[ 6907 6896 6895 6894 ] final    9.99 input  -60.11 | X-H torsion
[ 7974 7965 7964 7962 ] final  144.92 input  175.53 | X-H torsion
[ 8008 7997 7996 7995 ] final  -74.66 input   59.86 | X-H torsion
[ 10167 10162 10161 10158 ] final   54.08 input  -65.29 | X-H torsion
[ 10718 10713 10712 10709 ] final   57.09 input   66.30 | X-H torsion
[ 10763 10752 10751 10750 ] final -110.73 input  -60.55 | X-H torsion
[ 11005 11000 10999 10996 ] final -154.93 input  -57.11 | X-H torsion

> <Gold.Protein.ActiveResidues>
 VAL166  LYS551  ARG553  GLY616  TRP617  ASP618  TYR619  PRO620  LYS621  CYS622 
 ASP623  PHE694  ASN695  SER759  ASP760  ASP761  ALA762  ILE779  LEU786  VAL792 
 PHE793  MET794  SER795  GLU796  ALA797  LYS798  CYS799  TRP800  GLU811  SER814 

> <Gold.Protein.RotatedAtoms>
  151.7311  135.0874  160.0299 H   0  0  0  0  0  0  0  0  0  0  0  0  # atno 6907 bound_to 6896
  152.3540  133.6210  159.5974 H   0  0  0  0  0  0  0  0  0  0  0  0  # atno 6908 bound_to 6896
  150.7559  133.9445  159.3508 H   0  0  0  0  0  0  0  0  0  0  0  0  # atno 6909 bound_to 6896
  144.8796  139.5720  143.5849 H   0  0  0  0  0  0  0  0  0  0  0  0  # atno 7974 bound_to 7965
  154.5349  140.0757  156.8411 H   0  0  0  0  0  0  0  0  0  0  0  0  # atno 8008 bound_to 7997
  155.3298  140.3401  155.4221 H   0  0  0  0  0  0  0  0  0  0  0  0  # atno 8009 bound_to 7997
  156.1819  140.1655  156.8245 H   0  0  0  0  0  0  0  0  0  0  0  0  # atno 8010 bound_to 7997
  140.2339  144.3657  150.6404 H   0  0  0  0  0  0  0  0  0  0  0  0  # atno 10167 bound_to 10162
  157.5485  130.8748  149.8928 H   0  0  0  0  0  0  0  0  0  0  0  0  # atno 10718 bound_to 10713
  154.8263  135.4553  154.0930 H   0  0  0  0  0  0  0  0  0  0  0  0  # atno 10763 bound_to 10752
  153.2241  135.6897  153.7972 H   0  0  0  0  0  0  0  0  0  0  0  0  # atno 10764 bound_to 10752
  153.7378  135.3317  155.3275 H   0  0  0  0  0  0  0  0  0  0  0  0  # atno 10765 bound_to 10752
  140.6920  134.4031  157.5218 H   0  0  0  0  0  0  0  0  0  0  0  0  # atno 11005 bound_to 11000
  146.2985  139.7353  142.9108 LP  0  0  0  0  0  0  0  0  0  0  0  0  # atno 17320 bound_to 7965
  145.3979  141.0381  143.3087 LP  0  0  0  0  0  0  0  0  0  0  0  0  # atno 17321 bound_to 7965
  140.6164  143.2173  151.6782 LP  0  0  0  0  0  0  0  0  0  0  0  0  # atno 17342 bound_to 10162
  139.5100  144.3557  152.0610 LP  0  0  0  0  0  0  0  0  0  0  0  0  # atno 17343 bound_to 10162
  156.0556  130.3709  150.1098 LP  0  0  0  0  0  0  0  0  0  0  0  0  # atno 17370 bound_to 10713
  156.9273  130.9702  151.3539 LP  0  0  0  0  0  0  0  0  0  0  0  0  # atno 17371 bound_to 10713
  139.8921  134.8764  156.2288 LP  0  0  0  0  0  0  0  0  0  0  0  0  # atno 17394 bound_to 11000
  141.0234  133.7029  156.1306 LP  0  0  0  0  0  0  0  0  0  0  0  0  # atno 17395 bound_to 11000

$$$$
