AV-unprocessed.smi:1483|AV-procd|sdf|5991|dock3
  -GOLD-   22720 6 83D 1   1.00000     0.00000
 Structure written by MMmdl.
 50 51  0  0  0  0  0  0  0  0  3 V2000
  149.8743  143.6007  158.8017 C   0  0  0  0  0  0  0  0  0  0  0  0
  150.5134  142.4990  157.9831 C   0  0  0  0  0  0  0  0  0  0  0  0
  151.4806  141.6239  158.5223 C   0  0  0  0  0  0  0  0  0  0  0  0
  152.0329  140.6183  157.7023 C   0  0  0  0  0  0  0  0  0  0  0  0
  151.6095  140.5078  156.3593 C   0  0  0  0  0  0  0  0  0  0  0  0
  152.1876  139.4371  155.4511 C   0  0  0  0  0  0  0  0  0  0  0  0
  151.0974  138.4499  155.0337 C   0  0  0  0  0  0  0  0  0  0  0  0
  150.7197  138.4116  153.8633 O   0  0  0  0  0  0  0  0  0  0  0  0
  150.6058  137.6549  155.9974 N   0  0  0  0  0  0  0  0  0  0  0  0
  149.5735  136.6405  155.8061 C   0  0  2  0  0  0  0  0  0  0  0  0
  150.1433  135.4127  155.0745 C   0  0  0  0  0  0  0  0  0  0  0  0
  149.0414  134.3828  154.7742 C   0  0  0  0  0  0  0  0  0  0  0  0
  147.9336  134.9892  153.9908 N   0  3  1  0  0  0  0  0  0  0  0  0
  146.9240  133.9813  153.5749 C   0  0  0  0  0  0  0  0  0  0  0  0
  147.4748  132.9486  152.5672 C   0  0  0  0  0  0  0  0  0  0  0  0
  146.3270  132.2964  151.7825 C   0  0  0  0  0  0  0  0  0  0  0  0
  148.3317  131.8742  153.2576 C   0  0  0  0  0  0  0  0  0  0  0  0
  147.3431  136.1569  154.6985 C   0  0  0  0  0  0  0  0  0  0  0  0
  148.4086  137.2261  154.9931 C   0  0  0  0  0  0  0  0  0  0  0  0
  150.6370  141.4105  155.8757 C   0  0  0  0  0  0  0  0  0  0  0  0
  150.1320  142.3601  156.6935 N   0  3  0  0  0  0  0  0  0  0  0  0
  150.3462  143.6859  159.7810 H   0  0  0  0  0  0  0  0  0  0  0  0
  148.8141  143.3952  158.9510 H   0  0  0  0  0  0  0  0  0  0  0  0
  149.9719  144.5604  158.2936 H   0  0  0  0  0  0  0  0  0  0  0  0
  151.7967  141.7195  159.5508 H   0  0  0  0  0  0  0  0  0  0  0  0
  152.7745  139.9420  158.1019 H   0  0  0  0  0  0  0  0  0  0  0  0
  152.6390  139.8943  154.5693 H   0  0  0  0  0  0  0  0  0  0  0  0
  152.9850  138.9044  155.9713 H   0  0  0  0  0  0  0  0  0  0  0  0
  150.9746  137.7596  156.9316 H   0  0  0  0  0  0  0  0  0  0  0  0
  149.1873  136.3290  156.7789 H   0  0  0  0  0  0  0  0  0  0  0  0
  150.6132  135.7219  154.1393 H   0  0  0  0  0  0  0  0  0  0  0  0
  150.9263  134.9464  155.6740 H   0  0  0  0  0  0  0  0  0  0  0  0
  149.4753  133.5517  154.2170 H   0  0  0  0  0  0  0  0  0  0  0  0
  148.6474  133.9703  155.7046 H   0  0  0  0  0  0  0  0  0  0  0  0
  146.5663  133.4401  154.4522 H   0  0  0  0  0  0  0  0  0  0  0  0
  146.0540  134.4958  153.1636 H   0  0  0  0  0  0  0  0  0  0  0  0
  148.1014  133.4573  151.8355 H   0  0  0  0  0  0  0  0  0  0  0  0
  145.6511  131.7530  152.4437 H   0  0  0  0  0  0  0  0  0  0  0  0
  146.7068  131.5906  151.0429 H   0  0  0  0  0  0  0  0  0  0  0  0
  145.7401  133.0445  151.2485 H   0  0  0  0  0  0  0  0  0  0  0  0
  147.7565  131.3270  154.0053 H   0  0  0  0  0  0  0  0  0  0  0  0
  149.1966  132.3116  153.7566 H   0  0  0  0  0  0  0  0  0  0  0  0
  148.7080  131.1496  152.5349 H   0  0  0  0  0  0  0  0  0  0  0  0
  146.5535  136.6076  154.0990 H   0  0  0  0  0  0  0  0  0  0  0  0
  146.8794  135.8244  155.6286 H   0  0  0  0  0  0  0  0  0  0  0  0
  147.9550  138.0571  155.5350 H   0  0  0  0  0  0  0  0  0  0  0  0
  148.7788  137.6357  154.0519 H   0  0  0  0  0  0  0  0  0  0  0  0
  150.2528  141.4045  154.8658 H   0  0  0  0  0  0  0  0  0  0  0  0
  148.3512  135.3382  153.1399 H   0  0  0  0  0  0  0  0  0  0  0  0
  149.4316  143.0016  156.3205 H   0  0  0  0  0  0  0  0  0  0  0  0
  1  2  1  0  0  0  0
  1 22  1  0  0  0  0
  1 23  1  0  0  0  0
  1 24  1  0  0  0  0
  2 21  1  0  0  0  0
  2  3  2  0  0  0  0
  3  4  1  0  0  0  0
  3 25  1  0  0  0  0
  4  5  2  0  0  0  0
  4 26  1  0  0  0  0
  5  6  1  0  0  0  0
  5 20  1  0  0  0  0
  6  7  1  0  0  0  0
  6 27  1  0  0  0  0
  6 28  1  0  0  0  0
  7  8  2  0  0  0  0
  7  9  1  0  0  0  0
  9 10  1  0  0  0  0
  9 29  1  0  0  0  0
 10 19  1  0  0  0  0
 10 11  1  0  0  0  0
 10 30  1  0  0  0  0
 11 12  1  0  0  0  0
 11 31  1  0  0  0  0
 11 32  1  0  0  0  0
 12 13  1  0  0  0  0
 12 33  1  0  0  0  0
 12 34  1  0  0  0  0
 13 14  1  0  0  0  0
 13 18  1  0  0  0  0
 13 49  1  0  0  0  0
 14 15  1  0  0  0  0
 14 35  1  0  0  0  0
 14 36  1  0  0  0  0
 15 16  1  0  0  0  0
 15 17  1  0  0  0  0
 15 37  1  0  0  0  0
 16 38  1  0  0  0  0
 16 39  1  0  0  0  0
 16 40  1  0  0  0  0
 17 41  1  0  0  0  0
 17 42  1  0  0  0  0
 17 43  1  0  0  0  0
 18 19  1  0  0  0  0
 18 44  1  0  0  0  0
 18 45  1  0  0  0  0
 19 46  1  0  0  0  0
 19 47  1  0  0  0  0
 20 21  2  0  0  0  0
 20 48  1  0  0  0  0
 21 50  1  0  0  0  0
M  CHG  1  13   1
M  CHG  1  21   1
M  END
> <s_m_source_file>
AV-unprocessed.smi

> <i_m_source_file_index>
1483

> <i_lp_mmshare_version>
43012

> <i_f3d_flags>
0

> <s_epik_input>
W0NIM11jMVtjSF1bY0hdYyhbY0hdbjEpW0NIMl1DKD1PKVtOSF1bQ0hdMltDSDJdW0NIMl1OKFtDSDJdW0NIMl0yKVtDSDJdW0NIXShbQ0gzXSlbQ0gzXQ==

> <s_epik_cmdline>
J2VwaWtfcHl0aG9uJywgJy1waCcsICc3LjAnLCAnLXRuJywgJzgnLCAnLW1hJywgJzIwMCcsICctbWV0YWxfYmluZGluZycsICctaW1hZScsICc8aW5maWxlLm1hZT4nLCAnLW9tYWUnLCAnPG91dGZpbGUubWFlPic=

> <r_epik_Ionization_Penalty>
2.20554

> <r_epik_Ionization_Penalty_Charging>
2.20554

> <r_epik_Ionization_Penalty_Neutral>
2.83835e-07

> <r_epik_State_Penalty>
2.34446

> <r_epik_Charging_Adjusted_Penalty>
4.55

> <i_epik_Tot_Q>
2

> <i_epik_Tot_abs_Q>
2

> <r_epik_Metal_State_Penalty>
2.35906

> <b_epik_Metal_Only>
0

> <s_lp_Force_Field>
OPLS_2005

> <r_lp_Energy>
27.324

> <b_lp_Chiralities_Consistent>
1

> <s_lp_Variant>
AV-unprocessed.smi:1483-3

> <Gold.Version>
5.8.1

> <Gold.Id.Protein>
6NUR|6NUR_protein|mol2

> <Gold.PLP.Fitness>
44.6061

> <Gold.PLP.PLP>
-33.5332

> <Gold.PLP.part.hbond>
-2.0000

> <Gold.PLP.part.metal>
0.0000

> <Gold.PLP.part.buried>
-3.0197

> <Gold.PLP.part.nonpolar>
-28.7484

> <Gold.PLP.part.repulsive>
0.3356

> <Gold.PLP.ligand.clash>
0.0000

> <Gold.PLP.ligand.torsion>
0.4877

> <Gold.PLP.Chemscore.Hbond>
4.0000

> <Gold.PLP.Chemscore.CHOScore>
0.0000

> <Gold.PLP.Chemscore.Metal>
0.0000

> <Gold.Chemscore.Hbonds>
donor molecule, donor type, donor heavy atom, donor atom, acceptor molecule, acceptor atom, score
      L1  H    13    49       P1  7948  2.00
      L1  H    21    50       P1  8028  2.00

> <Gold.PLP.Chemscore.Internal.Correction>
0.0483

> <Gold.Rescore>
     Score         DG    S(hbond)    S(metal)    S(lipo)     H(rot)  DE(clash)    DE(int)     intcor
     16.43     -18.39       1.98        0.00      87.91       1.55       0.14       1.82       ----

> <Gold.Chemscore.Fitness>
16.4269

> <Gold.Chemscore.DG>
-18.3916

> <Gold.Chemscore.ZeroCoef>
-5.4800

> <Gold.Chemscore.Hbond>
1.9758

> <Gold.Chemscore.Metal>
0.0000

> <Gold.Chemscore.Lipo>
87.9102

> <Gold.Chemscore.Internal_Hbond>
0.0000

> <Gold.Chemscore.DEClash>
0.1438

> <Gold.Chemscore.DEInternal>
1.8209

> <Gold.Chemscore.Rot>
1.5520

> <Gold.Chemscore.Internal.Correction>
   9.000000E+99

> <Gold.Chemscore.Hbonds>
donor molecule, donor type, donor heavy atom, donor atom, acceptor molecule, acceptor atom, score
      L1  H    13    49       P1  7948  0.98
      L1  H    21    50       P1  8028  0.96

> <Gold.Chemscore.Hbond.Weighted>
-6.5991

> <Gold.Chemscore.Metal.Weighted>
-0.0000

> <Gold.Chemscore.Lipo.Weighted>
-10.2855

> <Gold.Chemscore.Internal_Hbond.Weighted>
0.0000

> <Gold.Chemscore.DEClash.Weighted>
0.1438

> <Gold.Chemscore.DEInternal.Weighted>
1.8209

> <Gold.Chemscore.Rot.Weighted>
3.9730

> <Gold.Chemscore.Internal.Correction.Weighted>
   9.000000E+99

> <Gold.Protein.RotatedTorsions>
[ 6907 6896 6895 6894 ] final  116.30 input  -60.11 | X-H torsion
[ 7974 7965 7964 7962 ] final   69.75 input  175.53 | X-H torsion
[ 8008 7997 7996 7995 ] final   53.27 input   59.86 | X-H torsion
[ 10167 10162 10161 10158 ] final  169.30 input  -65.29 | X-H torsion
[ 10718 10713 10712 10709 ] final -130.29 input   66.30 | X-H torsion
[ 10763 10752 10751 10750 ] final  121.28 input  -60.55 | X-H torsion
[ 11005 11000 10999 10996 ] final  -71.12 input  -57.11 | X-H torsion

> <Gold.Protein.ActiveResidues>
 VAL166  LYS551  ARG553  GLY616  TRP617  ASP618  TYR619  PRO620  LYS621  CYS622 
 ASP623  PHE694  ASN695  SER759  ASP760  ASP761  ALA762  ILE779  LEU786  VAL792 
 PHE793  MET794  SER795  GLU796  ALA797  LYS798  CYS799  TRP800  GLU811  SER814 

> <Gold.Protein.RotatedAtoms>
  152.4687  133.7980  159.6937 H   0  0  0  0  0  0  0  0  0  0  0  0  # atno 6907 bound_to 6896
  150.8664  133.7558  159.2981 H   0  0  0  0  0  0  0  0  0  0  0  0  # atno 6908 bound_to 6896
  151.5107  135.1068  159.9905 H   0  0  0  0  0  0  0  0  0  0  0  0  # atno 6909 bound_to 6896
  145.7866  139.2913  143.1234 H   0  0  0  0  0  0  0  0  0  0  0  0  # atno 7974 bound_to 7965
  155.4655  140.3463  155.4318 H   0  0  0  0  0  0  0  0  0  0  0  0  # atno 8008 bound_to 7997
  156.1134  140.1467  156.9336 H   0  0  0  0  0  0  0  0  0  0  0  0  # atno 8009 bound_to 7997
  154.4772  140.0881  156.7269 H   0  0  0  0  0  0  0  0  0  0  0  0  # atno 8010 bound_to 7997
  139.4989  144.3721  151.9713 H   0  0  0  0  0  0  0  0  0  0  0  0  # atno 10167 bound_to 10162
  156.2130  130.6930  151.0671 H   0  0  0  0  0  0  0  0  0  0  0  0  # atno 10718 bound_to 10713
  153.6117  135.3429  155.2981 H   0  0  0  0  0  0  0  0  0  0  0  0  # atno 10763 bound_to 10752
  154.8617  135.4252  154.2303 H   0  0  0  0  0  0  0  0  0  0  0  0  # atno 10764 bound_to 10752
  153.3155  135.7034  153.7149 H   0  0  0  0  0  0  0  0  0  0  0  0  # atno 10765 bound_to 10752
  141.1586  133.6808  156.6857 H   0  0  0  0  0  0  0  0  0  0  0  0  # atno 11005 bound_to 11000
  146.0019  140.8512  143.0014 LP  0  0  0  0  0  0  0  0  0  0  0  0  # atno 17320 bound_to 7965
  144.6788  140.2365  143.7349 LP  0  0  0  0  0  0  0  0  0  0  0  0  # atno 17321 bound_to 7965
  140.3157  144.3486  150.6022 LP  0  0  0  0  0  0  0  0  0  0  0  0  # atno 17342 bound_to 10162
  140.5763  143.2176  151.7509 LP  0  0  0  0  0  0  0  0  0  0  0  0  # atno 17343 bound_to 10162
  157.7048  131.0761  150.6702 LP  0  0  0  0  0  0  0  0  0  0  0  0  # atno 17370 bound_to 10713
  156.6762  130.4554  149.5642 LP  0  0  0  0  0  0  0  0  0  0  0  0  # atno 17371 bound_to 10713
  140.3068  134.8118  157.4144 LP  0  0  0  0  0  0  0  0  0  0  0  0  # atno 17394 bound_to 11000
  140.1213  134.5216  155.8181 LP  0  0  0  0  0  0  0  0  0  0  0  0  # atno 17395 bound_to 11000

$$$$
