AV-unprocessed.smi:977|AV-procd|sdf|4305|dock1
  -GOLD-   22720 2213D 1   1.00000     0.00000
 Structure written by MMmdl.
 37 38  0  0  0  0  0  0  0  0  1 V2000
  147.7723  140.2629  153.8522 C   0  0  0  0  0  0  0  0  0  0  0  0
  149.1772  140.1312  154.3714 C   0  0  0  0  0  0  0  0  0  0  0  0
  149.8103  141.2130  154.8011 N   0  0  0  0  0  0  0  0  0  0  0  0
  151.0560  140.7848  155.2861 O   0  0  0  0  0  0  0  0  0  0  0  0
  151.1476  139.4376  155.1352 C   0  0  0  0  0  0  0  0  0  0  0  0
  152.4013  138.7852  155.6112 C   0  0  0  0  0  0  0  0  0  0  0  0
  150.0080  138.9848  154.5392 C   0  0  0  0  0  0  0  0  0  0  0  0
  149.7329  137.6261  154.2452 N   0  0  0  0  0  0  0  0  0  0  0  0
  149.9559  136.5745  155.0476 C   0  0  0  0  0  0  0  0  0  0  0  0
  150.3803  136.6503  156.2007 O   0  0  0  0  0  0  0  0  0  0  0  0
  149.6371  135.4205  154.4438 N   0  0  0  0  0  0  0  0  0  0  0  0
  149.7663  134.0907  155.0362 C   0  0  1  0  0  0  0  0  0  0  0  0
  148.9117  134.0411  156.3125 C   0  0  0  0  0  0  0  0  0  0  0  0
  149.3565  133.0077  154.0138 C   0  0  2  0  0  0  0  0  0  0  0  0
  147.8929  133.0826  153.5664 C   0  0  0  0  0  0  0  0  0  0  0  0
  147.5859  131.6422  153.2289 C   0  0  0  0  0  0  0  0  0  0  0  0
  148.3461  130.9122  154.3279 C   0  0  0  0  0  0  0  0  0  0  0  0
  149.5072  131.6992  154.5676 O   0  0  0  0  0  0  0  0  0  0  0  0
  147.1810  139.3770  154.0843 H   0  0  0  0  0  0  0  0  0  0  0  0
  147.7652  140.3979  152.7705 H   0  0  0  0  0  0  0  0  0  0  0  0
  147.2613  141.1182  154.2954 H   0  0  0  0  0  0  0  0  0  0  0  0
  152.3074  137.6992  155.6009 H   0  0  0  0  0  0  0  0  0  0  0  0
  152.6350  139.0934  156.6304 H   0  0  0  0  0  0  0  0  0  0  0  0
  153.2422  139.0576  154.9736 H   0  0  0  0  0  0  0  0  0  0  0  0
  149.2554  137.4459  153.3743 H   0  0  0  0  0  0  0  0  0  0  0  0
  149.2918  135.4616  153.4961 H   0  0  0  0  0  0  0  0  0  0  0  0
  150.8051  133.9246  155.3273 H   0  0  0  0  0  0  0  0  0  0  0  0
  149.0215  133.0874  156.8288 H   0  0  0  0  0  0  0  0  0  0  0  0
  147.8533  134.1779  156.0875 H   0  0  0  0  0  0  0  0  0  0  0  0
  149.2070  134.8234  157.0125 H   0  0  0  0  0  0  0  0  0  0  0  0
  149.9993  133.0606  153.1335 H   0  0  0  0  0  0  0  0  0  0  0  0
  147.2542  133.4107  154.3880 H   0  0  0  0  0  0  0  0  0  0  0  0
  147.7395  133.7591  152.7252 H   0  0  0  0  0  0  0  0  0  0  0  0
  146.5189  131.4177  153.2266 H   0  0  0  0  0  0  0  0  0  0  0  0
  147.9955  131.3877  152.2504 H   0  0  0  0  0  0  0  0  0  0  0  0
  147.7541  130.8806  155.2431 H   0  0  0  0  0  0  0  0  0  0  0  0
  148.6046  129.8893  154.0540 H   0  0  0  0  0  0  0  0  0  0  0  0
  1  2  1  0  0  0  0
  1 19  1  0  0  0  0
  1 20  1  0  0  0  0
  1 21  1  0  0  0  0
  2  7  1  0  0  0  0
  2  3  2  0  0  0  0
  3  4  1  0  0  0  0
  4  5  1  0  0  0  0
  5  6  1  0  0  0  0
  5  7  2  0  0  0  0
  6 22  1  0  0  0  0
  6 23  1  0  0  0  0
  6 24  1  0  0  0  0
  7  8  1  0  0  0  0
  8  9  1  0  0  0  0
  8 25  1  0  0  0  0
  9 10  2  0  0  0  0
  9 11  1  0  0  0  0
 11 12  1  0  0  0  0
 11 26  1  0  0  0  0
 12 13  1  0  0  0  0
 12 14  1  0  0  0  0
 12 27  1  0  0  0  0
 13 28  1  0  0  0  0
 13 29  1  0  0  0  0
 13 30  1  0  0  0  0
 14 18  1  0  0  0  0
 14 15  1  0  0  0  0
 14 31  1  0  0  0  0
 15 16  1  0  0  0  0
 15 32  1  0  0  0  0
 15 33  1  0  0  0  0
 16 17  1  0  0  0  0
 16 34  1  0  0  0  0
 16 35  1  0  0  0  0
 17 18  1  0  0  0  0
 17 36  1  0  0  0  0
 17 37  1  0  0  0  0
M  END
> <s_m_source_file>
AV-unprocessed.smi

> <i_m_source_file_index>
977

> <i_lp_mmshare_version>
43012

> <i_f3d_flags>
0

> <s_epik_input>
W0NIM11jMW5vYyhbQ0gzXSljMVtOSF1DKD1PKVtOSF1bQ0BIXShbQ0gzXSlbQ0BASF0yW0NIMl1bQ0gyXVtDSDJdTzI=

> <s_epik_cmdline>
J2VwaWtfcHl0aG9uJywgJy1waCcsICc3LjAnLCAnLXRuJywgJzgnLCAnLW1hJywgJzIwMCcsICctbWV0YWxfYmluZGluZycsICctaW1hZScsICc8aW5maWxlLm1hZT4nLCAnLW9tYWUnLCAnPG91dGZpbGUubWFlPic=

> <r_lp_tautomer_probability>
1

> <r_epik_Ionization_Penalty>
3.41601e-05

> <r_epik_Ionization_Penalty_Charging>
0

> <r_epik_Ionization_Penalty_Neutral>
3.41601e-05

> <r_epik_State_Penalty>
-0

> <r_epik_Charging_Adjusted_Penalty>
0

> <i_epik_Tot_Q>
0

> <i_epik_Tot_abs_Q>
0

> <r_epik_Metal_State_Penalty>
-0

> <b_epik_Metal_Only>
0

> <s_lp_Force_Field>
OPLS_2005

> <r_lp_Energy>
19.7508

> <b_lp_Chiralities_Consistent>
1

> <s_lp_Variant>
AV-unprocessed.smi:977-2

> <Gold.Version>
5.8.1

> <Gold.Id.Protein>
6NUR|6NUR_protein|mol2

> <Gold.PLP.Fitness>
36.6553

> <Gold.PLP.PLP>
-31.0228

> <Gold.PLP.part.hbond>
-4.1661

> <Gold.PLP.part.metal>
0.0000

> <Gold.PLP.part.buried>
-1.9764

> <Gold.PLP.part.nonpolar>
-24.8081

> <Gold.PLP.part.repulsive>
0.3171

> <Gold.PLP.ligand.clash>
0.0000

> <Gold.PLP.ligand.torsion>
0.3869

> <Gold.PLP.Chemscore.Hbond>
2.0240

> <Gold.PLP.Chemscore.CHOScore>
0.0000

> <Gold.PLP.Chemscore.Metal>
0.0000

> <Gold.Chemscore.Hbonds>
donor molecule, donor type, donor heavy atom, donor atom, acceptor molecule, acceptor atom, score
      L1  H     8    25       P1  7948  0.94
      L1  H    11    26       P1  7948  1.00
      P1  H  7989  7998       L1     4  0.07

> <Gold.PLP.Chemscore.Internal.Correction>
0.3344

> <Gold.Rescore>
     Score         DG    S(hbond)    S(metal)    S(lipo)     H(rot)  DE(clash)    DE(int)     intcor
     12.75     -14.11       1.24        0.00      65.07       1.22       0.04       1.33       ----

> <Gold.Chemscore.Fitness>
12.7493

> <Gold.Chemscore.DG>
-14.1137

> <Gold.Chemscore.ZeroCoef>
-5.4800

> <Gold.Chemscore.Hbond>
1.2405

> <Gold.Chemscore.Metal>
0.0000

> <Gold.Chemscore.Lipo>
65.0743

> <Gold.Chemscore.Internal_Hbond>
0.0000

> <Gold.Chemscore.DEClash>
0.0370

> <Gold.Chemscore.DEInternal>
1.3275

> <Gold.Chemscore.Rot>
1.2200

> <Gold.Chemscore.Internal.Correction>
   9.000000E+99

> <Gold.Chemscore.Hbonds>
donor molecule, donor type, donor heavy atom, donor atom, acceptor molecule, acceptor atom, score
      L1  H     8    25       P1  7948  0.89
      L1  H    11    26       P1  7948  0.30

> <Gold.Chemscore.Hbond.Weighted>
-4.1432

> <Gold.Chemscore.Metal.Weighted>
-0.0000

> <Gold.Chemscore.Lipo.Weighted>
-7.6137

> <Gold.Chemscore.Internal_Hbond.Weighted>
0.0000

> <Gold.Chemscore.DEClash.Weighted>
0.0370

> <Gold.Chemscore.DEInternal.Weighted>
1.3275

> <Gold.Chemscore.Rot.Weighted>
3.1232

> <Gold.Chemscore.Internal.Correction.Weighted>
   9.000000E+99

> <Gold.Protein.RotatedTorsions>
[ 6907 6896 6895 6894 ] final  -95.50 input  -60.11 | X-H torsion
[ 7974 7965 7964 7962 ] final  123.95 input  175.53 | X-H torsion
[ 8008 7997 7996 7995 ] final  -34.71 input   59.86 | X-H torsion
[ 10167 10162 10161 10158 ] final   34.59 input  -65.29 | X-H torsion
[ 10718 10713 10712 10709 ] final   55.85 input   66.30 | X-H torsion
[ 10763 10752 10751 10750 ] final   24.04 input  -60.55 | X-H torsion
[ 11005 11000 10999 10996 ] final  -50.52 input  -57.11 | X-H torsion

> <Gold.Protein.ActiveResidues>
 VAL166  LYS551  ARG553  GLY616  TRP617  ASP618  TYR619  PRO620  LYS621  CYS622 
 ASP623  PHE694  ASN695  SER759  ASP760  ASP761  ALA762  ILE779  LEU786  VAL792 
 PHE793  MET794  SER795  GLU796  ALA797  LYS798  CYS799  TRP800  GLU811  SER814 

> <Gold.Protein.RotatedAtoms>
  150.6965  134.1647  159.4189 H   0  0  0  0  0  0  0  0  0  0  0  0  # atno 6907 bound_to 6896
  151.9627  135.0113  160.0558 H   0  0  0  0  0  0  0  0  0  0  0  0  # atno 6908 bound_to 6896
  152.1912  133.4740  159.5046 H   0  0  0  0  0  0  0  0  0  0  0  0  # atno 6909 bound_to 6896
  145.0901  139.3593  143.4865 H   0  0  0  0  0  0  0  0  0  0  0  0  # atno 7974 bound_to 7965
  154.4113  140.1676  156.2094 H   0  0  0  0  0  0  0  0  0  0  0  0  # atno 8008 bound_to 7997
  155.9457  140.3405  155.6341 H   0  0  0  0  0  0  0  0  0  0  0  0  # atno 8009 bound_to 7997
  155.6934  140.0736  157.2430 H   0  0  0  0  0  0  0  0  0  0  0  0  # atno 8010 bound_to 7997
  140.4301  144.1337  150.6158 H   0  0  0  0  0  0  0  0  0  0  0  0  # atno 10167 bound_to 10162
  157.5381  130.8677  149.8782 H   0  0  0  0  0  0  0  0  0  0  0  0  # atno 10718 bound_to 10713
  153.0793  135.6614  154.0078 H   0  0  0  0  0  0  0  0  0  0  0  0  # atno 10763 bound_to 10752
  153.9704  135.2965  155.3429 H   0  0  0  0  0  0  0  0  0  0  0  0  # atno 10764 bound_to 10752
  154.7189  135.5173  153.8852 H   0  0  0  0  0  0  0  0  0  0  0  0  # atno 10765 bound_to 10752
  141.0820  133.6651  156.3743 H   0  0  0  0  0  0  0  0  0  0  0  0  # atno 11005 bound_to 11000
  146.3531  140.0731  142.8622 LP  0  0  0  0  0  0  0  0  0  0  0  0  # atno 17320 bound_to 7965
  145.1076  140.9385  143.4675 LP  0  0  0  0  0  0  0  0  0  0  0  0  # atno 17321 bound_to 7965
  140.4437  143.2515  151.9439 LP  0  0  0  0  0  0  0  0  0  0  0  0  # atno 17342 bound_to 10162
  139.4784  144.5629  151.8210 LP  0  0  0  0  0  0  0  0  0  0  0  0  # atno 17343 bound_to 10162
  156.0474  130.3725  150.1283 LP  0  0  0  0  0  0  0  0  0  0  0  0  # atno 17370 bound_to 10713
  156.9464  130.9761  151.3506 LP  0  0  0  0  0  0  0  0  0  0  0  0  # atno 17371 bound_to 10713
  140.5446  134.6087  157.5390 LP  0  0  0  0  0  0  0  0  0  0  0  0  # atno 17394 bound_to 11000
  139.9635  134.7412  156.0187 LP  0  0  0  0  0  0  0  0  0  0  0  0  # atno 17395 bound_to 11000

$$$$
