AV-unprocessed.smi:587|AV-procd|sdf|3002|dock5
  -GOLD-   2262023503D 1   1.00000     0.00000
 Structure written by MMmdl.
 46 48  0  0  0  0  0  0  0  0  1 V2000
  150.0234  131.7850  155.0273 C   0  0  0  0  0  0  0  0  0  0  0  0
  148.8981  131.5627  154.1434 N   0  0  0  0  0  0  0  0  0  0  0  0
  148.2936  132.5515  153.3703 C   0  0  0  0  0  0  0  0  0  0  0  0
  148.7617  133.8504  153.4814 N   0  0  0  0  0  0  0  0  0  0  0  0
  147.2421  132.2758  152.5500 C   0  0  0  0  0  0  0  0  0  0  0  0
  146.6073  133.2366  151.7613 N   0  0  0  0  0  0  0  0  0  0  0  0
  146.0832  134.4937  152.2934 C   0  0  0  0  0  0  0  0  0  0  0  0
  144.5769  134.6436  152.0080 C   0  0  0  0  0  0  0  0  0  0  0  0
  144.2779  134.4608  150.5120 C   0  0  0  0  0  0  0  0  0  0  0  0
  144.8687  133.1348  150.0089 C   0  0  0  0  0  0  0  0  0  0  0  0
  146.3699  133.0518  150.3305 C   0  0  0  0  0  0  0  0  0  0  0  0
  146.7120  130.9095  152.4504 C   0  0  0  0  0  0  0  0  0  0  0  0
  145.7751  130.5951  151.7119 O   0  0  0  0  0  0  0  0  0  0  0  0
  147.3318  129.9354  153.2648 N   0  0  0  0  0  0  0  0  0  0  0  0
  146.8043  128.5517  153.2457 C   0  0  0  0  0  0  0  0  0  0  0  0
  147.8287  127.5115  152.7650 C   0  0  0  0  0  0  0  0  0  0  0  0
  148.2461  126.6336  153.5221 O   0  0  0  0  0  0  0  0  0  0  0  0
  148.2218  127.6292  151.4885 N   0  0  0  0  0  0  0  0  0  0  0  0
  149.1490  126.7709  150.8250 C   0  0  0  0  0  0  0  0  0  0  0  0
  148.5913  125.6819  149.9345 C   0  0  0  0  0  0  0  0  0  0  0  0
  149.1980  125.3230  151.2630 C   0  0  0  0  0  0  0  0  0  0  0  0
  148.4060  130.2380  154.1259 C   0  0  0  0  0  0  0  0  0  0  0  0
  148.8979  129.3634  154.8457 O   0  0  0  0  0  0  0  0  0  0  0  0
  150.4470  132.7728  154.8583 H   0  0  0  0  0  0  0  0  0  0  0  0
  150.7839  131.0347  154.8030 H   0  0  0  0  0  0  0  0  0  0  0  0
  149.6529  131.6947  156.0498 H   0  0  0  0  0  0  0  0  0  0  0  0
  149.5217  134.0816  154.1051 H   0  0  0  0  0  0  0  0  0  0  0  0
  148.4576  134.5812  152.8547 H   0  0  0  0  0  0  0  0  0  0  0  0
  146.2686  134.5558  153.3664 H   0  0  0  0  0  0  0  0  0  0  0  0
  146.6335  135.3185  151.8387 H   0  0  0  0  0  0  0  0  0  0  0  0
  144.0136  133.9077  152.5816 H   0  0  0  0  0  0  0  0  0  0  0  0
  144.2302  135.6219  152.3416 H   0  0  0  0  0  0  0  0  0  0  0  0
  143.2021  134.4863  150.3357 H   0  0  0  0  0  0  0  0  0  0  0  0
  144.7074  135.2899  149.9483 H   0  0  0  0  0  0  0  0  0  0  0  0
  144.3482  132.2989  150.4781 H   0  0  0  0  0  0  0  0  0  0  0  0
  144.7100  133.0375  148.9346 H   0  0  0  0  0  0  0  0  0  0  0  0
  146.9203  133.8144  149.7775 H   0  0  0  0  0  0  0  0  0  0  0  0
  146.7588  132.0866  150.0030 H   0  0  0  0  0  0  0  0  0  0  0  0
  146.4482  128.2538  154.2330 H   0  0  0  0  0  0  0  0  0  0  0  0
  145.9154  128.4795  152.6171 H   0  0  0  0  0  0  0  0  0  0  0  0
  147.8275  128.3805  150.9408 H   0  0  0  0  0  0  0  0  0  0  0  0
  150.0991  127.2046  150.5159 H   0  0  0  0  0  0  0  0  0  0  0  0
  147.5097  125.6062  149.8387 H   0  0  0  0  0  0  0  0  0  0  0  0
  149.1562  125.4302  149.0391 H   0  0  0  0  0  0  0  0  0  0  0  0
  150.1675  124.8286  151.2551 H   0  0  0  0  0  0  0  0  0  0  0  0
  148.5204  125.0057  152.0535 H   0  0  0  0  0  0  0  0  0  0  0  0
  1  2  1  0  0  0  0
  1 24  1  0  0  0  0
  1 25  1  0  0  0  0
  1 26  1  0  0  0  0
  2 22  1  0  0  0  0
  2  3  1  0  0  0  0
  3  4  1  0  0  0  0
  3  5  2  0  0  0  0
  4 27  1  0  0  0  0
  4 28  1  0  0  0  0
  5  6  1  0  0  0  0
  5 12  1  0  0  0  0
  6 11  1  0  0  0  0
  6  7  1  0  0  0  0
  7  8  1  0  0  0  0
  7 29  1  0  0  0  0
  7 30  1  0  0  0  0
  8  9  1  0  0  0  0
  8 31  1  0  0  0  0
  8 32  1  0  0  0  0
  9 10  1  0  0  0  0
  9 33  1  0  0  0  0
  9 34  1  0  0  0  0
 10 11  1  0  0  0  0
 10 35  1  0  0  0  0
 10 36  1  0  0  0  0
 11 37  1  0  0  0  0
 11 38  1  0  0  0  0
 12 13  2  0  0  0  0
 12 14  1  0  0  0  0
 14 15  1  0  0  0  0
 14 22  1  0  0  0  0
 15 16  1  0  0  0  0
 15 39  1  0  0  0  0
 15 40  1  0  0  0  0
 16 17  2  0  0  0  0
 16 18  1  0  0  0  0
 18 19  1  0  0  0  0
 18 41  1  0  0  0  0
 19 21  1  0  0  0  0
 19 20  1  0  0  0  0
 19 42  1  0  0  0  0
 20 21  1  0  0  0  0
 20 43  1  0  0  0  0
 20 44  1  0  0  0  0
 21 45  1  0  0  0  0
 21 46  1  0  0  0  0
 22 23  2  0  0  0  0
M  END
> <s_m_source_file>
AV-unprocessed.smi

> <i_m_source_file_index>
587

> <i_lp_mmshare_version>
43012

> <i_f3d_flags>
0

> <s_epik_input>
W0NIMl0xW0NIMl1bQ0gyXVtDSDJdW0NIMl1OMWMoYyhbTkgyXSluMltDSDNdKWMoPU8pbihjMj1PKVtDSDJdQyg9TylbTkhdW0NIXTNbQ0gyXVtDSDJdMw==

> <s_epik_cmdline>
J2VwaWtfcHl0aG9uJywgJy1waCcsICc3LjAnLCAnLXRuJywgJzgnLCAnLW1hJywgJzIwMCcsICctbWV0YWxfYmluZGluZycsICctaW1hZScsICc8aW5maWxlLm1hZT4nLCAnLW9tYWUnLCAnPG91dGZpbGUubWFlPic=

> <r_lp_tautomer_probability>
0.999881

> <r_epik_Ionization_Penalty>
0.00852669

> <r_epik_Ionization_Penalty_Charging>
2.6249e-08

> <r_epik_Ionization_Penalty_Neutral>
0.00852666

> <r_epik_State_Penalty>
0.00667057

> <r_epik_Charging_Adjusted_Penalty>
0.00667059

> <i_epik_Tot_Q>
0

> <i_epik_Tot_abs_Q>
0

> <r_epik_Metal_State_Penalty>
0.00667057

> <b_epik_Metal_Only>
0

> <s_lp_Force_Field>
OPLS_2005

> <r_lp_Energy>
38.4775

> <b_lp_Chiralities_Consistent>
1

> <s_lp_Variant>
AV-unprocessed.smi:587-1

> <Gold.Version>
5.8.1

> <Gold.Id.Protein>
6NUR|6NUR_protein|mol2

> <Gold.PLP.Fitness>
41.6502

> <Gold.PLP.PLP>
-39.4935

> <Gold.PLP.part.hbond>
-1.0000

> <Gold.PLP.part.metal>
0.0000

> <Gold.PLP.part.buried>
-5.7467

> <Gold.PLP.part.nonpolar>
-33.2862

> <Gold.PLP.part.repulsive>
0.2913

> <Gold.PLP.ligand.clash>
0.0014

> <Gold.PLP.ligand.torsion>
1.2936

> <Gold.PLP.Chemscore.Hbond>
0.9600

> <Gold.PLP.Chemscore.CHOScore>
0.0000

> <Gold.PLP.Chemscore.Metal>
0.0000

> <Gold.Chemscore.Hbonds>
donor molecule, donor type, donor heavy atom, donor atom, acceptor molecule, acceptor atom, score
      L1  H     4    28       P1  7948  0.93

> <Gold.PLP.Chemscore.Internal.Correction>
1.8654

> <Gold.Rescore>
     Score         DG    S(hbond)    S(metal)    S(lipo)     H(rot)  DE(clash)    DE(int)     intcor
      8.05     -11.55       0.46        0.00      72.77       1.56       0.08       3.43       ----

> <Gold.Chemscore.Fitness>
8.0493

> <Gold.Chemscore.DG>
-11.5543

> <Gold.Chemscore.ZeroCoef>
-5.4800

> <Gold.Chemscore.Hbond>
0.4635

> <Gold.Chemscore.Metal>
0.0000

> <Gold.Chemscore.Lipo>
72.7672

> <Gold.Chemscore.Internal_Hbond>
0.0000

> <Gold.Chemscore.DEClash>
0.0799

> <Gold.Chemscore.DEInternal>
3.4251

> <Gold.Chemscore.Rot>
1.5577

> <Gold.Chemscore.Internal.Correction>
   9.000000E+99

> <Gold.Chemscore.Hbonds>
donor molecule, donor type, donor heavy atom, donor atom, acceptor molecule, acceptor atom, score
      L1  H     4    28       P1  7948  0.23

> <Gold.Chemscore.Hbond.Weighted>
-1.5482

> <Gold.Chemscore.Metal.Weighted>
-0.0000

> <Gold.Chemscore.Lipo.Weighted>
-8.5138

> <Gold.Chemscore.Internal_Hbond.Weighted>
0.0000

> <Gold.Chemscore.DEClash.Weighted>
0.0799

> <Gold.Chemscore.DEInternal.Weighted>
3.4251

> <Gold.Chemscore.Rot.Weighted>
3.9877

> <Gold.Chemscore.Internal.Correction.Weighted>
   9.000000E+99

> <Gold.Protein.RotatedTorsions>
[ 6907 6896 6895 6894 ] final   44.37 input  -60.11 | X-H torsion
[ 7974 7965 7964 7962 ] final   85.19 input  175.53 | X-H torsion
[ 8008 7997 7996 7995 ] final   85.54 input   59.86 | X-H torsion
[ 10167 10162 10161 10158 ] final  -15.05 input  -65.29 | X-H torsion
[ 10718 10713 10712 10709 ] final  -89.17 input   66.30 | X-H torsion
[ 10763 10752 10751 10750 ] final -156.38 input  -60.55 | X-H torsion
[ 11005 11000 10999 10996 ] final  -29.46 input  -57.11 | X-H torsion

> <Gold.Protein.ActiveResidues>
 VAL166  LYS551  ARG553  GLY616  TRP617  ASP618  TYR619  PRO620  LYS621  CYS622 
 ASP623  PHE694  ASN695  SER759  ASP760  ASP761  ALA762  ILE779  LEU786  VAL792 
 PHE793  MET794  SER795  GLU796  ALA797  LYS798  CYS799  TRP800  GLU811  SER814 

> <Gold.Protein.RotatedAtoms>
  152.2317  134.8315  160.0472 H   0  0  0  0  0  0  0  0  0  0  0  0  # atno 6907 bound_to 6896
  151.9062  133.3545  159.3856 H   0  0  0  0  0  0  0  0  0  0  0  0  # atno 6908 bound_to 6896
  150.7027  134.4704  159.5467 H   0  0  0  0  0  0  0  0  0  0  0  0  # atno 6909 bound_to 6896
  145.5888  139.2335  143.2311 H   0  0  0  0  0  0  0  0  0  0  0  0  # atno 7974 bound_to 7965
  155.9513  140.3400  155.6410 H   0  0  0  0  0  0  0  0  0  0  0  0  # atno 8008 bound_to 7997
  155.6917  140.0749  157.2464 H   0  0  0  0  0  0  0  0  0  0  0  0  # atno 8009 bound_to 7997
  154.4122  140.1656  156.2081 H   0  0  0  0  0  0  0  0  0  0  0  0  # atno 8010 bound_to 7997
  140.7212  143.5259  150.9578 H   0  0  0  0  0  0  0  0  0  0  0  0  # atno 10167 bound_to 10162
  155.9984  130.4862  150.5131 H   0  0  0  0  0  0  0  0  0  0  0  0  # atno 10718 bound_to 10713
  154.7717  135.3147  154.8176 H   0  0  0  0  0  0  0  0  0  0  0  0  # atno 10763 bound_to 10752
  153.8910  135.6825  153.4765 H   0  0  0  0  0  0  0  0  0  0  0  0  # atno 10764 bound_to 10752
  153.1332  135.4771  154.9316 H   0  0  0  0  0  0  0  0  0  0  0  0  # atno 10765 bound_to 10752
  140.9298  133.7345  156.0920 H   0  0  0  0  0  0  0  0  0  0  0  0  # atno 11005 bound_to 11000
  146.1662  140.6714  142.9254 LP  0  0  0  0  0  0  0  0  0  0  0  0  # atno 17320 bound_to 7965
  144.7360  140.4811  143.6903 LP  0  0  0  0  0  0  0  0  0  0  0  0  # atno 17321 bound_to 7965
  139.8977  143.6874  152.3136 LP  0  0  0  0  0  0  0  0  0  0  0  0  # atno 17342 bound_to 10162
  139.7212  144.7602  151.0951 LP  0  0  0  0  0  0  0  0  0  0  0  0  # atno 17343 bound_to 10162
  157.3101  131.0662  151.2007 LP  0  0  0  0  0  0  0  0  0  0  0  0  # atno 17370 bound_to 10713
  157.2956  130.6817  149.6137 LP  0  0  0  0  0  0  0  0  0  0  0  0  # atno 17371 bound_to 10713
  140.7878  134.3652  157.5472 LP  0  0  0  0  0  0  0  0  0  0  0  0  # atno 17394 bound_to 11000
  139.8794  134.9121  156.3053 LP  0  0  0  0  0  0  0  0  0  0  0  0  # atno 17395 bound_to 11000

$$$$
