AV-unprocessed.smi:265|AV-procd|sdf|2024|dock8
  -GOLD-   2262021233D 1   1.00000     0.00000
 Structure written by MMmdl.
 52 56  0  0  0  0  0  0  0  0  1 V2000
  148.8572  133.4851  153.5029 C   0  0  0  0  0  0  0  0  0  0  0  0
  149.1878  133.5872  155.0010 C   0  0  1  0  0  0  0  0  0  0  0  0
  149.9115  132.4382  155.4406 O   0  0  0  0  0  0  0  0  0  0  0  0
  151.1246  132.8318  156.0678 C   0  0  0  0  0  0  0  0  0  0  0  0
  150.8583  134.2482  156.5602 C   0  0  0  0  0  0  0  0  0  0  0  0
  149.9961  134.8267  155.4477 C   0  0  1  0  0  0  0  0  0  0  0  0
  150.8499  135.2758  154.4065 O   0  0  0  0  0  0  0  0  0  0  0  0
  149.0977  136.0050  155.8924 C   0  0  0  0  0  0  0  0  0  0  0  0
  149.8265  137.0678  156.5676 N   0  0  0  0  0  0  0  0  0  0  0  0
  150.3304  137.0314  157.8481 C   0  0  0  0  0  0  0  0  0  0  0  0
  150.9455  138.1150  158.2350 N   0  0  0  0  0  0  0  0  0  0  0  0
  150.8738  138.9582  157.1324 C   0  0  0  0  0  0  0  0  0  0  0  0
  151.3326  140.2786  156.8647 C   0  0  0  0  0  0  0  0  0  0  0  0
  152.0291  141.0070  157.7735 N   0  0  0  0  0  0  0  0  0  0  0  0
  152.3739  140.3646  159.0412 C   0  0  0  0  0  0  0  0  0  0  0  0
  153.4743  141.1532  159.7678 C   0  0  0  0  0  0  0  0  0  0  0  0
  153.1029  142.6361  159.9340 C   0  0  2  0  0  0  0  0  0  0  0  0
  152.0236  142.7734  160.8493 O   0  0  0  0  0  0  0  0  0  0  0  0
  151.7354  144.1278  161.2006 C   0  0  0  0  0  0  0  0  0  0  0  0
  151.6145  145.0401  159.9657 C   0  0  0  0  0  0  0  0  0  0  0  0
  151.0887  146.1459  160.0695 O   0  0  0  0  0  0  0  0  0  0  0  0
  152.1347  144.6069  158.8061 N   0  0  0  0  0  0  0  0  0  0  0  0
  152.6606  143.2625  158.5935 C   0  0  2  0  0  0  0  0  0  0  0  0
  151.5951  142.3976  157.8905 C   0  0  0  0  0  0  0  0  0  0  0  0
  151.0525  140.8018  155.6409 N   0  0  0  0  0  0  0  0  0  0  0  0
  150.3826  140.0817  154.7362 C   0  0  0  0  0  0  0  0  0  0  0  0
  149.9049  138.8406  154.8455 N   0  0  0  0  0  0  0  0  0  0  0  0
  150.1713  138.3144  156.0749 C   0  0  0  0  0  0  0  0  0  0  0  0
  153.9697  143.1677  160.3313 H   0  0  0  0  0  0  0  0  0  0  0  0
  153.5299  143.3423  157.9393 H   0  0  0  0  0  0  0  0  0  0  0  0
  148.3158  134.3672  153.1601 H   0  0  0  0  0  0  0  0  0  0  0  0
  148.2322  132.6146  153.3040 H   0  0  0  0  0  0  0  0  0  0  0  0
  149.7586  133.3846  152.8976 H   0  0  0  0  0  0  0  0  0  0  0  0
  148.2491  133.5654  155.5562 H   0  0  0  0  0  0  0  0  0  0  0  0
  151.3997  132.1502  156.8728 H   0  0  0  0  0  0  0  0  0  0  0  0
  151.9261  132.8267  155.3279 H   0  0  0  0  0  0  0  0  0  0  0  0
  150.2901  134.1991  157.4899 H   0  0  0  0  0  0  0  0  0  0  0  0
  151.7698  134.8151  156.7545 H   0  0  0  0  0  0  0  0  0  0  0  0
  150.4388  135.0805  153.5784 H   0  0  0  0  0  0  0  0  0  0  0  0
  148.5903  136.4357  155.0281 H   0  0  0  0  0  0  0  0  0  0  0  0
  148.3122  135.6524  156.5619 H   0  0  0  0  0  0  0  0  0  0  0  0
  150.2205  136.1715  158.4930 H   0  0  0  0  0  0  0  0  0  0  0  0
  151.4833  140.3019  159.6680 H   0  0  0  0  0  0  0  0  0  0  0  0
  152.7174  139.3442  158.8648 H   0  0  0  0  0  0  0  0  0  0  0  0
  153.6771  140.7049  160.7409 H   0  0  0  0  0  0  0  0  0  0  0  0
  154.4005  141.0795  159.1964 H   0  0  0  0  0  0  0  0  0  0  0  0
  150.8083  144.1558  161.7734 H   0  0  0  0  0  0  0  0  0  0  0  0
  152.5264  144.5109  161.8463 H   0  0  0  0  0  0  0  0  0  0  0  0
  152.0917  145.2195  158.0047 H   0  0  0  0  0  0  0  0  0  0  0  0
  151.3674  142.8280  156.9159 H   0  0  0  0  0  0  0  0  0  0  0  0
  150.6645  142.4155  158.4598 H   0  0  0  0  0  0  0  0  0  0  0  0
  150.2049  140.5694  153.7891 H   0  0  0  0  0  0  0  0  0  0  0  0
  1  2  1  0  0  0  0
  1 31  1  0  0  0  0
  1 32  1  0  0  0  0
  1 33  1  0  0  0  0
  2  6  1  0  0  0  0
  2  3  1  0  0  0  0
  2 34  1  0  0  0  0
  3  4  1  0  0  0  0
  4  5  1  0  0  0  0
  4 35  1  0  0  0  0
  4 36  1  0  0  0  0
  5  6  1  0  0  0  0
  5 37  1  0  0  0  0
  5 38  1  0  0  0  0
  6  7  1  0  0  0  0
  6  8  1  0  0  0  0
  7 39  1  0  0  0  0
  8  9  1  0  0  0  0
  8 40  1  0  0  0  0
  8 41  1  0  0  0  0
  9 28  1  0  0  0  0
  9 10  1  0  0  0  0
 10 11  2  0  0  0  0
 10 42  1  0  0  0  0
 11 12  1  0  0  0  0
 12 28  2  0  0  0  0
 12 13  1  0  0  0  0
 13 14  1  0  0  0  0
 13 25  2  0  0  0  0
 14 24  1  0  0  0  0
 14 15  1  0  0  0  0
 15 16  1  0  0  0  0
 15 43  1  0  0  0  0
 15 44  1  0  0  0  0
 16 17  1  0  0  0  0
 16 45  1  0  0  0  0
 16 46  1  0  0  0  0
 17 29  1  0  0  0  0
 17 23  1  0  0  0  0
 17 18  1  0  0  0  0
 18 19  1  0  0  0  0
 19 20  1  0  0  0  0
 19 47  1  0  0  0  0
 19 48  1  0  0  0  0
 20 21  2  0  0  0  0
 20 22  1  0  0  0  0
 22 23  1  0  0  0  0
 22 49  1  0  0  0  0
 23 30  1  0  0  0  0
 23 24  1  0  0  0  0
 24 50  1  0  0  0  0
 24 51  1  0  0  0  0
 25 26  1  0  0  0  0
 26 27  2  0  0  0  0
 26 52  1  0  0  0  0
 27 28  1  0  0  0  0
M  END
> <s_m_source_file>
AV-unprocessed.smi

> <i_m_source_file_index>
265

> <i_lp_mmshare_version>
43012

> <i_f3d_flags>
0

> <s_epik_input>
W0NIMl0xW0NIMl1PW0NAQEhdKFtDSDNdKVtDQEBdMShbT0hdKVtDSDJdbihbY0hdbjIpYyhjMjMpbltjSF1uYzNOKFtDSDJdW0NIMl00KVtDSDJdW0NAQEhdKFtDQEhdNDUpW05IXUMoPU8pW0NIMl1PNQ==

> <s_epik_cmdline>
J2VwaWtfcHl0aG9uJywgJy1waCcsICc3LjAnLCAnLXRuJywgJzgnLCAnLW1hJywgJzIwMCcsICctbWV0YWxfYmluZGluZycsICctaW1hZScsICc8aW5maWxlLm1hZT4nLCAnLW9tYWUnLCAnPG91dGZpbGUubWFlPic=

> <r_lp_tautomer_probability>
1

> <r_epik_Ionization_Penalty>
0.00221504

> <r_epik_Ionization_Penalty_Charging>
0

> <r_epik_Ionization_Penalty_Neutral>
0.00221504

> <r_epik_State_Penalty>
-0

> <r_epik_Charging_Adjusted_Penalty>
0

> <i_epik_Tot_Q>
0

> <i_epik_Tot_abs_Q>
0

> <r_epik_Metal_State_Penalty>
-0

> <b_epik_Metal_Only>
0

> <s_lp_Force_Field>
OPLS_2005

> <r_lp_Energy>
44.7189

> <b_lp_Chiralities_Consistent>
1

> <s_lp_Variant>
AV-unprocessed.smi:265-10

> <Gold.Version>
5.8.1

> <Gold.Id.Protein>
6NUR|6NUR_protein|mol2

> <Gold.PLP.Fitness>
45.8861

> <Gold.PLP.PLP>
-42.2783

> <Gold.PLP.part.hbond>
-5.5207

> <Gold.PLP.part.metal>
0.0000

> <Gold.PLP.part.buried>
-1.5418

> <Gold.PLP.part.nonpolar>
-34.4506

> <Gold.PLP.part.repulsive>
0.5455

> <Gold.PLP.ligand.clash>
0.0000

> <Gold.PLP.ligand.torsion>
0.4516

> <Gold.PLP.Chemscore.Hbond>
0.9169

> <Gold.PLP.Chemscore.CHOScore>
0.4666

> <Gold.PLP.Chemscore.Metal>
0.0000

> <Gold.Chemscore.Hbonds>
donor molecule, donor type, donor heavy atom, donor atom, acceptor molecule, acceptor atom, score
      P1  H 10752 10764       L1     7  0.81
      L1  C    26    52       P1  7957  0.48

> <Gold.PLP.Chemscore.Internal.Correction>
0.3607

> <Gold.Rescore>
     Score         DG    S(hbond)    S(metal)    S(lipo)     H(rot)  DE(clash)    DE(int)     intcor
     10.39     -12.84       0.67        0.00      92.85       2.25       0.67       1.78       ----

> <Gold.Chemscore.Fitness>
10.3914

> <Gold.Chemscore.DG>
-12.8425

> <Gold.Chemscore.ZeroCoef>
-5.4800

> <Gold.Chemscore.Hbond>
0.6729

> <Gold.Chemscore.Metal>
0.0000

> <Gold.Chemscore.Lipo>
92.8454

> <Gold.Chemscore.Internal_Hbond>
0.0000

> <Gold.Chemscore.DEClash>
0.6687

> <Gold.Chemscore.DEInternal>
1.7825

> <Gold.Chemscore.Rot>
2.2453

> <Gold.Chemscore.Internal.Correction>
   9.000000E+99

> <Gold.Chemscore.Hbonds>
donor molecule, donor type, donor heavy atom, donor atom, acceptor molecule, acceptor atom, score
      P1  H 10752 10764       L1     7  0.73

> <Gold.Chemscore.Hbond.Weighted>
-2.2475

> <Gold.Chemscore.Metal.Weighted>
-0.0000

> <Gold.Chemscore.Lipo.Weighted>
-10.8629

> <Gold.Chemscore.Internal_Hbond.Weighted>
0.0000

> <Gold.Chemscore.DEClash.Weighted>
0.6687

> <Gold.Chemscore.DEInternal.Weighted>
1.7825

> <Gold.Chemscore.Rot.Weighted>
5.7479

> <Gold.Chemscore.Internal.Correction.Weighted>
   9.000000E+99

> <Gold.Protein.RotatedTorsions>
[ 6907 6896 6895 6894 ] final   -2.41 input  -60.11 | X-H torsion
[ 7974 7965 7964 7962 ] final  -14.51 input  175.53 | X-H torsion
[ 8008 7997 7996 7995 ] final  113.16 input   59.86 | X-H torsion
[ 10167 10162 10161 10158 ] final  139.55 input  -65.29 | X-H torsion
[ 10718 10713 10712 10709 ] final   57.02 input   66.30 | X-H torsion
[ 10763 10752 10751 10750 ] final  -66.94 input  -60.55 | X-H torsion
[ 11005 11000 10999 10996 ] final    4.34 input  -57.11 | X-H torsion

> <Gold.Protein.ActiveResidues>
 VAL166  LYS551  ARG553  GLY616  TRP617  ASP618  TYR619  PRO620  LYS621  CYS622 
 ASP623  PHE694  ASN695  SER759  ASP760  ASP761  ALA762  ILE779  LEU786  VAL792 
 PHE793  MET794  SER795  GLU796  ALA797  LYS798  CYS799  TRP800  GLU811  SER814 

> <Gold.Protein.RotatedAtoms>
  151.5303  135.1068  159.9900 H   0  0  0  0  0  0  0  0  0  0  0  0  # atno 6907 bound_to 6896
  152.4581  133.7761  159.6836 H   0  0  0  0  0  0  0  0  0  0  0  0  # atno 6908 bound_to 6896
  150.8533  133.7689  159.3043 H   0  0  0  0  0  0  0  0  0  0  0  0  # atno 6909 bound_to 6896
  146.2071  140.3358  142.8403 H   0  0  0  0  0  0  0  0  0  0  0  0  # atno 7974 bound_to 7965
  156.2240  140.2985  156.0021 H   0  0  0  0  0  0  0  0  0  0  0  0  # atno 8008 bound_to 7997
  155.2406  140.0422  157.2991 H   0  0  0  0  0  0  0  0  0  0  0  0  # atno 8009 bound_to 7997
  154.5885  140.2395  155.7961 H   0  0  0  0  0  0  0  0  0  0  0  0  # atno 8010 bound_to 7997
  139.5075  144.6288  151.5871 H   0  0  0  0  0  0  0  0  0  0  0  0  # atno 10167 bound_to 10162
  157.5479  130.8744  149.8919 H   0  0  0  0  0  0  0  0  0  0  0  0  # atno 10718 bound_to 10713
  154.3672  135.6103  153.5721 H   0  0  0  0  0  0  0  0  0  0  0  0  # atno 10763 bound_to 10752
  152.9791  135.5829  154.4565 H   0  0  0  0  0  0  0  0  0  0  0  0  # atno 10764 bound_to 10752
  154.4312  135.2848  155.1888 H   0  0  0  0  0  0  0  0  0  0  0  0  # atno 10765 bound_to 10752
  140.5830  133.9995  155.8056 H   0  0  0  0  0  0  0  0  0  0  0  0  # atno 11005 bound_to 11000
  144.8820  140.7412  143.5981 LP  0  0  0  0  0  0  0  0  0  0  0  0  # atno 17320 bound_to 7965
  145.3279  139.1768  143.4553 LP  0  0  0  0  0  0  0  0  0  0  0  0  # atno 17321 bound_to 7965
  140.6013  143.9604  150.6388 LP  0  0  0  0  0  0  0  0  0  0  0  0  # atno 17342 bound_to 10162
  140.2817  143.3385  152.1145 LP  0  0  0  0  0  0  0  0  0  0  0  0  # atno 17343 bound_to 10162
  156.0551  130.3710  150.1109 LP  0  0  0  0  0  0  0  0  0  0  0  0  # atno 17370 bound_to 10713
  156.9284  130.9706  151.3537 LP  0  0  0  0  0  0  0  0  0  0  0  0  # atno 17371 bound_to 10713
  141.0984  133.9807  157.3121 LP  0  0  0  0  0  0  0  0  0  0  0  0  # atno 17394 bound_to 11000
  139.9308  135.0200  156.8395 LP  0  0  0  0  0  0  0  0  0  0  0  0  # atno 17395 bound_to 11000

$$$$
