#       Name:                AV-unprocessed.smi:694
#       Creating user name   scv26
#       Creation time:       Fri Mar 27 00:36:13 2020


#       File generated by GOLD software.
#

@<TRIPOS>MOLECULE
AV-unprocessed.smi:694
    47    48     1
SMALL
NO_CHARGES


@<TRIPOS>ATOM
      1 ****        -6.2772   0.1686   0.7593 C.3            1 S1                 0.0000
      2 ****        -5.5282  -0.9593   1.3041 N.pl3          1 S1                 0.0000
      3 ****        -6.2397  -2.1135   1.8390 C.3            1 S1                 0.0000
      4 ****        -4.1155  -0.9566   1.2526 C.ar           1 S1                 0.0000
      5 ****        -3.3542  -2.0229   1.7915 C.ar           1 S1                 0.0000
      6 ****        -1.9498  -1.9717   1.7154 C.ar           1 S1                 0.0000
      7 ****        -1.3299  -0.8607   1.1129 C.ar           1 S1                 0.0000
      8 ****         0.0896  -0.8506   1.0401 N.am           1 S1                 0.0000
      9 ****         0.9129   0.1814   0.7887 C.2            1 S1                 0.0000
     10 ****         0.5619   1.3469   0.6091 O.2            1 S1                 0.0000
     11 ****         2.1928  -0.2174   0.7692 N.am           1 S1                 0.0000
     12 ****         3.3434   0.6427   0.5096 C.3            1 S1                 0.0000
     13 ****         3.8168   0.5349  -0.9550 C.3            1 S1                 0.0000
     14 ****         2.8072   0.9952  -2.0158 C.3            1 S1                 0.0000
     15 ****         3.6374   1.3218  -3.2665 C.3            1 S1                 0.0000
     16 ****         5.1094   1.3353  -2.8239 C.3            1 S1                 0.0000
     17 ****         5.0902   1.3243  -1.2917 C.3            1 S1                 0.0000
     18 ****         5.0121   2.6588  -0.8252 O.3            1 S1                 0.0000
     19 ****        -2.1690   0.1525   0.5922 C.ar           1 S1                 0.0000
     20 ****        -3.5159   0.1062   0.6627 N.ar           1 S1                 0.0000
     21 ****        -6.0884   0.2735  -0.3095 H              1 S1                 0.0000
     22 ****        -5.9892   1.0962   1.2551 H              1 S1                 0.0000
     23 ****        -7.3503   0.0378   0.8981 H              1 S1                 0.0000
     24 ****        -5.9959  -2.2602   2.8915 H              1 S1                 0.0000
     25 ****        -5.9743  -3.0166   1.2888 H              1 S1                 0.0000
     26 ****        -7.3194  -1.9851   1.7632 H              1 S1                 0.0000
     27 ****        -3.8174  -2.8766   2.2622 H              1 S1                 0.0000
     28 ****        -1.3575  -2.7794   2.1203 H              1 S1                 0.0000
     29 ****         0.5363  -1.7338   1.2383 H              1 S1                 0.0000
     30 ****         2.3866  -1.1943   0.9340 H              1 S1                 0.0000
     31 ****         3.1178   1.6773   0.7730 H              1 S1                 0.0000
     32 ****         4.1482   0.3287   1.1747 H              1 S1                 0.0000
     33 ****         4.0359  -0.5158  -1.1547 H              1 S1                 0.0000
     34 ****         2.0437   0.2422  -2.2127 H              1 S1                 0.0000
     35 ****         2.2962   1.8970  -1.6760 H              1 S1                 0.0000
     36 ****         3.4816   0.5786  -4.0491 H              1 S1                 0.0000
     37 ****         3.3428   2.2896  -3.6736 H              1 S1                 0.0000
     38 ****         5.5944   0.4256  -3.1806 H              1 S1                 0.0000
     39 ****         5.6659   2.1776  -3.2375 H              1 S1                 0.0000
     40 ****         5.9836   0.8573  -0.8759 H              1 S1                 0.0000
     41 ****         4.9441   2.6453   0.1172 H              1 S1                 0.0000
     42 ****        -1.7787   1.0207   0.0853 H              1 S1                 0.0000
     43 ****        -0.4079   1.5882   0.6450 LP             1 S1                 0.0000
     44 ****         1.2464   2.0528   0.4272 LP             1 S1                 0.0000
     45 ****         4.2065   3.1052  -1.2147 LP             1 S1                 0.0000
     46 ****         5.8343   3.1591  -1.0965 LP             1 S1                 0.0000
     47 ****        -4.0667   0.8495   0.2830 LP             1 S1                 0.0000
@<TRIPOS>BOND
    1    1    2 1     
    2    1   21 1     
    3    1   22 1     
    4    1   23 1     
    5    2    3 1     
    6    2    4 1     
    7    3   24 1     
    8    3   25 1     
    9    3   26 1     
   10    4   20 ar    
   11    4    5 ar    
   12    5    6 ar    
   13    5   27 1     
   14    6    7 ar    
   15    6   28 1     
   16    7    8 1     
   17    7   19 ar    
   18    8    9 am    
   19    8   29 1     
   20    9   10 2     
   21    9   11 am    
   22   11   12 1     
   23   11   30 1     
   24   12   13 1     
   25   12   31 1     
   26   12   32 1     
   27   13   17 1     
   28   13   14 1     
   29   13   33 1     
   30   14   15 1     
   31   14   34 1     
   32   14   35 1     
   33   15   16 1     
   34   15   36 1     
   35   15   37 1     
   36   16   17 1     
   37   16   38 1     
   38   16   39 1     
   39   17   18 1     
   40   17   40 1     
   41   18   41 1     
   42   19   20 ar    
   43   19   42 1     
   44   10   43 1     
   45   10   44 1     
   46   18   45 1     
   47   18   46 1     
   48   20   47 1     
@<TRIPOS>SUBSTRUCTURE
      1 S1             1
@<TRIPOS>SET
LONE_PAIRS      STATIC     ATOMS    <user>   **** ""
5 43 44 45 46 47
DONOR_HYDROGENS      STATIC     ATOMS    <user>   **** ""
3 29 30 41
ATOM$BLUE        STATIC     ATOMS    COLORGROUP SYSTEM
5 43 44 45 46 47
ATOM$RED        STATIC     ATOMS    COLORGROUP SYSTEM
3 29 30 41
