#       Name:                AV-unprocessed.smi:913
#       Creating user name   scv26
#       Creation time:       Fri Mar 27 02:05:31 2020


#       File generated by GOLD software.
#

@<TRIPOS>MOLECULE
AV-unprocessed.smi:913
    28    28     1
SMALL
NO_CHARGES


@<TRIPOS>ATOM
      1 ****        -3.4302  -0.3035  -0.2214 C.3            1 S1                 0.0000
      2 ****        -1.9217  -0.1730  -0.2146 C.2            1 S1                 0.0000
      3 ****        -1.2951   0.9465  -0.3794 N.2            1 S1                 0.0000
      4 ****         0.1029   0.9221  -0.3491 C.2            1 S1                 0.0000
      5 ****         0.6536   2.1747  -0.5307 N.pl3          1 S1                 0.0000
      6 ****         0.8197  -0.2197  -0.1570 C.2            1 S1                 0.0000
      7 ****         2.3476  -0.2381  -0.1280 C.3            1 S1                 0.0000
      8 ****         2.9567   0.2387   1.1949 C.2            1 S1                 0.0000
      9 ****         4.0822   0.7796   1.1317 O.co2          1 S1                 0.0000
     10 ****         2.3022   0.0524   2.2449 O.co2          1 S1                -1.0000
     11 ****         0.0907  -1.4894   0.0247 C.2            1 S1                 0.0000
     12 ****         0.6241  -2.5838   0.2009 O.2            1 S1                 0.0000
     13 ****        -1.2583  -1.3853  -0.0141 N.am           1 S1                 0.0000
     14 ****        -1.8023  -2.2266   0.1080 H              1 S1                 0.0000
     15 ****        -3.8641   0.3191   0.5617 H              1 S1                 0.0000
     16 ****        -3.7463  -1.3340  -0.0530 H              1 S1                 0.0000
     17 ****        -3.8302   0.0237  -1.1815 H              1 S1                 0.0000
     18 ****         0.0650   2.9849  -0.6661 H              1 S1                 0.0000
     19 ****         1.6271   2.2890  -0.7729 H              1 S1                 0.0000
     20 ****         2.7311  -1.2347  -0.3481 H              1 S1                 0.0000
     21 ****         2.7169   0.3997  -0.9321 H              1 S1                 0.0000
     22 ****        -1.7938   1.8012  -0.5237 LP             1 S1                 0.0000
     23 ****         4.5290   1.1031   1.9658 LP             1 S1                 0.0000
     24 ****         4.5355   0.8887   0.2471 LP             1 S1                 0.0000
     25 ****         2.6751   0.3457   3.1252 LP             1 S1                 0.0000
     26 ****         1.4062  -0.3897   2.2038 LP             1 S1                 0.0000
     27 ****         1.6211  -2.6554   0.2286 LP             1 S1                 0.0000
     28 ****         0.0607  -3.4018   0.3164 LP             1 S1                 0.0000
@<TRIPOS>BOND
    1    1    2 1     
    2    1   15 1     
    3    1   16 1     
    4    1   17 1     
    5    2   13 1     
    6    2    3 2     
    7    3    4 1     
    8    4    5 1     
    9    4    6 2     
   10    5   18 1     
   11    5   19 1     
   12    6    7 1     
   13    6   11 1     
   14    7    8 1     
   15    7   20 1     
   16    7   21 1     
   17    8    9 ar    
   18    8   10 ar    
   19   11   12 2     
   20   11   13 am    
   21   13   14 1     
   22    3   22 1     
   23    9   23 1     
   24    9   24 1     
   25   10   25 1     
   26   10   26 1     
   27   12   27 1     
   28   12   28 1     
@<TRIPOS>SUBSTRUCTURE
      1 S1             1
@<TRIPOS>SET
LONE_PAIRS      STATIC     ATOMS    <user>   **** ""
7 22 23 24 25 26 27 28
DONOR_HYDROGENS      STATIC     ATOMS    <user>   **** ""
3 18 19 14
ATOM$BLUE        STATIC     ATOMS    COLORGROUP SYSTEM
7 22 23 24 25 26 27 28
ATOM$RED        STATIC     ATOMS    COLORGROUP SYSTEM
3 18 19 14
