#       Name:                AV-unprocessed.smi:2025
#       Creating user name   scv26
#       Creation time:       Fri Mar 27 10:45:41 2020


#       File generated by GOLD software.
#

@<TRIPOS>MOLECULE
AV-unprocessed.smi:2025
    47    48     1
SMALL
NO_CHARGES


@<TRIPOS>ATOM
      1 ****        -2.5386  -0.9612  -3.1563 C.3            1 S1                 0.0000
      2 ****        -2.0033  -0.3626  -1.8474 C.3            1 S1                 0.0000
      3 ****        -0.5430  -0.4207  -1.8687 N.am           1 S1                 0.0000
      4 ****         0.2902   0.5450  -1.4515 C.2            1 S1                 0.0000
      5 ****        -0.0923   1.6329  -1.0196 O.2            1 S1                 0.0000
      6 ****         1.7884   0.2321  -1.5496 C.3            1 S1                 0.0000
      7 ****         2.5502   0.7791  -0.4198 N.am           1 S1                 0.0000
      8 ****         3.2417   1.9674  -0.5702 C.2            1 S1                 0.0000
      9 ****         3.9495   2.5478   0.4231 C.2            1 S1                 0.0000
     10 ****         4.0283   1.9329   1.7422 C.2            1 S1                 0.0000
     11 ****         4.6453   2.4313   2.6846 O.2            1 S1                 0.0000
     12 ****         3.3258   0.7118   1.8656 N.am           1 S1                 0.0000
     13 ****         3.3582   0.0626   3.1598 C.3            1 S1                 0.0000
     14 ****         2.5699   0.1184   0.8282 C.2            1 S1                 0.0000
     15 ****         1.9400  -0.9301   0.9884 O.2            1 S1                 0.0000
     16 ****        -2.5570  -1.1019  -0.6103 C.3            1 S1                 0.0000
     17 ****        -2.0887  -0.5571   0.7401 C.3            1 S1                 0.0000
     18 ****        -3.1541  -1.0913   1.6697 C.3            1 S1                 0.0000
     19 ****        -4.4135  -0.9993   0.8100 C.3            1 S1                 0.0000
     20 ****        -3.9747  -0.9809  -0.5470 O.3            1 S1                 0.0000
     21 ****        -3.6265  -0.9049  -3.1996 H              1 S1                 0.0000
     22 ****        -2.2561  -2.0095  -3.2595 H              1 S1                 0.0000
     23 ****        -2.1497  -0.4239  -4.0219 H              1 S1                 0.0000
     24 ****        -2.3296   0.6781  -1.8051 H              1 S1                 0.0000
     25 ****        -0.1321  -1.2768  -2.2117 H              1 S1                 0.0000
     26 ****         1.9457  -0.8462  -1.6191 H              1 S1                 0.0000
     27 ****         2.1609   0.6449  -2.4878 H              1 S1                 0.0000
     28 ****         3.2103   2.4640  -1.5291 H              1 S1                 0.0000
     29 ****         4.4618   3.4810   0.2405 H              1 S1                 0.0000
     30 ****         3.0929  -0.9907   3.0678 H              1 S1                 0.0000
     31 ****         2.6503   0.5932   3.7980 H              1 S1                 0.0000
     32 ****         4.3746   0.1241   3.5523 H              1 S1                 0.0000
     33 ****        -2.3134  -2.1645  -0.6678 H              1 S1                 0.0000
     34 ****        -1.0847  -0.8860   1.0103 H              1 S1                 0.0000
     35 ****        -2.1054   0.5337   0.7415 H              1 S1                 0.0000
     36 ****        -2.9434  -2.1330   1.9150 H              1 S1                 0.0000
     37 ****        -3.2313  -0.5304   2.6015 H              1 S1                 0.0000
     38 ****        -5.0909  -1.8339   0.9926 H              1 S1                 0.0000
     39 ****        -4.9547  -0.0743   1.0118 H              1 S1                 0.0000
     40 ****        -1.0705   1.8337  -0.9661 LP             1 S1                 0.0000
     41 ****         0.5752   2.3155  -0.7224 LP             1 S1                 0.0000
     42 ****         5.1245   3.3007   2.5645 LP             1 S1                 0.0000
     43 ****         4.6669   1.9665   3.5697 LP             1 S1                 0.0000
     44 ****         1.4117  -1.3166   0.2323 LP             1 S1                 0.0000
     45 ****         1.9576  -1.3936   1.8743 LP             1 S1                 0.0000
     46 ****        -4.3932  -1.7442  -1.0393 LP             1 S1                 0.0000
     47 ****        -4.2514  -0.1188  -0.9714 LP             1 S1                 0.0000
@<TRIPOS>BOND
    1    1    2 1     
    2    1   21 1     
    3    1   22 1     
    4    1   23 1     
    5    2    3 1     
    6    2   16 1     
    7    2   24 1     
    8    3    4 am    
    9    3   25 1     
   10    4    5 2     
   11    4    6 1     
   12    6    7 1     
   13    6   26 1     
   14    6   27 1     
   15    7   14 am    
   16    7    8 1     
   17    8    9 2     
   18    8   28 1     
   19    9   10 1     
   20    9   29 1     
   21   10   11 2     
   22   10   12 am    
   23   12   13 1     
   24   12   14 am    
   25   13   30 1     
   26   13   31 1     
   27   13   32 1     
   28   14   15 2     
   29   16   20 1     
   30   16   17 1     
   31   16   33 1     
   32   17   18 1     
   33   17   34 1     
   34   17   35 1     
   35   18   19 1     
   36   18   36 1     
   37   18   37 1     
   38   19   20 1     
   39   19   38 1     
   40   19   39 1     
   41    5   40 1     
   42    5   41 1     
   43   11   42 1     
   44   11   43 1     
   45   15   44 1     
   46   15   45 1     
   47   20   46 1     
   48   20   47 1     
@<TRIPOS>SUBSTRUCTURE
      1 S1             1
@<TRIPOS>SET
LONE_PAIRS      STATIC     ATOMS    <user>   **** ""
8 40 41 42 43 44 45 46 47
DONOR_HYDROGENS      STATIC     ATOMS    <user>   **** ""
1 25
ATOM$BLUE        STATIC     ATOMS    COLORGROUP SYSTEM
8 40 41 42 43 44 45 46 47
ATOM$RED        STATIC     ATOMS    COLORGROUP SYSTEM
1 25
