AV-unprocessed.smi:2339|AV-procd|sdf|9338|dock9
  -GOLD-   2272012563D 1   1.00000     0.00000
 Structure written by MMmdl.
 49 52  0  0  0  0  0  0  0  0  1 V2000
  145.9228  143.5063  153.4422 C   0  0  0  0  0  0  0  0  0  0  0  0
  145.7447  142.3127  154.3872 C   0  0  0  0  0  0  0  0  0  0  0  0
  146.8971  141.4238  154.3577 N   0  0  0  0  0  0  0  0  0  0  0  0
  148.1772  141.8852  154.6465 C   0  0  0  0  0  0  0  0  0  0  0  0
  149.2884  141.1276  154.5674 C   0  0  0  0  0  0  0  0  0  0  0  0
  149.1736  139.7161  154.1486 C   0  0  0  0  0  0  0  0  0  0  0  0
  150.1678  138.9948  154.0630 O   0  0  0  0  0  0  0  0  0  0  0  0
  147.8056  139.2237  153.8394 C   0  0  0  0  0  0  0  0  0  0  0  0
  147.7051  137.8769  153.4585 N   0  0  0  0  0  0  0  0  0  0  0  0
  146.9041  136.9042  153.9395 C   0  0  0  0  0  0  0  0  0  0  0  0
  146.0628  137.0450  154.8240 O   0  0  0  0  0  0  0  0  0  0  0  0
  147.0812  135.7162  153.3367 N   0  0  0  0  0  0  0  0  0  0  0  0
  146.3727  134.4577  153.6212 C   0  0  2  0  0  0  0  0  0  0  0  0
  147.2790  133.3191  154.1037 C   0  0  2  0  0  0  0  0  0  0  0  0
  148.6286  133.2218  154.7195 C   0  0  0  0  0  0  0  0  0  0  0  0
  149.1389  132.0155  153.8876 C   0  0  0  0  0  0  0  0  0  0  0  0
  148.1550  131.8071  152.8429 O   0  0  0  0  0  0  0  0  0  0  0  0
  147.5884  133.0873  152.6398 C   0  0  1  0  0  0  0  0  0  0  0  0
  146.1373  133.5437  152.3574 C   0  0  0  0  0  0  0  0  0  0  0  0
  145.0380  132.4652  152.4408 C   0  0  0  0  0  0  0  0  0  0  0  0
  144.0970  132.6453  151.2494 C   0  0  0  0  0  0  0  0  0  0  0  0
  144.9512  133.3369  150.1974 C   0  0  0  0  0  0  0  0  0  0  0  0
  145.8730  134.2376  151.0144 C   0  0  0  0  0  0  0  0  0  0  0  0
  146.7711  140.0939  153.9621 C   0  0  0  0  0  0  0  0  0  0  0  0
  145.0574  144.1676  153.4871 H   0  0  0  0  0  0  0  0  0  0  0  0
  146.0395  143.1782  152.4090 H   0  0  0  0  0  0  0  0  0  0  0  0
  146.8023  144.0925  153.7099 H   0  0  0  0  0  0  0  0  0  0  0  0
  145.5878  142.6674  155.4066 H   0  0  0  0  0  0  0  0  0  0  0  0
  144.8468  141.7565  154.1161 H   0  0  0  0  0  0  0  0  0  0  0  0
  148.2190  142.9207  154.9523 H   0  0  0  0  0  0  0  0  0  0  0  0
  150.2629  141.5291  154.8039 H   0  0  0  0  0  0  0  0  0  0  0  0
  148.3147  137.6120  152.6981 H   0  0  0  0  0  0  0  0  0  0  0  0
  147.7460  135.6871  152.5771 H   0  0  0  0  0  0  0  0  0  0  0  0
  145.4723  134.5870  154.2240 H   0  0  0  0  0  0  0  0  0  0  0  0
  146.6420  132.5328  154.5216 H   0  0  0  0  0  0  0  0  0  0  0  0
  149.2279  134.1168  154.5486 H   0  0  0  0  0  0  0  0  0  0  0  0
  148.5926  133.0127  155.7890 H   0  0  0  0  0  0  0  0  0  0  0  0
  150.1152  132.2303  153.4515 H   0  0  0  0  0  0  0  0  0  0  0  0
  149.2289  131.1119  154.4912 H   0  0  0  0  0  0  0  0  0  0  0  0
  148.3342  133.7719  152.2228 H   0  0  0  0  0  0  0  0  0  0  0  0
  145.4843  131.4710  152.3929 H   0  0  0  0  0  0  0  0  0  0  0  0
  144.4813  132.5108  153.3773 H   0  0  0  0  0  0  0  0  0  0  0  0
  143.6748  131.7034  150.8983 H   0  0  0  0  0  0  0  0  0  0  0  0
  143.2693  133.2973  151.5325 H   0  0  0  0  0  0  0  0  0  0  0  0
  145.5431  132.5952  149.6594 H   0  0  0  0  0  0  0  0  0  0  0  0
  144.3592  133.8889  149.4667 H   0  0  0  0  0  0  0  0  0  0  0  0
  145.3743  135.1932  151.1810 H   0  0  0  0  0  0  0  0  0  0  0  0
  146.7921  134.4540  150.4689 H   0  0  0  0  0  0  0  0  0  0  0  0
  145.7453  139.8179  153.7779 H   0  0  0  0  0  0  0  0  0  0  0  0
  1  2  1  0  0  0  0
  1 25  1  0  0  0  0
  1 26  1  0  0  0  0
  1 27  1  0  0  0  0
  2  3  1  0  0  0  0
  2 28  1  0  0  0  0
  2 29  1  0  0  0  0
  3 24  1  0  0  0  0
  3  4  1  0  0  0  0
  4  5  2  0  0  0  0
  4 30  1  0  0  0  0
  5  6  1  0  0  0  0
  5 31  1  0  0  0  0
  6  7  2  0  0  0  0
  6  8  1  0  0  0  0
  8  9  1  0  0  0  0
  8 24  2  0  0  0  0
  9 10  1  0  0  0  0
  9 32  1  0  0  0  0
 10 11  2  0  0  0  0
 10 12  1  0  0  0  0
 12 13  1  0  0  0  0
 12 33  1  0  0  0  0
 13 19  1  0  0  0  0
 13 14  1  0  0  0  0
 13 34  1  0  0  0  0
 14 18  1  0  0  0  0
 14 15  1  0  0  0  0
 14 35  1  0  0  0  0
 15 16  1  0  0  0  0
 15 36  1  0  0  0  0
 15 37  1  0  0  0  0
 16 17  1  0  0  0  0
 16 38  1  0  0  0  0
 16 39  1  0  0  0  0
 17 18  1  0  0  0  0
 18 19  1  0  0  0  0
 18 40  1  0  0  0  0
 19 23  1  0  0  0  0
 19 20  1  0  0  0  0
 20 21  1  0  0  0  0
 20 41  1  0  0  0  0
 20 42  1  0  0  0  0
 21 22  1  0  0  0  0
 21 43  1  0  0  0  0
 21 44  1  0  0  0  0
 22 23  1  0  0  0  0
 22 45  1  0  0  0  0
 22 46  1  0  0  0  0
 23 47  1  0  0  0  0
 23 48  1  0  0  0  0
 24 49  1  0  0  0  0
M  END
> <s_m_source_file>
AV-unprocessed.smi

> <i_m_source_file_index>
2339

> <i_lp_mmshare_version>
43012

> <i_f3d_flags>
0

> <s_epik_input>
W0NIM11bQ0gyXW4xW2NIXVtjSF1jKD1PKWMoW2NIXTEpW05IXUMoPU8pW05IXVtDQEBIXTJbQ0BASF0oW0NIMl1bQ0gyXU8zKVtDQEBIXTNDMjRbQ0gyXVtDSDJdW0NIMl1bQ0gyXTQ=

> <s_epik_cmdline>
J2VwaWtfcHl0aG9uJywgJy1waCcsICc3LjAnLCAnLXRuJywgJzgnLCAnLW1hJywgJzIwMCcsICctbWV0YWxfYmluZGluZycsICctaW1hZScsICc8aW5maWxlLm1hZT4nLCAnLW9tYWUnLCAnPG91dGZpbGUubWFlPic=

> <r_lp_tautomer_probability>
1

> <r_epik_Ionization_Penalty>
0.00145966

> <r_epik_Ionization_Penalty_Charging>
0.00143969

> <r_epik_Ionization_Penalty_Neutral>
1.99697e-05

> <r_epik_State_Penalty>
0.000961843

> <r_epik_Charging_Adjusted_Penalty>
0.00240153

> <i_epik_Tot_Q>
0

> <i_epik_Tot_abs_Q>
0

> <r_epik_Metal_State_Penalty>
-0

> <b_epik_Metal_Only>
0

> <s_lp_Force_Field>
OPLS_2005

> <r_lp_Energy>
81.9731

> <b_lp_Chiralities_Consistent>
1

> <s_lp_Variant>
AV-unprocessed.smi:2339-3

> <Gold.Version>
5.8.1

> <Gold.Id.Protein>
6NUR|6NUR_protein|mol2

> <Gold.PLP.Fitness>
47.3733

> <Gold.PLP.PLP>
-36.6669

> <Gold.PLP.part.hbond>
-1.8131

> <Gold.PLP.part.metal>
0.0000

> <Gold.PLP.part.buried>
-2.9981

> <Gold.PLP.part.nonpolar>
-34.4462

> <Gold.PLP.part.repulsive>
2.0551

> <Gold.PLP.ligand.clash>
0.0000

> <Gold.PLP.ligand.torsion>
0.6396

> <Gold.PLP.Chemscore.Hbond>
1.9033

> <Gold.PLP.Chemscore.CHOScore>
2.0000

> <Gold.PLP.Chemscore.Metal>
0.0000

> <Gold.Chemscore.Hbonds>
donor molecule, donor type, donor heavy atom, donor atom, acceptor molecule, acceptor atom, score
      L1  H     9    32       P1  7948  0.88
      L1  H    12    33       P1  7948  0.89
      L1  C     4    30       P1  8028  0.97
      L1  C    24    49       P1 10175  1.00

> <Gold.PLP.Chemscore.Internal.Correction>
0.2759

> <Gold.Rescore>
     Score         DG    S(hbond)    S(metal)    S(lipo)     H(rot)  DE(clash)    DE(int)     intcor
     18.63     -19.34       1.94        0.00      88.54       1.17       0.10       0.62       ----

> <Gold.Chemscore.Fitness>
18.6258

> <Gold.Chemscore.DG>
-19.3406

> <Gold.Chemscore.ZeroCoef>
-5.4800

> <Gold.Chemscore.Hbond>
1.9427

> <Gold.Chemscore.Metal>
0.0000

> <Gold.Chemscore.Lipo>
88.5411

> <Gold.Chemscore.Internal_Hbond>
0.0000

> <Gold.Chemscore.DEClash>
0.0989

> <Gold.Chemscore.DEInternal>
0.6159

> <Gold.Chemscore.Rot>
1.1670

> <Gold.Chemscore.Internal.Correction>
   9.000000E+99

> <Gold.Chemscore.Hbonds>
donor molecule, donor type, donor heavy atom, donor atom, acceptor molecule, acceptor atom, score
      L1  H     9    32       P1  7948  0.87
      L1  H    12    33       P1  7948  0.84

> <Gold.Chemscore.Hbond.Weighted>
-6.4887

> <Gold.Chemscore.Metal.Weighted>
-0.0000

> <Gold.Chemscore.Lipo.Weighted>
-10.3593

> <Gold.Chemscore.Internal_Hbond.Weighted>
0.0000

> <Gold.Chemscore.DEClash.Weighted>
0.0989

> <Gold.Chemscore.DEInternal.Weighted>
0.6159

> <Gold.Chemscore.Rot.Weighted>
2.9874

> <Gold.Chemscore.Internal.Correction.Weighted>
   9.000000E+99

> <Gold.Protein.RotatedTorsions>
[ 6907 6896 6895 6894 ] final   94.84 input  -60.11 | X-H torsion
[ 7974 7965 7964 7962 ] final  177.65 input  175.53 | X-H torsion
[ 8008 7997 7996 7995 ] final   -9.35 input   59.86 | X-H torsion
[ 10167 10162 10161 10158 ] final  -49.92 input  -65.29 | X-H torsion
[ 10718 10713 10712 10709 ] final   17.39 input   66.30 | X-H torsion
[ 10763 10752 10751 10750 ] final  -19.89 input  -60.55 | X-H torsion
[ 11005 11000 10999 10996 ] final -114.22 input  -57.11 | X-H torsion

> <Gold.Protein.ActiveResidues>
 VAL166  LYS551  ARG553  GLY616  TRP617  ASP618  TYR619  PRO620  LYS621  CYS622 
 ASP623  PHE694  ASN695  SER759  ASP760  ASP761  ALA762  ILE779  LEU786  VAL792 
 PHE793  MET794  SER795  GLU796  ALA797  LYS798  CYS799  TRP800  GLU811  SER814 

> <Gold.Protein.RotatedAtoms>
  152.5447  134.1132  159.8367 H   0  0  0  0  0  0  0  0  0  0  0  0  # atno 6907 bound_to 6896
  151.1196  133.5106  159.2610 H   0  0  0  0  0  0  0  0  0  0  0  0  # atno 6908 bound_to 6896
  151.1793  135.0363  159.8840 H   0  0  0  0  0  0  0  0  0  0  0  0  # atno 6909 bound_to 6896
  144.7166  140.0279  143.6439 H   0  0  0  0  0  0  0  0  0  0  0  0  # atno 7974 bound_to 7965
  154.5655  140.2357  155.8270 H   0  0  0  0  0  0  0  0  0  0  0  0  # atno 8008 bound_to 7997
  156.2065  140.3038  155.9596 H   0  0  0  0  0  0  0  0  0  0  0  0  # atno 8009 bound_to 7997
  155.2809  140.0422  157.3006 H   0  0  0  0  0  0  0  0  0  0  0  0  # atno 8010 bound_to 7997
  140.6662  143.2678  151.4284 H   0  0  0  0  0  0  0  0  0  0  0  0  # atno 10167 bound_to 10162
  157.0815  130.6389  149.5827 H   0  0  0  0  0  0  0  0  0  0  0  0  # atno 10718 bound_to 10713
  153.6119  135.6996  153.5343 H   0  0  0  0  0  0  0  0  0  0  0  0  # atno 10763 bound_to 10752
  153.3009  135.4129  155.1251 H   0  0  0  0  0  0  0  0  0  0  0  0  # atno 10764 bound_to 10752
  154.8561  135.3648  154.5658 H   0  0  0  0  0  0  0  0  0  0  0  0  # atno 10765 bound_to 10752
  141.0566  133.9603  157.2743 H   0  0  0  0  0  0  0  0  0  0  0  0  # atno 11005 bound_to 11000
  146.0127  139.3183  143.0861 LP  0  0  0  0  0  0  0  0  0  0  0  0  # atno 17320 bound_to 7965
  145.8663  140.9446  143.0674 LP  0  0  0  0  0  0  0  0  0  0  0  0  # atno 17321 bound_to 7965
  139.5912  144.1495  152.2090 LP  0  0  0  0  0  0  0  0  0  0  0  0  # atno 17342 bound_to 10162
  140.0850  144.5669  150.7095 LP  0  0  0  0  0  0  0  0  0  0  0  0  # atno 17343 bound_to 10162
  155.9922  130.4980  150.7332 LP  0  0  0  0  0  0  0  0  0  0  0  0  # atno 17370 bound_to 10713
  157.4796  131.0901  151.0551 LP  0  0  0  0  0  0  0  0  0  0  0  0  # atno 17371 bound_to 10713
  139.9395  135.0193  156.8663 LP  0  0  0  0  0  0  0  0  0  0  0  0  # atno 17394 bound_to 11000
  140.5952  134.0224  155.7515 LP  0  0  0  0  0  0  0  0  0  0  0  0  # atno 17395 bound_to 11000

$$$$
