#       Name:                AV-unprocessed.smi:644
#       Creating user name   scv26
#       Creation time:       Fri Mar 27 00:08:12 2020


#       File generated by GOLD software.
#

@<TRIPOS>MOLECULE
AV-unprocessed.smi:644
    42    44     1
SMALL
NO_CHARGES


@<TRIPOS>ATOM
      1 ****        -0.9641   4.8768   2.3444 C.3            1 S1                 0.0000
      2 ****        -1.0761   3.6013   1.5267 C.ar           1 S1                 0.0000
      3 ****        -1.8157   3.6352   0.3227 C.ar           1 S1                 0.0000
      4 ****        -1.9002   2.4528  -0.4028 C.ar           1 S1                 0.0000
      5 ****        -2.5416   2.1624  -1.6091 N.pl3          1 S1                 1.0000
      6 ****        -2.3402   0.8536  -1.9269 C.2            1 S1                 0.0000
      7 ****        -1.5799   0.3051  -0.9410 N.pl3          1 S1                 0.0000
      8 ****        -1.0708  -1.0647  -0.7945 C.3            1 S1                 0.0000
      9 ****         0.3941  -1.2107  -1.2500 C.3            1 S1                 0.0000
     10 ****         0.5127  -0.7948  -2.5973 O.3            1 S1                 0.0000
     11 ****         0.8914  -2.6591  -1.1226 C.3            1 S1                 0.0000
     12 ****         2.6678  -2.8051  -1.4892 S.3            1 S1                 0.0000
     13 ****         2.8839  -4.5452  -1.2921 C.2            1 S1                 0.0000
     14 ****         1.9272  -5.4056  -0.9149 N.2            1 S1                 0.0000
     15 ****         2.3890  -6.7130  -0.8467 N.2            1 S1                 0.0000
     16 ****         3.6804  -6.7927  -1.1755 C.2            1 S1                 0.0000
     17 ****         4.4551  -5.2769  -1.5964 S.3            1 S1                 0.0000
     18 ****        -1.2811   1.2648   0.0311 C.ar           1 S1                 0.0000
     19 ****        -0.5487   1.2132   1.2143 C.ar           1 S1                 0.0000
     20 ****        -0.4511   2.4056   1.9668 C.ar           1 S1                 0.0000
     21 ****         0.3400   2.3809   3.2635 C.3            1 S1                 0.0000
     22 ****        -1.4788   5.7075   1.8606 H              1 S1                 0.0000
     23 ****         0.0806   5.1618   2.4709 H              1 S1                 0.0000
     24 ****        -1.4082   4.7386   3.3306 H              1 S1                 0.0000
     25 ****        -2.2945   4.5415  -0.0184 H              1 S1                 0.0000
     26 ****        -2.7110   0.3436  -2.8044 H              1 S1                 0.0000
     27 ****        -1.1907  -1.3692   0.2459 H              1 S1                 0.0000
     28 ****        -1.7167  -1.7169  -1.3842 H              1 S1                 0.0000
     29 ****         1.0258  -0.5624  -0.6415 H              1 S1                 0.0000
     30 ****         1.4165  -0.8864  -2.8591 H              1 S1                 0.0000
     31 ****         0.7217  -3.0157  -0.1059 H              1 S1                 0.0000
     32 ****         0.3272  -3.3104  -1.7917 H              1 S1                 0.0000
     33 ****         4.1801  -7.7501  -1.1687 H              1 S1                 0.0000
     34 ****        -0.0728   0.3025   1.5468 H              1 S1                 0.0000
     35 ****         0.7495   1.3900   3.4623 H              1 S1                 0.0000
     36 ****        -0.2970   2.6527   4.1057 H              1 S1                 0.0000
     37 ****         1.1734   3.0825   3.2177 H              1 S1                 0.0000
     38 ****        -3.0758   2.8078  -2.1769 H              1 S1                 0.0000
     39 ****         0.2317   0.1612  -2.6817 LP             1 S1                 0.0000
     40 ****        -0.0671  -1.3652  -3.1792 LP             1 S1                 0.0000
     41 ****         0.9871  -5.1360  -0.7063 LP             1 S1                 0.0000
     42 ****         1.8253  -7.4963  -0.5844 LP             1 S1                 0.0000
@<TRIPOS>BOND
    1    1    2 1     
    2    1   22 1     
    3    1   23 1     
    4    1   24 1     
    5    2   20 ar    
    6    2    3 ar    
    7    3    4 ar    
    8    3   25 1     
    9    4   18 ar    
   10    4    5 1     
   11    5    6 2     
   12    5   38 1     
   13    6    7 1     
   14    6   26 1     
   15    7    8 1     
   16    7   18 1     
   17    8    9 1     
   18    8   27 1     
   19    8   28 1     
   20    9   10 1     
   21    9   11 1     
   22    9   29 1     
   23   10   30 1     
   24   11   12 1     
   25   11   31 1     
   26   11   32 1     
   27   12   13 1     
   28   13   17 1     
   29   13   14 2     
   30   14   15 1     
   31   15   16 2     
   32   16   17 1     
   33   16   33 1     
   34   18   19 ar    
   35   19   20 ar    
   36   19   34 1     
   37   20   21 1     
   38   21   35 1     
   39   21   36 1     
   40   21   37 1     
   41   10   39 1     
   42   10   40 1     
   43   14   41 1     
   44   15   42 1     
@<TRIPOS>SUBSTRUCTURE
      1 S1             1
@<TRIPOS>SET
LONE_PAIRS      STATIC     ATOMS    <user>   **** ""
4 39 40 41 42
DONOR_HYDROGENS      STATIC     ATOMS    <user>   **** ""
2 38 30
ATOM$BLUE        STATIC     ATOMS    COLORGROUP SYSTEM
4 39 40 41 42
ATOM$RED        STATIC     ATOMS    COLORGROUP SYSTEM
2 38 30
