AV-unprocessed.smi:129|AV-procd|sdf|1158|dock3
  -GOLD-   2262018293D 1   1.00000     0.00000
 Structure written by MMmdl.
 58 61  0  0  0  0  0  0  0  0  1 V2000
  153.4199  143.4158  163.3876 C   0  0  0  0  0  0  0  0  0  0  0  0
  153.0238  142.5423  162.3404 O   0  0  0  0  0  0  0  0  0  0  0  0
  152.6551  143.0938  161.1289 C   0  0  0  0  0  0  0  0  0  0  0  0
  152.2190  144.4357  160.9823 C   0  0  0  0  0  0  0  0  0  0  0  0
  151.8615  144.9391  159.7183 C   0  0  0  0  0  0  0  0  0  0  0  0
  151.9413  144.1138  158.5842 C   0  0  0  0  0  0  0  0  0  0  0  0
  152.3721  142.7815  158.7142 C   0  0  0  0  0  0  0  0  0  0  0  0
  152.7175  142.2605  159.9855 C   0  0  0  0  0  0  0  0  0  0  0  0
  153.1774  140.9268  160.1765 N   0  0  0  0  0  0  0  0  0  0  0  0
  153.4047  139.9640  159.2626 C   0  0  0  0  0  0  0  0  0  0  0  0
  153.2951  140.1034  158.0445 O   0  0  0  0  0  0  0  0  0  0  0  0
  153.8749  138.6555  159.8318 C   0  0  0  0  0  0  0  0  0  0  0  0
  154.1731  137.5791  158.9687 C   0  0  0  0  0  0  0  0  0  0  0  0
  154.5915  136.3404  159.4902 C   0  0  0  0  0  0  0  0  0  0  0  0
  154.7196  136.1540  160.8813 C   0  0  0  0  0  0  0  0  0  0  0  0
  155.1272  134.8672  161.3263 N   0  0  0  0  0  0  0  0  0  0  0  0
  154.9778  133.6750  160.7212 C   0  0  0  0  0  0  0  0  0  0  0  0
  154.3919  133.5018  159.6518 O   0  0  0  0  0  0  0  0  0  0  0  0
  155.5613  132.4798  161.4911 C   0  0  0  0  0  0  0  0  0  0  0  0
  154.7347  132.0602  162.6437 N   0  0  0  0  0  0  0  0  0  0  0  0
  154.5693  132.9649  163.7216 C   0  0  0  0  0  0  0  0  0  0  0  0
  155.0922  134.0804  163.7050 O   0  0  0  0  0  0  0  0  0  0  0  0
  153.7549  132.4813  164.8305 C   0  0  0  0  0  0  0  0  0  0  0  0
  153.5362  133.2763  165.8918 F   0  0  0  0  0  0  0  0  0  0  0  0
  153.2146  131.2455  164.8090 C   0  0  0  0  0  0  0  0  0  0  0  0
  153.3949  130.3676  163.7550 N   0  0  0  0  0  0  0  0  0  0  0  0
  152.7921  128.9791  163.7533 C   0  0  1  0  0  0  0  0  0  0  0  0
  153.2697  128.1811  164.9801 C   0  0  0  0  0  0  0  0  0  0  0  0
  151.9730  127.6433  165.5512 C   0  0  0  0  0  0  0  0  0  0  0  0
  150.9813  128.7253  165.1509 C   0  0  0  0  0  0  0  0  0  0  0  0
  151.3975  129.0662  163.8345 O   0  0  0  0  0  0  0  0  0  0  0  0
  154.1668  130.7639  162.6414 C   0  0  0  0  0  0  0  0  0  0  0  0
  154.3459  129.9928  161.6960 O   0  0  0  0  0  0  0  0  0  0  0  0
  154.3963  137.2228  161.7512 C   0  0  0  0  0  0  0  0  0  0  0  0
  153.9795  138.4628  161.2287 C   0  0  0  0  0  0  0  0  0  0  0  0
  153.6817  142.8265  164.2662 H   0  0  0  0  0  0  0  0  0  0  0  0
  152.6114  144.0902  163.6729 H   0  0  0  0  0  0  0  0  0  0  0  0
  154.2984  143.9997  163.1092 H   0  0  0  0  0  0  0  0  0  0  0  0
  152.1502  145.1041  161.8269 H   0  0  0  0  0  0  0  0  0  0  0  0
  151.5318  145.9627  159.6183 H   0  0  0  0  0  0  0  0  0  0  0  0
  151.6778  144.5039  157.6122 H   0  0  0  0  0  0  0  0  0  0  0  0
  152.4426  142.1845  157.8188 H   0  0  0  0  0  0  0  0  0  0  0  0
  153.2664  140.6406  161.1409 H   0  0  0  0  0  0  0  0  0  0  0  0
  154.0859  137.6962  157.8980 H   0  0  0  0  0  0  0  0  0  0  0  0
  154.8171  135.5302  158.8121 H   0  0  0  0  0  0  0  0  0  0  0  0
  155.5442  134.8427  162.2455 H   0  0  0  0  0  0  0  0  0  0  0  0
  155.7030  131.6476  160.7991 H   0  0  0  0  0  0  0  0  0  0  0  0
  156.5746  132.7375  161.8024 H   0  0  0  0  0  0  0  0  0  0  0  0
  152.6212  130.9495  165.6602 H   0  0  0  0  0  0  0  0  0  0  0  0
  153.0674  128.5343  162.7952 H   0  0  0  0  0  0  0  0  0  0  0  0
  153.9716  127.3986  164.6902 H   0  0  0  0  0  0  0  0  0  0  0  0
  153.7551  128.8461  165.6968 H   0  0  0  0  0  0  0  0  0  0  0  0
  151.7121  126.7005  165.0687 H   0  0  0  0  0  0  0  0  0  0  0  0
  152.0146  127.4786  166.6282 H   0  0  0  0  0  0  0  0  0  0  0  0
  149.9479  128.3787  165.1673 H   0  0  0  0  0  0  0  0  0  0  0  0
  151.0651  129.5906  165.8098 H   0  0  0  0  0  0  0  0  0  0  0  0
  154.4421  137.1114  162.8234 H   0  0  0  0  0  0  0  0  0  0  0  0
  153.7298  139.2593  161.9150 H   0  0  0  0  0  0  0  0  0  0  0  0
  1  2  1  0  0  0  0
  1 36  1  0  0  0  0
  1 37  1  0  0  0  0
  1 38  1  0  0  0  0
  2  3  1  0  0  0  0
  3  8  1  0  0  0  0
  3  4  2  0  0  0  0
  4  5  1  0  0  0  0
  4 39  1  0  0  0  0
  5  6  2  0  0  0  0
  5 40  1  0  0  0  0
  6  7  1  0  0  0  0
  6 41  1  0  0  0  0
  7  8  2  0  0  0  0
  7 42  1  0  0  0  0
  8  9  1  0  0  0  0
  9 10  1  0  0  0  0
  9 43  1  0  0  0  0
 10 11  2  0  0  0  0
 10 12  1  0  0  0  0
 12 35  1  0  0  0  0
 12 13  2  0  0  0  0
 13 14  1  0  0  0  0
 13 44  1  0  0  0  0
 14 15  2  0  0  0  0
 14 45  1  0  0  0  0
 15 16  1  0  0  0  0
 15 34  1  0  0  0  0
 16 17  1  0  0  0  0
 16 46  1  0  0  0  0
 17 18  2  0  0  0  0
 17 19  1  0  0  0  0
 19 20  1  0  0  0  0
 19 47  1  0  0  0  0
 19 48  1  0  0  0  0
 20 32  1  0  0  0  0
 20 21  1  0  0  0  0
 21 22  2  0  0  0  0
 21 23  1  0  0  0  0
 23 24  1  0  0  0  0
 23 25  2  0  0  0  0
 25 26  1  0  0  0  0
 25 49  1  0  0  0  0
 26 27  1  0  0  0  0
 26 32  1  0  0  0  0
 27 31  1  0  0  0  0
 27 28  1  0  0  0  0
 27 50  1  0  0  0  0
 28 29  1  0  0  0  0
 28 51  1  0  0  0  0
 28 52  1  0  0  0  0
 29 30  1  0  0  0  0
 29 53  1  0  0  0  0
 29 54  1  0  0  0  0
 30 31  1  0  0  0  0
 30 55  1  0  0  0  0
 30 56  1  0  0  0  0
 32 33  2  0  0  0  0
 34 35  2  0  0  0  0
 34 57  1  0  0  0  0
 35 58  1  0  0  0  0
M  END
> <s_m_source_file>
AV-unprocessed.smi

> <i_m_source_file_index>
129

> <i_lp_mmshare_version>
43012

> <i_f3d_flags>
0

> <s_epik_input>
W0NIM11PYzFbY0hdW2NIXVtjSF1bY0hdYzFbTkhdQyg9TyljMltjSF1bY0hdYyhbY0hdW2NIXTIpW05IXUMoPU8pW0NIMl1uM2MoPU8pYyhGKVtjSF1uKGMzPU8pW0NAQEhdNFtDSDJdW0NIMl1bQ0gyXU80

> <s_epik_cmdline>
J2VwaWtfcHl0aG9uJywgJy1waCcsICc3LjAnLCAnLXRuJywgJzgnLCAnLW1hJywgJzIwMCcsICctbWV0YWxfYmluZGluZycsICctaW1hZScsICc8aW5maWxlLm1hZT4nLCAnLW9tYWUnLCAnPG91dGZpbGUubWFlPic=

> <r_lp_tautomer_probability>
1

> <r_epik_Ionization_Penalty>
2.57954e-06

> <r_epik_Ionization_Penalty_Charging>
3.88729e-08

> <r_epik_Ionization_Penalty_Neutral>
2.54066e-06

> <r_epik_State_Penalty>
-0

> <r_epik_Charging_Adjusted_Penalty>
3.88729e-08

> <i_epik_Tot_Q>
0

> <i_epik_Tot_abs_Q>
0

> <r_epik_Metal_State_Penalty>
-0

> <b_epik_Metal_Only>
0

> <s_epik_Chemistry_Notes>
This compound contains an acetal/aminal-like group ( X-CH(R)-Y where X, Y are N, S, or O) that may be acid/base labile, releasing an aldehyde.

> <s_lp_Force_Field>
OPLS_2005

> <r_lp_Energy>
51.387

> <b_lp_Chiralities_Consistent>
1

> <s_lp_Variant>
AV-unprocessed.smi:129-2

> <Gold.Version>
5.8.1

> <Gold.Id.Protein>
6NUR|6NUR_protein|mol2

> <Gold.PLP.Fitness>
59.9553

> <Gold.PLP.PLP>
-55.2841

> <Gold.PLP.part.hbond>
-2.0000

> <Gold.PLP.part.metal>
0.0000

> <Gold.PLP.part.buried>
-5.8696

> <Gold.PLP.part.nonpolar>
-46.7478

> <Gold.PLP.part.repulsive>
0.3077

> <Gold.PLP.ligand.clash>
0.0000

> <Gold.PLP.ligand.torsion>
0.7054

> <Gold.PLP.Chemscore.Hbond>
1.9760

> <Gold.PLP.Chemscore.CHOScore>
0.0000

> <Gold.PLP.Chemscore.Metal>
0.0000

> <Gold.Chemscore.Hbonds>
donor molecule, donor type, donor heavy atom, donor atom, acceptor molecule, acceptor atom, score
      P1  H  6896  6907       L1    18  1.00
      P1  H  7997  8010       L1    11  0.98

> <Gold.PLP.Chemscore.Internal.Correction>
0.1542

> <Gold.Rescore>
     Score         DG    S(hbond)    S(metal)    S(lipo)     H(rot)  DE(clash)    DE(int)     intcor
     17.90     -24.23       1.94        0.00     147.41       1.94       0.61       5.72       ----

> <Gold.Chemscore.Fitness>
17.9022

> <Gold.Chemscore.DG>
-24.2313

> <Gold.Chemscore.ZeroCoef>
-5.4800

> <Gold.Chemscore.Hbond>
1.9397

> <Gold.Chemscore.Metal>
0.0000

> <Gold.Chemscore.Lipo>
147.4101

> <Gold.Chemscore.Internal_Hbond>
0.0000

> <Gold.Chemscore.DEClash>
0.6098

> <Gold.Chemscore.DEInternal>
5.7193

> <Gold.Chemscore.Rot>
1.9430

> <Gold.Chemscore.Internal.Correction>
   9.000000E+99

> <Gold.Chemscore.Hbonds>
donor molecule, donor type, donor heavy atom, donor atom, acceptor molecule, acceptor atom, score
      P1  H  6896  6907       L1    18  0.91
      P1  H  7997  8010       L1    11  0.91

> <Gold.Chemscore.Hbond.Weighted>
-6.4785

> <Gold.Chemscore.Metal.Weighted>
-0.0000

> <Gold.Chemscore.Lipo.Weighted>
-17.2470

> <Gold.Chemscore.Internal_Hbond.Weighted>
0.0000

> <Gold.Chemscore.DEClash.Weighted>
0.6098

> <Gold.Chemscore.DEInternal.Weighted>
5.7193

> <Gold.Chemscore.Rot.Weighted>
4.9741

> <Gold.Chemscore.Internal.Correction.Weighted>
   9.000000E+99

> <Gold.Protein.RotatedTorsions>
[ 6907 6896 6895 6894 ] final  114.42 input  -60.11 | X-H torsion
[ 7974 7965 7964 7962 ] final  -91.42 input  175.53 | X-H torsion
[ 8008 7997 7996 7995 ] final   29.46 input   59.86 | X-H torsion
[ 10167 10162 10161 10158 ] final  141.65 input  -65.29 | X-H torsion
[ 10718 10713 10712 10709 ] final   74.78 input   66.30 | X-H torsion
[ 10763 10752 10751 10750 ] final   -0.79 input  -60.55 | X-H torsion
[ 11005 11000 10999 10996 ] final  -40.68 input  -57.11 | X-H torsion

> <Gold.Protein.ActiveResidues>
 VAL166  LYS551  ARG553  GLY616  TRP617  ASP618  TYR619  PRO620  LYS621  CYS622 
 ASP623  PHE694  ASN695  SER759  ASP760  ASP761  ALA762  ILE779  LEU786  VAL792 
 PHE793  MET794  SER795  GLU796  ALA797  LYS798  CYS799  TRP800  GLU811  SER814 

> <Gold.Protein.RotatedAtoms>
  152.4803  133.8238  159.7067 H   0  0  0  0  0  0  0  0  0  0  0  0  # atno 6907 bound_to 6896
  150.8848  133.7313  159.2928 H   0  0  0  0  0  0  0  0  0  0  0  0  # atno 6908 bound_to 6896
  151.4805  135.1055  159.9828 H   0  0  0  0  0  0  0  0  0  0  0  0  # atno 6909 bound_to 6896
  145.4133  140.9546  143.2222 H   0  0  0  0  0  0  0  0  0  0  0  0  # atno 7974 bound_to 7965
  155.0749  140.3204  155.4619 H   0  0  0  0  0  0  0  0  0  0  0  0  # atno 8008 bound_to 7997
  156.2781  140.2105  156.5822 H   0  0  0  0  0  0  0  0  0  0  0  0  # atno 8009 bound_to 7997
  154.7025  140.0506  157.0459 H   0  0  0  0  0  0  0  0  0  0  0  0  # atno 8010 bound_to 7997
  139.5015  144.6158  151.6168 H   0  0  0  0  0  0  0  0  0  0  0  0  # atno 10167 bound_to 10162
  157.6607  130.9694  150.1260 H   0  0  0  0  0  0  0  0  0  0  0  0  # atno 10718 bound_to 10713
  153.3364  135.6978  153.6904 H   0  0  0  0  0  0  0  0  0  0  0  0  # atno 10763 bound_to 10752
  153.5686  135.3521  155.2829 H   0  0  0  0  0  0  0  0  0  0  0  0  # atno 10764 bound_to 10752
  154.8628  135.4266  154.2566 H   0  0  0  0  0  0  0  0  0  0  0  0  # atno 10765 bound_to 10752
  141.0192  133.6871  156.2354 H   0  0  0  0  0  0  0  0  0  0  0  0  # atno 11005 bound_to 11000
  144.8294  139.5654  143.6950 LP  0  0  0  0  0  0  0  0  0  0  0  0  # atno 17320 bound_to 7965
  146.2694  139.6597  142.9307 LP  0  0  0  0  0  0  0  0  0  0  0  0  # atno 17321 bound_to 7965
  140.5845  143.9888  150.6287 LP  0  0  0  0  0  0  0  0  0  0  0  0  # atno 17342 bound_to 10162
  140.3048  143.3237  152.0937 LP  0  0  0  0  0  0  0  0  0  0  0  0  # atno 17343 bound_to 10162
  156.2119  130.3667  149.8660 LP  0  0  0  0  0  0  0  0  0  0  0  0  # atno 17370 bound_to 10713
  156.6536  130.8754  151.3535 LP  0  0  0  0  0  0  0  0  0  0  0  0  # atno 17371 bound_to 10713
  140.6602  134.4975  157.5583 LP  0  0  0  0  0  0  0  0  0  0  0  0  # atno 17394 bound_to 11000
  139.9135  134.8294  156.1444 LP  0  0  0  0  0  0  0  0  0  0  0  0  # atno 17395 bound_to 11000

$$$$
