AV-unprocessed.smi:738|AV-procd|sdf|3541|dock9
  -GOLD-   22720 0533D 1   1.00000     0.00000
 Structure written by MMmdl.
 35 37  0  0  0  0  0  0  0  0  1 V2000
  142.0936  130.3131  157.3980 N   0  0  0  0  0  0  0  0  0  0  0  0
  142.0398  130.5494  158.7123 C   0  0  0  0  0  0  0  0  0  0  0  0
  141.3334  129.8898  159.4721 O   0  0  0  0  0  0  0  0  0  0  0  0
  142.8428  131.7162  159.2104 C   0  0  0  0  0  0  0  0  0  0  0  0
  143.6430  132.4683  158.3234 C   0  0  0  0  0  0  0  0  0  0  0  0
  144.3718  133.5391  158.7025 N   0  0  0  0  0  0  0  0  0  0  0  0
  144.3348  133.9253  160.0006 C   0  0  0  0  0  0  0  0  0  0  0  0
  145.0885  135.0530  160.3748 N   0  0  0  0  0  0  0  0  0  0  0  0
  144.5057  136.2847  159.8633 C   0  0  0  0  0  0  0  0  0  0  0  0
  145.1597  137.4873  160.5553 C   0  0  0  0  0  0  0  0  0  0  0  0
  146.5663  137.4686  160.3310 O   0  0  0  0  0  0  0  0  0  0  0  0
  147.2198  136.2587  160.7204 C   0  0  1  0  0  0  0  0  0  0  0  0
  147.3844  136.0515  162.2346 C   0  0  0  0  0  0  0  0  0  0  0  0
  147.3998  134.5284  162.4430 C   0  0  0  0  0  0  0  0  0  0  0  0
  147.1927  133.8929  161.0598 C   0  0  0  0  0  0  0  0  0  0  0  0
  146.5414  134.9825  160.1934 C   0  0  1  0  0  0  0  0  0  0  0  0
  143.5520  133.2463  160.9656 C   0  0  0  0  0  0  0  0  0  0  0  0
  143.5177  133.7435  162.6220 Cl  0  0  0  0  0  0  0  0  0  0  0  0
  142.7953  132.1297  160.5603 C   0  0  0  0  0  0  0  0  0  0  0  0
  141.5695  129.5434  157.0072 H   0  0  0  0  0  0  0  0  0  0  0  0
  142.6520  130.9039  156.7994 H   0  0  0  0  0  0  0  0  0  0  0  0
  143.7090  132.2063  157.2774 H   0  0  0  0  0  0  0  0  0  0  0  0
  144.6602  136.3398  158.7847 H   0  0  0  0  0  0  0  0  0  0  0  0
  143.4287  136.3004  160.0352 H   0  0  0  0  0  0  0  0  0  0  0  0
  144.7554  138.4158  160.1522 H   0  0  0  0  0  0  0  0  0  0  0  0
  144.9367  137.4880  161.6222 H   0  0  0  0  0  0  0  0  0  0  0  0
  148.2227  136.2987  160.2929 H   0  0  0  0  0  0  0  0  0  0  0  0
  148.2947  136.5253  162.6034 H   0  0  0  0  0  0  0  0  0  0  0  0
  146.5523  136.4799  162.7920 H   0  0  0  0  0  0  0  0  0  0  0  0
  148.3306  134.1895  162.8987 H   0  0  0  0  0  0  0  0  0  0  0  0
  146.5871  134.2417  163.1118 H   0  0  0  0  0  0  0  0  0  0  0  0
  148.1674  133.6472  160.6362 H   0  0  0  0  0  0  0  0  0  0  0  0
  146.6269  132.9620  161.1066 H   0  0  0  0  0  0  0  0  0  0  0  0
  146.7684  134.8394  159.1360 H   0  0  0  0  0  0  0  0  0  0  0  0
  142.1890  131.6047  161.2843 H   0  0  0  0  0  0  0  0  0  0  0  0
  1  2  1  0  0  0  0
  1 20  1  0  0  0  0
  1 21  1  0  0  0  0
  2  3  2  0  0  0  0
  2  4  1  0  0  0  0
  4 19  1  0  0  0  0
  4  5  2  0  0  0  0
  5  6  1  0  0  0  0
  5 22  1  0  0  0  0
  6  7  2  0  0  0  0
  7  8  1  0  0  0  0
  7 17  1  0  0  0  0
  8 16  1  0  0  0  0
  8  9  1  0  0  0  0
  9 10  1  0  0  0  0
  9 23  1  0  0  0  0
  9 24  1  0  0  0  0
 10 11  1  0  0  0  0
 10 25  1  0  0  0  0
 10 26  1  0  0  0  0
 11 12  1  0  0  0  0
 12 16  1  0  0  0  0
 12 13  1  0  0  0  0
 12 27  1  0  0  0  0
 13 14  1  0  0  0  0
 13 28  1  0  0  0  0
 13 29  1  0  0  0  0
 14 15  1  0  0  0  0
 14 30  1  0  0  0  0
 14 31  1  0  0  0  0
 15 16  1  0  0  0  0
 15 32  1  0  0  0  0
 15 33  1  0  0  0  0
 16 34  1  0  0  0  0
 17 18  1  0  0  0  0
 17 19  2  0  0  0  0
 19 35  1  0  0  0  0
M  END
> <s_m_source_file>
AV-unprocessed.smi

> <i_m_source_file_index>
738

> <i_lp_mmshare_version>
43012

> <i_f3d_flags>
0

> <s_epik_input>
W05IMl1DKD1PKWMxW2NIXW5jKGMoQ2wpW2NIXTEpTihbQ0gyXVtDSDJdTzIpW0NASF0oW0NASF0yMylbQ0gyXVtDSDJdW0NIMl0z

> <s_epik_cmdline>
J2VwaWtfcHl0aG9uJywgJy1waCcsICc3LjAnLCAnLXRuJywgJzgnLCAnLW1hJywgJzIwMCcsICctbWV0YWxfYmluZGluZycsICctaW1hZScsICc8aW5maWxlLm1hZT4nLCAnLW9tYWUnLCAnPG91dGZpbGUubWFlPic=

> <r_lp_tautomer_probability>
1

> <r_epik_Ionization_Penalty>
6.75978e-06

> <r_epik_Ionization_Penalty_Charging>
0

> <r_epik_Ionization_Penalty_Neutral>
6.75978e-06

> <r_epik_State_Penalty>
-0

> <r_epik_Charging_Adjusted_Penalty>
0

> <i_epik_Tot_Q>
0

> <i_epik_Tot_abs_Q>
0

> <r_epik_Metal_State_Penalty>
-0

> <b_epik_Metal_Only>
0

> <s_lp_Force_Field>
OPLS_2005

> <r_lp_Energy>
43.0455

> <b_lp_Chiralities_Consistent>
1

> <s_lp_Variant>
AV-unprocessed.smi:738-4

> <Gold.Version>
5.8.1

> <Gold.Id.Protein>
6NUR|6NUR_protein|mol2

> <Gold.PLP.Fitness>
33.5891

> <Gold.PLP.PLP>
-26.9502

> <Gold.PLP.part.hbond>
-3.3887

> <Gold.PLP.part.metal>
0.0000

> <Gold.PLP.part.buried>
-2.7655

> <Gold.PLP.part.nonpolar>
-20.0439

> <Gold.PLP.part.repulsive>
0.1345

> <Gold.PLP.ligand.clash>
0.0000

> <Gold.PLP.ligand.torsion>
0.1384

> <Gold.PLP.Chemscore.Hbond>
1.5712

> <Gold.PLP.Chemscore.CHOScore>
0.6758

> <Gold.PLP.Chemscore.Metal>
0.0000

> <Gold.Chemscore.Hbonds>
donor molecule, donor type, donor heavy atom, donor atom, acceptor molecule, acceptor atom, score
      L1  H     1    21       P1 10957  0.32
      P1  H  6934  6947       L1    11  1.00
      L1  C     5    22       P1 10957  0.64

> <Gold.PLP.Chemscore.Internal.Correction>
0.1746

> <Gold.Rescore>
     Score         DG    S(hbond)    S(metal)    S(lipo)     H(rot)  DE(clash)    DE(int)     intcor
     14.41     -14.55       1.12        0.00      67.45       1.00       0.04       0.10       ----

> <Gold.Chemscore.Fitness>
14.4118

> <Gold.Chemscore.DG>
-14.5460

> <Gold.Chemscore.ZeroCoef>
-5.4800

> <Gold.Chemscore.Hbond>
1.1180

> <Gold.Chemscore.Metal>
0.0000

> <Gold.Chemscore.Lipo>
67.4506

> <Gold.Chemscore.Internal_Hbond>
0.0000

> <Gold.Chemscore.DEClash>
0.0354

> <Gold.Chemscore.DEInternal>
0.0988

> <Gold.Chemscore.Rot>
1.0000

> <Gold.Chemscore.Internal.Correction>
   9.000000E+99

> <Gold.Chemscore.Hbonds>
donor molecule, donor type, donor heavy atom, donor atom, acceptor molecule, acceptor atom, score
      L1  H     1    21       P1 10957  0.01
      P1  H  6934  6947       L1    11  0.54

> <Gold.Chemscore.Hbond.Weighted>
-3.7342

> <Gold.Chemscore.Metal.Weighted>
-0.0000

> <Gold.Chemscore.Lipo.Weighted>
-7.8917

> <Gold.Chemscore.Internal_Hbond.Weighted>
0.0000

> <Gold.Chemscore.DEClash.Weighted>
0.0354

> <Gold.Chemscore.DEInternal.Weighted>
0.0988

> <Gold.Chemscore.Rot.Weighted>
2.5600

> <Gold.Chemscore.Internal.Correction.Weighted>
   9.000000E+99

> <Gold.Protein.RotatedTorsions>
[ 6907 6896 6895 6894 ] final  157.90 input  -60.11 | X-H torsion
[ 7974 7965 7964 7962 ] final  -55.12 input  175.53 | X-H torsion
[ 8008 7997 7996 7995 ] final  -28.90 input   59.86 | X-H torsion
[ 10167 10162 10161 10158 ] final   13.68 input  -65.29 | X-H torsion
[ 10718 10713 10712 10709 ] final -100.13 input   66.30 | X-H torsion
[ 10763 10752 10751 10750 ] final  -14.80 input  -60.55 | X-H torsion
[ 11005 11000 10999 10996 ] final   40.49 input  -57.11 | X-H torsion

> <Gold.Protein.ActiveResidues>
 VAL166  LYS551  ARG553  GLY616  TRP617  ASP618  TYR619  PRO620  LYS621  CYS622 
 ASP623  PHE694  ASN695  SER759  ASP760  ASP761  ALA762  ILE779  LEU786  VAL792 
 PHE793  MET794  SER795  GLU796  ALA797  LYS798  CYS799  TRP800  GLU811  SER814 

> <Gold.Protein.RotatedAtoms>
  152.0083  133.3851  159.4209 H   0  0  0  0  0  0  0  0  0  0  0  0  # atno 6907 bound_to 6896
  150.6902  134.3759  159.5022 H   0  0  0  0  0  0  0  0  0  0  0  0  # atno 6908 bound_to 6896
  152.1516  134.8984  160.0598 H   0  0  0  0  0  0  0  0  0  0  0  0  # atno 6909 bound_to 6896
  145.8778  140.8168  142.9855 H   0  0  0  0  0  0  0  0  0  0  0  0  # atno 7974 bound_to 7965
  154.4312  140.1833  156.1162 H   0  0  0  0  0  0  0  0  0  0  0  0  # atno 8008 bound_to 7997
  156.0179  140.3344  155.6983 H   0  0  0  0  0  0  0  0  0  0  0  0  # atno 8009 bound_to 7997
  155.6018  140.0641  157.2721 H   0  0  0  0  0  0  0  0  0  0  0  0  # atno 8010 bound_to 7997
  140.5986  143.8651  150.6943 H   0  0  0  0  0  0  0  0  0  0  0  0  # atno 10167 bound_to 10162
  156.0154  130.5314  150.6772 H   0  0  0  0  0  0  0  0  0  0  0  0  # atno 10718 bound_to 10713
  153.5336  135.7014  153.5671 H   0  0  0  0  0  0  0  0  0  0  0  0  # atno 10763 bound_to 10752
  153.3667  135.3955  155.1758 H   0  0  0  0  0  0  0  0  0  0  0  0  # atno 10764 bound_to 10752
  154.8682  135.3802  154.4835 H   0  0  0  0  0  0  0  0  0  0  0  0  # atno 10765 bound_to 10752
  140.1926  134.3968  155.8138 H   0  0  0  0  0  0  0  0  0  0  0  0  # atno 11005 bound_to 11000
  144.6726  140.1337  143.7442 LP  0  0  0  0  0  0  0  0  0  0  0  0  # atno 17320 bound_to 7965
  145.9060  139.2458  143.1465 LP  0  0  0  0  0  0  0  0  0  0  0  0  # atno 17321 bound_to 7965
  140.2191  143.3823  152.1657 LP  0  0  0  0  0  0  0  0  0  0  0  0  # atno 17342 bound_to 10162
  139.5275  144.7120  151.5175 LP  0  0  0  0  0  0  0  0  0  0  0  0  # atno 17343 bound_to 10162
  157.4482  131.0869  151.0873 LP  0  0  0  0  0  0  0  0  0  0  0  0  # atno 17370 bound_to 10713
  157.1397  130.6137  149.5552 LP  0  0  0  0  0  0  0  0  0  0  0  0  # atno 17371 bound_to 10713
  141.2226  133.7054  156.8121 LP  0  0  0  0  0  0  0  0  0  0  0  0  # atno 17394 bound_to 11000
  140.2143  134.8804  157.3308 LP  0  0  0  0  0  0  0  0  0  0  0  0  # atno 17395 bound_to 11000

$$$$
