AV-unprocessed.smi:224|AV-procd|sdf|1720|dock8
  -GOLD-   2262020193D 1   1.00000     0.00000
 Structure written by MMmdl.
 56 59  0  0  0  0  0  0  0  0  2 V2000
  144.0565  132.0402  151.2626 C   0  0  0  0  0  0  0  0  0  0  0  0
  145.4647  132.2667  151.8278 C   0  0  1  0  0  0  0  0  0  0  0  0
  146.2585  131.1537  151.4683 O   0  0  0  0  0  0  0  0  0  0  0  0
  146.1029  133.5552  151.2703 C   0  0  0  0  0  0  0  0  0  0  0  0
  147.0580  134.1853  152.2196 N   0  3  2  0  0  0  0  0  0  0  0  0
  148.0209  133.2289  152.8300 C   0  0  0  0  0  0  0  0  0  0  0  0
  149.0670  133.9700  153.6820 C   0  0  0  0  0  0  0  0  0  0  0  0
  148.4280  134.8459  154.6621 N   0  0  0  0  0  0  0  0  0  0  0  0
  148.1654  134.3742  155.9109 C   0  0  0  0  0  0  0  0  0  0  0  0
  148.8029  133.2579  156.3550 N   0  0  0  0  0  0  0  0  0  0  0  0
  148.5433  132.7653  157.5692 C   0  0  0  0  0  0  0  0  0  0  0  0
  147.7000  133.2277  158.4925 N   0  0  0  0  0  0  0  0  0  0  0  0
  147.0702  134.3591  158.0657 C   0  0  0  0  0  0  0  0  0  0  0  0
  147.2398  134.9920  156.8011 C   0  0  0  0  0  0  0  0  0  0  0  0
  146.4334  136.1225  156.7307 N   0  0  0  0  0  0  0  0  0  0  0  0
  145.8150  136.1482  157.8794 C   0  0  0  0  0  0  0  0  0  0  0  0
  146.1471  135.1331  158.7472 N   0  0  0  0  0  0  0  0  0  0  0  0
  145.6176  134.9241  160.0860 C   0  0  0  0  0  0  0  0  0  0  0  0
  146.6821  135.0333  161.2081 C   0  0  2  0  0  0  0  0  0  0  0  0
  147.2413  133.7589  161.4629 O   0  0  0  0  0  0  0  0  0  0  0  0
  146.1019  135.5979  162.4946 C   0  0  0  0  0  0  0  0  0  0  0  0
  146.1949  137.1067  162.2765 C   0  0  0  0  0  0  0  0  0  0  0  0
  147.2860  137.3091  161.3831 O   0  0  0  0  0  0  0  0  0  0  0  0
  147.7910  136.0566  160.9314 C   0  0  0  0  0  0  0  0  0  0  0  0
  147.4723  135.7924  154.0891 C   0  0  0  0  0  0  0  0  0  0  0  0
  146.4085  135.0826  153.2217 C   0  0  2  0  0  0  0  0  0  0  0  0
  145.3376  134.3713  154.0773 C   0  0  0  0  0  0  0  0  0  0  0  0
  143.3912  132.8619  151.5287 H   0  0  0  0  0  0  0  0  0  0  0  0
  143.6173  131.1225  151.6557 H   0  0  0  0  0  0  0  0  0  0  0  0
  144.0705  131.9626  150.1747 H   0  0  0  0  0  0  0  0  0  0  0  0
  145.3936  132.3027  152.9142 H   0  0  0  0  0  0  0  0  0  0  0  0
  147.0104  131.4545  150.9820 H   0  0  0  0  0  0  0  0  0  0  0  0
  146.6162  133.3092  150.3391 H   0  0  0  0  0  0  0  0  0  0  0  0
  145.3291  134.2793  151.0098 H   0  0  0  0  0  0  0  0  0  0  0  0
  147.4831  132.4994  153.4360 H   0  0  0  0  0  0  0  0  0  0  0  0
  148.5385  132.6632  152.0567 H   0  0  0  0  0  0  0  0  0  0  0  0
  149.7467  133.2652  154.1625 H   0  0  0  0  0  0  0  0  0  0  0  0
  149.6892  134.5896  153.0350 H   0  0  0  0  0  0  0  0  0  0  0  0
  149.0887  131.8732  157.8399 H   0  0  0  0  0  0  0  0  0  0  0  0
  145.1010  136.9193  158.1311 H   0  0  0  0  0  0  0  0  0  0  0  0
  144.8193  135.6494  160.2469 H   0  0  0  0  0  0  0  0  0  0  0  0
  145.1433  133.9422  160.1140 H   0  0  0  0  0  0  0  0  0  0  0  0
  146.8299  133.3985  162.2335 H   0  0  0  0  0  0  0  0  0  0  0  0
  145.0872  135.2576  162.7045 H   0  0  0  0  0  0  0  0  0  0  0  0
  146.7265  135.3238  163.3467 H   0  0  0  0  0  0  0  0  0  0  0  0
  145.2862  137.4850  161.8073 H   0  0  0  0  0  0  0  0  0  0  0  0
  146.3421  137.6497  163.2104 H   0  0  0  0  0  0  0  0  0  0  0  0
  148.6749  135.8304  161.5300 H   0  0  0  0  0  0  0  0  0  0  0  0
  148.1110  136.1005  159.8913 H   0  0  0  0  0  0  0  0  0  0  0  0
  146.9811  136.3988  154.8480 H   0  0  0  0  0  0  0  0  0  0  0  0
  148.0354  136.4912  153.4696 H   0  0  0  0  0  0  0  0  0  0  0  0
  145.8932  135.8638  152.6611 H   0  0  0  0  0  0  0  0  0  0  0  0
  144.9084  135.0589  154.8066 H   0  0  0  0  0  0  0  0  0  0  0  0
  145.7435  133.5253  154.6303 H   0  0  0  0  0  0  0  0  0  0  0  0
  144.5133  134.0005  153.4682 H   0  0  0  0  0  0  0  0  0  0  0  0
  147.6187  134.8068  151.6546 H   0  0  0  0  0  0  0  0  0  0  0  0
  1  2  1  0  0  0  0
  1 28  1  0  0  0  0
  1 29  1  0  0  0  0
  1 30  1  0  0  0  0
  2  3  1  0  0  0  0
  2  4  1  0  0  0  0
  2 31  1  0  0  0  0
  3 32  1  0  0  0  0
  4  5  1  0  0  0  0
  4 33  1  0  0  0  0
  4 34  1  0  0  0  0
  5 26  1  0  0  0  0
  5  6  1  0  0  0  0
  5 56  1  0  0  0  0
  6  7  1  0  0  0  0
  6 35  1  0  0  0  0
  6 36  1  0  0  0  0
  7  8  1  0  0  0  0
  7 37  1  0  0  0  0
  7 38  1  0  0  0  0
  8  9  1  0  0  0  0
  8 25  1  0  0  0  0
  9 14  1  0  0  0  0
  9 10  2  0  0  0  0
 10 11  1  0  0  0  0
 11 12  2  0  0  0  0
 11 39  1  0  0  0  0
 12 13  1  0  0  0  0
 13 17  1  0  0  0  0
 13 14  2  0  0  0  0
 14 15  1  0  0  0  0
 15 16  2  0  0  0  0
 16 17  1  0  0  0  0
 16 40  1  0  0  0  0
 17 18  1  0  0  0  0
 18 19  1  0  0  0  0
 18 41  1  0  0  0  0
 18 42  1  0  0  0  0
 19 24  1  0  0  0  0
 19 20  1  0  0  0  0
 19 21  1  0  0  0  0
 20 43  1  0  0  0  0
 21 22  1  0  0  0  0
 21 44  1  0  0  0  0
 21 45  1  0  0  0  0
 22 23  1  0  0  0  0
 22 46  1  0  0  0  0
 22 47  1  0  0  0  0
 23 24  1  0  0  0  0
 24 48  1  0  0  0  0
 24 49  1  0  0  0  0
 25 26  1  0  0  0  0
 25 50  1  0  0  0  0
 25 51  1  0  0  0  0
 26 27  1  0  0  0  0
 26 52  1  0  0  0  0
 27 53  1  0  0  0  0
 27 54  1  0  0  0  0
 27 55  1  0  0  0  0
M  CHG  1   5   1
M  END
> <s_m_source_file>
AV-unprocessed.smi

> <i_m_source_file_index>
224

> <i_lp_mmshare_version>
43012

> <i_f3d_flags>
0

> <s_epik_input>
W0NIM11bQ0BIXShbT0hdKVtDSDJdTjFbQ0gyXVtDSDJdTihbQ0gyXVtDQEhdMVtDSDNdKWMobltjSF1uMiljKGMyMyluW2NIXW4zW0NIMl1bQ0BAXTQoW09IXSlbQ0gyXVtDSDJdT1tDSDJdNA==

> <s_epik_cmdline>
J2VwaWtfcHl0aG9uJywgJy1waCcsICc3LjAnLCAnLXRuJywgJzgnLCAnLW1hJywgJzIwMCcsICctbWV0YWxfYmluZGluZycsICctaW1hZScsICc8aW5maWxlLm1hZT4nLCAnLW9tYWUnLCAnPG91dGZpbGUubWFlPic=

> <r_lp_tautomer_probability>
1

> <r_epik_Ionization_Penalty>
0.00516958

> <r_epik_Ionization_Penalty_Charging>
0.00509693

> <r_epik_Ionization_Penalty_Neutral>
7.26542e-05

> <r_epik_State_Penalty>
-0

> <r_epik_Charging_Adjusted_Penalty>
0.00509693

> <i_epik_Tot_Q>
1

> <i_epik_Tot_abs_Q>
1

> <r_epik_Metal_State_Penalty>
-0

> <b_epik_Metal_Only>
0

> <s_lp_Force_Field>
OPLS_2005

> <r_lp_Energy>
52.1704

> <b_lp_Chiralities_Consistent>
1

> <s_lp_Variant>
AV-unprocessed.smi:224-14

> <Gold.Version>
5.8.1

> <Gold.Id.Protein>
6NUR|6NUR_protein|mol2

> <Gold.PLP.Fitness>
42.7207

> <Gold.PLP.PLP>
-31.4052

> <Gold.PLP.part.hbond>
-4.0000

> <Gold.PLP.part.metal>
0.0000

> <Gold.PLP.part.buried>
-2.0364

> <Gold.PLP.part.nonpolar>
-24.4586

> <Gold.PLP.part.repulsive>
0.0080

> <Gold.PLP.ligand.clash>
0.0000

> <Gold.PLP.ligand.torsion>
1.2627

> <Gold.PLP.Chemscore.Hbond>
4.5040

> <Gold.PLP.Chemscore.CHOScore>
0.0000

> <Gold.PLP.Chemscore.Metal>
0.0000

> <Gold.Chemscore.Hbonds>
donor molecule, donor type, donor heavy atom, donor atom, acceptor molecule, acceptor atom, score
      L1  H     3    32       P1 10747  0.56
      L1  H     5    56       P1  7948  1.66
      P1  H  6931  6943       L1    23  0.78
      P1  H  6934  6947       L1    23  0.98

> <Gold.PLP.Chemscore.Internal.Correction>
0.3290

> <Gold.Rescore>
     Score         DG    S(hbond)    S(metal)    S(lipo)     H(rot)  DE(clash)    DE(int)     intcor
     11.08     -14.06       2.20        0.00      76.59       3.02       0.24       2.73       ----

> <Gold.Chemscore.Fitness>
11.0818

> <Gold.Chemscore.DG>
-14.0568

> <Gold.Chemscore.ZeroCoef>
-5.4800

> <Gold.Chemscore.Hbond>
2.2022

> <Gold.Chemscore.Metal>
0.0000

> <Gold.Chemscore.Lipo>
76.5857

> <Gold.Chemscore.Internal_Hbond>
0.0000

> <Gold.Chemscore.DEClash>
0.2444

> <Gold.Chemscore.DEInternal>
2.7306

> <Gold.Chemscore.Rot>
3.0231

> <Gold.Chemscore.Internal.Correction>
   9.000000E+99

> <Gold.Chemscore.Hbonds>
donor molecule, donor type, donor heavy atom, donor atom, acceptor molecule, acceptor atom, score
      L1  H     3    32       P1 10747  0.55
      L1  H     5    56       P1  7948  0.36
      P1  H  6931  6943       L1    23  0.22
      P1  H  6934  6947       L1    23  0.42

> <Gold.Chemscore.Hbond.Weighted>
-7.3553

> <Gold.Chemscore.Metal.Weighted>
-0.0000

> <Gold.Chemscore.Lipo.Weighted>
-8.9605

> <Gold.Chemscore.Internal_Hbond.Weighted>
0.0000

> <Gold.Chemscore.DEClash.Weighted>
0.2444

> <Gold.Chemscore.DEInternal.Weighted>
2.7306

> <Gold.Chemscore.Rot.Weighted>
7.7391

> <Gold.Chemscore.Internal.Correction.Weighted>
   9.000000E+99

> <Gold.Protein.RotatedTorsions>
[ 6907 6896 6895 6894 ] final  -42.45 input  -60.11 | X-H torsion
[ 7974 7965 7964 7962 ] final   74.64 input  175.53 | X-H torsion
[ 8008 7997 7996 7995 ] final  -94.53 input   59.86 | X-H torsion
[ 10167 10162 10161 10158 ] final -107.29 input  -65.29 | X-H torsion
[ 10718 10713 10712 10709 ] final  -54.52 input   66.30 | X-H torsion
[ 10763 10752 10751 10750 ] final   -4.19 input  -60.55 | X-H torsion
[ 11005 11000 10999 10996 ] final   34.14 input  -57.11 | X-H torsion

> <Gold.Protein.ActiveResidues>
 VAL166  LYS551  ARG553  GLY616  TRP617  ASP618  TYR619  PRO620  LYS621  CYS622 
 ASP623  PHE694  ASN695  SER759  ASP760  ASP761  ALA762  ILE779  LEU786  VAL792 
 PHE793  MET794  SER795  GLU796  ALA797  LYS798  CYS799  TRP800  GLU811  SER814 

> <Gold.Protein.RotatedAtoms>
  150.9551  134.8947  159.7696 H   0  0  0  0  0  0  0  0  0  0  0  0  # atno 6907 bound_to 6896
  152.5135  134.3751  159.9341 H   0  0  0  0  0  0  0  0  0  0  0  0  # atno 6908 bound_to 6896
  151.3765  133.3796  159.2740 H   0  0  0  0  0  0  0  0  0  0  0  0  # atno 6909 bound_to 6896
  145.7257  139.2665  143.1570 H   0  0  0  0  0  0  0  0  0  0  0  0  # atno 7974 bound_to 7965
  154.7496  140.0488  157.0882 H   0  0  0  0  0  0  0  0  0  0  0  0  # atno 8008 bound_to 7997
  155.0074  140.3132  155.4824 H   0  0  0  0  0  0  0  0  0  0  0  0  # atno 8009 bound_to 7997
  156.2882  140.2190  156.5186 H   0  0  0  0  0  0  0  0  0  0  0  0  # atno 8010 bound_to 7997
  140.1786  143.3985  152.1299 H   0  0  0  0  0  0  0  0  0  0  0  0  # atno 10167 bound_to 10162
  156.1444  130.4153  150.0048 H   0  0  0  0  0  0  0  0  0  0  0  0  # atno 10718 bound_to 10713
  153.3815  135.6998  153.6562 H   0  0  0  0  0  0  0  0  0  0  0  0  # atno 10763 bound_to 10752
  153.5171  135.3619  155.2615 H   0  0  0  0  0  0  0  0  0  0  0  0  # atno 10764 bound_to 10752
  154.8693  135.4149  154.3113 H   0  0  0  0  0  0  0  0  0  0  0  0  # atno 10765 bound_to 10752
  140.2559  134.3249  155.7874 H   0  0  0  0  0  0  0  0  0  0  0  0  # atno 11005 bound_to 11000
  146.0584  140.7997  142.9747 LP  0  0  0  0  0  0  0  0  0  0  0  0  # atno 17320 bound_to 7965
  144.6905  140.3159  143.7240 LP  0  0  0  0  0  0  0  0  0  0  0  0  # atno 17321 bound_to 7965
  139.5306  144.7154  151.5070 LP  0  0  0  0  0  0  0  0  0  0  0  0  # atno 17342 bound_to 10162
  140.6535  143.8648  150.6810 LP  0  0  0  0  0  0  0  0  0  0  0  0  # atno 17343 bound_to 10162
  156.7924  130.9261  151.3646 LP  0  0  0  0  0  0  0  0  0  0  0  0  # atno 17370 bound_to 10713
  157.6604  130.8961  149.9817 LP  0  0  0  0  0  0  0  0  0  0  0  0  # atno 17371 bound_to 10713
  141.2196  133.7381  156.9110 LP  0  0  0  0  0  0  0  0  0  0  0  0  # atno 17394 bound_to 11000
  140.1512  134.9229  157.2595 LP  0  0  0  0  0  0  0  0  0  0  0  0  # atno 17395 bound_to 11000

$$$$
