AV-unprocessed.smi:2867|AV-procd|sdf|11025|dock5
  -GOLD-   2272015483D 1   1.00000     0.00000
 Structure written by MMmdl.
 39 41  0  0  0  0  0  0  0  0  2 V2000
  150.1542  138.8471  154.9014 C   0  0  0  0  0  0  0  0  0  0  0  0
  149.9089  139.7819  155.9376 O   0  0  0  0  0  0  0  0  0  0  0  0
  151.0643  140.5268  156.2795 C   0  0  0  0  0  0  0  0  0  0  0  0
  151.0448  140.8076  157.7864 C   0  0  0  0  0  0  0  0  0  0  0  0
  152.2141  140.2487  158.4451 N   0  0  0  0  0  0  0  0  0  0  0  0
  152.9628  140.8129  159.4263 C   0  0  0  0  0  0  0  0  0  0  0  0
  152.7074  142.1304  159.9898 C   0  0  0  0  0  0  0  0  0  0  0  0
  152.8795  142.3605  161.3712 C   0  0  0  0  0  0  0  0  0  0  0  0
  152.6321  143.6383  161.9098 C   0  0  0  0  0  0  0  0  0  0  0  0
  152.2092  144.6870  161.0700 C   0  0  0  0  0  0  0  0  0  0  0  0
  152.0310  144.4578  159.6915 C   0  0  0  0  0  0  0  0  0  0  0  0
  151.6239  145.4661  158.8847 F   0  0  0  0  0  0  0  0  0  0  0  0
  152.2772  143.1803  159.1522 C   0  0  0  0  0  0  0  0  0  0  0  0
  153.9702  140.0594  159.8715 N   0  0  0  0  0  0  0  0  0  0  0  0
  153.8642  138.9104  159.1125 C   0  0  0  0  0  0  0  0  0  0  0  0
  154.6423  137.7320  159.1163 C   0  0  0  0  0  0  0  0  0  0  0  0
  154.3240  136.6726  158.2400 C   0  0  0  0  0  0  0  0  0  0  0  0
  155.3188  135.1838  158.2635 S   0  0  0  0  0  0  0  0  0  0  0  0
  154.2726  134.2568  159.0684 N   0  5  0  0  0  0  0  0  0  0  0  0
  155.4902  134.7679  156.8628 O   0  0  0  0  0  0  0  0  0  0  0  0
  156.5236  135.4980  159.0474 O   0  0  0  0  0  0  0  0  0  0  0  0
  153.2336  136.7718  157.3492 C   0  0  0  0  0  0  0  0  0  0  0  0
  152.4501  137.9415  157.3317 C   0  0  0  0  0  0  0  0  0  0  0  0
  152.7696  138.9965  158.2079 C   0  0  0  0  0  0  0  0  0  0  0  0
  149.2402  138.2955  154.6817 H   0  0  0  0  0  0  0  0  0  0  0  0
  150.9206  138.1273  155.1913 H   0  0  0  0  0  0  0  0  0  0  0  0
  150.4725  139.3485  153.9864 H   0  0  0  0  0  0  0  0  0  0  0  0
  151.9619  139.9671  156.0110 H   0  0  0  0  0  0  0  0  0  0  0  0
  151.0818  141.4659  155.7237 H   0  0  0  0  0  0  0  0  0  0  0  0
  151.0212  141.8827  157.9676 H   0  0  0  0  0  0  0  0  0  0  0  0
  150.1421  140.4002  158.2407 H   0  0  0  0  0  0  0  0  0  0  0  0
  153.2031  141.5580  162.0182 H   0  0  0  0  0  0  0  0  0  0  0  0
  152.7665  143.8142  162.9670 H   0  0  0  0  0  0  0  0  0  0  0  0
  152.0204  145.6667  161.4834 H   0  0  0  0  0  0  0  0  0  0  0  0
  152.1405  143.0079  158.0944 H   0  0  0  0  0  0  0  0  0  0  0  0
  155.4762  137.6403  159.7963 H   0  0  0  0  0  0  0  0  0  0  0  0
  154.7672  133.4042  159.3557 H   0  0  0  0  0  0  0  0  0  0  0  0
  152.9947  135.9537  156.6858 H   0  0  0  0  0  0  0  0  0  0  0  0
  151.6121  138.0234  156.6558 H   0  0  0  0  0  0  0  0  0  0  0  0
  1  2  1  0  0  0  0
  1 25  1  0  0  0  0
  1 26  1  0  0  0  0
  1 27  1  0  0  0  0
  2  3  1  0  0  0  0
  3  4  1  0  0  0  0
  3 28  1  0  0  0  0
  3 29  1  0  0  0  0
  4  5  1  0  0  0  0
  4 30  1  0  0  0  0
  4 31  1  0  0  0  0
  5 24  1  0  0  0  0
  5  6  1  0  0  0  0
  6  7  1  0  0  0  0
  6 14  2  0  0  0  0
  7 13  1  0  0  0  0
  7  8  2  0  0  0  0
  8  9  1  0  0  0  0
  8 32  1  0  0  0  0
  9 10  2  0  0  0  0
  9 33  1  0  0  0  0
 10 11  1  0  0  0  0
 10 34  1  0  0  0  0
 11 12  1  0  0  0  0
 11 13  2  0  0  0  0
 13 35  1  0  0  0  0
 14 15  1  0  0  0  0
 15 24  2  0  0  0  0
 15 16  1  0  0  0  0
 16 17  2  0  0  0  0
 16 36  1  0  0  0  0
 17 18  1  0  0  0  0
 17 22  1  0  0  0  0
 18 19  1  0  0  0  0
 18 20  2  0  0  0  0
 18 21  2  0  0  0  0
 19 37  1  0  0  0  0
 22 23  2  0  0  0  0
 22 38  1  0  0  0  0
 23 24  1  0  0  0  0
 23 39  1  0  0  0  0
M  CHG  1  19  -1
M  END
> <s_m_source_file>
AV-unprocessed.smi

> <i_m_source_file_index>
2867

> <i_lp_mmshare_version>
43012

> <i_f3d_flags>
0

> <s_epik_input>
W05IMl1TKD1PKSg9TyljKFtjSF0xKVtjSF1bY0hdYyhjMTIpbihbQ0gyXVtDSDJdT1tDSDNdKWMobjIpLWMzW2NIXVtjSF1bY0hdYyhGKVtjSF0z

> <s_epik_cmdline>
J2VwaWtfcHl0aG9uJywgJy1waCcsICc3LjAnLCAnLXRuJywgJzgnLCAnLW1hJywgJzIwMCcsICctbWV0YWxfYmluZGluZycsICctaW1hZScsICc8aW5maWxlLm1hZT4nLCAnLW9tYWUnLCAnPG91dGZpbGUubWFlPic=

> <r_epik_Ionization_Penalty>
4.13732

> <r_epik_Ionization_Penalty_Charging>
3.73366

> <r_epik_Ionization_Penalty_Neutral>
0.403663

> <r_epik_State_Penalty>
3.79183

> <r_epik_Charging_Adjusted_Penalty>
7.52549

> <i_epik_Tot_Q>
-1

> <i_epik_Tot_abs_Q>
1

> <r_epik_Metal_State_Penalty>
0.634538

> <b_epik_Metal_Only>
1

> <s_lp_Force_Field>
OPLS_2005

> <r_lp_Energy>
13.7357

> <b_lp_Chiralities_Consistent>
1

> <s_lp_Variant>
AV-unprocessed.smi:2867-3

> <Gold.Version>
5.8.1

> <Gold.Id.Protein>
6NUR|6NUR_protein|mol2

> <Gold.PLP.Fitness>
53.0694

> <Gold.PLP.PLP>
-45.8484

> <Gold.PLP.part.hbond>
-2.0000

> <Gold.PLP.part.metal>
0.0000

> <Gold.PLP.part.buried>
-4.7111

> <Gold.PLP.part.nonpolar>
-38.2534

> <Gold.PLP.part.repulsive>
0.0290

> <Gold.PLP.ligand.clash>
0.0000

> <Gold.PLP.ligand.torsion>
2.4816

> <Gold.PLP.Chemscore.Hbond>
2.9920

> <Gold.PLP.Chemscore.CHOScore>
0.0000

> <Gold.PLP.Chemscore.Metal>
0.0000

> <Gold.Chemscore.Hbonds>
donor molecule, donor type, donor heavy atom, donor atom, acceptor molecule, acceptor atom, score
      P1  H  6896  6907       L1    19  2.00
      P1  H 10752 10764       L1    20  0.99

> <Gold.PLP.Chemscore.Internal.Correction>
3.2082

> <Gold.Rescore>
     Score         DG    S(hbond)    S(metal)    S(lipo)     H(rot)  DE(clash)    DE(int)     intcor
     15.93     -20.25       1.63        0.00     110.86       1.43       0.00       4.31       ----

> <Gold.Chemscore.Fitness>
15.9280

> <Gold.Chemscore.DG>
-20.2474

> <Gold.Chemscore.ZeroCoef>
-5.4800

> <Gold.Chemscore.Hbond>
1.6347

> <Gold.Chemscore.Metal>
0.0000

> <Gold.Chemscore.Lipo>
110.8562

> <Gold.Chemscore.Internal_Hbond>
0.0000

> <Gold.Chemscore.DEClash>
0.0048

> <Gold.Chemscore.DEInternal>
4.3145

> <Gold.Chemscore.Rot>
1.4308

> <Gold.Chemscore.Internal.Correction>
   9.000000E+99

> <Gold.Chemscore.Hbonds>
donor molecule, donor type, donor heavy atom, donor atom, acceptor molecule, acceptor atom, score
      P1  H  6896  6907       L1    19  0.55
      P1  H 10752 10764       L1    20  0.88

> <Gold.Chemscore.Hbond.Weighted>
-5.4600

> <Gold.Chemscore.Metal.Weighted>
-0.0000

> <Gold.Chemscore.Lipo.Weighted>
-12.9702

> <Gold.Chemscore.Internal_Hbond.Weighted>
0.0000

> <Gold.Chemscore.DEClash.Weighted>
0.0048

> <Gold.Chemscore.DEInternal.Weighted>
4.3145

> <Gold.Chemscore.Rot.Weighted>
3.6628

> <Gold.Chemscore.Internal.Correction.Weighted>
   9.000000E+99

> <Gold.Protein.RotatedTorsions>
[ 6907 6896 6895 6894 ] final   91.07 input  -60.11 | X-H torsion
[ 7974 7965 7964 7962 ] final   35.15 input  175.53 | X-H torsion
[ 8008 7997 7996 7995 ] final   43.17 input   59.86 | X-H torsion
[ 10167 10162 10161 10158 ] final -161.03 input  -65.29 | X-H torsion
[ 10718 10713 10712 10709 ] final -178.82 input   66.30 | X-H torsion
[ 10763 10752 10751 10750 ] final   37.76 input  -60.55 | X-H torsion
[ 11005 11000 10999 10996 ] final -146.21 input  -57.11 | X-H torsion

> <Gold.Protein.ActiveResidues>
 VAL166  LYS551  ARG553  GLY616  TRP617  ASP618  TYR619  PRO620  LYS621  CYS622 
 ASP623  PHE694  ASN695  SER759  ASP760  ASP761  ALA762  ILE779  LEU786  VAL792 
 PHE793  MET794  SER795  GLU796  ALA797  LYS798  CYS799  TRP800  GLU811  SER814 

> <Gold.Protein.RotatedAtoms>
  152.5448  134.1713  159.8597 H   0  0  0  0  0  0  0  0  0  0  0  0  # atno 6907 bound_to 6896
  151.1723  133.4769  159.2601 H   0  0  0  0  0  0  0  0  0  0  0  0  # atno 6908 bound_to 6896
  151.1262  135.0117  159.8616 H   0  0  0  0  0  0  0  0  0  0  0  0  # atno 6909 bound_to 6896
  146.1303  139.6179  142.9231 H   0  0  0  0  0  0  0  0  0  0  0  0  # atno 7974 bound_to 7965
  155.2982  140.3383  155.4249 H   0  0  0  0  0  0  0  0  0  0  0  0  # atno 8008 bound_to 7997
  156.2014  140.1734  156.7931 H   0  0  0  0  0  0  0  0  0  0  0  0  # atno 8009 bound_to 7997
  154.5563  140.0696  156.8733 H   0  0  0  0  0  0  0  0  0  0  0  0  # atno 8010 bound_to 7997
  139.6495  144.0109  152.2152 H   0  0  0  0  0  0  0  0  0  0  0  0  # atno 10167 bound_to 10162
  156.8499  130.9715  151.3093 H   0  0  0  0  0  0  0  0  0  0  0  0  # atno 10718 bound_to 10713
  153.0026  135.6269  154.2195 H   0  0  0  0  0  0  0  0  0  0  0  0  # atno 10763 bound_to 10752
  154.1938  135.2807  155.3015 H   0  0  0  0  0  0  0  0  0  0  0  0  # atno 10764 bound_to 10752
  154.5738  135.5668  153.7179 H   0  0  0  0  0  0  0  0  0  0  0  0  # atno 10765 bound_to 10752
  140.7843  134.3042  157.5035 H   0  0  0  0  0  0  0  0  0  0  0  0  # atno 11005 bound_to 11000
  145.5274  141.0429  143.2401 LP  0  0  0  0  0  0  0  0  0  0  0  0  # atno 17320 bound_to 7965
  144.7684  139.6791  143.7205 LP  0  0  0  0  0  0  0  0  0  0  0  0  # atno 17321 bound_to 7965
  139.9820  144.6422  150.7892 LP  0  0  0  0  0  0  0  0  0  0  0  0  # atno 17342 bound_to 10162
  140.7531  143.3002  151.3100 LP  0  0  0  0  0  0  0  0  0  0  0  0  # atno 17343 bound_to 10162
  157.6309  130.8728  149.9272 LP  0  0  0  0  0  0  0  0  0  0  0  0  # atno 17370 bound_to 10713
  156.0834  130.3670  150.0536 LP  0  0  0  0  0  0  0  0  0  0  0  0  # atno 17371 bound_to 10713
  139.8738  134.9337  156.3588 LP  0  0  0  0  0  0  0  0  0  0  0  0  # atno 17394 bound_to 11000
  140.9452  133.7488  156.0198 LP  0  0  0  0  0  0  0  0  0  0  0  0  # atno 17395 bound_to 11000

$$$$
