#       Name:                AV-unprocessed.smi:287
#       Creating user name   scv26
#       Creation time:       Thu Mar 26 21:55:15 2020


#       File generated by GOLD software.
#

@<TRIPOS>MOLECULE
AV-unprocessed.smi:287
    70    73     1
SMALL
NO_CHARGES


@<TRIPOS>ATOM
      1 ****         0.3291   5.0512   3.7632 C.3            1 S1                 0.0000
      2 ****        -0.2134   4.8523   2.3895 C.2            1 S1                 0.0000
      3 ****        -0.9145   3.8486   1.7873 C.2            1 S1                 0.0000
      4 ****        -1.1457   4.2415   0.4352 C.2            1 S1                 0.0000
      5 ****        -1.8879   3.4236  -0.6131 C.3            1 S1                 0.0000
      6 ****        -3.3691   3.2875  -0.2205 C.3            1 S1                 0.0000
      7 ****        -1.8977   4.0364  -1.8880 O.3            1 S1                 0.0000
      8 ****        -1.2598   2.0258  -0.8106 C.3            1 S1                 0.0000
      9 ****         0.1940   2.0656  -0.9043 N.pl3          1 S1                 0.0000
     10 ****         0.9188   0.9293  -0.9735 C.ar           1 S1                 0.0000
     11 ****         2.2616   1.0982  -1.0314 N.ar           1 S1                 0.0000
     12 ****         3.0706   0.0374  -1.1006 C.ar           1 S1                 0.0000
     13 ****         2.7488  -1.2573  -1.1202 N.ar           1 S1                 0.0000
     14 ****         1.3975  -1.4357  -1.0609 C.ar           1 S1                 0.0000
     15 ****         0.4160  -0.4061  -0.9897 C.ar           1 S1                 0.0000
     16 ****        -0.8484  -0.9853  -0.9534 N.2            1 S1                 0.0000
     17 ****        -0.6215  -2.2700  -1.0000 C.2            1 S1                 0.0000
     18 ****         0.7083  -2.6286  -1.0508 N.pl3          1 S1                 0.0000
     19 ****         1.3280  -3.9907  -1.1201 C.3            1 S1                 0.0000
     20 ****         0.3021  -4.9348  -1.1983 O.3            1 S1                 0.0000
     21 ****         0.0159  -5.4331   0.1046 C.3            1 S1                 0.0000
     22 ****        -0.7887  -6.7432   0.0412 C.3            1 S1                 0.0000
     23 ****        -2.1626  -6.4594  -0.1180 O.3            1 S1                 0.0000
     24 ****         1.4200  -5.5427   0.7109 C.3            1 S1                 0.0000
     25 ****         2.0576  -6.7342   0.2787 O.3            1 S1                 0.0000
     26 ****         2.1031  -4.2826   0.1797 C.3            1 S1                 0.0000
     27 ****         3.4934  -4.4546  -0.0225 O.3            1 S1                 0.0000
     28 ****        -0.5591   5.4799   0.3248 C.2            1 S1                 0.0000
     29 ****        -0.4162   6.4673  -0.7863 C.3            1 S1                 0.0000
     30 ****         0.0079   5.8566   1.5049 O.3            1 S1                 0.0000
     31 ****         1.9325  -3.9790  -2.0280 H              1 S1                 0.0000
     32 ****        -0.5412  -4.6803   0.6658 H              1 S1                 0.0000
     33 ****         1.3900  -5.5515   1.8010 H              1 S1                 0.0000
     34 ****         1.9489  -3.4661   0.8872 H              1 S1                 0.0000
     35 ****         0.3312   4.1139   4.3201 H              1 S1                 0.0000
     36 ****        -0.2742   5.7718   4.3154 H              1 S1                 0.0000
     37 ****         1.3530   5.4238   3.7261 H              1 S1                 0.0000
     38 ****        -1.2249   2.9297   2.2620 H              1 S1                 0.0000
     39 ****        -3.4807   2.7794   0.7380 H              1 S1                 0.0000
     40 ****        -3.9286   2.7132  -0.9602 H              1 S1                 0.0000
     41 ****        -3.8464   4.2644  -0.1306 H              1 S1                 0.0000
     42 ****        -2.3774   3.4811  -2.4834 H              1 S1                 0.0000
     43 ****        -1.5080   1.4125   0.0566 H              1 S1                 0.0000
     44 ****        -1.6846   1.5292  -1.6843 H              1 S1                 0.0000
     45 ****         0.6067   2.9875  -0.8992 H              1 S1                 0.0000
     46 ****         4.1268   0.2582  -1.1475 H              1 S1                 0.0000
     47 ****        -1.4277  -2.9892  -0.9963 H              1 S1                 0.0000
     48 ****        -0.4405  -7.3873  -0.7670 H              1 S1                 0.0000
     49 ****        -0.6757  -7.2979   0.9731 H              1 S1                 0.0000
     50 ****        -2.6350  -7.2770  -0.1570 H              1 S1                 0.0000
     51 ****         2.9619  -6.7016   0.5525 H              1 S1                 0.0000
     52 ****         3.8447  -3.6486  -0.3698 H              1 S1                 0.0000
     53 ****        -1.3935   6.7716  -1.1610 H              1 S1                 0.0000
     54 ****         0.1469   6.0367  -1.6145 H              1 S1                 0.0000
     55 ****         0.1089   7.3634  -0.4541 H              1 S1                 0.0000
     56 ****        -0.9595   4.1505  -2.2148 LP             1 S1                 0.0000
     57 ****        -2.3413   4.9307  -1.8292 LP             1 S1                 0.0000
     58 ****         2.6486   2.0202  -1.0224 LP             1 S1                 0.0000
     59 ****         3.4137  -2.0024  -1.1719 LP             1 S1                 0.0000
     60 ****        -1.7329  -0.5214  -0.9030 LP             1 S1                 0.0000
     61 ****         0.5879  -5.6897  -1.7887 LP             1 S1                 0.0000
     62 ****        -0.5173  -4.5060  -1.5788 LP             1 S1                 0.0000
     63 ****        -2.3053  -5.9466  -0.9646 LP             1 S1                 0.0000
     64 ****        -2.4875  -5.9187   0.6579 LP             1 S1                 0.0000
     65 ****         2.0079  -6.8024  -0.7178 LP             1 S1                 0.0000
     66 ****         1.6078  -7.5271   0.6898 LP             1 S1                 0.0000
     67 ****         3.6512  -5.1994  -0.6709 LP             1 S1                 0.0000
     68 ****         3.9375  -4.6701   0.8471 LP             1 S1                 0.0000
     69 ****         0.9905   5.9977   1.3842 LP             1 S1                 0.0000
     70 ****        -0.4125   6.7024   1.8333 LP             1 S1                 0.0000
@<TRIPOS>BOND
    1    1    2 1     
    2    1   35 1     
    3    1   36 1     
    4    1   37 1     
    5    2   30 1     
    6    2    3 2     
    7    3    4 1     
    8    3   38 1     
    9    4    5 1     
   10    4   28 2     
   11    5    6 1     
   12    5    7 1     
   13    5    8 1     
   14    6   39 1     
   15    6   40 1     
   16    6   41 1     
   17    7   42 1     
   18    8    9 1     
   19    8   43 1     
   20    8   44 1     
   21    9   10 1     
   22    9   45 1     
   23   10   15 ar    
   24   10   11 ar    
   25   11   12 ar    
   26   12   13 ar    
   27   12   46 1     
   28   13   14 ar    
   29   14   18 1     
   30   14   15 ar    
   31   15   16 1     
   32   16   17 2     
   33   17   18 1     
   34   17   47 1     
   35   18   19 1     
   36   19   31 1     
   37   19   26 1     
   38   19   20 1     
   39   20   21 1     
   40   21   32 1     
   41   21   22 1     
   42   21   24 1     
   43   22   23 1     
   44   22   48 1     
   45   22   49 1     
   46   23   50 1     
   47   24   33 1     
   48   24   25 1     
   49   24   26 1     
   50   25   51 1     
   51   26   34 1     
   52   26   27 1     
   53   27   52 1     
   54   28   29 1     
   55   28   30 1     
   56   29   53 1     
   57   29   54 1     
   58   29   55 1     
   59    7   56 1     
   60    7   57 1     
   61   11   58 1     
   62   13   59 1     
   63   16   60 1     
   64   20   61 1     
   65   20   62 1     
   66   23   63 1     
   67   23   64 1     
   68   25   65 1     
   69   25   66 1     
   70   27   67 1     
   71   27   68 1     
   72   30   69 1     
   73   30   70 1     
@<TRIPOS>SUBSTRUCTURE
      1 S1             1
@<TRIPOS>SET
LONE_PAIRS      STATIC     ATOMS    <user>   **** ""
15 56 57 58 59 60 61 62 63 64 65 66 67 68 69 70
DONOR_HYDROGENS      STATIC     ATOMS    <user>   **** ""
5 42 45 50 51 52
ATOM$BLUE        STATIC     ATOMS    COLORGROUP SYSTEM
15 56 57 58 59 60 61 62 63 64 65 66 67 68 69 70
ATOM$RED        STATIC     ATOMS    COLORGROUP SYSTEM
5 42 45 50 51 52
