AV-unprocessed.smi:293|AV-procd|sdf|2251|dock9
  -GOLD-   2262022133D 1   1.00000     0.00000
 Structure written by MMmdl.
 32 33  0  0  0  0  0  0  0  0  1 V2000
  154.3681  138.3643  154.8136 N   0  0  0  0  0  0  0  0  0  0  0  0
  153.2298  138.5417  154.7020 C   0  0  0  0  0  0  0  0  0  0  0  0
  151.8008  138.7642  154.5616 C   0  0  0  0  0  0  0  0  0  0  0  0
  150.9686  137.7864  154.0992 N   0  0  0  0  0  0  0  0  0  0  0  0
  149.8197  138.4486  154.1580 C   0  0  0  0  0  0  0  0  0  0  0  0
  149.9376  139.7019  154.6096 N   0  0  0  0  0  0  0  0  0  0  0  0
  148.9295  140.7232  154.8298 C   0  0  0  0  0  0  0  0  0  0  0  0
  149.1698  141.4574  156.1496 C   0  0  0  0  0  0  0  0  0  0  0  0
  148.2306  141.6671  156.9168 O   0  0  0  0  0  0  0  0  0  0  0  0
  150.4327  141.8367  156.4010 N   0  0  0  0  0  0  0  0  0  0  0  0
  150.8885  142.5186  157.6078 C   0  0  0  0  0  0  0  0  0  0  0  0
  151.5390  143.8613  157.2234 C   0  0  0  0  0  0  0  0  0  0  0  0
  152.0985  144.5914  158.4551 C   0  0  0  0  0  0  0  0  0  0  0  0
  153.0880  143.7045  159.2265 C   0  0  0  0  0  0  0  0  0  0  0  0
  152.4422  142.3666  159.6194 C   0  0  0  0  0  0  0  0  0  0  0  0
  151.8826  141.6335  158.3895 C   0  0  0  0  0  0  0  0  0  0  0  0
  151.2457  139.9310  154.8825 N   0  0  0  0  0  0  0  0  0  0  0  0
  148.8738  138.0117  153.8722 H   0  0  0  0  0  0  0  0  0  0  0  0
  148.9389  141.4324  154.0008 H   0  0  0  0  0  0  0  0  0  0  0  0
  147.9473  140.2485  154.8379 H   0  0  0  0  0  0  0  0  0  0  0  0
  151.1360  141.6202  155.7091 H   0  0  0  0  0  0  0  0  0  0  0  0
  150.0258  142.7285  158.2432 H   0  0  0  0  0  0  0  0  0  0  0  0
  152.3467  143.6894  156.5103 H   0  0  0  0  0  0  0  0  0  0  0  0
  150.8120  144.4985  156.7187 H   0  0  0  0  0  0  0  0  0  0  0  0
  152.5893  145.5153  158.1480 H   0  0  0  0  0  0  0  0  0  0  0  0
  151.2774  144.8809  159.1122 H   0  0  0  0  0  0  0  0  0  0  0  0
  153.9691  143.5183  158.6111 H   0  0  0  0  0  0  0  0  0  0  0  0
  153.4378  144.2251  160.1185 H   0  0  0  0  0  0  0  0  0  0  0  0
  153.1724  141.7362  160.1273 H   0  0  0  0  0  0  0  0  0  0  0  0
  151.6379  142.5452  160.3344 H   0  0  0  0  0  0  0  0  0  0  0  0
  151.3979  140.7098  158.7075 H   0  0  0  0  0  0  0  0  0  0  0  0
  152.7068  141.3399  157.7377 H   0  0  0  0  0  0  0  0  0  0  0  0
  1  2  3  0  0  0  0
  2  3  1  0  0  0  0
  3 17  2  0  0  0  0
  3  4  1  0  0  0  0
  4  5  2  0  0  0  0
  5  6  1  0  0  0  0
  5 18  1  0  0  0  0
  6  7  1  0  0  0  0
  6 17  1  0  0  0  0
  7  8  1  0  0  0  0
  7 19  1  0  0  0  0
  7 20  1  0  0  0  0
  8  9  2  0  0  0  0
  8 10  1  0  0  0  0
 10 11  1  0  0  0  0
 10 21  1  0  0  0  0
 11 16  1  0  0  0  0
 11 12  1  0  0  0  0
 11 22  1  0  0  0  0
 12 13  1  0  0  0  0
 12 23  1  0  0  0  0
 12 24  1  0  0  0  0
 13 14  1  0  0  0  0
 13 25  1  0  0  0  0
 13 26  1  0  0  0  0
 14 15  1  0  0  0  0
 14 27  1  0  0  0  0
 14 28  1  0  0  0  0
 15 16  1  0  0  0  0
 15 29  1  0  0  0  0
 15 30  1  0  0  0  0
 16 31  1  0  0  0  0
 16 32  1  0  0  0  0
M  END
> <s_m_source_file>
AV-unprocessed.smi

> <i_m_source_file_index>
293

> <i_lp_mmshare_version>
43012

> <i_f3d_flags>
0

> <s_epik_input>
TiNDYzFuW2NIXW4objEpW0NIMl1DKD1PKVtOSF1bQ0hdMltDSDJdW0NIMl1bQ0gyXVtDSDJdW0NIMl0y

> <s_epik_cmdline>
J2VwaWtfcHl0aG9uJywgJy1waCcsICc3LjAnLCAnLXRuJywgJzgnLCAnLW1hJywgJzIwMCcsICctbWV0YWxfYmluZGluZycsICctaW1hZScsICc8aW5maWxlLm1hZT4nLCAnLW9tYWUnLCAnPG91dGZpbGUubWFlPic=

> <r_lp_tautomer_probability>
1

> <r_epik_Ionization_Penalty>
5.31112e-08

> <r_epik_Ionization_Penalty_Charging>
0

> <r_epik_Ionization_Penalty_Neutral>
5.31112e-08

> <r_epik_State_Penalty>
-0

> <r_epik_Charging_Adjusted_Penalty>
0

> <i_epik_Tot_Q>
0

> <i_epik_Tot_abs_Q>
0

> <r_epik_Metal_State_Penalty>
-0

> <b_epik_Metal_Only>
0

> <s_lp_Force_Field>
OPLS_2005

> <r_lp_Energy>
12.166

> <b_lp_Chiralities_Consistent>
1

> <s_lp_Variant>
AV-unprocessed.smi:293-1

> <Gold.Version>
5.8.1

> <Gold.Id.Protein>
6NUR|6NUR_protein|mol2

> <Gold.PLP.Fitness>
43.6821

> <Gold.PLP.PLP>
-38.4406

> <Gold.PLP.part.hbond>
-2.2335

> <Gold.PLP.part.metal>
0.0000

> <Gold.PLP.part.buried>
-4.6552

> <Gold.PLP.part.nonpolar>
-32.7161

> <Gold.PLP.part.repulsive>
0.4967

> <Gold.PLP.ligand.clash>
0.0000

> <Gold.PLP.ligand.torsion>
0.4269

> <Gold.PLP.Chemscore.Hbond>
1.5472

> <Gold.PLP.Chemscore.CHOScore>
0.4831

> <Gold.PLP.Chemscore.Metal>
0.0000

> <Gold.Chemscore.Hbonds>
donor molecule, donor type, donor heavy atom, donor atom, acceptor molecule, acceptor atom, score
      P1  H  7989  7998       L1    17  0.95
      P1  H  7997  8008       L1     1  0.45
      L1  C     5    18       P1  7948  0.46

> <Gold.PLP.Chemscore.Internal.Correction>
0.0044

> <Gold.Rescore>
     Score         DG    S(hbond)    S(metal)    S(lipo)     H(rot)  DE(clash)    DE(int)     intcor
     10.18     -12.12       0.82        0.00      76.29       1.96       0.37       1.57       ----

> <Gold.Chemscore.Fitness>
10.1806

> <Gold.Chemscore.DG>
-12.1204

> <Gold.Chemscore.ZeroCoef>
-5.4800

> <Gold.Chemscore.Hbond>
0.8190

> <Gold.Chemscore.Metal>
0.0000

> <Gold.Chemscore.Lipo>
76.2926

> <Gold.Chemscore.Internal_Hbond>
0.0000

> <Gold.Chemscore.DEClash>
0.3661

> <Gold.Chemscore.DEInternal>
1.5736

> <Gold.Chemscore.Rot>
1.9615

> <Gold.Chemscore.Internal.Correction>
   9.000000E+99

> <Gold.Chemscore.Hbonds>
donor molecule, donor type, donor heavy atom, donor atom, acceptor molecule, acceptor atom, score
      P1  H  7989  7998       L1    17  0.06
      P1  H  7997  8008       L1     1  0.09

> <Gold.Chemscore.Hbond.Weighted>
-2.7355

> <Gold.Chemscore.Metal.Weighted>
-0.0000

> <Gold.Chemscore.Lipo.Weighted>
-8.9262

> <Gold.Chemscore.Internal_Hbond.Weighted>
0.0000

> <Gold.Chemscore.DEClash.Weighted>
0.3661

> <Gold.Chemscore.DEInternal.Weighted>
1.5736

> <Gold.Chemscore.Rot.Weighted>
5.0214

> <Gold.Chemscore.Internal.Correction.Weighted>
   9.000000E+99

> <Gold.Protein.RotatedTorsions>
[ 6907 6896 6895 6894 ] final   60.61 input  -60.11 | X-H torsion
[ 7974 7965 7964 7962 ] final -119.58 input  175.53 | X-H torsion
[ 8008 7997 7996 7995 ] final   18.52 input   59.86 | X-H torsion
[ 10167 10162 10161 10158 ] final  -76.30 input  -65.29 | X-H torsion
[ 10718 10713 10712 10709 ] final   17.05 input   66.30 | X-H torsion
[ 10763 10752 10751 10750 ] final -162.32 input  -60.55 | X-H torsion
[ 11005 11000 10999 10996 ] final   94.38 input  -57.11 | X-H torsion

> <Gold.Protein.ActiveResidues>
 VAL166  LYS551  ARG553  GLY616  TRP617  ASP618  TYR619  PRO620  LYS621  CYS622 
 ASP623  PHE694  ASN695  SER759  ASP760  ASP761  ALA762  ILE779  LEU786  VAL792 
 PHE793  MET794  SER795  GLU796  ALA797  LYS798  CYS799  TRP800  GLU811  SER814 

> <Gold.Protein.RotatedAtoms>
  152.4018  134.6273  160.0066 H   0  0  0  0  0  0  0  0  0  0  0  0  # atno 6907 bound_to 6896
  151.6476  133.3317  159.3152 H   0  0  0  0  0  0  0  0  0  0  0  0  # atno 6908 bound_to 6896
  150.7917  134.6989  159.6583 H   0  0  0  0  0  0  0  0  0  0  0  0  # atno 6909 bound_to 6896
  145.0610  140.8290  143.4152 H   0  0  0  0  0  0  0  0  0  0  0  0  # atno 7974 bound_to 7965
  154.9072  140.3009  155.5285 H   0  0  0  0  0  0  0  0  0  0  0  0  # atno 8008 bound_to 7997
  156.3016  140.2396  156.4043 H   0  0  0  0  0  0  0  0  0  0  0  0  # atno 8009 bound_to 7997
  154.8461  140.0411  157.1562 H   0  0  0  0  0  0  0  0  0  0  0  0  # atno 8010 bound_to 7997
  140.4868  143.2389  151.7970 H   0  0  0  0  0  0  0  0  0  0  0  0  # atno 10167 bound_to 10162
  157.0766  130.6370  149.5817 H   0  0  0  0  0  0  0  0  0  0  0  0  # atno 10718 bound_to 10713
  154.7224  135.3028  154.9025 H   0  0  0  0  0  0  0  0  0  0  0  0  # atno 10763 bound_to 10752
  153.9893  135.6720  153.4757 H   0  0  0  0  0  0  0  0  0  0  0  0  # atno 10764 bound_to 10752
  153.0846  135.4991  154.8488 H   0  0  0  0  0  0  0  0  0  0  0  0  # atno 10765 bound_to 10752
  139.8799  134.8842  156.3856 H   0  0  0  0  0  0  0  0  0  0  0  0  # atno 11005 bound_to 11000
  145.1409  139.2573  143.5490 LP  0  0  0  0  0  0  0  0  0  0  0  0  # atno 17320 bound_to 7965
  146.3524  140.1086  142.8605 LP  0  0  0  0  0  0  0  0  0  0  0  0  # atno 17321 bound_to 7965
  139.4843  144.4701  151.9436 LP  0  0  0  0  0  0  0  0  0  0  0  0  # atno 17342 bound_to 10162
  140.3787  144.2764  150.5911 LP  0  0  0  0  0  0  0  0  0  0  0  0  # atno 17343 bound_to 10162
  155.9935  130.4996  150.7384 LP  0  0  0  0  0  0  0  0  0  0  0  0  # atno 17370 bound_to 10713
  157.4834  131.0904  151.0510 LP  0  0  0  0  0  0  0  0  0  0  0  0  # atno 17371 bound_to 10713
  140.9368  133.7541  156.0095 LP  0  0  0  0  0  0  0  0  0  0  0  0  # atno 17394 bound_to 11000
  140.8266  134.3227  157.5363 LP  0  0  0  0  0  0  0  0  0  0  0  0  # atno 17395 bound_to 11000

$$$$
