AV-unprocessed.smi:2700|AV-procd|sdf|10426|dock2
  -GOLD-   2272014463D 1   1.00000     0.00000
 Structure written by MMmdl.
 20 21  0  0  0  0  0  0  0  0  2 V2000
  152.7719  139.7476  156.9894 O   0  0  0  0  0  0  0  0  0  0  0  0
  151.9046  140.1692  156.1932 C   0  0  0  0  0  0  0  0  0  0  0  0
  151.7819  139.8228  154.9978 O   0  5  0  0  0  0  0  0  0  0  0  0
  150.9217  141.2172  156.7213 C   0  0  0  0  0  0  0  0  0  0  0  0
  151.4810  142.2003  157.7055 C   0  0  0  0  0  0  0  0  0  0  0  0
  151.9832  141.7777  158.9543 C   0  0  0  0  0  0  0  0  0  0  0  0
  152.4892  142.7379  159.8512 C   0  0  0  0  0  0  0  0  0  0  0  0
  152.4697  144.0915  159.4622 C   0  0  0  0  0  0  0  0  0  0  0  0
  151.9893  144.5136  158.2734 N   0  0  0  0  0  0  0  0  0  0  0  0
  151.5041  143.5832  157.4226 C   0  0  0  0  0  0  0  0  0  0  0  0
  149.8585  141.6712  155.7378 C   0  0  0  0  0  0  0  0  0  0  0  0
  149.4854  140.7491  156.8688 C   0  0  0  0  0  0  0  0  0  0  0  0
  151.9786  140.7311  159.2216 H   0  0  0  0  0  0  0  0  0  0  0  0
  152.8798  142.4440  160.8141 H   0  0  0  0  0  0  0  0  0  0  0  0
  152.8481  144.8557  160.1249 H   0  0  0  0  0  0  0  0  0  0  0  0
  151.1222  143.9543  156.4827 H   0  0  0  0  0  0  0  0  0  0  0  0
  149.5100  142.6999  155.8014 H   0  0  0  0  0  0  0  0  0  0  0  0
  149.8523  141.2412  154.7377 H   0  0  0  0  0  0  0  0  0  0  0  0
  149.2385  139.7238  156.5987 H   0  0  0  0  0  0  0  0  0  0  0  0
  148.8928  141.1698  157.6784 H   0  0  0  0  0  0  0  0  0  0  0  0
  1  2  2  0  0  0  0
  2  3  1  0  0  0  0
  2  4  1  0  0  0  0
  4 12  1  0  0  0  0
  4  5  1  0  0  0  0
  4 11  1  0  0  0  0
  5 10  1  0  0  0  0
  5  6  2  0  0  0  0
  6  7  1  0  0  0  0
  6 13  1  0  0  0  0
  7  8  2  0  0  0  0
  7 14  1  0  0  0  0
  8  9  1  0  0  0  0
  8 15  1  0  0  0  0
  9 10  2  0  0  0  0
 10 16  1  0  0  0  0
 11 12  1  0  0  0  0
 11 17  1  0  0  0  0
 11 18  1  0  0  0  0
 12 19  1  0  0  0  0
 12 20  1  0  0  0  0
M  CHG  1   3  -1
M  END
> <s_m_source_file>
AV-unprocessed.smi

> <i_m_source_file_index>
2700

> <i_lp_mmshare_version>
43012

> <i_f3d_flags>
0

> <s_epik_input>
Tz1DKFtPSF0pQzEoW0NIMl1bQ0gyXTEpYzJbY0hdW2NIXVtjSF1uW2NIXTI=

> <s_epik_cmdline>
J2VwaWtfcHl0aG9uJywgJy1waCcsICc3LjAnLCAnLXRuJywgJzgnLCAnLW1hJywgJzIwMCcsICctbWV0YWxfYmluZGluZycsICctaW1hZScsICc8aW5maWxlLm1hZT4nLCAnLW9tYWUnLCAnPG91dGZpbGUubWFlPic=

> <r_epik_Ionization_Penalty>
0.0484924

> <r_epik_Ionization_Penalty_Charging>
0.000756486

> <r_epik_Ionization_Penalty_Neutral>
0.0477359

> <r_epik_State_Penalty>
0.04067

> <r_epik_Charging_Adjusted_Penalty>
0.0414265

> <i_epik_Tot_Q>
-1

> <i_epik_Tot_abs_Q>
1

> <r_epik_Metal_State_Penalty>
4.20968e-05

> <b_epik_Metal_Only>
0

> <s_lp_Force_Field>
OPLS_2005

> <r_lp_Energy>
7.44883

> <b_lp_Chiralities_Consistent>
1

> <s_lp_Variant>
AV-unprocessed.smi:2700-1

> <Gold.Version>
5.8.1

> <Gold.Id.Protein>
6NUR|6NUR_protein|mol2

> <Gold.PLP.Fitness>
38.3309

> <Gold.PLP.PLP>
-26.9490

> <Gold.PLP.part.hbond>
-2.0000

> <Gold.PLP.part.metal>
0.0000

> <Gold.PLP.part.buried>
-4.0720

> <Gold.PLP.part.nonpolar>
-20.9416

> <Gold.PLP.part.repulsive>
0.1129

> <Gold.PLP.ligand.clash>
0.0000

> <Gold.PLP.ligand.torsion>
1.1273

> <Gold.PLP.Chemscore.Hbond>
3.0000

> <Gold.PLP.Chemscore.CHOScore>
1.0000

> <Gold.PLP.Chemscore.Metal>
0.0000

> <Gold.Chemscore.Hbonds>
donor molecule, donor type, donor heavy atom, donor atom, acceptor molecule, acceptor atom, score
      P1  H  7989  7998       L1     3  1.00
      P1  H  7997  8010       L1     1  2.00
      L1  C    10    16       P1  8028  1.00

> <Gold.PLP.Chemscore.Internal.Correction>
1.6365

> <Gold.Rescore>
     Score         DG    S(hbond)    S(metal)    S(lipo)     H(rot)  DE(clash)    DE(int)     intcor
     15.49     -16.82       2.00        0.00      69.79       1.36       0.36       0.97       ----

> <Gold.Chemscore.Fitness>
15.4921

> <Gold.Chemscore.DG>
-16.8172

> <Gold.Chemscore.ZeroCoef>
-5.4800

> <Gold.Chemscore.Hbond>
1.9958

> <Gold.Chemscore.Metal>
0.0000

> <Gold.Chemscore.Lipo>
69.7856

> <Gold.Chemscore.Internal_Hbond>
0.0000

> <Gold.Chemscore.DEClash>
0.3559

> <Gold.Chemscore.DEInternal>
0.9692

> <Gold.Chemscore.Rot>
1.3647

> <Gold.Chemscore.Internal.Correction>
   9.000000E+99

> <Gold.Chemscore.Hbonds>
donor molecule, donor type, donor heavy atom, donor atom, acceptor molecule, acceptor atom, score
      P1  H  7989  7998       L1     3  0.94
      P1  H  7997  8010       L1     1  0.69

> <Gold.Chemscore.Hbond.Weighted>
-6.6660

> <Gold.Chemscore.Metal.Weighted>
-0.0000

> <Gold.Chemscore.Lipo.Weighted>
-8.1649

> <Gold.Chemscore.Internal_Hbond.Weighted>
0.0000

> <Gold.Chemscore.DEClash.Weighted>
0.3559

> <Gold.Chemscore.DEInternal.Weighted>
0.9692

> <Gold.Chemscore.Rot.Weighted>
3.4936

> <Gold.Chemscore.Internal.Correction.Weighted>
   9.000000E+99

> <Gold.Protein.RotatedTorsions>
[ 6907 6896 6895 6894 ] final  -91.18 input  -60.11 | X-H torsion
[ 7974 7965 7964 7962 ] final -127.41 input  175.53 | X-H torsion
[ 8008 7997 7996 7995 ] final   76.24 input   59.86 | X-H torsion
[ 10167 10162 10161 10158 ] final    4.24 input  -65.29 | X-H torsion
[ 10718 10713 10712 10709 ] final   71.77 input   66.30 | X-H torsion
[ 10763 10752 10751 10750 ] final  128.37 input  -60.55 | X-H torsion
[ 11005 11000 10999 10996 ] final   36.77 input  -57.11 | X-H torsion

> <Gold.Protein.ActiveResidues>
 VAL166  LYS551  ARG553  GLY616  TRP617  ASP618  TYR619  PRO620  LYS621  CYS622 
 ASP623  PHE694  ASN695  SER759  ASP760  ASP761  ALA762  ILE779  LEU786  VAL792 
 PHE793  MET794  SER795  GLU796  ALA797  LYS798  CYS799  TRP800  GLU811  SER814 

> <Gold.Protein.RotatedAtoms>
  150.6889  134.2317  159.4436 H   0  0  0  0  0  0  0  0  0  0  0  0  # atno 6907 bound_to 6896
  152.0267  134.9789  160.0581 H   0  0  0  0  0  0  0  0  0  0  0  0  # atno 6908 bound_to 6896
  152.1344  133.4392  159.4773 H   0  0  0  0  0  0  0  0  0  0  0  0  # atno 6909 bound_to 6896
  144.9773  140.7606  143.4633 H   0  0  0  0  0  0  0  0  0  0  0  0  # atno 7974 bound_to 7965
  155.8244  140.3468  155.5534 H   0  0  0  0  0  0  0  0  0  0  0  0  # atno 8008 bound_to 7997
  155.8308  140.0927  157.1814 H   0  0  0  0  0  0  0  0  0  0  0  0  # atno 8009 bound_to 7997
  154.4004  140.1412  156.3598 H   0  0  0  0  0  0  0  0  0  0  0  0  # atno 8010 bound_to 7997
  140.6545  143.7462  150.7630 H   0  0  0  0  0  0  0  0  0  0  0  0  # atno 10167 bound_to 10162
  157.6468  130.9545  150.0835 H   0  0  0  0  0  0  0  0  0  0  0  0  # atno 10718 bound_to 10713
  153.7244  135.3248  155.3273 H   0  0  0  0  0  0  0  0  0  0  0  0  # atno 10763 bound_to 10752
  154.8346  135.4507  154.1185 H   0  0  0  0  0  0  0  0  0  0  0  0  # atno 10764 bound_to 10752
  153.2314  135.6960  153.7965 H   0  0  0  0  0  0  0  0  0  0  0  0  # atno 10765 bound_to 10752
  140.2292  134.3548  155.7971 H   0  0  0  0  0  0  0  0  0  0  0  0  # atno 11005 bound_to 11000
  145.2471  139.2047  143.4962 LP  0  0  0  0  0  0  0  0  0  0  0  0  # atno 17320 bound_to 7965
  146.3399  140.2377  142.8595 LP  0  0  0  0  0  0  0  0  0  0  0  0  # atno 17321 bound_to 7965
  140.1119  143.4691  152.2365 LP  0  0  0  0  0  0  0  0  0  0  0  0  # atno 17342 bound_to 10162
  139.5765  144.7490  151.3751 LP  0  0  0  0  0  0  0  0  0  0  0  0  # atno 17343 bound_to 10162
  156.1804  130.3650  149.9043 LP  0  0  0  0  0  0  0  0  0  0  0  0  # atno 17370 bound_to 10713
  156.6996  130.8928  151.3598 LP  0  0  0  0  0  0  0  0  0  0  0  0  # atno 17371 bound_to 10713
  141.2219  133.7236  156.8704 LP  0  0  0  0  0  0  0  0  0  0  0  0  # atno 17394 bound_to 11000
  140.1768  134.9061  157.2900 LP  0  0  0  0  0  0  0  0  0  0  0  0  # atno 17395 bound_to 11000

$$$$
