AV-unprocessed.smi:914|AV-procd|sdf|4152|dock6
  -GOLD-   22720 2 53D 1   1.00000     0.00000
 Structure written by MMmdl.
 32 33  0  0  0  0  0  0  0  0  2 V2000
  151.4575  139.4583  154.6719 O   0  0  0  0  0  0  0  0  0  0  0  0
  151.8795  139.4343  155.8273 C   0  0  0  0  0  0  0  0  0  0  0  0
  152.5913  138.3834  156.3299 N   0  5  0  0  0  0  0  0  0  0  0  0
  153.0712  138.3393  157.6112 C   0  0  0  0  0  0  0  0  0  0  0  0
  153.7051  137.3753  158.0408 O   0  0  0  0  0  0  0  0  0  0  0  0
  152.8355  139.4013  158.4387 N   0  0  0  0  0  0  0  0  0  0  0  0
  153.2952  139.4393  159.8347 C   0  0  0  0  0  0  0  0  0  0  0  0
  154.5452  140.3193  159.9905 C   0  0  0  0  0  0  0  0  0  0  0  0
  154.1858  141.6731  159.7807 O   0  0  0  0  0  0  0  0  0  0  0  0
  153.0821  142.0908  160.5624 C   0  0  0  0  0  0  0  0  0  0  0  0
  152.8455  143.5820  160.2979 C   0  0  2  0  0  0  0  0  0  0  0  0
  151.5439  144.1182  160.8941 C   0  0  0  0  0  0  0  0  0  0  0  0
  151.2621  145.2990  159.9949 C   0  0  0  0  0  0  0  0  0  0  0  0
  151.6972  144.7604  158.6354 C   0  0  0  0  0  0  0  0  0  0  0  0
  152.7492  143.8348  158.8978 O   0  0  0  0  0  0  0  0  0  0  0  0
  152.1021  140.5051  157.9723 C   0  0  0  0  0  0  0  0  0  0  0  0
  151.6198  140.5650  156.7159 C   0  0  0  0  0  0  0  0  0  0  0  0
  150.7169  141.9342  156.1726 Cl  0  0  0  0  0  0  0  0  0  0  0  0
  152.5080  139.7806  160.5089 H   0  0  0  0  0  0  0  0  0  0  0  0
  153.5268  138.4249  160.1623 H   0  0  0  0  0  0  0  0  0  0  0  0
  154.9604  140.2065  160.9926 H   0  0  0  0  0  0  0  0  0  0  0  0
  155.3145  140.0086  159.2815 H   0  0  0  0  0  0  0  0  0  0  0  0
  152.1969  141.5135  160.2922 H   0  0  0  0  0  0  0  0  0  0  0  0
  153.2766  141.9219  161.6227 H   0  0  0  0  0  0  0  0  0  0  0  0
  153.6842  144.1661  160.6796 H   0  0  0  0  0  0  0  0  0  0  0  0
  150.7438  143.3818  160.8039 H   0  0  0  0  0  0  0  0  0  0  0  0
  151.6385  144.3906  161.9461 H   0  0  0  0  0  0  0  0  0  0  0  0
  150.2193  145.6165  160.0155 H   0  0  0  0  0  0  0  0  0  0  0  0
  151.8857  146.1463  160.2836 H   0  0  0  0  0  0  0  0  0  0  0  0
  150.8762  144.2225  158.1599 H   0  0  0  0  0  0  0  0  0  0  0  0
  152.0205  145.5518  157.9590 H   0  0  0  0  0  0  0  0  0  0  0  0
  151.9522  141.2916  158.6976 H   0  0  0  0  0  0  0  0  0  0  0  0
  1  2  2  0  0  0  0
  2 17  1  0  0  0  0
  2  3  1  0  0  0  0
  3  4  1  0  0  0  0
  4  5  2  0  0  0  0
  4  6  1  0  0  0  0
  6  7  1  0  0  0  0
  6 16  1  0  0  0  0
  7  8  1  0  0  0  0
  7 19  1  0  0  0  0
  7 20  1  0  0  0  0
  8  9  1  0  0  0  0
  8 21  1  0  0  0  0
  8 22  1  0  0  0  0
  9 10  1  0  0  0  0
 10 11  1  0  0  0  0
 10 23  1  0  0  0  0
 10 24  1  0  0  0  0
 11 15  1  0  0  0  0
 11 12  1  0  0  0  0
 11 25  1  0  0  0  0
 12 13  1  0  0  0  0
 12 26  1  0  0  0  0
 12 27  1  0  0  0  0
 13 14  1  0  0  0  0
 13 28  1  0  0  0  0
 13 29  1  0  0  0  0
 14 15  1  0  0  0  0
 14 30  1  0  0  0  0
 14 31  1  0  0  0  0
 16 17  2  0  0  0  0
 16 32  1  0  0  0  0
 17 18  1  0  0  0  0
M  CHG  1   3  -1
M  END
> <s_m_source_file>
AV-unprocessed.smi

> <i_m_source_file_index>
914

> <i_lp_mmshare_version>
43012

> <i_f3d_flags>
0

> <s_epik_input>
Tz1jMVtuSF1jKD1PKW4oW2NIXWMxQ2wpW0NIMl1bQ0gyXU9bQ0gyXVtDQEBIXTJbQ0gyXVtDSDJdW0NIMl1PMg==

> <s_epik_cmdline>
J2VwaWtfcHl0aG9uJywgJy1waCcsICc3LjAnLCAnLXRuJywgJzgnLCAnLW1hJywgJzIwMCcsICctbWV0YWxfYmluZGluZycsICctaW1hZScsICc8aW5maWxlLm1hZT4nLCAnLW9tYWUnLCAnPG91dGZpbGUubWFlPic=

> <r_epik_Ionization_Penalty>
1.76812

> <r_epik_Ionization_Penalty_Charging>
1.60097e-08

> <r_epik_Ionization_Penalty_Neutral>
1.76812

> <r_epik_State_Penalty>
1.87929

> <r_epik_Charging_Adjusted_Penalty>
1.87929

> <i_epik_Tot_Q>
-1

> <i_epik_Tot_abs_Q>
1

> <r_epik_Metal_State_Penalty>
0.0133872

> <b_epik_Metal_Only>
0

> <s_lp_Force_Field>
OPLS_2005

> <r_lp_Energy>
30.4793

> <b_lp_Chiralities_Consistent>
1

> <s_lp_Variant>
AV-unprocessed.smi:914-3

> <Gold.Version>
5.8.1

> <Gold.Id.Protein>
6NUR|6NUR_protein|mol2

> <Gold.PLP.Fitness>
41.2373

> <Gold.PLP.PLP>
-38.8626

> <Gold.PLP.part.hbond>
-1.0000

> <Gold.PLP.part.metal>
0.0000

> <Gold.PLP.part.buried>
-6.6951

> <Gold.PLP.part.nonpolar>
-31.5568

> <Gold.PLP.part.repulsive>
0.0726

> <Gold.PLP.ligand.clash>
0.0000

> <Gold.PLP.ligand.torsion>
0.3305

> <Gold.PLP.Chemscore.Hbond>
1.0000

> <Gold.PLP.Chemscore.CHOScore>
0.0000

> <Gold.PLP.Chemscore.Metal>
0.0000

> <Gold.Chemscore.Hbonds>
donor molecule, donor type, donor heavy atom, donor atom, acceptor molecule, acceptor atom, score
      P1  H  7989  7998       L1     1  1.00

> <Gold.PLP.Chemscore.Internal.Correction>
0.0357

> <Gold.Rescore>
     Score         DG    S(hbond)    S(metal)    S(lipo)     H(rot)  DE(clash)    DE(int)     intcor
     14.09     -14.64       1.00        0.00      94.99       2.07       0.07       0.48       ----

> <Gold.Chemscore.Fitness>
14.0873

> <Gold.Chemscore.DG>
-14.6365

> <Gold.Chemscore.ZeroCoef>
-5.4800

> <Gold.Chemscore.Hbond>
0.9989

> <Gold.Chemscore.Metal>
0.0000

> <Gold.Chemscore.Lipo>
94.9905

> <Gold.Chemscore.Internal_Hbond>
0.0000

> <Gold.Chemscore.DEClash>
0.0709

> <Gold.Chemscore.DEInternal>
0.4783

> <Gold.Chemscore.Rot>
2.0678

> <Gold.Chemscore.Internal.Correction>
   9.000000E+99

> <Gold.Chemscore.Hbonds>
donor molecule, donor type, donor heavy atom, donor atom, acceptor molecule, acceptor atom, score
      P1  H  7989  7998       L1     1  1.00

> <Gold.Chemscore.Hbond.Weighted>
-3.3362

> <Gold.Chemscore.Metal.Weighted>
-0.0000

> <Gold.Chemscore.Lipo.Weighted>
-11.1139

> <Gold.Chemscore.Internal_Hbond.Weighted>
0.0000

> <Gold.Chemscore.DEClash.Weighted>
0.0709

> <Gold.Chemscore.DEInternal.Weighted>
0.4783

> <Gold.Chemscore.Rot.Weighted>
5.2935

> <Gold.Chemscore.Internal.Correction.Weighted>
   9.000000E+99

> <Gold.Protein.RotatedTorsions>
[ 6907 6896 6895 6894 ] final   -8.89 input  -60.11 | X-H torsion
[ 7974 7965 7964 7962 ] final  171.85 input  175.53 | X-H torsion
[ 8008 7997 7996 7995 ] final  166.19 input   59.86 | X-H torsion
[ 10167 10162 10161 10158 ] final  -92.54 input  -65.29 | X-H torsion
[ 10718 10713 10712 10709 ] final -165.72 input   66.30 | X-H torsion
[ 10763 10752 10751 10750 ] final    5.93 input  -60.55 | X-H torsion
[ 11005 11000 10999 10996 ] final  115.10 input  -57.11 | X-H torsion

> <Gold.Protein.ActiveResidues>
 VAL166  LYS551  ARG553  GLY616  TRP617  ASP618  TYR619  PRO620  LYS621  CYS622 
 ASP623  PHE694  ASN695  SER759  ASP760  ASP761  ALA762  ILE779  LEU786  VAL792 
 PHE793  MET794  SER795  GLU796  ALA797  LYS798  CYS799  TRP800  GLU811  SER814 

> <Gold.Protein.RotatedAtoms>
  151.4264  135.1004  159.9629 H   0  0  0  0  0  0  0  0  0  0  0  0  # atno 6907 bound_to 6896
  152.4971  133.8658  159.7284 H   0  0  0  0  0  0  0  0  0  0  0  0  # atno 6908 bound_to 6896
  150.9186  133.6850  159.2865 H   0  0  0  0  0  0  0  0  0  0  0  0  # atno 6909 bound_to 6896
  144.7283  139.9411  143.6428 H   0  0  0  0  0  0  0  0  0  0  0  0  # atno 7974 bound_to 7965
  156.1738  140.1650  156.8399 H   0  0  0  0  0  0  0  0  0  0  0  0  # atno 8008 bound_to 7997
  154.5285  140.0762  156.8337 H   0  0  0  0  0  0  0  0  0  0  0  0  # atno 8009 bound_to 7997
  155.3456  140.3387  155.4241 H   0  0  0  0  0  0  0  0  0  0  0  0  # atno 8010 bound_to 7997
  140.3337  143.2980  151.9913 H   0  0  0  0  0  0  0  0  0  0  0  0  # atno 10167 bound_to 10162
  156.6574  130.9032  151.3023 H   0  0  0  0  0  0  0  0  0  0  0  0  # atno 10718 bound_to 10713
  153.2537  135.6916  153.7652 H   0  0  0  0  0  0  0  0  0  0  0  0  # atno 10763 bound_to 10752
  153.6737  135.3340  155.3161 H   0  0  0  0  0  0  0  0  0  0  0  0  # atno 10764 bound_to 10752
  154.8404  135.4506  154.1502 H   0  0  0  0  0  0  0  0  0  0  0  0  # atno 10765 bound_to 10752
  139.9000  134.9578  156.6993 H   0  0  0  0  0  0  0  0  0  0  0  0  # atno 11005 bound_to 11000
  146.0784  139.3772  143.0480 LP  0  0  0  0  0  0  0  0  0  0  0  0  # atno 17320 bound_to 7965
  145.7874  140.9829  143.1067 LP  0  0  0  0  0  0  0  0  0  0  0  0  # atno 17321 bound_to 7965
  139.4852  144.6214  151.7248 LP  0  0  0  0  0  0  0  0  0  0  0  0  # atno 17342 bound_to 10162
  140.5373  144.0635  150.6075 LP  0  0  0  0  0  0  0  0  0  0  0  0  # atno 17343 bound_to 10162
  157.7121  130.9452  150.1124 LP  0  0  0  0  0  0  0  0  0  0  0  0  # atno 17370 bound_to 10713
  156.2037  130.3662  149.8756 LP  0  0  0  0  0  0  0  0  0  0  0  0  # atno 17371 bound_to 10713
  140.7163  133.9179  155.8117 LP  0  0  0  0  0  0  0  0  0  0  0  0  # atno 17394 bound_to 11000
  141.0262  134.0820  157.4066 LP  0  0  0  0  0  0  0  0  0  0  0  0  # atno 17395 bound_to 11000

$$$$
