AV-unprocessed.smi:1643|AV-procd|sdf|6583|dock7
  -GOLD-   22720 7273D 1   1.00000     0.00000
 Structure written by MMmdl.
 54 56  0  0  0  0  0  0  0  0  2 V2000
  150.8320  135.3797  156.0110 C   0  0  0  0  0  0  0  0  0  0  0  0
  151.1260  136.7812  155.4704 C   0  0  0  0  0  0  0  0  0  0  0  0
  151.8400  136.8830  154.4724 O   0  0  0  0  0  0  0  0  0  0  0  0
  150.6005  137.8559  156.1061 N   0  0  0  0  0  0  0  0  0  0  0  0
  150.8840  139.2314  155.6815 C   0  0  0  0  0  0  0  0  0  0  0  0
  152.1179  139.7775  156.4183 C   0  0  0  0  0  0  0  0  0  0  0  0
  152.0304  139.7120  157.9577 C   0  0  0  0  0  0  0  0  0  0  0  0
  152.0529  138.3441  158.4944 N   0  0  0  0  0  0  0  0  0  0  0  0
  152.7411  138.2569  159.7834 C   0  0  0  0  0  0  0  0  0  0  0  0
  154.2715  138.4387  159.7159 C   0  0  1  0  0  0  0  0  0  0  0  0
  154.7571  137.6275  158.6656 O   0  0  0  0  0  0  0  0  0  0  0  0
  154.6762  139.9066  159.4662 C   0  0  0  0  0  0  0  0  0  0  0  0
  154.1662  140.8223  160.4959 N   0  0  0  0  0  0  0  0  0  0  0  0
  154.3099  140.7707  161.8477 C   0  0  0  0  0  0  0  0  0  0  0  0
  153.6525  141.8416  162.3723 N   0  3  0  0  0  0  0  0  0  0  0  0
  153.0807  142.5883  161.3402 C   0  0  0  0  0  0  0  0  0  0  0  0
  152.3222  143.7525  161.3722 C   0  0  0  0  0  0  0  0  0  0  0  0
  151.8850  144.2715  160.1326 C   0  0  0  0  0  0  0  0  0  0  0  0
  151.0534  145.5431  160.1316 C   0  0  0  0  0  0  0  0  0  0  0  0
  152.2146  143.6246  158.9134 C   0  0  0  0  0  0  0  0  0  0  0  0
  151.7444  144.1943  157.5859 C   0  0  0  0  0  0  0  0  0  0  0  0
  152.9860  142.4407  158.9025 C   0  0  0  0  0  0  0  0  0  0  0  0
  153.4071  141.9408  160.1325 C   0  0  0  0  0  0  0  0  0  0  0  0
  150.7039  137.7698  158.6098 C   0  0  0  0  0  0  0  0  0  0  0  0
  149.8164  137.7844  157.3445 C   0  0  0  0  0  0  0  0  0  0  0  0
  151.1623  135.2828  157.0452 H   0  0  0  0  0  0  0  0  0  0  0  0
  151.3572  134.6252  155.4242 H   0  0  0  0  0  0  0  0  0  0  0  0
  149.7658  135.1591  155.9567 H   0  0  0  0  0  0  0  0  0  0  0  0
  151.0443  139.2849  154.6035 H   0  0  0  0  0  0  0  0  0  0  0  0
  150.0268  139.8794  155.8679 H   0  0  0  0  0  0  0  0  0  0  0  0
  153.0077  139.2396  156.0885 H   0  0  0  0  0  0  0  0  0  0  0  0
  152.2695  140.8144  156.1178 H   0  0  0  0  0  0  0  0  0  0  0  0
  152.8763  140.2809  158.3386 H   0  0  0  0  0  0  0  0  0  0  0  0
  151.1489  140.2462  158.3154 H   0  0  0  0  0  0  0  0  0  0  0  0
  152.3099  138.9859  160.4715 H   0  0  0  0  0  0  0  0  0  0  0  0
  152.5491  137.2794  160.2291 H   0  0  0  0  0  0  0  0  0  0  0  0
  154.7450  138.0856  160.6310 H   0  0  0  0  0  0  0  0  0  0  0  0
  154.6981  136.7230  158.9335 H   0  0  0  0  0  0  0  0  0  0  0  0
  155.7582  140.0146  159.3866 H   0  0  0  0  0  0  0  0  0  0  0  0
  154.2671  140.2491  158.5147 H   0  0  0  0  0  0  0  0  0  0  0  0
  154.8468  140.0152  162.4033 H   0  0  0  0  0  0  0  0  0  0  0  0
  152.0779  144.2408  162.3042 H   0  0  0  0  0  0  0  0  0  0  0  0
  151.5733  146.3392  159.5978 H   0  0  0  0  0  0  0  0  0  0  0  0
  150.8580  145.8933  161.1457 H   0  0  0  0  0  0  0  0  0  0  0  0
  150.0914  145.3720  159.6482 H   0  0  0  0  0  0  0  0  0  0  0  0
  152.1036  143.5977  156.7467 H   0  0  0  0  0  0  0  0  0  0  0  0
  152.1135  145.2116  157.4525 H   0  0  0  0  0  0  0  0  0  0  0  0
  150.6553  144.2113  157.5407 H   0  0  0  0  0  0  0  0  0  0  0  0
  153.2413  141.9522  157.9738 H   0  0  0  0  0  0  0  0  0  0  0  0
  150.8061  136.7304  158.9235 H   0  0  0  0  0  0  0  0  0  0  0  0
  150.1615  138.2623  159.4182 H   0  0  0  0  0  0  0  0  0  0  0  0
  149.1473  138.6433  157.4049 H   0  0  0  0  0  0  0  0  0  0  0  0
  149.1429  136.9272  157.3464 H   0  0  0  0  0  0  0  0  0  0  0  0
  153.5990  142.0446  163.3621 H   0  0  0  0  0  0  0  0  0  0  0  0
  1  2  1  0  0  0  0
  1 26  1  0  0  0  0
  1 27  1  0  0  0  0
  1 28  1  0  0  0  0
  2  3  2  0  0  0  0
  2  4  1  0  0  0  0
  4 25  1  0  0  0  0
  4  5  1  0  0  0  0
  5  6  1  0  0  0  0
  5 29  1  0  0  0  0
  5 30  1  0  0  0  0
  6  7  1  0  0  0  0
  6 31  1  0  0  0  0
  6 32  1  0  0  0  0
  7  8  1  0  0  0  0
  7 33  1  0  0  0  0
  7 34  1  0  0  0  0
  8  9  1  0  0  0  0
  8 24  1  0  0  0  0
  9 10  1  0  0  0  0
  9 35  1  0  0  0  0
  9 36  1  0  0  0  0
 10 11  1  0  0  0  0
 10 12  1  0  0  0  0
 10 37  1  0  0  0  0
 11 38  1  0  0  0  0
 12 13  1  0  0  0  0
 12 39  1  0  0  0  0
 12 40  1  0  0  0  0
 13 23  1  0  0  0  0
 13 14  1  0  0  0  0
 14 15  2  0  0  0  0
 14 41  1  0  0  0  0
 15 16  1  0  0  0  0
 15 54  1  0  0  0  0
 16 23  2  0  0  0  0
 16 17  1  0  0  0  0
 17 18  2  0  0  0  0
 17 42  1  0  0  0  0
 18 19  1  0  0  0  0
 18 20  1  0  0  0  0
 19 43  1  0  0  0  0
 19 44  1  0  0  0  0
 19 45  1  0  0  0  0
 20 21  1  0  0  0  0
 20 22  2  0  0  0  0
 21 46  1  0  0  0  0
 21 47  1  0  0  0  0
 21 48  1  0  0  0  0
 22 23  1  0  0  0  0
 22 49  1  0  0  0  0
 24 25  1  0  0  0  0
 24 50  1  0  0  0  0
 24 51  1  0  0  0  0
 25 52  1  0  0  0  0
 25 53  1  0  0  0  0
M  CHG  1  15   1
M  END
> <s_m_source_file>
AV-unprocessed.smi

> <i_m_source_file_index>
1643

> <i_lp_mmshare_version>
43012

> <i_f3d_flags>
0

> <s_epik_input>
W0NIM11DKD1PKU4xW0NIMl1bQ0gyXVtDSDJdTihbQ0gyXVtDSDJdMSlbQ0gyXVtDQEhdKFtPSF0pW0NIMl1uKFtjSF1uMiljKGMyMylbY0hdYyhbQ0gzXSljKFtjSF0zKVtDSDNd

> <s_epik_cmdline>
J2VwaWtfcHl0aG9uJywgJy1waCcsICc3LjAnLCAnLXRuJywgJzgnLCAnLW1hJywgJzIwMCcsICctbWV0YWxfYmluZGluZycsICctaW1hZScsICc8aW5maWxlLm1hZT4nLCAnLW9tYWUnLCAnPG91dGZpbGUubWFlPic=

> <r_epik_Ionization_Penalty>
2.25269

> <r_epik_Ionization_Penalty_Charging>
1.20735

> <r_epik_Ionization_Penalty_Neutral>
1.04533

> <r_epik_State_Penalty>
2.37869

> <r_epik_Charging_Adjusted_Penalty>
3.58604

> <i_epik_Tot_Q>
1

> <i_epik_Tot_abs_Q>
1

> <r_epik_Metal_State_Penalty>
6.40045

> <b_epik_Metal_Only>
0

> <s_lp_Force_Field>
OPLS_2005

> <r_lp_Energy>
51.5531

> <b_lp_Chiralities_Consistent>
1

> <s_lp_Variant>
AV-unprocessed.smi:1643-12

> <Gold.Version>
5.8.1

> <Gold.Id.Protein>
6NUR|6NUR_protein|mol2

> <Gold.PLP.Fitness>
54.2454

> <Gold.PLP.PLP>
-51.6206

> <Gold.PLP.part.hbond>
-1.0000

> <Gold.PLP.part.metal>
0.0000

> <Gold.PLP.part.buried>
-4.4171

> <Gold.PLP.part.nonpolar>
-45.8174

> <Gold.PLP.part.repulsive>
0.1990

> <Gold.PLP.ligand.clash>
0.0000

> <Gold.PLP.ligand.torsion>
0.2255

> <Gold.PLP.Chemscore.Hbond>
1.0000

> <Gold.PLP.Chemscore.CHOScore>
0.0000

> <Gold.PLP.Chemscore.Metal>
0.0000

> <Gold.Chemscore.Hbonds>
donor molecule, donor type, donor heavy atom, donor atom, acceptor molecule, acceptor atom, score
      P1  H 10752 10764       L1     3  1.00

> <Gold.PLP.Chemscore.Internal.Correction>
0.0757

> <Gold.Rescore>
     Score         DG    S(hbond)    S(metal)    S(lipo)     H(rot)  DE(clash)    DE(int)     intcor
     17.68     -18.73       0.97        0.00     131.93       2.12       0.08       0.97       ----

> <Gold.Chemscore.Fitness>
17.6821

> <Gold.Chemscore.DG>
-18.7350

> <Gold.Chemscore.ZeroCoef>
-5.4800

> <Gold.Chemscore.Hbond>
0.9735

> <Gold.Chemscore.Metal>
0.0000

> <Gold.Chemscore.Lipo>
131.9290

> <Gold.Chemscore.Internal_Hbond>
0.0000

> <Gold.Chemscore.DEClash>
0.0809

> <Gold.Chemscore.DEInternal>
0.9720

> <Gold.Chemscore.Rot>
2.1220

> <Gold.Chemscore.Internal.Correction>
   9.000000E+99

> <Gold.Chemscore.Hbonds>
donor molecule, donor type, donor heavy atom, donor atom, acceptor molecule, acceptor atom, score
      P1  H 10752 10764       L1     3  0.92

> <Gold.Chemscore.Hbond.Weighted>
-3.2515

> <Gold.Chemscore.Metal.Weighted>
-0.0000

> <Gold.Chemscore.Lipo.Weighted>
-15.4357

> <Gold.Chemscore.Internal_Hbond.Weighted>
0.0000

> <Gold.Chemscore.DEClash.Weighted>
0.0809

> <Gold.Chemscore.DEInternal.Weighted>
0.9720

> <Gold.Chemscore.Rot.Weighted>
5.4322

> <Gold.Chemscore.Internal.Correction.Weighted>
   9.000000E+99

> <Gold.Protein.RotatedTorsions>
[ 6907 6896 6895 6894 ] final  102.02 input  -60.11 | X-H torsion
[ 7974 7965 7964 7962 ] final   85.97 input  175.53 | X-H torsion
[ 8008 7997 7996 7995 ] final  179.27 input   59.86 | X-H torsion
[ 10167 10162 10161 10158 ] final  171.66 input  -65.29 | X-H torsion
[ 10718 10713 10712 10709 ] final  -39.16 input   66.30 | X-H torsion
[ 10763 10752 10751 10750 ] final  -86.99 input  -60.55 | X-H torsion
[ 11005 11000 10999 10996 ] final   31.22 input  -57.11 | X-H torsion

> <Gold.Protein.ActiveResidues>
 VAL166  LYS551  ARG553  GLY616  TRP617  ASP618  TYR619  PRO620  LYS621  CYS622 
 ASP623  PHE694  ASN695  SER759  ASP760  ASP761  ALA762  ILE779  LEU786  VAL792 
 PHE793  MET794  SER795  GLU796  ALA797  LYS798  CYS799  TRP800  GLU811  SER814 

> <Gold.Protein.RotatedAtoms>
  152.5334  134.0038  159.7906 H   0  0  0  0  0  0  0  0  0  0  0  0  # atno 6907 bound_to 6896
  151.0252  133.5832  159.2674 H   0  0  0  0  0  0  0  0  0  0  0  0  # atno 6908 bound_to 6896
  151.2857  135.0734  159.9239 H   0  0  0  0  0  0  0  0  0  0  0  0  # atno 6909 bound_to 6896
  145.5785  139.2322  143.2366 H   0  0  0  0  0  0  0  0  0  0  0  0  # atno 7974 bound_to 7965
  156.0452  140.1312  157.0111 H   0  0  0  0  0  0  0  0  0  0  0  0  # atno 8008 bound_to 7997
  154.4409  140.1022  156.6366 H   0  0  0  0  0  0  0  0  0  0  0  0  # atno 8009 bound_to 7997
  155.5606  140.3464  155.4492 H   0  0  0  0  0  0  0  0  0  0  0  0  # atno 8010 bound_to 7997
  139.5053  144.3460  151.9970 H   0  0  0  0  0  0  0  0  0  0  0  0  # atno 10167 bound_to 10162
  156.2956  130.4233  149.8195 H   0  0  0  0  0  0  0  0  0  0  0  0  # atno 10718 bound_to 10713
  154.6287  135.5429  153.7656 H   0  0  0  0  0  0  0  0  0  0  0  0  # atno 10763 bound_to 10752
  153.0273  135.6430  154.1333 H   0  0  0  0  0  0  0  0  0  0  0  0  # atno 10764 bound_to 10752
  154.1265  135.2917  155.3176 H   0  0  0  0  0  0  0  0  0  0  0  0  # atno 10765 bound_to 10752
  140.2862  134.2916  155.7787 H   0  0  0  0  0  0  0  0  0  0  0  0  # atno 11005 bound_to 11000
  146.1733  140.6611  142.9223 LP  0  0  0  0  0  0  0  0  0  0  0  0  # atno 17320 bound_to 7965
  144.7405  140.4928  143.6873 LP  0  0  0  0  0  0  0  0  0  0  0  0  # atno 17321 bound_to 7965
  140.2898  144.3767  150.6092 LP  0  0  0  0  0  0  0  0  0  0  0  0  # atno 17342 bound_to 10162
  140.5955  143.2167  151.7172 LP  0  0  0  0  0  0  0  0  0  0  0  0  # atno 17343 bound_to 10162
  156.5592  130.8376  151.3323 LP  0  0  0  0  0  0  0  0  0  0  0  0  # atno 17370 bound_to 10713
  157.7354  130.9762  150.2081 LP  0  0  0  0  0  0  0  0  0  0  0  0  # atno 17371 bound_to 10713
  141.2154  133.7556  156.9555 LP  0  0  0  0  0  0  0  0  0  0  0  0  # atno 17394 bound_to 11000
  140.1238  134.9400  157.2240 LP  0  0  0  0  0  0  0  0  0  0  0  0  # atno 17395 bound_to 11000

$$$$
