#       Name:                AV-unprocessed.smi:1675
#       Creating user name   scv26
#       Creation time:       Fri Mar 27 07:46:07 2020


#       File generated by GOLD software.
#

@<TRIPOS>MOLECULE
AV-unprocessed.smi:1675
    45    47     1
SMALL
NO_CHARGES


@<TRIPOS>ATOM
      1 ****        -6.2433  -1.3575   1.9757 N.am           1 S1                 0.0000
      2 ****        -5.7556  -0.1199   1.8575 C.2            1 S1                 0.0000
      3 ****        -5.5599   0.6020   2.8337 O.2            1 S1                 0.0000
      4 ****        -5.4507   0.3728   0.4391 C.3            1 S1                 0.0000
      5 ****        -4.1758   1.0672   0.3682 N.pl3          1 S1                 0.0000
      6 ****        -2.9049   0.5286   0.4332 C.2            1 S1                 0.0000
      7 ****        -2.0477   1.5862   0.3180 C.2            1 S1                 0.0000
      8 ****        -0.6299   1.6020   0.3268 N.am           1 S1                 0.0000
      9 ****         0.2013   0.5521   0.4509 C.2            1 S1                 0.0000
     10 ****        -0.1683  -0.6130   0.5946 O.2            1 S1                 0.0000
     11 ****         1.6984   0.8774   0.4319 C.3            1 S1                 0.0000
     12 ****         2.4167   0.3878  -0.8467 C.3            1 S1                 0.0000
     13 ****         3.9271   0.7081  -0.8786 C.3            1 S1                 0.0000
     14 ****         4.5598  -0.6407  -1.2699 C.3            1 S1                 0.0000
     15 ****         4.4984  -1.5947  -0.0634 C.3            1 S1                 0.0000
     16 ****         3.0033  -1.9548   0.0053 C.3            1 S1                 0.0000
     17 ****         2.3980  -1.1322  -1.1510 C.3            1 S1                 0.0000
     18 ****         3.5048  -1.2358  -2.1956 C.3            1 S1                 0.0000
     19 ****        -2.8682   2.7358   0.1815 C.2            1 S1                 0.0000
     20 ****        -4.1526   2.4146   0.2092 N.2            1 S1                 0.0000
     21 ****        -6.4608  -1.7237   2.8913 H              1 S1                 0.0000
     22 ****        -6.3949  -1.9220   1.1526 H              1 S1                 0.0000
     23 ****        -5.4244  -0.4642  -0.2600 H              1 S1                 0.0000
     24 ****        -6.2497   1.0400   0.1124 H              1 S1                 0.0000
     25 ****        -2.7381  -0.5313   0.5562 H              1 S1                 0.0000
     26 ****        -0.1994   2.5096   0.2238 H              1 S1                 0.0000
     27 ****         1.8329   1.9562   0.5241 H              1 S1                 0.0000
     28 ****         2.1574   0.4511   1.3237 H              1 S1                 0.0000
     29 ****         1.9537   0.8974  -1.6940 H              1 S1                 0.0000
     30 ****         4.1399   1.4709  -1.6286 H              1 S1                 0.0000
     31 ****         4.3067   1.0713   0.0772 H              1 S1                 0.0000
     32 ****         5.5559  -0.5479  -1.7032 H              1 S1                 0.0000
     33 ****         5.1000  -2.4871  -0.2410 H              1 S1                 0.0000
     34 ****         4.8566  -1.1263   0.8541 H              1 S1                 0.0000
     35 ****         2.8646  -3.0211  -0.1762 H              1 S1                 0.0000
     36 ****         2.5586  -1.7330   0.9745 H              1 S1                 0.0000
     37 ****         1.4288  -1.5006  -1.4882 H              1 S1                 0.0000
     38 ****         3.3208  -0.6328  -3.0866 H              1 S1                 0.0000
     39 ****         3.7228  -2.2620  -2.4974 H              1 S1                 0.0000
     40 ****        -2.5816   3.7706   0.0652 H              1 S1                 0.0000
     41 ****        -5.7673   0.2670   3.7528 LP             1 S1                 0.0000
     42 ****        -5.1934   1.5239   2.7083 LP             1 S1                 0.0000
     43 ****        -1.1445  -0.8277   0.6253 LP             1 S1                 0.0000
     44 ****         0.5076  -1.3450   0.6807 LP             1 S1                 0.0000
     45 ****        -4.9358   3.0314   0.1301 LP             1 S1                 0.0000
@<TRIPOS>BOND
    1    1    2 am    
    2    1   21 1     
    3    1   22 1     
    4    2    3 2     
    5    2    4 1     
    6    4    5 1     
    7    4   23 1     
    8    4   24 1     
    9    5   20 1     
   10    5    6 1     
   11    6    7 2     
   12    6   25 1     
   13    7    8 1     
   14    7   19 1     
   15    8    9 am    
   16    8   26 1     
   17    9   10 2     
   18    9   11 1     
   19   11   12 1     
   20   11   27 1     
   21   11   28 1     
   22   12   17 1     
   23   12   13 1     
   24   12   29 1     
   25   13   14 1     
   26   13   30 1     
   27   13   31 1     
   28   14   18 1     
   29   14   15 1     
   30   14   32 1     
   31   15   16 1     
   32   15   33 1     
   33   15   34 1     
   34   16   17 1     
   35   16   35 1     
   36   16   36 1     
   37   17   18 1     
   38   17   37 1     
   39   18   38 1     
   40   18   39 1     
   41   19   20 2     
   42   19   40 1     
   43    3   41 1     
   44    3   42 1     
   45   10   43 1     
   46   10   44 1     
   47   20   45 1     
@<TRIPOS>SUBSTRUCTURE
      1 S1             1
@<TRIPOS>SET
LONE_PAIRS      STATIC     ATOMS    <user>   **** ""
5 41 42 43 44 45
DONOR_HYDROGENS      STATIC     ATOMS    <user>   **** ""
3 21 22 26
ATOM$BLUE        STATIC     ATOMS    COLORGROUP SYSTEM
5 41 42 43 44 45
ATOM$RED        STATIC     ATOMS    COLORGROUP SYSTEM
3 21 22 26
