AV-unprocessed.smi:1933|AV-procd|sdf|7821|dock6
  -GOLD-   22720 9563D 1   1.00000     0.00000
 Structure written by MMmdl.
 48 50  0  0  0  0  0  0  0  0  2 V2000
  144.4974  136.1866  152.8185 O   0  0  0  0  0  0  0  0  0  0  0  0
  145.6602  136.3498  152.4481 C   0  0  0  0  0  0  0  0  0  0  0  0
  146.4130  137.3929  152.8231 N   0  0  0  0  0  0  0  0  0  0  0  0
  145.9728  138.4572  153.7164 C   0  0  0  0  0  0  0  0  0  0  0  0
  146.9001  139.7003  153.6635 C   0  0  2  0  0  0  0  0  0  0  0  0
  148.2153  139.5443  154.4800 C   0  0  1  0  0  0  0  0  0  0  0  0
  149.1345  138.4053  154.0674 C   0  0  0  0  0  0  0  0  0  0  0  0
  150.4733  138.8215  154.6687 C   0  0  0  0  0  0  0  0  0  0  0  0
  150.4668  140.2438  154.6896 O   0  0  0  0  0  0  0  0  0  0  0  0
  149.1795  140.7267  154.3269 C   0  0  0  0  0  0  0  0  0  0  0  0
  146.1880  140.9411  154.0954 N   0  3  0  0  0  0  0  0  0  0  0  0
  145.9981  141.0507  155.5622 C   0  0  0  0  0  0  0  0  0  0  0  0
  145.0885  142.2476  155.8873 C   0  0  0  0  0  0  0  0  0  0  0  0
  145.6458  143.4368  155.3401 O   0  0  0  0  0  0  0  0  0  0  0  0
  145.7604  143.3729  153.9233 C   0  0  0  0  0  0  0  0  0  0  0  0
  146.6987  142.2184  153.5351 C   0  0  0  0  0  0  0  0  0  0  0  0
  146.3411  135.5288  151.6293 N   0  0  0  0  0  0  0  0  0  0  0  0
  145.8993  134.3154  151.0377 C   0  0  0  0  0  0  0  0  0  0  0  0
  144.4983  134.1925  150.8982 C   0  0  0  0  0  0  0  0  0  0  0  0
  143.9595  133.0260  150.3215 C   0  0  0  0  0  0  0  0  0  0  0  0
  144.8366  132.0118  149.8980 C   0  0  0  0  0  0  0  0  0  0  0  0
  146.2178  132.2142  150.0722 C   0  0  0  0  0  0  0  0  0  0  0  0
  146.7364  133.3312  150.6248 N   0  0  0  0  0  0  0  0  0  0  0  0
  147.3562  137.4528  152.4681 H   0  0  0  0  0  0  0  0  0  0  0  0
  144.9552  138.7206  153.4276 H   0  0  0  0  0  0  0  0  0  0  0  0
  145.9231  138.0757  154.7375 H   0  0  0  0  0  0  0  0  0  0  0  0
  147.1929  139.8524  152.6233 H   0  0  0  0  0  0  0  0  0  0  0  0
  147.9835  139.4200  155.5386 H   0  0  0  0  0  0  0  0  0  0  0  0
  148.8137  137.4314  154.4373 H   0  0  0  0  0  0  0  0  0  0  0  0
  149.2140  138.3515  152.9808 H   0  0  0  0  0  0  0  0  0  0  0  0
  150.5586  138.4613  155.6947 H   0  0  0  0  0  0  0  0  0  0  0  0
  151.3209  138.4345  154.1025 H   0  0  0  0  0  0  0  0  0  0  0  0
  149.2199  141.0597  153.2888 H   0  0  0  0  0  0  0  0  0  0  0  0
  148.8964  141.5807  154.9428 H   0  0  0  0  0  0  0  0  0  0  0  0
  145.5485  140.1367  155.9514 H   0  0  0  0  0  0  0  0  0  0  0  0
  146.9607  141.1726  156.0595 H   0  0  0  0  0  0  0  0  0  0  0  0
  144.0827  142.0895  155.4944 H   0  0  0  0  0  0  0  0  0  0  0  0
  144.9937  142.3655  156.9668 H   0  0  0  0  0  0  0  0  0  0  0  0
  144.7757  143.2447  153.4706 H   0  0  0  0  0  0  0  0  0  0  0  0
  146.1584  144.3197  153.5579 H   0  0  0  0  0  0  0  0  0  0  0  0
  147.6990  142.4278  153.9159 H   0  0  0  0  0  0  0  0  0  0  0  0
  146.7718  142.1590  152.4497 H   0  0  0  0  0  0  0  0  0  0  0  0
  147.2864  135.8006  151.4041 H   0  0  0  0  0  0  0  0  0  0  0  0
  143.8384  134.9812  151.2292 H   0  0  0  0  0  0  0  0  0  0  0  0
  142.8917  132.9124  150.2065 H   0  0  0  0  0  0  0  0  0  0  0  0
  144.4611  131.1030  149.4513 H   0  0  0  0  0  0  0  0  0  0  0  0
  146.9253  131.4605  149.7597 H   0  0  0  0  0  0  0  0  0  0  0  0
  145.2538  140.8395  153.7250 H   0  0  0  0  0  0  0  0  0  0  0  0
  1  2  2  0  0  0  0
  2  3  1  0  0  0  0
  2 17  1  0  0  0  0
  3  4  1  0  0  0  0
  3 24  1  0  0  0  0
  4  5  1  0  0  0  0
  4 25  1  0  0  0  0
  4 26  1  0  0  0  0
  5  6  1  0  0  0  0
  5 11  1  0  0  0  0
  5 27  1  0  0  0  0
  6 10  1  0  0  0  0
  6  7  1  0  0  0  0
  6 28  1  0  0  0  0
  7  8  1  0  0  0  0
  7 29  1  0  0  0  0
  7 30  1  0  0  0  0
  8  9  1  0  0  0  0
  8 31  1  0  0  0  0
  8 32  1  0  0  0  0
  9 10  1  0  0  0  0
 10 33  1  0  0  0  0
 10 34  1  0  0  0  0
 11 16  1  0  0  0  0
 11 12  1  0  0  0  0
 11 48  1  0  0  0  0
 12 13  1  0  0  0  0
 12 35  1  0  0  0  0
 12 36  1  0  0  0  0
 13 14  1  0  0  0  0
 13 37  1  0  0  0  0
 13 38  1  0  0  0  0
 14 15  1  0  0  0  0
 15 16  1  0  0  0  0
 15 39  1  0  0  0  0
 15 40  1  0  0  0  0
 16 41  1  0  0  0  0
 16 42  1  0  0  0  0
 17 18  1  0  0  0  0
 17 43  1  0  0  0  0
 18 23  1  0  0  0  0
 18 19  2  0  0  0  0
 19 20  1  0  0  0  0
 19 44  1  0  0  0  0
 20 21  2  0  0  0  0
 20 45  1  0  0  0  0
 21 22  1  0  0  0  0
 21 46  1  0  0  0  0
 22 23  2  0  0  0  0
 22 47  1  0  0  0  0
M  CHG  1  11   1
M  END
> <s_m_source_file>
AV-unprocessed.smi

> <i_m_source_file_index>
1933

> <i_lp_mmshare_version>
43012

> <i_f3d_flags>
0

> <s_epik_input>
bjFbY0hdW2NIXVtjSF1bY0hdYzFbTkhdQyg9TylbTkhdW0NIMl1bQ0BIXShbQ0BASF0yW0NIMl1bQ0gyXU9bQ0gyXTIpTjNbQ0gyXVtDSDJdT1tDSDJdW0NIMl0z

> <s_epik_cmdline>
J2VwaWtfcHl0aG9uJywgJy1waCcsICc3LjAnLCAnLXRuJywgJzgnLCAnLW1hJywgJzIwMCcsICctbWV0YWxfYmluZGluZycsICctaW1hZScsICc8aW5maWxlLm1hZT4nLCAnLW9tYWUnLCAnPG91dGZpbGUubWFlPic=

> <r_epik_Ionization_Penalty>
0.983294

> <r_epik_Ionization_Penalty_Charging>
0.98326

> <r_epik_Ionization_Penalty_Neutral>
3.39688e-05

> <r_epik_State_Penalty>
1.0303

> <r_epik_Charging_Adjusted_Penalty>
2.01356

> <i_epik_Tot_Q>
1

> <i_epik_Tot_abs_Q>
1

> <r_epik_Metal_State_Penalty>
1.0303

> <b_epik_Metal_Only>
0

> <s_lp_Force_Field>
OPLS_2005

> <r_lp_Energy>
40.8927

> <b_lp_Chiralities_Consistent>
1

> <s_lp_Variant>
AV-unprocessed.smi:1933-7

> <Gold.Version>
5.8.1

> <Gold.Id.Protein>
6NUR|6NUR_protein|mol2

> <Gold.PLP.Fitness>
53.0069

> <Gold.PLP.PLP>
-37.1805

> <Gold.PLP.part.hbond>
-4.0000

> <Gold.PLP.part.metal>
0.0000

> <Gold.PLP.part.buried>
-4.8087

> <Gold.PLP.part.nonpolar>
-29.9525

> <Gold.PLP.part.repulsive>
0.7240

> <Gold.PLP.ligand.clash>
0.0000

> <Gold.PLP.ligand.torsion>
0.7746

> <Gold.PLP.Chemscore.Hbond>
4.7166

> <Gold.PLP.Chemscore.CHOScore>
1.0000

> <Gold.PLP.Chemscore.Metal>
0.0000

> <Gold.Chemscore.Hbonds>
donor molecule, donor type, donor heavy atom, donor atom, acceptor molecule, acceptor atom, score
      L1  H     3    24       P1  7948  0.72
      L1  H    11    48       P1 10175  1.98
      L1  H    17    43       P1  7948  1.00
      P1  H  7989  7998       L1     9  1.00
      L1  C    22    47       P1 10747  1.00

> <Gold.PLP.Chemscore.Internal.Correction>
0.2259

> <Gold.Rescore>
     Score         DG    S(hbond)    S(metal)    S(lipo)     H(rot)  DE(clash)    DE(int)     intcor
     19.33     -23.81       3.44        0.00      97.18       1.77       1.94       2.54       ----

> <Gold.Chemscore.Fitness>
19.3327

> <Gold.Chemscore.DG>
-23.8116

> <Gold.Chemscore.ZeroCoef>
-5.4800

> <Gold.Chemscore.Hbond>
3.4387

> <Gold.Chemscore.Metal>
0.0000

> <Gold.Chemscore.Lipo>
97.1798

> <Gold.Chemscore.Internal_Hbond>
0.0000

> <Gold.Chemscore.DEClash>
1.9412

> <Gold.Chemscore.DEInternal>
2.5376

> <Gold.Chemscore.Rot>
1.7671

> <Gold.Chemscore.Internal.Correction>
   9.000000E+99

> <Gold.Chemscore.Hbonds>
donor molecule, donor type, donor heavy atom, donor atom, acceptor molecule, acceptor atom, score
      L1  H     3    24       P1  7948  0.70
      L1  H    11    48       P1 10175  0.81
      L1  H    17    43       P1  7948  0.96
      P1  H  7989  7998       L1     9  0.45

> <Gold.Chemscore.Hbond.Weighted>
-11.4853

> <Gold.Chemscore.Metal.Weighted>
-0.0000

> <Gold.Chemscore.Lipo.Weighted>
-11.3700

> <Gold.Chemscore.Internal_Hbond.Weighted>
0.0000

> <Gold.Chemscore.DEClash.Weighted>
1.9412

> <Gold.Chemscore.DEInternal.Weighted>
2.5376

> <Gold.Chemscore.Rot.Weighted>
4.5238

> <Gold.Chemscore.Internal.Correction.Weighted>
   9.000000E+99

> <Gold.Protein.RotatedTorsions>
[ 6907 6896 6895 6894 ] final -102.32 input  -60.11 | X-H torsion
[ 7974 7965 7964 7962 ] final  160.46 input  175.53 | X-H torsion
[ 8008 7997 7996 7995 ] final  -43.94 input   59.86 | X-H torsion
[ 10167 10162 10161 10158 ] final -111.26 input  -65.29 | X-H torsion
[ 10718 10713 10712 10709 ] final  108.31 input   66.30 | X-H torsion
[ 10763 10752 10751 10750 ] final  -70.01 input  -60.55 | X-H torsion
[ 11005 11000 10999 10996 ] final  -47.04 input  -57.11 | X-H torsion

> <Gold.Protein.ActiveResidues>
 VAL166  LYS551  ARG553  GLY616  TRP617  ASP618  TYR619  PRO620  LYS621  CYS622 
 ASP623  PHE694  ASN695  SER759  ASP760  ASP761  ALA762  ILE779  LEU786  VAL792 
 PHE793  MET794  SER795  GLU796  ALA797  LYS798  CYS799  TRP800  GLU811  SER814 

> <Gold.Protein.RotatedAtoms>
  150.7191  134.0599  159.3827 H   0  0  0  0  0  0  0  0  0  0  0  0  # atno 6907 bound_to 6896
  151.8578  135.0532  160.0475 H   0  0  0  0  0  0  0  0  0  0  0  0  # atno 6908 bound_to 6896
  152.2740  133.5373  159.5493 H   0  0  0  0  0  0  0  0  0  0  0  0  # atno 6909 bound_to 6896
  144.7736  139.7761  143.6287 H   0  0  0  0  0  0  0  0  0  0  0  0  # atno 7974 bound_to 7965
  154.3997  140.1435  156.3602 H   0  0  0  0  0  0  0  0  0  0  0  0  # atno 8008 bound_to 7997
  155.8188  140.3470  155.5481 H   0  0  0  0  0  0  0  0  0  0  0  0  # atno 8009 bound_to 7997
  155.8310  140.0912  157.1783 H   0  0  0  0  0  0  0  0  0  0  0  0  # atno 8010 bound_to 7997
  140.1356  143.4323  152.1598 H   0  0  0  0  0  0  0  0  0  0  0  0  # atno 10167 bound_to 10162
  157.6591  131.0891  150.6286 H   0  0  0  0  0  0  0  0  0  0  0  0  # atno 10718 bound_to 10713
  154.4116  135.6007  153.5956 H   0  0  0  0  0  0  0  0  0  0  0  0  # atno 10763 bound_to 10752
  152.9790  135.5931  154.4063 H   0  0  0  0  0  0  0  0  0  0  0  0  # atno 10764 bound_to 10752
  154.3876  135.2841  155.2152 H   0  0  0  0  0  0  0  0  0  0  0  0  # atno 10765 bound_to 10752
  141.0616  133.6707  156.3241 H   0  0  0  0  0  0  0  0  0  0  0  0  # atno 11005 bound_to 11000
  146.1899  139.5134  142.9811 LP  0  0  0  0  0  0  0  0  0  0  0  0  # atno 17320 bound_to 7965
  145.6252  141.0315  143.1893 LP  0  0  0  0  0  0  0  0  0  0  0  0  # atno 17321 bound_to 7965
  139.5498  144.7328  151.4471 LP  0  0  0  0  0  0  0  0  0  0  0  0  # atno 17342 bound_to 10162
  140.6791  143.8122  150.7098 LP  0  0  0  0  0  0  0  0  0  0  0  0  # atno 17343 bound_to 10162
  156.6590  130.4507  149.5694 LP  0  0  0  0  0  0  0  0  0  0  0  0  # atno 17370 bound_to 10713
  156.2081  130.6662  151.1240 LP  0  0  0  0  0  0  0  0  0  0  0  0  # atno 17371 bound_to 10713
  140.5857  134.5701  157.5489 LP  0  0  0  0  0  0  0  0  0  0  0  0  # atno 17394 bound_to 11000
  139.9438  134.7739  156.0613 LP  0  0  0  0  0  0  0  0  0  0  0  0  # atno 17395 bound_to 11000

$$$$
