AV-unprocessed.smi:35|AV-procd|sdf|250|dock7
  -GOLD-   2262016 13D 1   1.00000     0.00000
 Structure written by MMmdl.
 29 30  0  0  0  0  0  0  0  0  1 V2000
  153.7054  142.3023  160.3767 O   0  0  0  0  0  0  0  0  0  0  0  0
  152.8561  141.8828  159.5937 C   0  0  0  0  0  0  0  0  0  0  0  0
  152.5001  140.5309  159.5962 N   0  0  0  0  0  0  0  0  0  0  0  0
  151.5506  139.9414  158.7591 C   0  0  0  0  0  0  0  0  0  0  0  0
  151.3257  138.7342  158.8358 O   0  0  0  0  0  0  0  0  0  0  0  0
  150.8882  140.7831  157.8384 N   0  0  0  0  0  0  0  0  0  0  0  0
  149.8528  140.1718  156.9143 C   0  0  1  0  0  0  0  0  0  0  0  0
  148.7544  141.0342  156.8122 O   0  0  0  0  0  0  0  0  0  0  0  0
  148.6544  141.5292  155.4819 C   0  0  2  0  0  0  0  0  0  0  0  0
  147.2177  141.9892  155.1772 C   0  0  0  0  0  0  0  0  0  0  0  0
  147.1687  142.8984  154.0970 O   0  0  0  0  0  0  0  0  0  0  0  0
  149.2245  140.3981  154.6251 C   0  0  1  0  0  0  0  0  0  0  0  0
  149.6049  140.8148  153.3268 O   0  0  0  0  0  0  0  0  0  0  0  0
  150.3912  139.9189  155.4831 C   0  0  1  0  0  0  0  0  0  0  0  0
  151.5912  140.6245  155.1999 O   0  0  0  0  0  0  0  0  0  0  0  0
  151.2180  142.1323  157.7909 C   0  0  0  0  0  0  0  0  0  0  0  0
  152.1442  142.6878  158.6072 C   0  0  0  0  0  0  0  0  0  0  0  0
  152.4737  144.6279  158.3802 Br  0  0  0  0  0  0  0  0  0  0  0  0
  152.9716  139.9302  160.2565 H   0  0  0  0  0  0  0  0  0  0  0  0
  149.4995  139.2648  157.4086 H   0  0  0  0  0  0  0  0  0  0  0  0
  149.3151  142.3953  155.4138 H   0  0  0  0  0  0  0  0  0  0  0  0
  146.5784  141.1321  154.9646 H   0  0  0  0  0  0  0  0  0  0  0  0
  146.8002  142.4893  156.0511 H   0  0  0  0  0  0  0  0  0  0  0  0
  147.6735  143.6642  154.3252 H   0  0  0  0  0  0  0  0  0  0  0  0
  148.5029  139.5855  154.5369 H   0  0  0  0  0  0  0  0  0  0  0  0
  149.4527  140.1014  152.7262 H   0  0  0  0  0  0  0  0  0  0  0  0
  150.5802  138.8537  155.3459 H   0  0  0  0  0  0  0  0  0  0  0  0
  151.9740  140.9006  156.0184 H   0  0  0  0  0  0  0  0  0  0  0  0
  150.7314  142.7798  157.0780 H   0  0  0  0  0  0  0  0  0  0  0  0
  1  2  2  0  0  0  0
  2 17  1  0  0  0  0
  2  3  1  0  0  0  0
  3 19  1  0  0  0  0
  3  4  1  0  0  0  0
  4  5  2  0  0  0  0
  4  6  1  0  0  0  0
  6  7  1  0  0  0  0
  6 16  1  0  0  0  0
  7 14  1  0  0  0  0
  7  8  1  0  0  0  0
  7 20  1  0  0  0  0
  8  9  1  0  0  0  0
  9 10  1  0  0  0  0
  9 12  1  0  0  0  0
  9 21  1  0  0  0  0
 10 11  1  0  0  0  0
 10 22  1  0  0  0  0
 10 23  1  0  0  0  0
 11 24  1  0  0  0  0
 12 13  1  0  0  0  0
 12 14  1  0  0  0  0
 12 25  1  0  0  0  0
 13 26  1  0  0  0  0
 14 15  1  0  0  0  0
 14 27  1  0  0  0  0
 15 28  1  0  0  0  0
 16 17  2  0  0  0  0
 16 29  1  0  0  0  0
 17 18  1  0  0  0  0
M  END
> <s_m_source_file>
AV-unprocessed.smi

> <i_m_source_file_index>
35

> <i_lp_mmshare_version>
43012

> <i_f3d_flags>
0

> <s_epik_input>
Tz1jMVtuSF1jKD1PKW4oW2NIXWMxQnIpW0NAQEhdMk9bQ0BASF0oW0NIMl1bT0hdKVtDQEBIXShbT0hdKVtDQEhdMltPSF0=

> <s_epik_cmdline>
J2VwaWtfcHl0aG9uJywgJy1waCcsICc3LjAnLCAnLXRuJywgJzgnLCAnLW1hJywgJzIwMCcsICctbWV0YWxfYmluZGluZycsICctaW1hZScsICc8aW5maWxlLm1hZT4nLCAnLW9tYWUnLCAnPG91dGZpbGUubWFlPic=

> <r_lp_tautomer_probability>
0.999537

> <r_epik_Ionization_Penalty>
0.10812

> <r_epik_Ionization_Penalty_Charging>
0.108119

> <r_epik_Ionization_Penalty_Neutral>
4.93006e-07

> <r_epik_State_Penalty>
0.0979238

> <r_epik_Charging_Adjusted_Penalty>
0.206043

> <i_epik_Tot_Q>
0

> <i_epik_Tot_abs_Q>
0

> <r_epik_Metal_State_Penalty>
3.07911

> <b_epik_Metal_Only>
0

> <s_epik_Chemistry_Notes>
This compound contains an acetal/aminal-like group ( X-CH(R)-Y where X, Y are N, S, or O) that may be acid/base labile, releasing an aldehyde.

> <s_lp_Force_Field>
OPLS_2005

> <r_lp_Energy>
39.8494

> <b_lp_Chiralities_Consistent>
1

> <s_lp_Variant>
AV-unprocessed.smi:35-4

> <Gold.Version>
5.8.1

> <Gold.Id.Protein>
6NUR|6NUR_protein|mol2

> <Gold.PLP.Fitness>
40.8114

> <Gold.PLP.PLP>
-32.0977

> <Gold.PLP.part.hbond>
-4.9289

> <Gold.PLP.part.metal>
0.0000

> <Gold.PLP.part.buried>
-2.5078

> <Gold.PLP.part.nonpolar>
-24.3658

> <Gold.PLP.part.repulsive>
0.1967

> <Gold.PLP.ligand.clash>
0.0000

> <Gold.PLP.ligand.torsion>
0.7237

> <Gold.PLP.Chemscore.Hbond>
3.3760

> <Gold.PLP.Chemscore.CHOScore>
0.0000

> <Gold.PLP.Chemscore.Metal>
0.0000

> <Gold.Chemscore.Hbonds>
donor molecule, donor type, donor heavy atom, donor atom, acceptor molecule, acceptor atom, score
      L1  H    11    24       P1  8028  1.00
      L1  H    13    26       P1  7957  0.61
      P1  H  7989  7998       L1    15  0.77
      P1  H  8011  8017       L1    13  1.00

> <Gold.PLP.Chemscore.Internal.Correction>
0.0331

> <Gold.Rescore>
     Score         DG    S(hbond)    S(metal)    S(lipo)     H(rot)  DE(clash)    DE(int)     intcor
      9.08     -10.08       2.22        0.00      56.23       3.67       0.27       0.73       ----

> <Gold.Chemscore.Fitness>
9.0821

> <Gold.Chemscore.DG>
-10.0771

> <Gold.Chemscore.ZeroCoef>
-5.4800

> <Gold.Chemscore.Hbond>
2.2197

> <Gold.Chemscore.Metal>
0.0000

> <Gold.Chemscore.Lipo>
56.2281

> <Gold.Chemscore.Internal_Hbond>
0.0000

> <Gold.Chemscore.DEClash>
0.2668

> <Gold.Chemscore.DEInternal>
0.7283

> <Gold.Chemscore.Rot>
3.6701

> <Gold.Chemscore.Internal.Correction>
   9.000000E+99

> <Gold.Chemscore.Hbonds>
donor molecule, donor type, donor heavy atom, donor atom, acceptor molecule, acceptor atom, score
      L1  H    11    24       P1  8028  0.31
      L1  H    13    26       P1  7957  0.58
      P1  H  7989  7998       L1    15  0.49
      P1  H  8011  8017       L1    13  0.65

> <Gold.Chemscore.Hbond.Weighted>
-7.4139

> <Gold.Chemscore.Metal.Weighted>
-0.0000

> <Gold.Chemscore.Lipo.Weighted>
-6.5787

> <Gold.Chemscore.Internal_Hbond.Weighted>
0.0000

> <Gold.Chemscore.DEClash.Weighted>
0.2668

> <Gold.Chemscore.DEInternal.Weighted>
0.7283

> <Gold.Chemscore.Rot.Weighted>
9.3955

> <Gold.Chemscore.Internal.Correction.Weighted>
   9.000000E+99

> <Gold.Protein.RotatedTorsions>
[ 6907 6896 6895 6894 ] final   -9.99 input  -60.11 | X-H torsion
[ 7974 7965 7964 7962 ] final -104.10 input  175.53 | X-H torsion
[ 8008 7997 7996 7995 ] final -168.26 input   59.86 | X-H torsion
[ 10167 10162 10161 10158 ] final -164.44 input  -65.29 | X-H torsion
[ 10718 10713 10712 10709 ] final  -35.45 input   66.30 | X-H torsion
[ 10763 10752 10751 10750 ] final  108.64 input  -60.55 | X-H torsion
[ 11005 11000 10999 10996 ] final    2.63 input  -57.11 | X-H torsion

> <Gold.Protein.ActiveResidues>
 VAL166  LYS551  ARG553  GLY616  TRP617  ASP618  TYR619  PRO620  LYS621  CYS622 
 ASP623  PHE694  ASN695  SER759  ASP760  ASP761  ALA762  ILE779  LEU786  VAL792 
 PHE793  MET794  SER795  GLU796  ALA797  LYS798  CYS799  TRP800  GLU811  SER814 

> <Gold.Protein.RotatedAtoms>
  151.4091  135.0982  159.9579 H   0  0  0  0  0  0  0  0  0  0  0  0  # atno 6907 bound_to 6896
  152.5026  133.8815  159.7359 H   0  0  0  0  0  0  0  0  0  0  0  0  # atno 6908 bound_to 6896
  150.9305  133.6715  159.2840 H   0  0  0  0  0  0  0  0  0  0  0  0  # atno 6909 bound_to 6896
  145.2474  140.9226  143.3115 H   0  0  0  0  0  0  0  0  0  0  0  0  # atno 7974 bound_to 7965
  155.8889  140.1021  157.1432 H   0  0  0  0  0  0  0  0  0  0  0  0  # atno 8008 bound_to 7997
  154.4013  140.1314  156.4354 H   0  0  0  0  0  0  0  0  0  0  0  0  # atno 8009 bound_to 7997
  155.7556  140.3464  155.5174 H   0  0  0  0  0  0  0  0  0  0  0  0  # atno 8010 bound_to 7997
  139.6251  144.0549  152.1967 H   0  0  0  0  0  0  0  0  0  0  0  0  # atno 10167 bound_to 10162
  156.3385  130.4290  149.7808 H   0  0  0  0  0  0  0  0  0  0  0  0  # atno 10718 bound_to 10713
  153.4235  135.3805  155.2126 H   0  0  0  0  0  0  0  0  0  0  0  0  # atno 10763 bound_to 10752
  154.8746  135.3823  154.4355 H   0  0  0  0  0  0  0  0  0  0  0  0  # atno 10764 bound_to 10752
  153.4878  135.7088  153.5964 H   0  0  0  0  0  0  0  0  0  0  0  0  # atno 10765 bound_to 10752
  140.6021  133.9826  155.8137 H   0  0  0  0  0  0  0  0  0  0  0  0  # atno 11005 bound_to 11000
  144.9534  139.4058  143.6391 LP  0  0  0  0  0  0  0  0  0  0  0  0  # atno 17320 bound_to 7965
  146.3312  139.8552  142.8866 LP  0  0  0  0  0  0  0  0  0  0  0  0  # atno 17321 bound_to 7965
  140.0200  144.6160  150.7574 LP  0  0  0  0  0  0  0  0  0  0  0  0  # atno 17342 bound_to 10162
  140.7406  143.2806  151.3610 LP  0  0  0  0  0  0  0  0  0  0  0  0  # atno 17343 bound_to 10162
  156.5054  130.8147  151.3148 LP  0  0  0  0  0  0  0  0  0  0  0  0  # atno 17370 bound_to 10713
  157.7443  130.9931  150.2661 LP  0  0  0  0  0  0  0  0  0  0  0  0  # atno 17371 bound_to 10713
  141.0865  133.9982  157.3305 LP  0  0  0  0  0  0  0  0  0  0  0  0  # atno 17394 bound_to 11000
  139.9228  135.0201  156.8126 LP  0  0  0  0  0  0  0  0  0  0  0  0  # atno 17395 bound_to 11000

$$$$
