AV-unprocessed.smi:2180|AV-procd|sdf|8859|dock1
  -GOLD-   2272012 53D 1   1.00000     0.00000
 Structure written by MMmdl.
 39 40  0  0  0  0  0  0  0  0  1 V2000
  151.7047  145.2909  159.4118 C   0  0  0  0  0  0  0  0  0  0  0  0
  152.1252  143.8565  159.5422 C   0  0  0  0  0  0  0  0  0  0  0  0
  152.9786  143.2738  160.5201 C   0  0  0  0  0  0  0  0  0  0  0  0
  153.0285  141.9509  160.1810 C   0  0  0  0  0  0  0  0  0  0  0  0
  153.7671  140.8244  160.8276 C   0  0  0  0  0  0  0  0  0  0  0  0
  152.2356  141.7950  159.0558 N   0  0  0  0  0  0  0  0  0  0  0  0
  151.9484  140.5930  158.2876 C   0  0  0  0  0  0  0  0  0  0  0  0
  150.9596  140.8822  157.1572 C   0  0  0  0  0  0  0  0  0  0  0  0
  151.0735  141.9062  156.4839 O   0  0  0  0  0  0  0  0  0  0  0  0
  149.9990  139.9663  156.9575 N   0  0  0  0  0  0  0  0  0  0  0  0
  148.9825  140.0047  155.9077 C   0  0  2  0  0  0  0  0  0  0  0  0
  147.9912  138.8227  156.0609 C   0  0  0  0  0  0  0  0  0  0  0  0
  147.2615  138.3792  154.7755 C   0  0  0  0  0  0  0  0  0  0  0  0
  146.5203  139.4963  154.0132 C   0  0  0  0  0  0  0  0  0  0  0  0
  147.3560  140.7334  153.6051 C   0  0  0  0  0  0  0  0  0  0  0  0
  148.7922  140.4822  153.4900 N   0  0  0  0  0  0  0  0  0  0  0  0
  149.6098  140.1667  154.5094 C   0  0  0  0  0  0  0  0  0  0  0  0
  150.8154  139.9924  154.3352 O   0  0  0  0  0  0  0  0  0  0  0  0
  151.6816  142.9658  158.6711 N   0  0  0  0  0  0  0  0  0  0  0  0
  152.3078  145.9371  160.0498 H   0  0  0  0  0  0  0  0  0  0  0  0
  150.6610  145.4201  159.6988 H   0  0  0  0  0  0  0  0  0  0  0  0
  151.8152  145.6436  158.3858 H   0  0  0  0  0  0  0  0  0  0  0  0
  153.4804  143.7556  161.3461 H   0  0  0  0  0  0  0  0  0  0  0  0
  154.1191  141.1105  161.8188 H   0  0  0  0  0  0  0  0  0  0  0  0
  154.6369  140.5414  160.2349 H   0  0  0  0  0  0  0  0  0  0  0  0
  153.1312  139.9467  160.9417 H   0  0  0  0  0  0  0  0  0  0  0  0
  152.8819  140.1901  157.8931 H   0  0  0  0  0  0  0  0  0  0  0  0
  151.5310  139.8300  158.9470 H   0  0  0  0  0  0  0  0  0  0  0  0
  149.9872  139.1561  157.5604 H   0  0  0  0  0  0  0  0  0  0  0  0
  148.4189  140.9243  156.0711 H   0  0  0  0  0  0  0  0  0  0  0  0
  148.5234  137.9533  156.4501 H   0  0  0  0  0  0  0  0  0  0  0  0
  147.2535  139.0789  156.8223 H   0  0  0  0  0  0  0  0  0  0  0  0
  147.9723  137.8961  154.1039 H   0  0  0  0  0  0  0  0  0  0  0  0
  146.5451  137.5989  155.0340 H   0  0  0  0  0  0  0  0  0  0  0  0
  146.1013  139.0532  153.1091 H   0  0  0  0  0  0  0  0  0  0  0  0
  145.6616  139.8286  154.5977 H   0  0  0  0  0  0  0  0  0  0  0  0
  146.9962  141.1149  152.6494 H   0  0  0  0  0  0  0  0  0  0  0  0
  147.1930  141.5448  154.3153 H   0  0  0  0  0  0  0  0  0  0  0  0
  149.1997  140.5732  152.5702 H   0  0  0  0  0  0  0  0  0  0  0  0
  1  2  1  0  0  0  0
  1 20  1  0  0  0  0
  1 21  1  0  0  0  0
  1 22  1  0  0  0  0
  2 19  2  0  0  0  0
  2  3  1  0  0  0  0
  3  4  2  0  0  0  0
  3 23  1  0  0  0  0
  4  5  1  0  0  0  0
  4  6  1  0  0  0  0
  5 24  1  0  0  0  0
  5 25  1  0  0  0  0
  5 26  1  0  0  0  0
  6  7  1  0  0  0  0
  6 19  1  0  0  0  0
  7  8  1  0  0  0  0
  7 27  1  0  0  0  0
  7 28  1  0  0  0  0
  8  9  2  0  0  0  0
  8 10  1  0  0  0  0
 10 11  1  0  0  0  0
 10 29  1  0  0  0  0
 11 17  1  0  0  0  0
 11 12  1  0  0  0  0
 11 30  1  0  0  0  0
 12 13  1  0  0  0  0
 12 31  1  0  0  0  0
 12 32  1  0  0  0  0
 13 14  1  0  0  0  0
 13 33  1  0  0  0  0
 13 34  1  0  0  0  0
 14 15  1  0  0  0  0
 14 35  1  0  0  0  0
 14 36  1  0  0  0  0
 15 16  1  0  0  0  0
 15 37  1  0  0  0  0
 15 38  1  0  0  0  0
 16 17  1  0  0  0  0
 16 39  1  0  0  0  0
 17 18  2  0  0  0  0
M  END
> <s_m_source_file>
AV-unprocessed.smi

> <i_m_source_file_index>
2180

> <i_lp_mmshare_version>
43012

> <i_f3d_flags>
0

> <s_epik_input>
W0NIM11jMVtjSF1jKFtDSDNdKW4objEpW0NIMl1DKD1PKVtOSF1bQ0BASF0yW0NIMl1bQ0gyXVtDSDJdW0NIMl1bTkhdQzI9Tw==

> <s_epik_cmdline>
J2VwaWtfcHl0aG9uJywgJy1waCcsICc3LjAnLCAnLXRuJywgJzgnLCAnLW1hJywgJzIwMCcsICctbWV0YWxfYmluZGluZycsICctaW1hZScsICc8aW5maWxlLm1hZT4nLCAnLW9tYWUnLCAnPG91dGZpbGUubWFlPic=

> <r_lp_tautomer_probability>
1

> <r_epik_Ionization_Penalty>
0.000287215

> <r_epik_Ionization_Penalty_Charging>
0

> <r_epik_Ionization_Penalty_Neutral>
0.000287215

> <r_epik_State_Penalty>
-0

> <r_epik_Charging_Adjusted_Penalty>
0

> <i_epik_Tot_Q>
0

> <i_epik_Tot_abs_Q>
0

> <r_epik_Metal_State_Penalty>
-0

> <b_epik_Metal_Only>
0

> <s_lp_Force_Field>
OPLS_2005

> <r_lp_Energy>
13.5369

> <b_lp_Chiralities_Consistent>
1

> <s_lp_Variant>
AV-unprocessed.smi:2180-1

> <Gold.Version>
5.8.1

> <Gold.Id.Protein>
6NUR|6NUR_protein|mol2

> <Gold.PLP.Fitness>
41.1108

> <Gold.PLP.PLP>
-35.6163

> <Gold.PLP.part.hbond>
-1.9224

> <Gold.PLP.part.metal>
0.0000

> <Gold.PLP.part.buried>
-6.2080

> <Gold.PLP.part.nonpolar>
-28.7355

> <Gold.PLP.part.repulsive>
0.3896

> <Gold.PLP.ligand.clash>
0.0000

> <Gold.PLP.ligand.torsion>
0.2809

> <Gold.PLP.Chemscore.Hbond>
2.0000

> <Gold.PLP.Chemscore.CHOScore>
0.0000

> <Gold.PLP.Chemscore.Metal>
0.0000

> <Gold.Chemscore.Hbonds>
donor molecule, donor type, donor heavy atom, donor atom, acceptor molecule, acceptor atom, score
      L1  H    16    39       P1  7957  1.00
      P1  H  7989  7998       L1    18  0.83

> <Gold.PLP.Chemscore.Internal.Correction>
0.0563

> <Gold.Rescore>
     Score         DG    S(hbond)    S(metal)    S(lipo)     H(rot)  DE(clash)    DE(int)     intcor
     15.34     -17.54       1.98        0.00      78.94       1.48       0.06       2.14       ----

> <Gold.Chemscore.Fitness>
15.3424

> <Gold.Chemscore.DG>
-17.5359

> <Gold.Chemscore.ZeroCoef>
-5.4800

> <Gold.Chemscore.Hbond>
1.9816

> <Gold.Chemscore.Metal>
0.0000

> <Gold.Chemscore.Lipo>
78.9435

> <Gold.Chemscore.Internal_Hbond>
0.0000

> <Gold.Chemscore.DEClash>
0.0559

> <Gold.Chemscore.DEInternal>
2.1376

> <Gold.Chemscore.Rot>
1.4840

> <Gold.Chemscore.Internal.Correction>
   9.000000E+99

> <Gold.Chemscore.Hbonds>
donor molecule, donor type, donor heavy atom, donor atom, acceptor molecule, acceptor atom, score
      L1  H    16    39       P1  7957  0.94
      P1  H  7989  7998       L1    18  0.80

> <Gold.Chemscore.Hbond.Weighted>
-6.6186

> <Gold.Chemscore.Metal.Weighted>
-0.0000

> <Gold.Chemscore.Lipo.Weighted>
-9.2364

> <Gold.Chemscore.Internal_Hbond.Weighted>
0.0000

> <Gold.Chemscore.DEClash.Weighted>
0.0559

> <Gold.Chemscore.DEInternal.Weighted>
2.1376

> <Gold.Chemscore.Rot.Weighted>
3.7991

> <Gold.Chemscore.Internal.Correction.Weighted>
   9.000000E+99

> <Gold.Protein.RotatedTorsions>
[ 6907 6896 6895 6894 ] final -144.66 input  -60.11 | X-H torsion
[ 7974 7965 7964 7962 ] final  -91.23 input  175.53 | X-H torsion
[ 8008 7997 7996 7995 ] final    1.17 input   59.86 | X-H torsion
[ 10167 10162 10161 10158 ] final  -61.60 input  -65.29 | X-H torsion
[ 10718 10713 10712 10709 ] final   70.96 input   66.30 | X-H torsion
[ 10763 10752 10751 10750 ] final  -99.86 input  -60.55 | X-H torsion
[ 11005 11000 10999 10996 ] final -113.90 input  -57.11 | X-H torsion

> <Gold.Protein.ActiveResidues>
 VAL166  LYS551  ARG553  GLY616  TRP617  ASP618  TYR619  PRO620  LYS621  CYS622 
 ASP623  PHE694  ASN695  SER759  ASP760  ASP761  ALA762  ILE779  LEU786  VAL792 
 PHE793  MET794  SER795  GLU796  ALA797  LYS798  CYS799  TRP800  GLU811  SER814 

> <Gold.Protein.RotatedAtoms>
  151.1171  133.5131  159.2603 H   0  0  0  0  0  0  0  0  0  0  0  0  # atno 6907 bound_to 6896
  151.1903  135.0399  159.8839 H   0  0  0  0  0  0  0  0  0  0  0  0  # atno 6908 bound_to 6896
  152.5453  134.1012  159.8372 H   0  0  0  0  0  0  0  0  0  0  0  0  # atno 6909 bound_to 6896
  145.4159  140.9548  143.2208 H   0  0  0  0  0  0  0  0  0  0  0  0  # atno 7974 bound_to 7965
  154.6765  140.2623  155.6952 H   0  0  0  0  0  0  0  0  0  0  0  0  # atno 8008 bound_to 7997
  156.2680  140.2819  156.1217 H   0  0  0  0  0  0  0  0  0  0  0  0  # atno 8009 bound_to 7997
  155.1092  140.0375  157.2709 H   0  0  0  0  0  0  0  0  0  0  0  0  # atno 8010 bound_to 7997
  140.5995  143.2358  151.5961 H   0  0  0  0  0  0  0  0  0  0  0  0  # atno 10167 bound_to 10162
  157.6427  130.9504  150.0723 H   0  0  0  0  0  0  0  0  0  0  0  0  # atno 10718 bound_to 10713
  154.7532  135.4956  153.9327 H   0  0  0  0  0  0  0  0  0  0  0  0  # atno 10763 bound_to 10752
  153.1167  135.6722  153.9414 H   0  0  0  0  0  0  0  0  0  0  0  0  # atno 10764 bound_to 10752
  153.9158  135.3094  155.3427 H   0  0  0  0  0  0  0  0  0  0  0  0  # atno 10765 bound_to 10752
  141.0586  133.9572  157.2709 H   0  0  0  0  0  0  0  0  0  0  0  0  # atno 11005 bound_to 11000
  144.8278  139.5680  143.6957 LP  0  0  0  0  0  0  0  0  0  0  0  0  # atno 17320 bound_to 7965
  146.2681  139.6569  142.9315 LP  0  0  0  0  0  0  0  0  0  0  0  0  # atno 17321 bound_to 7965
  139.5281  144.2998  152.1083 LP  0  0  0  0  0  0  0  0  0  0  0  0  # atno 17342 bound_to 10162
  140.2176  144.4499  150.6357 LP  0  0  0  0  0  0  0  0  0  0  0  0  # atno 17343 bound_to 10162
  156.1723  130.3647  149.9148 LP  0  0  0  0  0  0  0  0  0  0  0  0  # atno 17370 bound_to 10713
  156.7120  130.8974  151.3610 LP  0  0  0  0  0  0  0  0  0  0  0  0  # atno 17371 bound_to 10713
  139.9412  135.0191  156.8713 LP  0  0  0  0  0  0  0  0  0  0  0  0  # atno 17394 bound_to 11000
  140.5915  134.0257  155.7501 LP  0  0  0  0  0  0  0  0  0  0  0  0  # atno 17395 bound_to 11000

$$$$
