AV-unprocessed.smi:2742|AV-procd|sdf|10563|dock1
  -GOLD-   2272015 13D 1   1.00000     0.00000
 Structure written by MMmdl.
 37 38  0  0  0  0  0  0  0  0  1 V2000
  150.2807  140.9709  155.8453 C   0  0  0  0  0  0  0  0  0  0  0  0
  148.6920  140.8201  156.7059 S   0  0  0  0  0  0  0  0  0  0  0  0
  147.5631  140.6055  155.2984 C   0  0  1  0  0  0  0  0  0  0  0  0
  147.8038  141.6758  154.2166 C   0  0  0  0  0  0  0  0  0  0  0  0
  146.8752  141.4718  153.0092 C   0  0  0  0  0  0  0  0  0  0  0  0
  147.0222  140.0590  152.4237 C   0  0  0  0  0  0  0  0  0  0  0  0
  146.7754  138.9825  153.4959 C   0  0  1  0  0  0  0  0  0  0  0  0
  146.9726  137.6570  152.9165 N   0  0  0  0  0  0  0  0  0  0  0  0
  145.9931  136.8069  152.5758 C   0  0  0  0  0  0  0  0  0  0  0  0
  144.7973  137.0601  152.7192 O   0  0  0  0  0  0  0  0  0  0  0  0
  146.4959  135.6732  152.0568 N   0  0  0  0  0  0  0  0  0  0  0  0
  145.8112  134.5298  151.5588 C   0  0  0  0  0  0  0  0  0  0  0  0
  144.5037  134.5514  151.0142 C   0  0  0  0  0  0  0  0  0  0  0  0
  143.9380  133.3402  150.5677 C   0  0  0  0  0  0  0  0  0  0  0  0
  144.5734  132.1515  150.6358 N   0  0  0  0  0  0  0  0  0  0  0  0
  145.8145  132.1323  151.1657 C   0  0  0  0  0  0  0  0  0  0  0  0
  146.4710  133.2851  151.6415 C   0  0  0  0  0  0  0  0  0  0  0  0
  147.7171  133.1936  152.1663 F   0  0  0  0  0  0  0  0  0  0  0  0
  147.7102  139.1925  154.7050 C   0  0  0  0  0  0  0  0  0  0  0  0
  151.0802  141.1432  156.5658 H   0  0  0  0  0  0  0  0  0  0  0  0
  150.2592  141.8085  155.1479 H   0  0  0  0  0  0  0  0  0  0  0  0
  150.5107  140.0610  155.2918 H   0  0  0  0  0  0  0  0  0  0  0  0
  146.5458  140.7077  155.6788 H   0  0  0  0  0  0  0  0  0  0  0  0
  147.6469  142.6733  154.6262 H   0  0  0  0  0  0  0  0  0  0  0  0
  148.8428  141.6381  153.8865 H   0  0  0  0  0  0  0  0  0  0  0  0
  145.8403  141.6356  153.3127 H   0  0  0  0  0  0  0  0  0  0  0  0
  147.0936  142.2159  152.2428 H   0  0  0  0  0  0  0  0  0  0  0  0
  146.3236  139.9304  151.5960 H   0  0  0  0  0  0  0  0  0  0  0  0
  148.0231  139.9438  152.0047 H   0  0  0  0  0  0  0  0  0  0  0  0
  145.7405  139.0735  153.8317 H   0  0  0  0  0  0  0  0  0  0  0  0
  147.9275  137.3685  152.7607 H   0  0  0  0  0  0  0  0  0  0  0  0
  147.4999  135.6441  151.9559 H   0  0  0  0  0  0  0  0  0  0  0  0
  143.9216  135.4562  150.9378 H   0  0  0  0  0  0  0  0  0  0  0  0
  142.9429  133.3262  150.1479 H   0  0  0  0  0  0  0  0  0  0  0  0
  146.2987  131.1683  151.2141 H   0  0  0  0  0  0  0  0  0  0  0  0
  148.7457  139.0303  154.4015 H   0  0  0  0  0  0  0  0  0  0  0  0
  147.4948  138.4498  155.4744 H   0  0  0  0  0  0  0  0  0  0  0  0
  1  2  1  0  0  0  0
  1 20  1  0  0  0  0
  1 21  1  0  0  0  0
  1 22  1  0  0  0  0
  2  3  1  0  0  0  0
  3 19  1  0  0  0  0
  3  4  1  0  0  0  0
  3 23  1  0  0  0  0
  4  5  1  0  0  0  0
  4 24  1  0  0  0  0
  4 25  1  0  0  0  0
  5  6  1  0  0  0  0
  5 26  1  0  0  0  0
  5 27  1  0  0  0  0
  6  7  1  0  0  0  0
  6 28  1  0  0  0  0
  6 29  1  0  0  0  0
  7  8  1  0  0  0  0
  7 19  1  0  0  0  0
  7 30  1  0  0  0  0
  8  9  1  0  0  0  0
  8 31  1  0  0  0  0
  9 10  2  0  0  0  0
  9 11  1  0  0  0  0
 11 12  1  0  0  0  0
 11 32  1  0  0  0  0
 12 17  1  0  0  0  0
 12 13  2  0  0  0  0
 13 14  1  0  0  0  0
 13 33  1  0  0  0  0
 14 15  2  0  0  0  0
 14 34  1  0  0  0  0
 15 16  1  0  0  0  0
 16 17  2  0  0  0  0
 16 35  1  0  0  0  0
 17 18  1  0  0  0  0
 19 36  1  0  0  0  0
 19 37  1  0  0  0  0
M  END
> <s_m_source_file>
AV-unprocessed.smi

> <i_m_source_file_index>
2742

> <i_lp_mmshare_version>
43012

> <i_f3d_flags>
0

> <s_epik_input>
W0NIM11TW0NAQEhdMVtDSDJdW0NIMl1bQ0gyXVtDQEhdKFtDSDJdMSlbTkhdQyg9TylbTkhdYzJbY0hdW2NIXW5bY0hdYzJG

> <s_epik_cmdline>
J2VwaWtfcHl0aG9uJywgJy1waCcsICc3LjAnLCAnLXRuJywgJzgnLCAnLW1hJywgJzIwMCcsICctbWV0YWxfYmluZGluZycsICctaW1hZScsICc8aW5maWxlLm1hZT4nLCAnLW9tYWUnLCAnPG91dGZpbGUubWFlPic=

> <r_epik_Ionization_Penalty>
0.00344009

> <r_epik_Ionization_Penalty_Charging>
0

> <r_epik_Ionization_Penalty_Neutral>
0.00344009

> <r_epik_State_Penalty>
0.0024078

> <r_epik_Charging_Adjusted_Penalty>
0.0024078

> <i_epik_Tot_Q>
0

> <i_epik_Tot_abs_Q>
0

> <r_epik_Metal_State_Penalty>
-0

> <b_epik_Metal_Only>
0

> <s_lp_Force_Field>
OPLS_2005

> <r_lp_Energy>
14.4942

> <b_lp_Chiralities_Consistent>
1

> <s_lp_Variant>
AV-unprocessed.smi:2742-2

> <Gold.Version>
5.8.1

> <Gold.Id.Protein>
6NUR|6NUR_protein|mol2

> <Gold.PLP.Fitness>
36.9209

> <Gold.PLP.PLP>
-28.2127

> <Gold.PLP.part.hbond>
-1.8899

> <Gold.PLP.part.metal>
0.0000

> <Gold.PLP.part.buried>
-1.4670

> <Gold.PLP.part.nonpolar>
-24.6851

> <Gold.PLP.part.repulsive>
0.3984

> <Gold.PLP.ligand.clash>
0.0000

> <Gold.PLP.ligand.torsion>
0.4162

> <Gold.PLP.Chemscore.Hbond>
1.9120

> <Gold.PLP.Chemscore.CHOScore>
1.2658

> <Gold.PLP.Chemscore.Metal>
0.0000

> <Gold.Chemscore.Hbonds>
donor molecule, donor type, donor heavy atom, donor atom, acceptor molecule, acceptor atom, score
      L1  H     8    31       P1  7948  0.88
      L1  H    11    32       P1  7948  1.00
      L1  C    14    34       P1 10186  1.00
      L1  C    16    35       P1 10747  0.16

> <Gold.PLP.Chemscore.Internal.Correction>
0.0072

> <Gold.Rescore>
     Score         DG    S(hbond)    S(metal)    S(lipo)     H(rot)  DE(clash)    DE(int)     intcor
     15.80     -17.38       1.92        0.00      72.82       1.19       0.44       1.14       ----

> <Gold.Chemscore.Fitness>
15.8047

> <Gold.Chemscore.DG>
-17.3773

> <Gold.Chemscore.ZeroCoef>
-5.4800

> <Gold.Chemscore.Hbond>
1.9212

> <Gold.Chemscore.Metal>
0.0000

> <Gold.Chemscore.Lipo>
72.8241

> <Gold.Chemscore.Internal_Hbond>
0.0000

> <Gold.Chemscore.DEClash>
0.4363

> <Gold.Chemscore.DEInternal>
1.1363

> <Gold.Chemscore.Rot>
1.1875

> <Gold.Chemscore.Internal.Correction>
   9.000000E+99

> <Gold.Chemscore.Hbonds>
donor molecule, donor type, donor heavy atom, donor atom, acceptor molecule, acceptor atom, score
      L1  H     8    31       P1  7948  0.87
      L1  H    11    32       P1  7948  0.94

> <Gold.Chemscore.Hbond.Weighted>
-6.4169

> <Gold.Chemscore.Metal.Weighted>
-0.0000

> <Gold.Chemscore.Lipo.Weighted>
-8.5204

> <Gold.Chemscore.Internal_Hbond.Weighted>
0.0000

> <Gold.Chemscore.DEClash.Weighted>
0.4363

> <Gold.Chemscore.DEInternal.Weighted>
1.1363

> <Gold.Chemscore.Rot.Weighted>
3.0400

> <Gold.Chemscore.Internal.Correction.Weighted>
   9.000000E+99

> <Gold.Protein.RotatedTorsions>
[ 6907 6896 6895 6894 ] final  133.19 input  -60.11 | X-H torsion
[ 7974 7965 7964 7962 ] final  -35.63 input  175.53 | X-H torsion
[ 8008 7997 7996 7995 ] final  175.44 input   59.86 | X-H torsion
[ 10167 10162 10161 10158 ] final  -74.61 input  -65.29 | X-H torsion
[ 10718 10713 10712 10709 ] final   52.28 input   66.30 | X-H torsion
[ 10763 10752 10751 10750 ] final   55.08 input  -60.55 | X-H torsion
[ 11005 11000 10999 10996 ] final  -69.35 input  -57.11 | X-H torsion

> <Gold.Protein.ActiveResidues>
 VAL166  LYS551  ARG553  GLY616  TRP617  ASP618  TYR619  PRO620  LYS621  CYS622 
 ASP623  PHE694  ASN695  SER759  ASP760  ASP761  ALA762  ILE779  LEU786  VAL792 
 PHE793  MET794  SER795  GLU796  ALA797  LYS798  CYS799  TRP800  GLU811  SER814 

> <Gold.Protein.RotatedAtoms>
  152.3245  133.5890  159.5766 H   0  0  0  0  0  0  0  0  0  0  0  0  # atno 6907 bound_to 6896
  150.7389  133.9961  159.3632 H   0  0  0  0  0  0  0  0  0  0  0  0  # atno 6908 bound_to 6896
  151.7842  135.0754  160.0429 H   0  0  0  0  0  0  0  0  0  0  0  0  # atno 6909 bound_to 6896
  146.0730  140.6182  142.8943 H   0  0  0  0  0  0  0  0  0  0  0  0  # atno 7974 bound_to 7965
  156.0871  140.1409  156.9640 H   0  0  0  0  0  0  0  0  0  0  0  0  # atno 8008 bound_to 7997
  154.4619  140.0940  156.6964 H   0  0  0  0  0  0  0  0  0  0  0  0  # atno 8009 bound_to 7997
  155.4981  140.3450  155.4368 H   0  0  0  0  0  0  0  0  0  0  0  0  # atno 8010 bound_to 7997
  140.5012  143.2361  151.7748 H   0  0  0  0  0  0  0  0  0  0  0  0  # atno 10167 bound_to 10162
  157.5060  130.8469  149.8375 H   0  0  0  0  0  0  0  0  0  0  0  0  # atno 10718 bound_to 10713
  152.9812  135.5723  154.5009 H   0  0  0  0  0  0  0  0  0  0  0  0  # atno 10763 bound_to 10752
  154.4528  135.2779  155.1771 H   0  0  0  0  0  0  0  0  0  0  0  0  # atno 10764 bound_to 10752
  154.3391  135.6233  153.5641 H   0  0  0  0  0  0  0  0  0  0  0  0  # atno 10765 bound_to 10752
  141.1552  133.6762  156.6586 H   0  0  0  0  0  0  0  0  0  0  0  0  # atno 11005 bound_to 11000
  144.7244  140.4476  143.6984 LP  0  0  0  0  0  0  0  0  0  0  0  0  # atno 17320 bound_to 7965
  145.6357  139.1542  143.2944 LP  0  0  0  0  0  0  0  0  0  0  0  0  # atno 17321 bound_to 7965
  139.4873  144.4519  151.9644 LP  0  0  0  0  0  0  0  0  0  0  0  0  # atno 17342 bound_to 10162
  140.3608  144.2975  150.5934 LP  0  0  0  0  0  0  0  0  0  0  0  0  # atno 17343 bound_to 10162
  156.0258  130.3780  150.1826 LP  0  0  0  0  0  0  0  0  0  0  0  0  # atno 17370 bound_to 10713
  157.0016  130.9924  151.3389 LP  0  0  0  0  0  0  0  0  0  0  0  0  # atno 17371 bound_to 10713
  140.3265  134.7964  157.4293 LP  0  0  0  0  0  0  0  0  0  0  0  0  # atno 17394 bound_to 11000
  140.1053  134.5418  155.8315 LP  0  0  0  0  0  0  0  0  0  0  0  0  # atno 17395 bound_to 11000

$$$$
