AV-unprocessed.smi:1088|AV-procd|sdf|4732|dock1
  -GOLD-   22720 3263D 1   1.00000     0.00000
 Structure written by MMmdl.
 47 48  0  0  0  0  0  0  0  0  1 V2000
  153.0871  143.2043  163.7716 C   0  0  0  0  0  0  0  0  0  0  0  0
  153.4385  142.5574  162.5616 O   0  0  0  0  0  0  0  0  0  0  0  0
  152.3149  142.3037  161.7337 C   0  0  0  0  0  0  0  0  0  0  0  0
  152.7224  142.3777  160.2541 C   0  0  0  0  0  0  0  0  0  0  0  0
  152.2630  143.5407  159.4834 N   0  0  0  0  0  0  0  0  0  0  0  0
  152.1069  144.6841  160.3667 C   0  0  0  0  0  0  0  0  0  0  0  0
  151.2765  145.7131  159.6096 C   0  0  0  0  0  0  0  0  0  0  0  0
  150.4576  144.8632  158.6359 C   0  0  0  0  0  0  0  0  0  0  0  0
  150.9486  143.4160  158.8480 C   0  0  1  0  0  0  0  0  0  0  0  0
  150.9011  142.6042  157.5328 C   0  0  0  0  0  0  0  0  0  0  0  0
  149.5576  142.5909  156.9612 N   0  0  0  0  0  0  0  0  0  0  0  0
  148.6905  141.5686  157.0135 C   0  0  0  0  0  0  0  0  0  0  0  0
  148.9427  140.4909  157.5541 O   0  0  0  0  0  0  0  0  0  0  0  0
  147.3397  141.8031  156.3235 C   0  0  0  0  0  0  0  0  0  0  0  0
  147.1492  140.9748  155.1259 N   0  0  0  0  0  0  0  0  0  0  0  0
  147.2104  141.5563  153.8728 C   0  0  0  0  0  0  0  0  0  0  0  0
  147.0553  140.8653  152.7225 C   0  0  0  0  0  0  0  0  0  0  0  0
  146.8060  139.4289  152.7386 C   0  0  0  0  0  0  0  0  0  0  0  0
  146.6734  138.7608  151.7127 O   0  0  0  0  0  0  0  0  0  0  0  0
  146.7375  138.8613  154.0337 N   0  0  0  0  0  0  0  0  0  0  0  0
  146.5065  137.4377  154.1637 C   0  0  0  0  0  0  0  0  0  0  0  0
  146.9137  139.5873  155.2324 C   0  0  0  0  0  0  0  0  0  0  0  0
  146.8701  139.0398  156.3370 O   0  0  0  0  0  0  0  0  0  0  0  0
  153.9841  143.3845  164.3640 H   0  0  0  0  0  0  0  0  0  0  0  0
  152.4105  142.5874  164.3645 H   0  0  0  0  0  0  0  0  0  0  0  0
  152.6096  144.1663  163.5815 H   0  0  0  0  0  0  0  0  0  0  0  0
  151.8602  141.3415  161.9633 H   0  0  0  0  0  0  0  0  0  0  0  0
  151.5435  143.0503  161.9286 H   0  0  0  0  0  0  0  0  0  0  0  0
  153.8055  142.2766  160.1731 H   0  0  0  0  0  0  0  0  0  0  0  0
  152.3109  141.4850  159.7807 H   0  0  0  0  0  0  0  0  0  0  0  0
  151.5666  144.3891  161.2680 H   0  0  0  0  0  0  0  0  0  0  0  0
  153.0724  145.0841  160.6783 H   0  0  0  0  0  0  0  0  0  0  0  0
  150.6519  146.3063  160.2779 H   0  0  0  0  0  0  0  0  0  0  0  0
  151.9264  146.3947  159.0594 H   0  0  0  0  0  0  0  0  0  0  0  0
  149.3862  144.9485  158.8206 H   0  0  0  0  0  0  0  0  0  0  0  0
  150.6440  145.2044  157.6166 H   0  0  0  0  0  0  0  0  0  0  0  0
  150.2701  142.9480  159.5637 H   0  0  0  0  0  0  0  0  0  0  0  0
  151.6358  142.9919  156.8251 H   0  0  0  0  0  0  0  0  0  0  0  0
  151.1609  141.5635  157.6915 H   0  0  0  0  0  0  0  0  0  0  0  0
  149.2613  143.4327  156.4892 H   0  0  0  0  0  0  0  0  0  0  0  0
  146.5279  141.6255  157.0315 H   0  0  0  0  0  0  0  0  0  0  0  0
  147.2737  142.8594  156.0593 H   0  0  0  0  0  0  0  0  0  0  0  0
  147.3977  142.6182  153.8066 H   0  0  0  0  0  0  0  0  0  0  0  0
  147.1196  141.3821  151.7762 H   0  0  0  0  0  0  0  0  0  0  0  0
  145.7322  137.2894  154.9187 H   0  0  0  0  0  0  0  0  0  0  0  0
  147.4533  136.9893  154.4687 H   0  0  0  0  0  0  0  0  0  0  0  0
  146.1610  137.0099  153.2230 H   0  0  0  0  0  0  0  0  0  0  0  0
  1  2  1  0  0  0  0
  1 24  1  0  0  0  0
  1 25  1  0  0  0  0
  1 26  1  0  0  0  0
  2  3  1  0  0  0  0
  3  4  1  0  0  0  0
  3 27  1  0  0  0  0
  3 28  1  0  0  0  0
  4  5  1  0  0  0  0
  4 29  1  0  0  0  0
  4 30  1  0  0  0  0
  5  9  1  0  0  0  0
  5  6  1  0  0  0  0
  6  7  1  0  0  0  0
  6 31  1  0  0  0  0
  6 32  1  0  0  0  0
  7  8  1  0  0  0  0
  7 33  1  0  0  0  0
  7 34  1  0  0  0  0
  8  9  1  0  0  0  0
  8 35  1  0  0  0  0
  8 36  1  0  0  0  0
  9 10  1  0  0  0  0
  9 37  1  0  0  0  0
 10 11  1  0  0  0  0
 10 38  1  0  0  0  0
 10 39  1  0  0  0  0
 11 12  1  0  0  0  0
 11 40  1  0  0  0  0
 12 13  2  0  0  0  0
 12 14  1  0  0  0  0
 14 15  1  0  0  0  0
 14 41  1  0  0  0  0
 14 42  1  0  0  0  0
 15 22  1  0  0  0  0
 15 16  1  0  0  0  0
 16 17  2  0  0  0  0
 16 43  1  0  0  0  0
 17 18  1  0  0  0  0
 17 44  1  0  0  0  0
 18 19  2  0  0  0  0
 18 20  1  0  0  0  0
 20 21  1  0  0  0  0
 20 22  1  0  0  0  0
 21 45  1  0  0  0  0
 21 46  1  0  0  0  0
 21 47  1  0  0  0  0
 22 23  2  0  0  0  0
M  END
> <s_m_source_file>
AV-unprocessed.smi

> <i_m_source_file_index>
1088

> <i_lp_mmshare_version>
43012

> <i_f3d_flags>
0

> <s_epik_input>
W0NIM11PW0NIMl1bQ0gyXU4xW0NIMl1bQ0gyXVtDSDJdW0NASF0xW0NIMl1bTkhdQyg9TylbQ0gyXW4yW2NIXVtjSF1jKD1PKW4oW0NIM10pYzI9Tw==

> <s_epik_cmdline>
J2VwaWtfcHl0aG9uJywgJy1waCcsICc3LjAnLCAnLXRuJywgJzgnLCAnLW1hJywgJzIwMCcsICctbWV0YWxfYmluZGluZycsICctaW1hZScsICc8aW5maWxlLm1hZT4nLCAnLW9tYWUnLCAnPG91dGZpbGUubWFlPic=

> <r_lp_tautomer_probability>
1

> <r_epik_Ionization_Penalty>
2.28131

> <r_epik_Ionization_Penalty_Charging>
1.22971e-08

> <r_epik_Ionization_Penalty_Neutral>
2.28131

> <r_epik_State_Penalty>
2.43063

> <r_epik_Charging_Adjusted_Penalty>
2.43063

> <i_epik_Tot_Q>
0

> <i_epik_Tot_abs_Q>
0

> <r_epik_Metal_State_Penalty>
2.43056

> <b_epik_Metal_Only>
0

> <s_lp_Force_Field>
OPLS_2005

> <r_lp_Energy>
52.4092

> <b_lp_Chiralities_Consistent>
1

> <s_lp_Variant>
AV-unprocessed.smi:1088-5

> <Gold.Version>
5.8.1

> <Gold.Id.Protein>
6NUR|6NUR_protein|mol2

> <Gold.PLP.Fitness>
41.4442

> <Gold.PLP.PLP>
-40.8019

> <Gold.PLP.part.hbond>
-2.0000

> <Gold.PLP.part.metal>
0.0000

> <Gold.PLP.part.buried>
-4.4686

> <Gold.PLP.part.nonpolar>
-32.0537

> <Gold.PLP.part.repulsive>
0.3862

> <Gold.PLP.ligand.clash>
0.0000

> <Gold.PLP.ligand.torsion>
1.2185

> <Gold.PLP.Chemscore.Hbond>
1.0000

> <Gold.PLP.Chemscore.CHOScore>
0.0000

> <Gold.PLP.Chemscore.Metal>
0.0000

> <Gold.Chemscore.Hbonds>
donor molecule, donor type, donor heavy atom, donor atom, acceptor molecule, acceptor atom, score
      L1  H    11    40       P1  8028  1.00

> <Gold.PLP.Chemscore.Internal.Correction>
0.0793

> <Gold.Rescore>
     Score         DG    S(hbond)    S(metal)    S(lipo)     H(rot)  DE(clash)    DE(int)     intcor
     14.13     -17.96       1.78        0.00     110.52       2.49       1.35       2.48       ----

> <Gold.Chemscore.Fitness>
14.1285

> <Gold.Chemscore.DG>
-17.9586

> <Gold.Chemscore.ZeroCoef>
-5.4800

> <Gold.Chemscore.Hbond>
1.7760

> <Gold.Chemscore.Metal>
0.0000

> <Gold.Chemscore.Lipo>
110.5218

> <Gold.Chemscore.Internal_Hbond>
0.0000

> <Gold.Chemscore.DEClash>
1.3455

> <Gold.Chemscore.DEInternal>
2.4846

> <Gold.Chemscore.Rot>
2.4938

> <Gold.Chemscore.Internal.Correction>
   9.000000E+99

> <Gold.Chemscore.Hbonds>
donor molecule, donor type, donor heavy atom, donor atom, acceptor molecule, acceptor atom, score
      L1  H    11    40       P1  8028  0.97
      P1  H  7954  7966       L1    19  0.01

> <Gold.Chemscore.Hbond.Weighted>
-5.9317

> <Gold.Chemscore.Metal.Weighted>
-0.0000

> <Gold.Chemscore.Lipo.Weighted>
-12.9310

> <Gold.Chemscore.Internal_Hbond.Weighted>
0.0000

> <Gold.Chemscore.DEClash.Weighted>
1.3455

> <Gold.Chemscore.DEInternal.Weighted>
2.4846

> <Gold.Chemscore.Rot.Weighted>
6.3841

> <Gold.Chemscore.Internal.Correction.Weighted>
   9.000000E+99

> <Gold.Protein.RotatedTorsions>
[ 6907 6896 6895 6894 ] final  100.92 input  -60.11 | X-H torsion
[ 7974 7965 7964 7962 ] final   51.09 input  175.53 | X-H torsion
[ 8008 7997 7996 7995 ] final  -43.27 input   59.86 | X-H torsion
[ 10167 10162 10161 10158 ] final   12.97 input  -65.29 | X-H torsion
[ 10718 10713 10712 10709 ] final  -87.20 input   66.30 | X-H torsion
[ 10763 10752 10751 10750 ] final -175.74 input  -60.55 | X-H torsion
[ 11005 11000 10999 10996 ] final  105.46 input  -57.11 | X-H torsion

> <Gold.Protein.ActiveResidues>
 VAL166  LYS551  ARG553  GLY616  TRP617  ASP618  TYR619  PRO620  LYS621  CYS622 
 ASP623  PHE694  ASN695  SER759  ASP760  ASP761  ALA762  ILE779  LEU786  VAL792 
 PHE793  MET794  SER795  GLU796  ALA797  LYS798  CYS799  TRP800  GLU811  SER814 

> <Gold.Protein.RotatedAtoms>
  152.5361  134.0204  159.7978 H   0  0  0  0  0  0  0  0  0  0  0  0  # atno 6907 bound_to 6896
  151.0391  133.5714  159.2660 H   0  0  0  0  0  0  0  0  0  0  0  0  # atno 6908 bound_to 6896
  151.2690  135.0686  159.9180 H   0  0  0  0  0  0  0  0  0  0  0  0  # atno 6909 bound_to 6896
  145.9947  139.4376  143.0051 H   0  0  0  0  0  0  0  0  0  0  0  0  # atno 7974 bound_to 7965
  154.3997  140.1452  156.3491 H   0  0  0  0  0  0  0  0  0  0  0  0  # atno 8008 bound_to 7997
  155.8286  140.3466  155.5537 H   0  0  0  0  0  0  0  0  0  0  0  0  # atno 8009 bound_to 7997
  155.8212  140.0898  157.1838 H   0  0  0  0  0  0  0  0  0  0  0  0  # atno 8010 bound_to 7997
  140.6033  143.8559  150.6988 H   0  0  0  0  0  0  0  0  0  0  0  0  # atno 10167 bound_to 10162
  155.9986  130.4792  150.4831 H   0  0  0  0  0  0  0  0  0  0  0  0  # atno 10718 bound_to 10713
  154.5808  135.2836  155.0735 H   0  0  0  0  0  0  0  0  0  0  0  0  # atno 10763 bound_to 10752
  154.2072  135.6414  153.5108 H   0  0  0  0  0  0  0  0  0  0  0  0  # atno 10764 bound_to 10752
  153.0087  135.5483  154.6461 H   0  0  0  0  0  0  0  0  0  0  0  0  # atno 10765 bound_to 10752
  139.8802  134.9336  156.5517 H   0  0  0  0  0  0  0  0  0  0  0  0  # atno 11005 bound_to 11000
  145.7577  140.9948  143.1216 LP  0  0  0  0  0  0  0  0  0  0  0  0  # atno 17320 bound_to 7965
  144.6900  139.9292  143.7471 LP  0  0  0  0  0  0  0  0  0  0  0  0  # atno 17321 bound_to 7965
  140.2110  143.3883  152.1718 LP  0  0  0  0  0  0  0  0  0  0  0  0  # atno 17342 bound_to 10162
  139.5307  144.7155  151.5068 LP  0  0  0  0  0  0  0  0  0  0  0  0  # atno 17343 bound_to 10162
  157.2834  131.0611  151.2182 LP  0  0  0  0  0  0  0  0  0  0  0  0  # atno 17370 bound_to 10713
  157.3220  130.6942  149.6275 LP  0  0  0  0  0  0  0  0  0  0  0  0  # atno 17371 bound_to 10713
  140.8235  133.8335  155.8917 LP  0  0  0  0  0  0  0  0  0  0  0  0  # atno 17394 bound_to 11000
  140.9396  134.1918  157.4807 LP  0  0  0  0  0  0  0  0  0  0  0  0  # atno 17395 bound_to 11000

$$$$
