AV-unprocessed.smi:281|AV-procd|sdf|2101|dock8
  -GOLD-   2262021393D 1   1.00000     0.00000
 Structure written by MMmdl.
 55 59  0  0  0  0  0  0  0  0  1 V2000
  147.4969  141.9798  153.9140 C   0  0  0  0  0  0  0  0  0  0  0  0
  148.2281  140.6453  154.0914 C   0  0  2  0  0  0  0  0  0  0  0  0
  147.2510  139.4731  154.2741 C   0  0  0  0  0  0  0  0  0  0  0  0
  147.9964  138.2520  154.5379 N   0  0  0  0  0  0  0  0  0  0  0  0
  147.2288  137.1422  154.5346 C   0  0  0  0  0  0  0  0  0  0  0  0
  147.2505  136.2943  155.5965 N   0  0  0  0  0  0  0  0  0  0  0  0
  146.4867  135.1974  155.5877 C   0  0  0  0  0  0  0  0  0  0  0  0
  145.6481  134.7712  154.6401 N   0  0  0  0  0  0  0  0  0  0  0  0
  145.6243  135.6255  153.5765 C   0  0  0  0  0  0  0  0  0  0  0  0
  146.3793  136.8238  153.4440 C   0  0  0  0  0  0  0  0  0  0  0  0
  146.1037  137.4320  152.2264 N   0  0  0  0  0  0  0  0  0  0  0  0
  145.2329  136.6357  151.6679 C   0  0  0  0  0  0  0  0  0  0  0  0
  144.8820  135.5312  152.4124 N   0  0  0  0  0  0  0  0  0  0  0  0
  143.9376  134.4901  152.0381 C   0  0  0  0  0  0  0  0  0  0  0  0
  144.3660  133.6935  150.7836 C   0  0  1  0  0  0  0  0  0  0  0  0
  144.1896  134.5056  149.6360 O   0  0  0  0  0  0  0  0  0  0  0  0
  145.8138  133.2102  150.8152 C   0  0  0  0  0  0  0  0  0  0  0  0
  145.7507  131.8935  150.0542 C   0  0  0  0  0  0  0  0  0  0  0  0
  144.5246  131.3411  150.5006 O   0  0  0  0  0  0  0  0  0  0  0  0
  143.5658  132.3899  150.5880 C   0  0  0  0  0  0  0  0  0  0  0  0
  148.8672  138.3702  155.6998 C   0  0  0  0  0  0  0  0  0  0  0  0
  149.8278  139.5728  155.5525 C   0  0  2  0  0  0  0  0  0  0  0  0
  150.9348  139.3531  154.5108 C   0  0  0  0  0  0  0  0  0  0  0  0
  152.2059  139.1891  155.3337 C   0  0  0  0  0  0  0  0  0  0  0  0
  151.9658  140.0327  156.4442 O   0  0  0  0  0  0  0  0  0  0  0  0
  150.6296  139.7917  156.8582 C   0  0  1  0  0  0  0  0  0  0  0  0
  150.1351  140.9226  157.7712 C   0  0  0  0  0  0  0  0  0  0  0  0
  149.0670  140.7486  155.2433 O   0  0  0  0  0  0  0  0  0  0  0  0
  146.8472  141.9576  153.0386 H   0  0  0  0  0  0  0  0  0  0  0  0
  148.2056  142.7975  153.7813 H   0  0  0  0  0  0  0  0  0  0  0  0
  146.8804  142.2110  154.7833 H   0  0  0  0  0  0  0  0  0  0  0  0
  148.8388  140.4700  153.2051 H   0  0  0  0  0  0  0  0  0  0  0  0
  146.5715  139.6751  155.1037 H   0  0  0  0  0  0  0  0  0  0  0  0
  146.6411  139.3500  153.3778 H   0  0  0  0  0  0  0  0  0  0  0  0
  146.5567  134.5721  156.4654 H   0  0  0  0  0  0  0  0  0  0  0  0
  144.8170  136.8366  150.6915 H   0  0  0  0  0  0  0  0  0  0  0  0
  143.8230  133.8168  152.8888 H   0  0  0  0  0  0  0  0  0  0  0  0
  142.9607  134.9491  151.8793 H   0  0  0  0  0  0  0  0  0  0  0  0
  144.8239  134.2470  148.9848 H   0  0  0  0  0  0  0  0  0  0  0  0
  146.5262  133.9198  150.3916 H   0  0  0  0  0  0  0  0  0  0  0  0
  146.1204  133.0039  151.8413 H   0  0  0  0  0  0  0  0  0  0  0  0
  145.7110  132.0612  148.9767 H   0  0  0  0  0  0  0  0  0  0  0  0
  146.5930  131.2369  150.2735 H   0  0  0  0  0  0  0  0  0  0  0  0
  142.8885  132.1878  151.4185 H   0  0  0  0  0  0  0  0  0  0  0  0
  142.9659  132.4094  149.6766 H   0  0  0  0  0  0  0  0  0  0  0  0
  148.2551  138.5023  156.5935 H   0  0  0  0  0  0  0  0  0  0  0  0
  149.4329  137.4469  155.8339 H   0  0  0  0  0  0  0  0  0  0  0  0
  150.7541  138.5031  153.8519 H   0  0  0  0  0  0  0  0  0  0  0  0
  151.0455  140.2378  153.8829 H   0  0  0  0  0  0  0  0  0  0  0  0
  152.3268  138.1579  155.6698 H   0  0  0  0  0  0  0  0  0  0  0  0
  153.1029  139.4839  154.7889 H   0  0  0  0  0  0  0  0  0  0  0  0
  150.6460  138.8640  157.4338 H   0  0  0  0  0  0  0  0  0  0  0  0
  149.1016  140.7557  158.0753 H   0  0  0  0  0  0  0  0  0  0  0  0
  150.1889  141.8912  157.2737 H   0  0  0  0  0  0  0  0  0  0  0  0
  150.7422  140.9831  158.6747 H   0  0  0  0  0  0  0  0  0  0  0  0
  1  2  1  0  0  0  0
  1 29  1  0  0  0  0
  1 30  1  0  0  0  0
  1 31  1  0  0  0  0
  2 28  1  0  0  0  0
  2  3  1  0  0  0  0
  2 32  1  0  0  0  0
  3  4  1  0  0  0  0
  3 33  1  0  0  0  0
  3 34  1  0  0  0  0
  4  5  1  0  0  0  0
  4 21  1  0  0  0  0
  5 10  1  0  0  0  0
  5  6  2  0  0  0  0
  6  7  1  0  0  0  0
  7  8  2  0  0  0  0
  7 35  1  0  0  0  0
  8  9  1  0  0  0  0
  9 13  1  0  0  0  0
  9 10  2  0  0  0  0
 10 11  1  0  0  0  0
 11 12  2  0  0  0  0
 12 13  1  0  0  0  0
 12 36  1  0  0  0  0
 13 14  1  0  0  0  0
 14 15  1  0  0  0  0
 14 37  1  0  0  0  0
 14 38  1  0  0  0  0
 15 20  1  0  0  0  0
 15 16  1  0  0  0  0
 15 17  1  0  0  0  0
 16 39  1  0  0  0  0
 17 18  1  0  0  0  0
 17 40  1  0  0  0  0
 17 41  1  0  0  0  0
 18 19  1  0  0  0  0
 18 42  1  0  0  0  0
 18 43  1  0  0  0  0
 19 20  1  0  0  0  0
 20 44  1  0  0  0  0
 20 45  1  0  0  0  0
 21 22  1  0  0  0  0
 21 46  1  0  0  0  0
 21 47  1  0  0  0  0
 22 26  1  0  0  0  0
 22 23  1  0  0  0  0
 22 28  1  0  0  0  0
 23 24  1  0  0  0  0
 23 48  1  0  0  0  0
 23 49  1  0  0  0  0
 24 25  1  0  0  0  0
 24 50  1  0  0  0  0
 24 51  1  0  0  0  0
 25 26  1  0  0  0  0
 26 27  1  0  0  0  0
 26 52  1  0  0  0  0
 27 53  1  0  0  0  0
 27 54  1  0  0  0  0
 27 55  1  0  0  0  0
M  END
> <s_m_source_file>
AV-unprocessed.smi

> <i_m_source_file_index>
281

> <i_lp_mmshare_version>
43012

> <i_f3d_flags>
0

> <s_epik_input>
W0NIM11bQ0BASF0xT1tDSDJdW0NIMl1bQ0BAXTEyW0NIMl1OKFtDSDJdW0NASF0oTzIpW0NIM10pYyhuW2NIXW4zKWMoYzM0KW5bY0hdbjRbQ0gyXVtDQEBdNShbT0hdKVtDSDJdW0NIMl1PW0NIMl01

> <s_epik_cmdline>
J2VwaWtfcHl0aG9uJywgJy1waCcsICc3LjAnLCAnLXRuJywgJzgnLCAnLW1hJywgJzIwMCcsICctbWV0YWxfYmluZGluZycsICctaW1hZScsICc8aW5maWxlLm1hZT4nLCAnLW9tYWUnLCAnPG91dGZpbGUubWFlPic=

> <r_lp_tautomer_probability>
1

> <r_epik_Ionization_Penalty>
0.00571331

> <r_epik_Ionization_Penalty_Charging>
0

> <r_epik_Ionization_Penalty_Neutral>
0.00571331

> <r_epik_State_Penalty>
0.00399586

> <r_epik_Charging_Adjusted_Penalty>
0.00399586

> <i_epik_Tot_Q>
0

> <i_epik_Tot_abs_Q>
0

> <r_epik_Metal_State_Penalty>
-0

> <b_epik_Metal_Only>
0

> <s_lp_Force_Field>
OPLS_2005

> <r_lp_Energy>
53.2983

> <b_lp_Chiralities_Consistent>
1

> <s_lp_Variant>
AV-unprocessed.smi:281-1

> <Gold.Version>
5.8.1

> <Gold.Id.Protein>
6NUR|6NUR_protein|mol2

> <Gold.PLP.Fitness>
41.8210

> <Gold.PLP.PLP>
-35.9446

> <Gold.PLP.part.hbond>
-2.6955

> <Gold.PLP.part.metal>
0.0000

> <Gold.PLP.part.buried>
-3.2839

> <Gold.PLP.part.nonpolar>
-31.1350

> <Gold.PLP.part.repulsive>
0.7179

> <Gold.PLP.ligand.clash>
0.0000

> <Gold.PLP.ligand.torsion>
0.1964

> <Gold.PLP.Chemscore.Hbond>
1.0508

> <Gold.PLP.Chemscore.CHOScore>
1.0000

> <Gold.PLP.Chemscore.Metal>
0.0000

> <Gold.Chemscore.Hbonds>
donor molecule, donor type, donor heavy atom, donor atom, acceptor molecule, acceptor atom, score
      L1  H    16    39       P1  7921  0.96
      L1  C    12    36       P1 10171  1.00

> <Gold.PLP.Chemscore.Internal.Correction>
0.1170

> <Gold.Rescore>
     Score         DG    S(hbond)    S(metal)    S(lipo)     H(rot)  DE(clash)    DE(int)     intcor
     12.76     -13.31       0.99        0.00      84.49       2.09       0.36       0.18       ----

> <Gold.Chemscore.Fitness>
12.7639

> <Gold.Chemscore.DG>
-13.3098

> <Gold.Chemscore.ZeroCoef>
-5.4800

> <Gold.Chemscore.Hbond>
0.9887

> <Gold.Chemscore.Metal>
0.0000

> <Gold.Chemscore.Lipo>
84.4859

> <Gold.Chemscore.Internal_Hbond>
0.0000

> <Gold.Chemscore.DEClash>
0.3626

> <Gold.Chemscore.DEInternal>
0.1833

> <Gold.Chemscore.Rot>
2.0927

> <Gold.Chemscore.Internal.Correction>
   9.000000E+99

> <Gold.Chemscore.Hbonds>
donor molecule, donor type, donor heavy atom, donor atom, acceptor molecule, acceptor atom, score
      L1  H    16    39       P1  7921  0.91

> <Gold.Chemscore.Hbond.Weighted>
-3.3023

> <Gold.Chemscore.Metal.Weighted>
-0.0000

> <Gold.Chemscore.Lipo.Weighted>
-9.8848

> <Gold.Chemscore.Internal_Hbond.Weighted>
0.0000

> <Gold.Chemscore.DEClash.Weighted>
0.3626

> <Gold.Chemscore.DEInternal.Weighted>
0.1833

> <Gold.Chemscore.Rot.Weighted>
5.3573

> <Gold.Chemscore.Internal.Correction.Weighted>
   9.000000E+99

> <Gold.Protein.RotatedTorsions>
[ 6907 6896 6895 6894 ] final   85.63 input  -60.11 | X-H torsion
[ 7974 7965 7964 7962 ] final -179.98 input  175.53 | X-H torsion
[ 8008 7997 7996 7995 ] final -122.21 input   59.86 | X-H torsion
[ 10167 10162 10161 10158 ] final  -95.95 input  -65.29 | X-H torsion
[ 10718 10713 10712 10709 ] final   88.89 input   66.30 | X-H torsion
[ 10763 10752 10751 10750 ] final -128.33 input  -60.55 | X-H torsion
[ 11005 11000 10999 10996 ] final   44.15 input  -57.11 | X-H torsion

> <Gold.Protein.ActiveResidues>
 VAL166  LYS551  ARG553  GLY616  TRP617  ASP618  TYR619  PRO620  LYS621  CYS622 
 ASP623  PHE694  ASN695  SER759  ASP760  ASP761  ALA762  ILE779  LEU786  VAL792 
 PHE793  MET794  SER795  GLU796  ALA797  LYS798  CYS799  TRP800  GLU811  SER814 

> <Gold.Protein.RotatedAtoms>
  152.5378  134.2556  159.8915 H   0  0  0  0  0  0  0  0  0  0  0  0  # atno 6907 bound_to 6896
  151.2518  133.4340  159.2619 H   0  0  0  0  0  0  0  0  0  0  0  0  # atno 6908 bound_to 6896
  151.0533  134.9701  159.8279 H   0  0  0  0  0  0  0  0  0  0  0  0  # atno 6909 bound_to 6896
  144.7140  140.0636  143.6432 H   0  0  0  0  0  0  0  0  0  0  0  0  # atno 7974 bound_to 7965
  155.1605  140.0406  157.2841 H   0  0  0  0  0  0  0  0  0  0  0  0  # atno 8008 bound_to 7997
  154.6339  140.2531  155.7374 H   0  0  0  0  0  0  0  0  0  0  0  0  # atno 8009 bound_to 7997
  156.2499  140.2869  156.0703 H   0  0  0  0  0  0  0  0  0  0  0  0  # atno 8010 bound_to 7997
  140.2989  143.3175  152.0269 H   0  0  0  0  0  0  0  0  0  0  0  0  # atno 10167 bound_to 10162
  157.6952  131.0312  150.3342 H   0  0  0  0  0  0  0  0  0  0  0  0  # atno 10718 bound_to 10713
  154.8756  135.3932  154.3739 H   0  0  0  0  0  0  0  0  0  0  0  0  # atno 10763 bound_to 10752
  153.4495  135.7028  153.6123 H   0  0  0  0  0  0  0  0  0  0  0  0  # atno 10764 bound_to 10752
  153.4669  135.3799  155.2338 H   0  0  0  0  0  0  0  0  0  0  0  0  # atno 10765 bound_to 10752
  140.1578  134.4380  155.8338 H   0  0  0  0  0  0  0  0  0  0  0  0  # atno 11005 bound_to 11000
  145.9843  139.2965  143.1023 LP  0  0  0  0  0  0  0  0  0  0  0  0  # atno 17320 bound_to 7965
  145.8975  140.9264  143.0520 LP  0  0  0  0  0  0  0  0  0  0  0  0  # atno 17321 bound_to 7965
  139.4920  144.6471  151.6756 LP  0  0  0  0  0  0  0  0  0  0  0  0  # atno 17342 bound_to 10162
  140.5668  144.0176  150.6196 LP  0  0  0  0  0  0  0  0  0  0  0  0  # atno 17343 bound_to 10162
  156.3812  130.3881  149.7100 LP  0  0  0  0  0  0  0  0  0  0  0  0  # atno 17370 bound_to 10713
  156.4482  130.7894  151.2915 LP  0  0  0  0  0  0  0  0  0  0  0  0  # atno 17371 bound_to 10713
  141.2206  133.6900  156.7539 LP  0  0  0  0  0  0  0  0  0  0  0  0  # atno 17394 bound_to 11000
  140.2526  134.8528  157.3682 LP  0  0  0  0  0  0  0  0  0  0  0  0  # atno 17395 bound_to 11000

$$$$
