AV-unprocessed.smi:2252|AV-procd|sdf|9107|dock5
  -GOLD-   2272012313D 1   1.00000     0.00000
 Structure written by MMmdl.
 45 47  0  0  0  0  0  0  0  0  2 V2000
  152.9218  142.2234  159.8495 C   0  0  0  0  0  0  0  0  0  0  0  0
  152.3283  143.3420  159.1134 N   0  0  0  0  0  0  0  0  0  0  0  0
  152.6431  144.6700  159.2495 C   0  0  0  0  0  0  0  0  0  0  0  0
  151.8493  145.3546  158.3665 C   0  0  0  0  0  0  0  0  0  0  0  0
  151.0826  144.4171  157.7289 N   0  3  0  0  0  0  0  0  0  0  0  0
  151.3693  143.1919  158.1847 C   0  0  0  0  0  0  0  0  0  0  0  0
  150.7414  141.9185  157.7128 C   0  0  0  0  0  0  0  0  0  0  0  0
  150.6425  141.8370  156.1808 C   0  0  0  0  0  0  0  0  0  0  0  0
  149.3411  141.3371  155.7568 N   0  0  0  0  0  0  0  0  0  0  0  0
  149.1500  140.3987  154.8162 C   0  0  0  0  0  0  0  0  0  0  0  0
  150.0743  139.8675  154.1991 O   0  0  0  0  0  0  0  0  0  0  0  0
  147.6916  140.0084  154.5162 C   0  0  2  0  0  0  0  0  0  0  0  0
  147.6576  138.9766  153.3672 C   0  0  0  0  0  0  0  0  0  0  0  0
  146.9587  139.2886  152.0605 C   0  0  0  0  0  0  0  0  0  0  0  0
  146.3671  138.2713  152.9979 C   0  0  0  0  0  0  0  0  0  0  0  0
  146.8355  141.1781  154.1989 N   0  0  0  0  0  0  0  0  0  0  0  0
  147.4551  142.1936  153.3486 C   0  0  0  0  0  0  0  0  0  0  0  0
  146.5302  143.4043  153.4838 C   0  0  0  0  0  0  0  0  0  0  0  0
  145.8182  143.2044  154.8182 C   0  0  0  0  0  0  0  0  0  0  0  0
  146.4152  141.9172  155.3856 C   0  0  0  0  0  0  0  0  0  0  0  0
  153.7140  142.5943  160.5006 H   0  0  0  0  0  0  0  0  0  0  0  0
  153.3423  141.5054  159.1449 H   0  0  0  0  0  0  0  0  0  0  0  0
  152.1538  141.7408  160.4549 H   0  0  0  0  0  0  0  0  0  0  0  0
  153.3910  145.0214  159.9457 H   0  0  0  0  0  0  0  0  0  0  0  0
  151.7753  146.4102  158.1489 H   0  0  0  0  0  0  0  0  0  0  0  0
  151.3294  141.0958  158.1208 H   0  0  0  0  0  0  0  0  0  0  0  0
  149.7518  141.8618  158.1679 H   0  0  0  0  0  0  0  0  0  0  0  0
  150.7879  142.8256  155.7448 H   0  0  0  0  0  0  0  0  0  0  0  0
  151.4305  141.2007  155.7748 H   0  0  0  0  0  0  0  0  0  0  0  0
  148.5274  141.7298  156.2084 H   0  0  0  0  0  0  0  0  0  0  0  0
  147.2974  139.5320  155.4163 H   0  0  0  0  0  0  0  0  0  0  0  0
  148.5534  138.3610  153.3009 H   0  0  0  0  0  0  0  0  0  0  0  0
  146.4497  140.2462  151.9724 H   0  0  0  0  0  0  0  0  0  0  0  0
  147.4216  138.9224  151.1463 H   0  0  0  0  0  0  0  0  0  0  0  0
  146.4336  137.2237  152.7116 H   0  0  0  0  0  0  0  0  0  0  0  0
  145.4603  138.5520  153.5300 H   0  0  0  0  0  0  0  0  0  0  0  0
  148.4501  142.4400  153.7244 H   0  0  0  0  0  0  0  0  0  0  0  0
  147.5512  141.8714  152.3111 H   0  0  0  0  0  0  0  0  0  0  0  0
  147.0911  144.3390  153.4519 H   0  0  0  0  0  0  0  0  0  0  0  0
  145.8031  143.4254  152.6709 H   0  0  0  0  0  0  0  0  0  0  0  0
  145.9598  144.0477  155.4950 H   0  0  0  0  0  0  0  0  0  0  0  0
  144.7462  143.0852  154.6547 H   0  0  0  0  0  0  0  0  0  0  0  0
  145.6950  141.3631  155.9884 H   0  0  0  0  0  0  0  0  0  0  0  0
  147.2777  142.1509  156.0129 H   0  0  0  0  0  0  0  0  0  0  0  0
  150.3942  144.6184  157.0144 H   0  0  0  0  0  0  0  0  0  0  0  0
  1  2  1  0  0  0  0
  1 21  1  0  0  0  0
  1 22  1  0  0  0  0
  1 23  1  0  0  0  0
  2  6  1  0  0  0  0
  2  3  1  0  0  0  0
  3  4  2  0  0  0  0
  3 24  1  0  0  0  0
  4  5  1  0  0  0  0
  4 25  1  0  0  0  0
  5  6  2  0  0  0  0
  5 45  1  0  0  0  0
  6  7  1  0  0  0  0
  7  8  1  0  0  0  0
  7 26  1  0  0  0  0
  7 27  1  0  0  0  0
  8  9  1  0  0  0  0
  8 28  1  0  0  0  0
  8 29  1  0  0  0  0
  9 10  1  0  0  0  0
  9 30  1  0  0  0  0
 10 11  2  0  0  0  0
 10 12  1  0  0  0  0
 12 13  1  0  0  0  0
 12 16  1  0  0  0  0
 12 31  1  0  0  0  0
 13 15  1  0  0  0  0
 13 14  1  0  0  0  0
 13 32  1  0  0  0  0
 14 15  1  0  0  0  0
 14 33  1  0  0  0  0
 14 34  1  0  0  0  0
 15 35  1  0  0  0  0
 15 36  1  0  0  0  0
 16 20  1  0  0  0  0
 16 17  1  0  0  0  0
 17 18  1  0  0  0  0
 17 37  1  0  0  0  0
 17 38  1  0  0  0  0
 18 19  1  0  0  0  0
 18 39  1  0  0  0  0
 18 40  1  0  0  0  0
 19 20  1  0  0  0  0
 19 41  1  0  0  0  0
 19 42  1  0  0  0  0
 20 43  1  0  0  0  0
 20 44  1  0  0  0  0
M  CHG  1   5   1
M  END
> <s_m_source_file>
AV-unprocessed.smi

> <i_m_source_file_index>
2252

> <i_lp_mmshare_version>
43012

> <i_f3d_flags>
0

> <s_epik_input>
W0NIM11uMVtjSF1bY0hdbmMxW0NIMl1bQ0gyXVtOSF1DKD1PKVtDQEhdKFtDSF0yW0NIMl1bQ0gyXTIpTjNbQ0gyXVtDSDJdW0NIMl1bQ0gyXTM=

> <s_epik_cmdline>
J2VwaWtfcHl0aG9uJywgJy1waCcsICc3LjAnLCAnLXRuJywgJzgnLCAnLW1hJywgJzIwMCcsICctbWV0YWxfYmluZGluZycsICctaW1hZScsICc8aW5maWxlLm1hZT4nLCAnLW9tYWUnLCAnPG91dGZpbGUubWFlPic=

> <r_epik_Ionization_Penalty>
2.52117

> <r_epik_Ionization_Penalty_Charging>
0

> <r_epik_Ionization_Penalty_Neutral>
2.52117

> <r_epik_State_Penalty>
2.63608

> <r_epik_Charging_Adjusted_Penalty>
2.63608

> <i_epik_Tot_Q>
1

> <i_epik_Tot_abs_Q>
1

> <r_epik_Metal_State_Penalty>
2.94973

> <b_epik_Metal_Only>
0

> <s_lp_Force_Field>
OPLS_2005

> <r_lp_Energy>
33.8127

> <b_lp_Chiralities_Consistent>
1

> <s_lp_Variant>
AV-unprocessed.smi:2252-5

> <Gold.Version>
5.8.1

> <Gold.Id.Protein>
6NUR|6NUR_protein|mol2

> <Gold.PLP.Fitness>
49.4491

> <Gold.PLP.PLP>
-42.9527

> <Gold.PLP.part.hbond>
-2.0000

> <Gold.PLP.part.metal>
0.0000

> <Gold.PLP.part.buried>
-5.3970

> <Gold.PLP.part.nonpolar>
-36.9404

> <Gold.PLP.part.repulsive>
1.4405

> <Gold.PLP.ligand.clash>
0.0000

> <Gold.PLP.ligand.torsion>
1.7833

> <Gold.PLP.Chemscore.Hbond>
2.9440

> <Gold.PLP.Chemscore.CHOScore>
0.0000

> <Gold.PLP.Chemscore.Metal>
0.0000

> <Gold.Chemscore.Hbonds>
donor molecule, donor type, donor heavy atom, donor atom, acceptor molecule, acceptor atom, score
      L1  H     5    45       P1  8028  2.00
      P1  H  7989  7998       L1    11  1.00

> <Gold.PLP.Chemscore.Internal.Correction>
1.2310

> <Gold.Rescore>
     Score         DG    S(hbond)    S(metal)    S(lipo)     H(rot)  DE(clash)    DE(int)     intcor
     12.97     -17.08       1.56        0.00      97.40       1.96       1.38       2.73       ----

> <Gold.Chemscore.Fitness>
12.9710

> <Gold.Chemscore.DG>
-17.0808

> <Gold.Chemscore.ZeroCoef>
-5.4800

> <Gold.Chemscore.Hbond>
1.5631

> <Gold.Chemscore.Metal>
0.0000

> <Gold.Chemscore.Lipo>
97.4045

> <Gold.Chemscore.Internal_Hbond>
0.0000

> <Gold.Chemscore.DEClash>
1.3822

> <Gold.Chemscore.DEInternal>
2.7276

> <Gold.Chemscore.Rot>
1.9595

> <Gold.Chemscore.Internal.Correction>
   9.000000E+99

> <Gold.Chemscore.Hbonds>
donor molecule, donor type, donor heavy atom, donor atom, acceptor molecule, acceptor atom, score
      L1  H     5    45       P1  8028  0.68
      P1  H  7989  7998       L1    11  0.93

> <Gold.Chemscore.Hbond.Weighted>
-5.2209

> <Gold.Chemscore.Metal.Weighted>
-0.0000

> <Gold.Chemscore.Lipo.Weighted>
-11.3963

> <Gold.Chemscore.Internal_Hbond.Weighted>
0.0000

> <Gold.Chemscore.DEClash.Weighted>
1.3822

> <Gold.Chemscore.DEInternal.Weighted>
2.7276

> <Gold.Chemscore.Rot.Weighted>
5.0164

> <Gold.Chemscore.Internal.Correction.Weighted>
   9.000000E+99

> <Gold.Protein.RotatedTorsions>
[ 6907 6896 6895 6894 ] final   90.16 input  -60.11 | X-H torsion
[ 7974 7965 7964 7962 ] final   89.55 input  175.53 | X-H torsion
[ 8008 7997 7996 7995 ] final   19.18 input   59.86 | X-H torsion
[ 10167 10162 10161 10158 ] final   51.10 input  -65.29 | X-H torsion
[ 10718 10713 10712 10709 ] final -158.63 input   66.30 | X-H torsion
[ 10763 10752 10751 10750 ] final  138.19 input  -60.55 | X-H torsion
[ 11005 11000 10999 10996 ] final  156.85 input  -57.11 | X-H torsion

> <Gold.Protein.ActiveResidues>
 VAL166  LYS551  ARG553  GLY616  TRP617  ASP618  TYR619  PRO620  LYS621  CYS622 
 ASP623  PHE694  ASN695  SER759  ASP760  ASP761  ALA762  ILE779  LEU786  VAL792 
 PHE793  MET794  SER795  GLU796  ALA797  LYS798  CYS799  TRP800  GLU811  SER814 

> <Gold.Protein.RotatedAtoms>
  152.5442  134.1855  159.8652 H   0  0  0  0  0  0  0  0  0  0  0  0  # atno 6907 bound_to 6896
  151.1854  133.4692  159.2602 H   0  0  0  0  0  0  0  0  0  0  0  0  # atno 6908 bound_to 6896
  151.1136  135.0052  159.8561 H   0  0  0  0  0  0  0  0  0  0  0  0  # atno 6909 bound_to 6896
  145.5309  139.2283  143.2619 H   0  0  0  0  0  0  0  0  0  0  0  0  # atno 7974 bound_to 7965
  154.9169  140.3022  155.5236 H   0  0  0  0  0  0  0  0  0  0  0  0  # atno 8008 bound_to 7997
  156.3012  140.2379  156.4150 H   0  0  0  0  0  0  0  0  0  0  0  0  # atno 8009 bound_to 7997
  154.8369  140.0415  157.1504 H   0  0  0  0  0  0  0  0  0  0  0  0  # atno 8010 bound_to 7997
  140.2655  144.3324  150.6305 H   0  0  0  0  0  0  0  0  0  0  0  0  # atno 10167 bound_to 10162
  156.5569  130.8630  151.2797 H   0  0  0  0  0  0  0  0  0  0  0  0  # atno 10718 bound_to 10713
  153.8855  135.3039  155.3446 H   0  0  0  0  0  0  0  0  0  0  0  0  # atno 10763 bound_to 10752
  154.7741  135.4870  153.9711 H   0  0  0  0  0  0  0  0  0  0  0  0  # atno 10764 bound_to 10752
  153.1327  135.6807  153.9250 H   0  0  0  0  0  0  0  0  0  0  0  0  # atno 10765 bound_to 10752
  140.1714  134.8540  157.2694 H   0  0  0  0  0  0  0  0  0  0  0  0  # atno 11005 bound_to 11000
  146.2045  140.6125  142.9087 LP  0  0  0  0  0  0  0  0  0  0  0  0  # atno 17320 bound_to 7965
  144.7626  140.5458  143.6725 LP  0  0  0  0  0  0  0  0  0  0  0  0  # atno 17321 bound_to 7965
  140.5932  143.2167  151.7214 LP  0  0  0  0  0  0  0  0  0  0  0  0  # atno 17342 bound_to 10162
  139.5004  144.3908  152.0282 LP  0  0  0  0  0  0  0  0  0  0  0  0  # atno 17343 bound_to 10162
  157.7376  130.9799  150.2205 LP  0  0  0  0  0  0  0  0  0  0  0  0  # atno 17370 bound_to 10713
  156.2834  130.3736  149.7912 LP  0  0  0  0  0  0  0  0  0  0  0  0  # atno 17371 bound_to 10713
  140.2373  134.3837  155.7495 LP  0  0  0  0  0  0  0  0  0  0  0  0  # atno 17394 bound_to 11000
  141.2217  133.7246  156.8734 LP  0  0  0  0  0  0  0  0  0  0  0  0  # atno 17395 bound_to 11000

$$$$
