#       Name:                AV-unprocessed.smi:488
#       Creating user name   scv26
#       Creation time:       Thu Mar 26 23:13:39 2020


#       File generated by GOLD software.
#

@<TRIPOS>MOLECULE
AV-unprocessed.smi:488
    53    54     1
SMALL
NO_CHARGES


@<TRIPOS>ATOM
      1 ****        -2.9708   0.6944   2.7554 C.3            1 S1                 0.0000
      2 ****        -2.4699  -0.7198   2.6374 C.2            1 S1                 0.0000
      3 ****        -1.1936  -0.8939   2.7450 N.2            1 S1                 0.0000
      4 ****        -0.6270  -2.1502   2.6430 N.am           1 S1                 0.0000
      5 ****         0.8363  -2.1595   2.7773 C.3            1 S1                 0.0000
      6 ****         1.5315  -2.1269   1.4119 C.2            1 S1                 0.0000
      7 ****         2.0484  -3.1565   0.9746 O.2            1 S1                 0.0000
      8 ****         1.5195  -0.9338   0.7824 N.am           1 S1                 0.0000
      9 ****         2.0373  -0.6366  -0.4244 C.2            1 S1                 0.0000
     10 ****         2.6142  -1.4274  -1.1741 O.2            1 S1                 0.0000
     11 ****         1.8451   0.6566  -0.7237 N.am           1 S1                 0.0000
     12 ****         2.2889   1.3139  -1.9493 C.3            1 S1                 0.0000
     13 ****         2.5261   2.8110  -1.6761 C.3            1 S1                 0.0000
     14 ****         2.9439   3.5550  -2.9546 C.3            1 S1                 0.0000
     15 ****         1.9096   3.3612  -4.0745 C.3            1 S1                 0.0000
     16 ****         1.6672   1.8694  -4.3537 C.3            1 S1                 0.0000
     17 ****         1.2530   1.1207  -3.0760 C.3            1 S1                 0.0000
     18 ****        -1.3268  -3.3021   2.4309 C.2            1 S1                 0.0000
     19 ****        -0.7818  -4.4034   2.3461 O.2            1 S1                 0.0000
     20 ****        -2.7723  -3.0974   2.3136 C.2            1 S1                 0.0000
     21 ****        -3.5427  -4.2773   2.0853 C.1            1 S1                 0.0000
     22 ****        -4.1857  -5.2220   1.9002 N.1            1 S1                 0.0000
     23 ****        -3.3400  -1.8695   2.4130 C.2            1 S1                 0.0000
     24 ****        -4.8351  -1.6063   2.2959 C.3            1 S1                 0.0000
     25 ****        -3.5762   0.8155   3.6538 H              1 S1                 0.0000
     26 ****        -3.5838   0.9622   1.8946 H              1 S1                 0.0000
     27 ****        -2.1516   1.4130   2.8097 H              1 S1                 0.0000
     28 ****         1.1697  -1.3009   3.3637 H              1 S1                 0.0000
     29 ****         1.1690  -3.0358   3.3370 H              1 S1                 0.0000
     30 ****         1.0650  -0.1779   1.2730 H              1 S1                 0.0000
     31 ****         1.3612   1.2337  -0.0515 H              1 S1                 0.0000
     32 ****         3.2380   0.8762  -2.2653 H              1 S1                 0.0000
     33 ****         1.6175   3.2636  -1.2759 H              1 S1                 0.0000
     34 ****         3.2951   2.9344  -0.9124 H              1 S1                 0.0000
     35 ****         3.0684   4.6172  -2.7426 H              1 S1                 0.0000
     36 ****         3.9163   3.1902  -3.2880 H              1 S1                 0.0000
     37 ****         0.9705   3.8378  -3.7911 H              1 S1                 0.0000
     38 ****         2.2474   3.8597  -4.9835 H              1 S1                 0.0000
     39 ****         0.8981   1.7547  -5.1179 H              1 S1                 0.0000
     40 ****         2.5752   1.4217  -4.7596 H              1 S1                 0.0000
     41 ****         1.1313   0.0600  -3.2989 H              1 S1                 0.0000
     42 ****         0.2770   1.4806  -2.7468 H              1 S1                 0.0000
     43 ****        -5.4150  -2.5287   2.2843 H              1 S1                 0.0000
     44 ****        -5.0531  -1.0653   1.3747 H              1 S1                 0.0000
     45 ****        -5.1931  -1.0123   3.1373 H              1 S1                 0.0000
     46 ****        -0.6037  -0.1026   2.9055 LP             1 S1                 0.0000
     47 ****         2.0113  -4.0007   1.5094 LP             1 S1                 0.0000
     48 ****         2.5049  -3.1478   0.0849 LP             1 S1                 0.0000
     49 ****         2.7291  -2.3824  -0.9006 LP             1 S1                 0.0000
     50 ****         2.9671  -1.1138  -2.0556 LP             1 S1                 0.0000
     51 ****         0.2116  -4.4777   2.4333 LP             1 S1                 0.0000
     52 ****        -1.3328  -5.2232   2.1900 LP             1 S1                 0.0000
     53 ****        -4.7412  -6.0380   1.7403 LP             1 S1                 0.0000
@<TRIPOS>BOND
    1    1    2 1     
    2    1   25 1     
    3    1   26 1     
    4    1   27 1     
    5    2   23 1     
    6    2    3 2     
    7    3    4 1     
    8    4    5 1     
    9    4   18 am    
   10    5    6 1     
   11    5   28 1     
   12    5   29 1     
   13    6    7 2     
   14    6    8 1     
   15    8    9 1     
   16    8   30 1     
   17    9   10 2     
   18    9   11 1     
   19   11   12 1     
   20   11   31 1     
   21   12   17 1     
   22   12   13 1     
   23   12   32 1     
   24   13   14 1     
   25   13   33 1     
   26   13   34 1     
   27   14   15 1     
   28   14   35 1     
   29   14   36 1     
   30   15   16 1     
   31   15   37 1     
   32   15   38 1     
   33   16   17 1     
   34   16   39 1     
   35   16   40 1     
   36   17   41 1     
   37   17   42 1     
   38   18   19 2     
   39   18   20 1     
   40   20   21 1     
   41   20   23 2     
   42   21   22 3     
   43   23   24 1     
   44   24   43 1     
   45   24   44 1     
   46   24   45 1     
   47    3   46 1     
   48    7   47 1     
   49    7   48 1     
   50   10   49 1     
   51   10   50 1     
   52   19   51 1     
   53   19   52 1     
   54   22   53 1     
@<TRIPOS>SUBSTRUCTURE
      1 S1             1
@<TRIPOS>SET
LONE_PAIRS      STATIC     ATOMS    <user>   **** ""
8 46 47 48 49 50 51 52 53
DONOR_HYDROGENS      STATIC     ATOMS    <user>   **** ""
2 30 31
ATOM$BLUE        STATIC     ATOMS    COLORGROUP SYSTEM
8 46 47 48 49 50 51 52 53
ATOM$RED        STATIC     ATOMS    COLORGROUP SYSTEM
2 30 31
