AV-unprocessed.smi:1269|AV-procd|sdf|5327|dock2
  -GOLD-   22720 4453D 1   1.00000     0.00000
 Structure written by MMmdl.
 43 44  0  0  0  0  0  0  0  0  1 V2000
  150.7859  139.5193  157.1634 C   0  0  0  0  0  0  0  0  0  0  0  0
  150.0167  140.5408  156.5382 O   0  0  0  0  0  0  0  0  0  0  0  0
  148.9588  140.1659  155.7355 C   0  0  0  0  0  0  0  0  0  0  0  0
  148.0886  141.1647  155.2565 C   0  0  0  0  0  0  0  0  0  0  0  0
  147.0086  140.7923  154.4332 C   0  0  0  0  0  0  0  0  0  0  0  0
  146.8308  139.4241  154.1135 C   0  0  0  0  0  0  0  0  0  0  0  0
  145.7914  138.9026  153.2935 N   0  0  0  0  0  0  0  0  0  0  0  0
  145.4536  137.6256  153.0430 C   0  0  0  0  0  0  0  0  0  0  0  0
  146.0345  136.6318  153.4769 O   0  0  0  0  0  0  0  0  0  0  0  0
  144.3762  137.5651  152.2463 N   0  0  0  0  0  0  0  0  0  0  0  0
  143.7030  136.3443  151.8052 C   0  0  2  0  0  0  0  0  0  0  0  0
  143.1812  135.5911  153.0364 C   0  0  0  0  0  0  0  0  0  0  0  0
  144.6737  135.4645  150.9875 C   0  0  0  0  0  0  0  0  0  0  0  0
  144.6168  134.0285  151.2648 N   0  0  0  0  0  0  0  0  0  0  0  0
  145.8718  133.5073  151.8034 C   0  0  0  0  0  0  0  0  0  0  0  0
  145.7927  131.9951  152.0753 C   0  0  0  0  0  0  0  0  0  0  0  0
  145.4320  131.3123  150.8790 O   0  0  0  0  0  0  0  0  0  0  0  0
  144.1919  131.7621  150.3429 C   0  0  0  0  0  0  0  0  0  0  0  0
  144.2675  133.2738  150.0666 C   0  0  0  0  0  0  0  0  0  0  0  0
  147.7572  138.5041  154.6473 C   0  0  0  0  0  0  0  0  0  0  0  0
  148.7948  138.8542  155.4358 N   0  0  0  0  0  0  0  0  0  0  0  0
  151.5762  139.9764  157.7586 H   0  0  0  0  0  0  0  0  0  0  0  0
  151.2608  138.8699  156.4263 H   0  0  0  0  0  0  0  0  0  0  0  0
  150.1755  138.9131  157.8343 H   0  0  0  0  0  0  0  0  0  0  0  0
  148.2471  142.2013  155.5149 H   0  0  0  0  0  0  0  0  0  0  0  0
  146.3511  141.5664  154.0729 H   0  0  0  0  0  0  0  0  0  0  0  0
  145.2092  139.6000  152.8533 H   0  0  0  0  0  0  0  0  0  0  0  0
  143.9701  138.4365  151.9390 H   0  0  0  0  0  0  0  0  0  0  0  0
  142.8306  136.5931  151.2001 H   0  0  0  0  0  0  0  0  0  0  0  0
  142.6548  134.6818  152.7447 H   0  0  0  0  0  0  0  0  0  0  0  0
  142.4833  136.2056  153.6064 H   0  0  0  0  0  0  0  0  0  0  0  0
  143.9952  135.3047  153.7034 H   0  0  0  0  0  0  0  0  0  0  0  0
  144.4566  135.6282  149.9308 H   0  0  0  0  0  0  0  0  0  0  0  0
  145.6950  135.8189  151.1358 H   0  0  0  0  0  0  0  0  0  0  0  0
  146.6856  133.7060  151.1043 H   0  0  0  0  0  0  0  0  0  0  0  0
  146.1287  134.0133  152.7328 H   0  0  0  0  0  0  0  0  0  0  0  0
  146.7560  131.6210  152.4226 H   0  0  0  0  0  0  0  0  0  0  0  0
  145.0638  131.7821  152.8589 H   0  0  0  0  0  0  0  0  0  0  0  0
  143.9829  131.2181  149.4216 H   0  0  0  0  0  0  0  0  0  0  0  0
  143.3833  131.5366  151.0400 H   0  0  0  0  0  0  0  0  0  0  0  0
  143.3064  133.6154  149.6808 H   0  0  0  0  0  0  0  0  0  0  0  0
  145.0030  133.4616  149.2827 H   0  0  0  0  0  0  0  0  0  0  0  0
  147.6649  137.4488  154.4347 H   0  0  0  0  0  0  0  0  0  0  0  0
  1  2  1  0  0  0  0
  1 22  1  0  0  0  0
  1 23  1  0  0  0  0
  1 24  1  0  0  0  0
  2  3  1  0  0  0  0
  3 21  1  0  0  0  0
  3  4  2  0  0  0  0
  4  5  1  0  0  0  0
  4 25  1  0  0  0  0
  5  6  2  0  0  0  0
  5 26  1  0  0  0  0
  6  7  1  0  0  0  0
  6 20  1  0  0  0  0
  7  8  1  0  0  0  0
  7 27  1  0  0  0  0
  8  9  2  0  0  0  0
  8 10  1  0  0  0  0
 10 11  1  0  0  0  0
 10 28  1  0  0  0  0
 11 12  1  0  0  0  0
 11 13  1  0  0  0  0
 11 29  1  0  0  0  0
 12 30  1  0  0  0  0
 12 31  1  0  0  0  0
 12 32  1  0  0  0  0
 13 14  1  0  0  0  0
 13 33  1  0  0  0  0
 13 34  1  0  0  0  0
 14 19  1  0  0  0  0
 14 15  1  0  0  0  0
 15 16  1  0  0  0  0
 15 35  1  0  0  0  0
 15 36  1  0  0  0  0
 16 17  1  0  0  0  0
 16 37  1  0  0  0  0
 16 38  1  0  0  0  0
 17 18  1  0  0  0  0
 18 19  1  0  0  0  0
 18 39  1  0  0  0  0
 18 40  1  0  0  0  0
 19 41  1  0  0  0  0
 19 42  1  0  0  0  0
 20 21  2  0  0  0  0
 20 43  1  0  0  0  0
M  END
> <s_m_source_file>
AV-unprocessed.smi

> <i_m_source_file_index>
1269

> <i_lp_mmshare_version>
43012

> <i_f3d_flags>
0

> <s_epik_input>
W0NIM11PYzFbY0hdW2NIXWMoW2NIXW4xKVtOSF1DKD1PKVtOSF1bQ0BIXShbQ0gzXSlbQ0gyXU4yW0NIMl1bQ0gyXU9bQ0gyXVtDSDJdMg==

> <s_epik_cmdline>
J2VwaWtfcHl0aG9uJywgJy1waCcsICc3LjAnLCAnLXRuJywgJzgnLCAnLW1hJywgJzIwMCcsICctbWV0YWxfYmluZGluZycsICctaW1hZScsICc8aW5maWxlLm1hZT4nLCAnLW9tYWUnLCAnPG91dGZpbGUubWFlPic=

> <r_lp_tautomer_probability>
1

> <r_epik_Ionization_Penalty>
0.266086

> <r_epik_Ionization_Penalty_Charging>
0

> <r_epik_Ionization_Penalty_Neutral>
0.266086

> <r_epik_State_Penalty>
0.257924

> <r_epik_Charging_Adjusted_Penalty>
0.257924

> <i_epik_Tot_Q>
0

> <i_epik_Tot_abs_Q>
0

> <r_epik_Metal_State_Penalty>
0.25792

> <b_epik_Metal_Only>
0

> <s_lp_Force_Field>
OPLS_2005

> <r_lp_Energy>
28.3998

> <b_lp_Chiralities_Consistent>
1

> <s_lp_Variant>
AV-unprocessed.smi:1269-1

> <Gold.Version>
5.8.1

> <Gold.Id.Protein>
6NUR|6NUR_protein|mol2

> <Gold.PLP.Fitness>
43.6209

> <Gold.PLP.PLP>
-36.7504

> <Gold.PLP.part.hbond>
-4.0000

> <Gold.PLP.part.metal>
0.0000

> <Gold.PLP.part.buried>
-5.6750

> <Gold.PLP.part.nonpolar>
-29.4459

> <Gold.PLP.part.repulsive>
1.9445

> <Gold.PLP.ligand.clash>
0.0000

> <Gold.PLP.ligand.torsion>
1.4269

> <Gold.PLP.Chemscore.Hbond>
2.2148

> <Gold.PLP.Chemscore.CHOScore>
0.9960

> <Gold.PLP.Chemscore.Metal>
0.0000

> <Gold.Chemscore.Hbonds>
donor molecule, donor type, donor heavy atom, donor atom, acceptor molecule, acceptor atom, score
      L1  H     7    27       P1 10175  1.00
      L1  H    10    28       P1 10175  0.79

> <Gold.PLP.Chemscore.Internal.Correction>
0.0919

> <Gold.Rescore>
     Score         DG    S(hbond)    S(metal)    S(lipo)     H(rot)  DE(clash)    DE(int)     intcor
     12.57     -16.30       1.96        0.00      74.18       1.72       0.26       3.48       ----

> <Gold.Chemscore.Fitness>
12.5691

> <Gold.Chemscore.DG>
-16.3026

> <Gold.Chemscore.ZeroCoef>
-5.4800

> <Gold.Chemscore.Hbond>
1.9591

> <Gold.Chemscore.Metal>
0.0000

> <Gold.Chemscore.Lipo>
74.1837

> <Gold.Chemscore.Internal_Hbond>
0.0000

> <Gold.Chemscore.DEClash>
0.2566

> <Gold.Chemscore.DEInternal>
3.4769

> <Gold.Chemscore.Rot>
1.7189

> <Gold.Chemscore.Internal.Correction>
   9.000000E+99

> <Gold.Chemscore.Hbonds>
donor molecule, donor type, donor heavy atom, donor atom, acceptor molecule, acceptor atom, score
      L1  H     7    27       P1 10175  0.99
      L1  H    10    28       P1 10175  0.74

> <Gold.Chemscore.Hbond.Weighted>
-6.5436

> <Gold.Chemscore.Metal.Weighted>
-0.0000

> <Gold.Chemscore.Lipo.Weighted>
-8.6795

> <Gold.Chemscore.Internal_Hbond.Weighted>
0.0000

> <Gold.Chemscore.DEClash.Weighted>
0.2566

> <Gold.Chemscore.DEInternal.Weighted>
3.4769

> <Gold.Chemscore.Rot.Weighted>
4.4004

> <Gold.Chemscore.Internal.Correction.Weighted>
   9.000000E+99

> <Gold.Protein.RotatedTorsions>
[ 6907 6896 6895 6894 ] final   92.64 input  -60.11 | X-H torsion
[ 7974 7965 7964 7962 ] final  -75.94 input  175.53 | X-H torsion
[ 8008 7997 7996 7995 ] final  -66.67 input   59.86 | X-H torsion
[ 10167 10162 10161 10158 ] final   96.35 input  -65.29 | X-H torsion
[ 10718 10713 10712 10709 ] final  -24.71 input   66.30 | X-H torsion
[ 10763 10752 10751 10750 ] final  -14.07 input  -60.55 | X-H torsion
[ 11005 11000 10999 10996 ] final -110.95 input  -57.11 | X-H torsion

> <Gold.Protein.ActiveResidues>
 VAL166  LYS551  ARG553  GLY616  TRP617  ASP618  TYR619  PRO620  LYS621  CYS622 
 ASP623  PHE694  ASN695  SER759  ASP760  ASP761  ALA762  ILE779  LEU786  VAL792 
 PHE793  MET794  SER795  GLU796  ALA797  LYS798  CYS799  TRP800  GLU811  SER814 

> <Gold.Protein.RotatedAtoms>
  152.5453  134.1471  159.8502 H   0  0  0  0  0  0  0  0  0  0  0  0  # atno 6907 bound_to 6896
  151.1502  133.4906  159.2603 H   0  0  0  0  0  0  0  0  0  0  0  0  # atno 6908 bound_to 6896
  151.1481  135.0224  159.8711 H   0  0  0  0  0  0  0  0  0  0  0  0  # atno 6909 bound_to 6896
  145.6194  140.9367  143.1146 H   0  0  0  0  0  0  0  0  0  0  0  0  # atno 7974 bound_to 7965
  154.4749  140.0908  156.7238 H   0  0  0  0  0  0  0  0  0  0  0  0  # atno 8008 bound_to 7997
  155.4622  140.3461  155.4296 H   0  0  0  0  0  0  0  0  0  0  0  0  # atno 8009 bound_to 7997
  156.1101  140.1445  156.9339 H   0  0  0  0  0  0  0  0  0  0  0  0  # atno 8010 bound_to 7997
  139.7902  144.6855  150.9903 H   0  0  0  0  0  0  0  0  0  0  0  0  # atno 10167 bound_to 10162
  156.4740  130.4530  149.6852 H   0  0  0  0  0  0  0  0  0  0  0  0  # atno 10718 bound_to 10713
  153.5227  135.7015  153.5723 H   0  0  0  0  0  0  0  0  0  0  0  0  # atno 10763 bound_to 10752
  153.3765  135.3931  155.1826 H   0  0  0  0  0  0  0  0  0  0  0  0  # atno 10764 bound_to 10752
  154.8693  135.3824  154.4717 H   0  0  0  0  0  0  0  0  0  0  0  0  # atno 10765 bound_to 10752
  141.0762  133.9297  157.2384 H   0  0  0  0  0  0  0  0  0  0  0  0  # atno 11005 bound_to 11000
  144.7237  139.7945  143.7373 LP  0  0  0  0  0  0  0  0  0  0  0  0  # atno 17320 bound_to 7965
  146.1443  139.4508  143.0089 LP  0  0  0  0  0  0  0  0  0  0  0  0  # atno 17321 bound_to 7965
  140.7820  143.4389  151.0582 LP  0  0  0  0  0  0  0  0  0  0  0  0  # atno 17342 bound_to 10162
  139.8066  143.8009  152.3168 LP  0  0  0  0  0  0  0  0  0  0  0  0  # atno 17343 bound_to 10162
  156.3589  130.7471  151.2441 LP  0  0  0  0  0  0  0  0  0  0  0  0  # atno 17370 bound_to 10713
  157.7489  131.0356  150.4369 LP  0  0  0  0  0  0  0  0  0  0  0  0  # atno 17371 bound_to 10713
  139.9574  135.0162  156.9168 LP  0  0  0  0  0  0  0  0  0  0  0  0  # atno 17394 bound_to 11000
  140.5568  134.0574  155.7386 LP  0  0  0  0  0  0  0  0  0  0  0  0  # atno 17395 bound_to 11000

$$$$
