AV-unprocessed.smi:3294|AV-procd|sdf|12633|dock5
  -GOLD-   2272018573D 1   1.00000     0.00000
 Structure written by MMmdl.
 37 39  0  0  0  0  0  0  0  0  1 V2000
  153.3584  140.9199  160.1729 C   0  0  0  0  0  0  0  0  0  0  0  0
  152.8109  142.0371  159.3089 C   0  0  0  0  0  0  0  0  0  0  0  0
  151.6653  141.8381  158.5095 C   0  0  0  0  0  0  0  0  0  0  0  0
  151.1947  142.9148  157.7197 C   0  0  0  0  0  0  0  0  0  0  0  0
  150.0434  142.8483  156.8887 N   0  0  0  0  0  0  0  0  0  0  0  0
  149.4039  141.7586  156.4295 C   0  0  0  0  0  0  0  0  0  0  0  0
  149.7487  140.5946  156.6330 O   0  0  0  0  0  0  0  0  0  0  0  0
  148.3361  142.1007  155.6912 N   0  0  0  0  0  0  0  0  0  0  0  0
  147.4071  141.1904  155.0230 C   0  0  0  0  0  0  0  0  0  0  0  0
  148.0539  140.3344  153.9434 C   0  0  0  0  0  0  0  0  0  0  0  0
  147.2405  139.3672  153.1167 C   0  0  0  0  0  0  0  0  0  0  0  0
  148.2348  138.8477  154.1308 C   0  0  0  0  0  0  0  0  0  0  0  0
  146.1521  141.8717  154.4975 C   0  0  0  0  0  0  0  0  0  0  0  0
  146.2280  143.1884  153.7623 C   0  0  0  0  0  0  0  0  0  0  0  0
  145.6131  143.1266  155.1424 C   0  0  0  0  0  0  0  0  0  0  0  0
  151.8827  144.1434  157.7941 C   0  0  0  0  0  0  0  0  0  0  0  0
  153.0174  144.2370  158.6244 C   0  0  0  0  0  0  0  0  0  0  0  0
  153.4795  143.2094  159.3670 N   0  0  0  0  0  0  0  0  0  0  0  0
  152.8174  139.9882  160.0050 H   0  0  0  0  0  0  0  0  0  0  0  0
  153.2703  141.1798  161.2281 H   0  0  0  0  0  0  0  0  0  0  0  0
  154.4110  140.7456  159.9480 H   0  0  0  0  0  0  0  0  0  0  0  0
  151.1658  140.8815  158.5248 H   0  0  0  0  0  0  0  0  0  0  0  0
  149.6952  143.7375  156.5619 H   0  0  0  0  0  0  0  0  0  0  0  0
  148.1448  143.0858  155.5810 H   0  0  0  0  0  0  0  0  0  0  0  0
  147.0855  140.5077  155.8108 H   0  0  0  0  0  0  0  0  0  0  0  0
  148.8530  140.8405  153.4051 H   0  0  0  0  0  0  0  0  0  0  0  0
  146.1842  139.2559  153.3521 H   0  0  0  0  0  0  0  0  0  0  0  0
  147.4965  139.2701  152.0637 H   0  0  0  0  0  0  0  0  0  0  0  0
  149.1542  138.4040  153.7547 H   0  0  0  0  0  0  0  0  0  0  0  0
  147.8371  138.3989  155.0389 H   0  0  0  0  0  0  0  0  0  0  0  0
  145.3947  141.1762  154.1408 H   0  0  0  0  0  0  0  0  0  0  0  0
  147.2024  143.6641  153.6697 H   0  0  0  0  0  0  0  0  0  0  0  0
  145.5574  143.3302  152.9171 H   0  0  0  0  0  0  0  0  0  0  0  0
  144.5321  143.2269  155.2178 H   0  0  0  0  0  0  0  0  0  0  0  0
  146.1800  143.5644  155.9616 H   0  0  0  0  0  0  0  0  0  0  0  0
  151.5551  144.9995  157.2226 H   0  0  0  0  0  0  0  0  0  0  0  0
  153.5672  145.1637  158.6949 H   0  0  0  0  0  0  0  0  0  0  0  0
  1  2  1  0  0  0  0
  1 19  1  0  0  0  0
  1 20  1  0  0  0  0
  1 21  1  0  0  0  0
  2 18  1  0  0  0  0
  2  3  2  0  0  0  0
  3  4  1  0  0  0  0
  3 22  1  0  0  0  0
  4  5  1  0  0  0  0
  4 16  2  0  0  0  0
  5  6  1  0  0  0  0
  5 23  1  0  0  0  0
  6  7  2  0  0  0  0
  6  8  1  0  0  0  0
  8  9  1  0  0  0  0
  8 24  1  0  0  0  0
  9 10  1  0  0  0  0
  9 13  1  0  0  0  0
  9 25  1  0  0  0  0
 10 12  1  0  0  0  0
 10 11  1  0  0  0  0
 10 26  1  0  0  0  0
 11 12  1  0  0  0  0
 11 27  1  0  0  0  0
 11 28  1  0  0  0  0
 12 29  1  0  0  0  0
 12 30  1  0  0  0  0
 13 15  1  0  0  0  0
 13 14  1  0  0  0  0
 13 31  1  0  0  0  0
 14 15  1  0  0  0  0
 14 32  1  0  0  0  0
 14 33  1  0  0  0  0
 15 34  1  0  0  0  0
 15 35  1  0  0  0  0
 16 17  1  0  0  0  0
 16 36  1  0  0  0  0
 17 18  2  0  0  0  0
 17 37  1  0  0  0  0
M  END
> <s_m_source_file>
AV-unprocessed.smi

> <i_m_source_file_index>
3294

> <i_lp_mmshare_version>
43012

> <i_f3d_flags>
0

> <s_epik_input>
W0NIM11jMVtjSF1jKFtjSF1bY0hdbjEpW05IXUMoPU8pW05IXVtDSF0oW0NIXTJbQ0gyXVtDSDJdMilbQ0hdM1tDSDJdW0NIMl0z

> <s_epik_cmdline>
J2VwaWtfcHl0aG9uJywgJy1waCcsICc3LjAnLCAnLXRuJywgJzgnLCAnLW1hJywgJzIwMCcsICctbWV0YWxfYmluZGluZycsICctaW1hZScsICc8aW5maWxlLm1hZT4nLCAnLW9tYWUnLCAnPG91dGZpbGUubWFlPic=

> <r_epik_Ionization_Penalty>
0.389791

> <r_epik_Ionization_Penalty_Charging>
0

> <r_epik_Ionization_Penalty_Neutral>
0.389791

> <r_epik_State_Penalty>
0.388374

> <r_epik_Charging_Adjusted_Penalty>
0.388374

> <i_epik_Tot_Q>
0

> <i_epik_Tot_abs_Q>
0

> <r_epik_Metal_State_Penalty>
0.232337

> <b_epik_Metal_Only>
0

> <s_lp_Force_Field>
OPLS_2005

> <r_lp_Energy>
28.7122

> <b_lp_Chiralities_Consistent>
1

> <s_lp_Variant>
AV-unprocessed.smi:3294-1

> <Gold.Version>
5.8.1

> <Gold.Id.Protein>
6NUR|6NUR_protein|mol2

> <Gold.PLP.Fitness>
43.4530

> <Gold.PLP.PLP>
-38.4471

> <Gold.PLP.part.hbond>
-1.9530

> <Gold.PLP.part.metal>
0.0000

> <Gold.PLP.part.buried>
-3.7182

> <Gold.PLP.part.nonpolar>
-33.0441

> <Gold.PLP.part.repulsive>
0.1436

> <Gold.PLP.ligand.clash>
0.0000

> <Gold.PLP.ligand.torsion>
1.4253

> <Gold.PLP.Chemscore.Hbond>
1.8960

> <Gold.PLP.Chemscore.CHOScore>
0.0000

> <Gold.PLP.Chemscore.Metal>
0.0000

> <Gold.Chemscore.Hbonds>
donor molecule, donor type, donor heavy atom, donor atom, acceptor molecule, acceptor atom, score
      L1  H     5    23       P1  8028  1.00
      L1  H     8    24       P1  8028  0.90

> <Gold.PLP.Chemscore.Internal.Correction>
2.1684

> <Gold.Rescore>
     Score         DG    S(hbond)    S(metal)    S(lipo)     H(rot)  DE(clash)    DE(int)     intcor
     18.05     -20.67       1.88        0.00     104.15       1.28       0.07       2.55       ----

> <Gold.Chemscore.Fitness>
18.0531

> <Gold.Chemscore.DG>
-20.6667

> <Gold.Chemscore.ZeroCoef>
-5.4800

> <Gold.Chemscore.Hbond>
1.8825

> <Gold.Chemscore.Metal>
0.0000

> <Gold.Chemscore.Lipo>
104.1496

> <Gold.Chemscore.Internal_Hbond>
0.0000

> <Gold.Chemscore.DEClash>
0.0651

> <Gold.Chemscore.DEInternal>
2.5485

> <Gold.Chemscore.Rot>
1.2837

> <Gold.Chemscore.Internal.Correction>
   9.000000E+99

> <Gold.Chemscore.Hbonds>
donor molecule, donor type, donor heavy atom, donor atom, acceptor molecule, acceptor atom, score
      L1  H     5    23       P1  8028  0.94
      L1  H     8    24       P1  8028  0.78

> <Gold.Chemscore.Hbond.Weighted>
-6.2875

> <Gold.Chemscore.Metal.Weighted>
-0.0000

> <Gold.Chemscore.Lipo.Weighted>
-12.1855

> <Gold.Chemscore.Internal_Hbond.Weighted>
0.0000

> <Gold.Chemscore.DEClash.Weighted>
0.0651

> <Gold.Chemscore.DEInternal.Weighted>
2.5485

> <Gold.Chemscore.Rot.Weighted>
3.2863

> <Gold.Chemscore.Internal.Correction.Weighted>
   9.000000E+99

> <Gold.Protein.RotatedTorsions>
[ 6907 6896 6895 6894 ] final   79.24 input  -60.11 | X-H torsion
[ 7974 7965 7964 7962 ] final    8.82 input  175.53 | X-H torsion
[ 8008 7997 7996 7995 ] final    9.38 input   59.86 | X-H torsion
[ 10167 10162 10161 10158 ] final -122.04 input  -65.29 | X-H torsion
[ 10718 10713 10712 10709 ] final  145.52 input   66.30 | X-H torsion
[ 10763 10752 10751 10750 ] final   -2.36 input  -60.55 | X-H torsion
[ 11005 11000 10999 10996 ] final  147.37 input  -57.11 | X-H torsion

> <Gold.Protein.ActiveResidues>
 VAL166  LYS551  ARG553  GLY616  TRP617  ASP618  TYR619  PRO620  LYS621  CYS622 
 ASP623  PHE694  ASN695  SER759  ASP760  ASP761  ALA762  ILE779  LEU786  VAL792 
 PHE793  MET794  SER795  GLU796  ALA797  LYS798  CYS799  TRP800  GLU811  SER814 

> <Gold.Protein.RotatedAtoms>
  152.5191  134.3542  159.9261 H   0  0  0  0  0  0  0  0  0  0  0  0  # atno 6907 bound_to 6896
  151.3493  133.3925  159.2686 H   0  0  0  0  0  0  0  0  0  0  0  0  # atno 6908 bound_to 6896
  150.9740  134.9126  159.7863 H   0  0  0  0  0  0  0  0  0  0  0  0  # atno 6909 bound_to 6896
  146.2411  139.9876  142.8429 H   0  0  0  0  0  0  0  0  0  0  0  0  # atno 7974 bound_to 7965
  154.7793  140.2816  155.6076 H   0  0  0  0  0  0  0  0  0  0  0  0  # atno 8008 bound_to 7997
  156.2947  140.2626  156.2542 H   0  0  0  0  0  0  0  0  0  0  0  0  # atno 8009 bound_to 7997
  154.9804  140.0375  157.2265 H   0  0  0  0  0  0  0  0  0  0  0  0  # atno 8010 bound_to 7997
  140.0186  143.5368  152.2231 H   0  0  0  0  0  0  0  0  0  0  0  0  # atno 10167 bound_to 10162
  157.3443  131.0940  151.1056 H   0  0  0  0  0  0  0  0  0  0  0  0  # atno 10718 bound_to 10713
  153.3570  135.6988  153.6742 H   0  0  0  0  0  0  0  0  0  0  0  0  # atno 10763 bound_to 10752
  153.5446  135.3566  155.2734 H   0  0  0  0  0  0  0  0  0  0  0  0  # atno 10764 bound_to 10752
  154.8662  135.4212  154.2818 H   0  0  0  0  0  0  0  0  0  0  0  0  # atno 10765 bound_to 10752
  140.0870  134.9063  157.1591 H   0  0  0  0  0  0  0  0  0  0  0  0  # atno 11005 bound_to 11000
  145.1533  140.9635  143.4420 LP  0  0  0  0  0  0  0  0  0  0  0  0  # atno 17320 bound_to 7965
  145.0184  139.3446  143.6084 LP  0  0  0  0  0  0  0  0  0  0  0  0  # atno 17321 bound_to 7965
  139.6156  144.7618  151.2855 LP  0  0  0  0  0  0  0  0  0  0  0  0  # atno 17342 bound_to 10162
  140.7352  143.6744  150.8054 LP  0  0  0  0  0  0  0  0  0  0  0  0  # atno 17343 bound_to 10162
  157.2256  130.6501  149.5828 LP  0  0  0  0  0  0  0  0  0  0  0  0  # atno 17370 bound_to 10713
  155.9712  130.4615  150.6112 LP  0  0  0  0  0  0  0  0  0  0  0  0  # atno 17371 bound_to 10713
  140.3406  134.2708  155.7213 LP  0  0  0  0  0  0  0  0  0  0  0  0  # atno 17394 bound_to 11000
  141.2066  133.7829  157.0169 LP  0  0  0  0  0  0  0  0  0  0  0  0  # atno 17395 bound_to 11000

$$$$
