#       Name:                AV-unprocessed.smi:1875
#       Creating user name   scv26
#       Creation time:       Fri Mar 27 09:34:17 2020


#       File generated by GOLD software.
#

@<TRIPOS>MOLECULE
AV-unprocessed.smi:1875
    53    55     1
SMALL
NO_CHARGES


@<TRIPOS>ATOM
      1 ****        -4.7327   4.1177  -1.9584 C.3            1 S1                 0.0000
      2 ****        -4.5895   3.7514  -0.4956 C.ar           1 S1                 0.0000
      3 ****        -4.8589   4.7080   0.3982 N.ar           1 S1                 0.0000
      4 ****        -4.7348   4.3806   1.7029 C.ar           1 S1                 0.0000
      5 ****        -4.3385   3.0897   2.1084 C.ar           1 S1                 0.0000
      6 ****        -4.0852   2.1633   1.0752 C.ar           1 S1                 0.0000
      7 ****        -3.6358   0.7485   1.3741 C.3            1 S1                 0.0000
      8 ****        -2.1695   0.6451   1.2585 N.4            1 S1                 1.0000
      9 ****        -1.6367  -0.7126   1.4896 C.3            1 S1                 0.0000
     10 ****        -0.1027  -0.7329   1.3839 C.3            1 S1                 0.0000
     11 ****         0.4412  -0.0226   2.4801 O.3            1 S1                 0.0000
     12 ****         0.4645  -2.1674   1.3748 C.3            1 S1                 0.0000
     13 ****         1.9320  -2.2011   1.2988 N.pl3          1 S1                 0.0000
     14 ****         2.8568  -2.4137   2.2750 C.2            1 S1                 0.0000
     15 ****         4.0879  -2.3324   1.6989 N.pl3          1 S1                 1.0000
     16 ****         3.9480  -2.0698   0.3345 C.ar           1 S1                 0.0000
     17 ****         4.9007  -1.8998  -0.6630 C.ar           1 S1                 0.0000
     18 ****         4.4276  -1.6438  -1.9699 C.ar           1 S1                 0.0000
     19 ****         5.4428  -1.4522  -3.0838 C.3            1 S1                 0.0000
     20 ****         3.0367  -1.5684  -2.2412 C.ar           1 S1                 0.0000
     21 ****         2.5393  -1.2988  -3.6510 C.3            1 S1                 0.0000
     22 ****         2.0834  -1.7424  -1.2122 C.ar           1 S1                 0.0000
     23 ****         2.5671  -1.9905   0.0700 C.ar           1 S1                 0.0000
     24 ****        -4.2070   2.4986  -0.2286 N.ar           1 S1                 0.0000
     25 ****        -4.8787   5.1907  -2.0887 H              1 S1                 0.0000
     26 ****        -5.5895   3.6024  -2.3933 H              1 S1                 0.0000
     27 ****        -3.8398   3.8289  -2.5137 H              1 S1                 0.0000
     28 ****        -4.9503   5.1523   2.4270 H              1 S1                 0.0000
     29 ****        -4.2377   2.8315   3.1523 H              1 S1                 0.0000
     30 ****        -3.9486   0.4651   2.3799 H              1 S1                 0.0000
     31 ****        -4.1138   0.0575   0.6780 H              1 S1                 0.0000
     32 ****        -1.9049   0.9443   0.3307 H              1 S1                 0.0000
     33 ****        -1.9592  -1.0791   2.4654 H              1 S1                 0.0000
     34 ****        -2.0664  -1.3791   0.7405 H              1 S1                 0.0000
     35 ****         0.1997  -0.2237   0.4680 H              1 S1                 0.0000
     36 ****         0.2294  -0.4843   3.2773 H              1 S1                 0.0000
     37 ****         0.1715  -2.6983   2.2818 H              1 S1                 0.0000
     38 ****         0.0651  -2.7411   0.5374 H              1 S1                 0.0000
     39 ****         2.6532  -2.6055   3.3188 H              1 S1                 0.0000
     40 ****         5.9580  -1.9607  -0.4494 H              1 S1                 0.0000
     41 ****         5.3302  -2.2279  -3.8414 H              1 S1                 0.0000
     42 ****         6.4644  -1.5005  -2.7060 H              1 S1                 0.0000
     43 ****         5.3118  -0.4805  -3.5604 H              1 S1                 0.0000
     44 ****         1.4498  -1.2857  -3.6943 H              1 S1                 0.0000
     45 ****         2.8901  -2.0719  -4.3351 H              1 S1                 0.0000
     46 ****         2.8979  -0.3324  -4.0059 H              1 S1                 0.0000
     47 ****         1.0252  -1.6854  -1.4189 H              1 S1                 0.0000
     48 ****        -1.7516   1.2742   1.9293 H              1 S1                 0.0000
     49 ****         4.9586  -2.4475   2.2022 H              1 S1                 0.0000
     50 ****        -5.1397   5.6248   0.1139 LP             1 S1                 0.0000
     51 ****         0.0514   0.8978   2.5110 LP             1 S1                 0.0000
     52 ****         1.4344   0.0392   2.3812 LP             1 S1                 0.0000
     53 ****        -4.0200   1.8411  -0.9584 LP             1 S1                 0.0000
@<TRIPOS>BOND
    1    1    2 1     
    2    1   25 1     
    3    1   26 1     
    4    1   27 1     
    5    2   24 ar    
    6    2    3 ar    
    7    3    4 ar    
    8    4    5 ar    
    9    4   28 1     
   10    5    6 ar    
   11    5   29 1     
   12    6    7 1     
   13    6   24 ar    
   14    7    8 1     
   15    7   30 1     
   16    7   31 1     
   17    8    9 1     
   18    8   32 1     
   19    8   48 1     
   20    9   10 1     
   21    9   33 1     
   22    9   34 1     
   23   10   11 1     
   24   10   12 1     
   25   10   35 1     
   26   11   36 1     
   27   12   13 1     
   28   12   37 1     
   29   12   38 1     
   30   13   23 1     
   31   13   14 1     
   32   14   15 2     
   33   14   39 1     
   34   15   16 1     
   35   15   49 1     
   36   16   23 ar    
   37   16   17 ar    
   38   17   18 ar    
   39   17   40 1     
   40   18   19 1     
   41   18   20 ar    
   42   19   41 1     
   43   19   42 1     
   44   19   43 1     
   45   20   21 1     
   46   20   22 ar    
   47   21   44 1     
   48   21   45 1     
   49   21   46 1     
   50   22   23 ar    
   51   22   47 1     
   52    3   50 1     
   53   11   51 1     
   54   11   52 1     
   55   24   53 1     
@<TRIPOS>SUBSTRUCTURE
      1 S1             1
@<TRIPOS>SET
LONE_PAIRS      STATIC     ATOMS    <user>   **** ""
4 50 51 52 53
DONOR_HYDROGENS      STATIC     ATOMS    <user>   **** ""
4 32 48 36 49
ATOM$BLUE        STATIC     ATOMS    COLORGROUP SYSTEM
4 50 51 52 53
ATOM$RED        STATIC     ATOMS    COLORGROUP SYSTEM
4 32 48 36 49
