AV-unprocessed.smi:3173|AV-procd|sdf|12118|dock3
  -GOLD-   2272017553D 1   1.00000     0.00000
 Structure written by MMmdl.
 35 36  0  0  0  0  0  0  0  0  1 V2000
  154.9776  138.7075  158.6636 O   0  0  0  0  0  0  0  0  0  0  0  0
  154.1022  138.3845  159.4669 C   0  0  0  0  0  0  0  0  0  0  0  0
  154.1219  137.0006  160.1258 C   0  0  0  0  0  0  0  0  0  0  0  0
  154.8064  136.9827  161.5090 C   0  0  1  0  0  0  0  0  0  0  0  0
  153.9707  137.6558  162.5672 C   0  0  0  0  0  0  0  0  0  0  0  0
  153.8062  136.9016  163.6516 C   0  0  0  0  0  0  0  0  0  0  0  0
  154.4970  135.5714  163.5371 C   0  0  0  0  0  0  0  0  0  0  0  0
  155.0446  135.5638  162.0927 C   0  0  0  0  0  0  0  0  0  0  0  0
  153.0958  139.1972  159.8232 N   0  0  0  0  0  0  0  0  0  0  0  0
  152.8927  140.5499  159.3175 C   0  0  0  0  0  0  0  0  0  0  0  0
  153.2564  141.6099  160.3706 C   0  0  0  0  0  0  0  0  0  0  0  0
  152.7451  142.9886  159.9981 C   0  0  0  0  0  0  0  0  0  0  0  0
  152.1884  143.8395  160.9770 C   0  0  0  0  0  0  0  0  0  0  0  0
  151.7333  145.1117  160.5798 C   0  0  0  0  0  0  0  0  0  0  0  0
  151.8529  145.4828  159.2266 C   0  0  0  0  0  0  0  0  0  0  0  0
  152.4253  144.5613  158.3269 C   0  0  0  0  0  0  0  0  0  0  0  0
  152.8643  143.3388  158.6973 N   0  0  0  0  0  0  0  0  0  0  0  0
  153.0891  136.6642  160.2234 H   0  0  0  0  0  0  0  0  0  0  0  0
  154.6164  136.2889  159.4624 H   0  0  0  0  0  0  0  0  0  0  0  0
  155.7520  137.5251  161.4619 H   0  0  0  0  0  0  0  0  0  0  0  0
  153.5740  138.6523  162.4394 H   0  0  0  0  0  0  0  0  0  0  0  0
  153.2564  137.1915  164.5349 H   0  0  0  0  0  0  0  0  0  0  0  0
  155.2986  135.5070  164.2732 H   0  0  0  0  0  0  0  0  0  0  0  0
  153.7961  134.7542  163.7103 H   0  0  0  0  0  0  0  0  0  0  0  0
  154.5099  134.8116  161.5112 H   0  0  0  0  0  0  0  0  0  0  0  0
  156.1012  135.2949  162.0659 H   0  0  0  0  0  0  0  0  0  0  0  0
  152.4213  138.8535  160.4914 H   0  0  0  0  0  0  0  0  0  0  0  0
  153.4745  140.7008  158.4064 H   0  0  0  0  0  0  0  0  0  0  0  0
  151.8443  140.6501  159.0353 H   0  0  0  0  0  0  0  0  0  0  0  0
  152.8435  141.3302  161.3409 H   0  0  0  0  0  0  0  0  0  0  0  0
  154.3384  141.6565  160.5010 H   0  0  0  0  0  0  0  0  0  0  0  0
  152.1120  143.5268  162.0082 H   0  0  0  0  0  0  0  0  0  0  0  0
  151.3010  145.7905  161.3000 H   0  0  0  0  0  0  0  0  0  0  0  0
  151.5151  146.4504  158.8863 H   0  0  0  0  0  0  0  0  0  0  0  0
  152.5342  144.8132  157.2823 H   0  0  0  0  0  0  0  0  0  0  0  0
  1  2  2  0  0  0  0
  2  3  1  0  0  0  0
  2  9  1  0  0  0  0
  3  4  1  0  0  0  0
  3 18  1  0  0  0  0
  3 19  1  0  0  0  0
  4  8  1  0  0  0  0
  4  5  1  0  0  0  0
  4 20  1  0  0  0  0
  5  6  2  0  0  0  0
  5 21  1  0  0  0  0
  6  7  1  0  0  0  0
  6 22  1  0  0  0  0
  7  8  1  0  0  0  0
  7 23  1  0  0  0  0
  7 24  1  0  0  0  0
  8 25  1  0  0  0  0
  8 26  1  0  0  0  0
  9 10  1  0  0  0  0
  9 27  1  0  0  0  0
 10 11  1  0  0  0  0
 10 28  1  0  0  0  0
 10 29  1  0  0  0  0
 11 12  1  0  0  0  0
 11 30  1  0  0  0  0
 11 31  1  0  0  0  0
 12 17  1  0  0  0  0
 12 13  2  0  0  0  0
 13 14  1  0  0  0  0
 13 32  1  0  0  0  0
 14 15  2  0  0  0  0
 14 33  1  0  0  0  0
 15 16  1  0  0  0  0
 15 34  1  0  0  0  0
 16 17  2  0  0  0  0
 16 35  1  0  0  0  0
M  END
> <s_m_source_file>
AV-unprocessed.smi

> <i_m_source_file_index>
3173

> <i_lp_mmshare_version>
43012

> <i_f3d_flags>
0

> <s_epik_input>
W0NIMl0xW0NIMl1bQ0hdPVtDSF1bQ0BIXTFbQ0gyXUMoPU8pW05IXVtDSDJdW0NIMl1jMltjSF1bY0hdW2NIXVtjSF1uMg==

> <s_epik_cmdline>
J2VwaWtfcHl0aG9uJywgJy1waCcsICc3LjAnLCAnLXRuJywgJzgnLCAnLW1hJywgJzIwMCcsICctbWV0YWxfYmluZGluZycsICctaW1hZScsICc8aW5maWxlLm1hZT4nLCAnLW9tYWUnLCAnPG91dGZpbGUubWFlPic=

> <r_epik_Ionization_Penalty>
0.0258754

> <r_epik_Ionization_Penalty_Charging>
0

> <r_epik_Ionization_Penalty_Neutral>
0.0258754

> <r_epik_State_Penalty>
0.0210899

> <r_epik_Charging_Adjusted_Penalty>
0.0210899

> <i_epik_Tot_Q>
0

> <i_epik_Tot_abs_Q>
0

> <r_epik_Metal_State_Penalty>
0.0202045

> <b_epik_Metal_Only>
0

> <s_lp_Force_Field>
OPLS_2005

> <r_lp_Energy>
13.8907

> <b_lp_Chiralities_Consistent>
1

> <s_lp_Variant>
AV-unprocessed.smi:3173-2

> <Gold.Version>
5.8.1

> <Gold.Id.Protein>
6NUR|6NUR_protein|mol2

> <Gold.PLP.Fitness>
44.2637

> <Gold.PLP.PLP>
-42.8384

> <Gold.PLP.part.hbond>
-1.0000

> <Gold.PLP.part.metal>
0.0000

> <Gold.PLP.part.buried>
-3.7061

> <Gold.PLP.part.nonpolar>
-38.1932

> <Gold.PLP.part.repulsive>
0.0819

> <Gold.PLP.ligand.clash>
0.0000

> <Gold.PLP.ligand.torsion>
0.8030

> <Gold.PLP.Chemscore.Hbond>
1.0000

> <Gold.PLP.Chemscore.CHOScore>
0.0000

> <Gold.PLP.Chemscore.Metal>
0.0000

> <Gold.Chemscore.Hbonds>
donor molecule, donor type, donor heavy atom, donor atom, acceptor molecule, acceptor atom, score
      P1  H  7997  8008       L1     1  1.00

> <Gold.PLP.Chemscore.Internal.Correction>
0.0313

> <Gold.Rescore>
     Score         DG    S(hbond)    S(metal)    S(lipo)     H(rot)  DE(clash)    DE(int)     intcor
     18.76     -19.49       0.99        0.00     124.29       1.50       0.00       0.72       ----

> <Gold.Chemscore.Fitness>
18.7627

> <Gold.Chemscore.DG>
-19.4899

> <Gold.Chemscore.ZeroCoef>
-5.4800

> <Gold.Chemscore.Hbond>
0.9932

> <Gold.Chemscore.Metal>
0.0000

> <Gold.Chemscore.Lipo>
124.2906

> <Gold.Chemscore.Internal_Hbond>
0.0000

> <Gold.Chemscore.DEClash>
0.0038

> <Gold.Chemscore.DEInternal>
0.7234

> <Gold.Chemscore.Rot>
1.5037

> <Gold.Chemscore.Internal.Correction>
   9.000000E+99

> <Gold.Chemscore.Hbonds>
donor molecule, donor type, donor heavy atom, donor atom, acceptor molecule, acceptor atom, score
      P1  H  7997  8008       L1     1  1.00

> <Gold.Chemscore.Hbond.Weighted>
-3.3173

> <Gold.Chemscore.Metal.Weighted>
-0.0000

> <Gold.Chemscore.Lipo.Weighted>
-14.5420

> <Gold.Chemscore.Internal_Hbond.Weighted>
0.0000

> <Gold.Chemscore.DEClash.Weighted>
0.0038

> <Gold.Chemscore.DEInternal.Weighted>
0.7234

> <Gold.Chemscore.Rot.Weighted>
3.8494

> <Gold.Chemscore.Internal.Correction.Weighted>
   9.000000E+99

> <Gold.Protein.RotatedTorsions>
[ 6907 6896 6895 6894 ] final -152.05 input  -60.11 | X-H torsion
[ 7974 7965 7964 7962 ] final  152.83 input  175.53 | X-H torsion
[ 8008 7997 7996 7995 ] final -120.74 input   59.86 | X-H torsion
[ 10167 10162 10161 10158 ] final  -99.87 input  -65.29 | X-H torsion
[ 10718 10713 10712 10709 ] final  107.48 input   66.30 | X-H torsion
[ 10763 10752 10751 10750 ] final  -50.45 input  -60.55 | X-H torsion
[ 11005 11000 10999 10996 ] final  155.54 input  -57.11 | X-H torsion

> <Gold.Protein.ActiveResidues>
 VAL166  LYS551  ARG553  GLY616  TRP617  ASP618  TYR619  PRO620  LYS621  CYS622 
 ASP623  PHE694  ASN695  SER759  ASP760  ASP761  ALA762  ILE779  LEU786  VAL792 
 PHE793  MET794  SER795  GLU796  ALA797  LYS798  CYS799  TRP800  GLU811  SER814 

> <Gold.Protein.RotatedAtoms>
  151.2220  133.4497  159.2600 H   0  0  0  0  0  0  0  0  0  0  0  0  # atno 6907 bound_to 6896
  151.0875  134.9896  159.8397 H   0  0  0  0  0  0  0  0  0  0  0  0  # atno 6908 bound_to 6896
  152.5431  134.2156  159.8820 H   0  0  0  0  0  0  0  0  0  0  0  0  # atno 6909 bound_to 6896
  144.8196  139.6720  143.6106 H   0  0  0  0  0  0  0  0  0  0  0  0  # atno 7974 bound_to 7965
  155.1367  140.0401  157.2788 H   0  0  0  0  0  0  0  0  0  0  0  0  # atno 8008 bound_to 7997
  154.6503  140.2567  155.7195 H   0  0  0  0  0  0  0  0  0  0  0  0  # atno 8009 bound_to 7997
  156.2574  140.2837  156.0934 H   0  0  0  0  0  0  0  0  0  0  0  0  # atno 8010 bound_to 7997
  140.2579  143.3428  152.0654 H   0  0  0  0  0  0  0  0  0  0  0  0  # atno 10167 bound_to 10162
  157.6626  131.0873  150.6162 H   0  0  0  0  0  0  0  0  0  0  0  0  # atno 10718 bound_to 10713
  154.1105  135.6550  153.4884 H   0  0  0  0  0  0  0  0  0  0  0  0  # atno 10763 bound_to 10752
  153.0258  135.5246  154.7197 H   0  0  0  0  0  0  0  0  0  0  0  0  # atno 10764 bound_to 10752
  154.6375  135.2984  155.0113 H   0  0  0  0  0  0  0  0  0  0  0  0  # atno 10765 bound_to 10752
  140.1591  134.8622  157.2552 H   0  0  0  0  0  0  0  0  0  0  0  0  # atno 11005 bound_to 11000
  146.2501  139.6180  142.9433 LP  0  0  0  0  0  0  0  0  0  0  0  0  # atno 17320 bound_to 7965
  145.5136  141.0434  143.2474 LP  0  0  0  0  0  0  0  0  0  0  0  0  # atno 17321 bound_to 7965
  139.5026  144.6738  151.6179 LP  0  0  0  0  0  0  0  0  0  0  0  0  # atno 17342 bound_to 10162
  140.5989  143.9645  150.6373 LP  0  0  0  0  0  0  0  0  0  0  0  0  # atno 17343 bound_to 10162
  156.6464  130.4473  149.5734 LP  0  0  0  0  0  0  0  0  0  0  0  0  # atno 17370 bound_to 10713
  156.2170  130.6714  151.1329 LP  0  0  0  0  0  0  0  0  0  0  0  0  # atno 17371 bound_to 10713
  140.2511  134.3681  155.7442 LP  0  0  0  0  0  0  0  0  0  0  0  0  # atno 17394 bound_to 11000
  141.2207  133.7317  156.8937 LP  0  0  0  0  0  0  0  0  0  0  0  0  # atno 17395 bound_to 11000

$$$$
