AV-unprocessed.smi:820|AV-procd|sdf|3837|dock4
  -GOLD-   22720 1283D 1   1.00000     0.00000
 Structure written by MMmdl.
 31 32  0  0  0  0  0  0  0  0  2 V2000
  152.2353  145.2891  158.9042 C   0  0  0  0  0  0  0  0  0  0  0  0
  152.0884  144.6876  160.3045 C   0  0  0  0  0  0  0  0  0  0  0  0
  152.6613  142.9652  160.3522 S   0  0  0  0  0  0  0  0  0  0  0  0
  151.7535  142.0722  159.1253 C   0  0  0  0  0  0  0  0  0  0  0  0
  151.8816  140.6751  159.0238 C   0  0  0  0  0  0  0  0  0  0  0  0
  151.1370  140.0131  158.0296 C   0  0  0  0  0  0  0  0  0  0  0  0
  150.2913  140.7557  157.1749 C   0  0  0  0  0  0  0  0  0  0  0  0
  149.5722  140.1599  156.2105 N   0  5  0  0  0  0  0  0  0  0  0  0
  150.1847  139.4409  155.2346 C   0  0  0  0  0  0  0  0  0  0  0  0
  150.5418  139.9123  154.1510 O   0  0  0  0  0  0  0  0  0  0  0  0
  150.4060  138.0291  155.5370 C   0  0  0  0  0  0  0  0  0  0  0  0
  150.7860  137.1751  154.5566 C   0  0  0  0  0  0  0  0  0  0  0  0
  150.9746  135.8287  154.7474 O   0  0  0  0  0  0  0  0  0  0  0  0
  150.4972  135.3344  155.9926 C   0  0  0  0  0  0  0  0  0  0  0  0
  150.8295  136.3213  157.1205 C   0  0  0  0  0  0  0  0  0  0  0  0
  150.2643  137.5959  156.8376 O   0  0  0  0  0  0  0  0  0  0  0  0
  150.2517  142.1559  157.3740 C   0  0  0  0  0  0  0  0  0  0  0  0
  150.9586  142.8085  158.3218 N   0  0  0  0  0  0  0  0  0  0  0  0
  151.8870  146.3218  158.8872 H   0  0  0  0  0  0  0  0  0  0  0  0
  151.6531  144.7283  158.1725 H   0  0  0  0  0  0  0  0  0  0  0  0
  153.2766  145.2829  158.5816 H   0  0  0  0  0  0  0  0  0  0  0  0
  152.6627  145.2730  161.0228 H   0  0  0  0  0  0  0  0  0  0  0  0
  151.0447  144.7240  160.6173 H   0  0  0  0  0  0  0  0  0  0  0  0
  152.5309  140.1237  159.6873 H   0  0  0  0  0  0  0  0  0  0  0  0
  151.2141  138.9406  157.9258 H   0  0  0  0  0  0  0  0  0  0  0  0
  150.9391  137.4509  153.5232 H   0  0  0  0  0  0  0  0  0  0  0  0
  149.4194  135.1796  155.9281 H   0  0  0  0  0  0  0  0  0  0  0  0
  150.9503  134.3626  156.1890 H   0  0  0  0  0  0  0  0  0  0  0  0
  150.4378  135.9607  158.0714 H   0  0  0  0  0  0  0  0  0  0  0  0
  151.9096  136.4233  157.2344 H   0  0  0  0  0  0  0  0  0  0  0  0
  149.6270  142.7777  156.7491 H   0  0  0  0  0  0  0  0  0  0  0  0
  1  2  1  0  0  0  0
  1 19  1  0  0  0  0
  1 20  1  0  0  0  0
  1 21  1  0  0  0  0
  2  3  1  0  0  0  0
  2 22  1  0  0  0  0
  2 23  1  0  0  0  0
  3  4  1  0  0  0  0
  4 18  1  0  0  0  0
  4  5  2  0  0  0  0
  5  6  1  0  0  0  0
  5 24  1  0  0  0  0
  6  7  2  0  0  0  0
  6 25  1  0  0  0  0
  7  8  1  0  0  0  0
  7 17  1  0  0  0  0
  8  9  1  0  0  0  0
  9 10  2  0  0  0  0
  9 11  1  0  0  0  0
 11 16  1  0  0  0  0
 11 12  2  0  0  0  0
 12 13  1  0  0  0  0
 12 26  1  0  0  0  0
 13 14  1  0  0  0  0
 14 15  1  0  0  0  0
 14 27  1  0  0  0  0
 14 28  1  0  0  0  0
 15 16  1  0  0  0  0
 15 29  1  0  0  0  0
 15 30  1  0  0  0  0
 17 18  2  0  0  0  0
 17 31  1  0  0  0  0
M  CHG  1   8  -1
M  END
> <s_m_source_file>
AV-unprocessed.smi

> <i_m_source_file_index>
820

> <i_lp_mmshare_version>
43012

> <i_f3d_flags>
0

> <s_epik_input>
W0NIM11bQ0gyXVNjMVtjSF1bY0hdYyhbY0hdbjEpW05IXUMoPU8pQzI9W0NIXU9bQ0gyXVtDSDJdTzI=

> <s_epik_cmdline>
J2VwaWtfcHl0aG9uJywgJy1waCcsICc3LjAnLCAnLXRuJywgJzgnLCAnLW1hJywgJzIwMCcsICctbWV0YWxfYmluZGluZycsICctaW1hZScsICc8aW5maWxlLm1hZT4nLCAnLW9tYWUnLCAnPG91dGZpbGUubWFlPic=

> <r_lp_tautomer_probability>
1

> <r_epik_Ionization_Penalty>
5.63505

> <r_epik_Ionization_Penalty_Charging>
5.63079

> <r_epik_Ionization_Penalty_Neutral>
0.00426194

> <r_epik_State_Penalty>
5.63074

> <r_epik_Charging_Adjusted_Penalty>
11.2615

> <i_epik_Tot_Q>
-1

> <i_epik_Tot_abs_Q>
1

> <r_epik_Metal_State_Penalty>
1.62037

> <b_epik_Metal_Only>
1

> <s_lp_Force_Field>
OPLS_2005

> <r_lp_Energy>
4.11082

> <b_lp_Chiralities_Consistent>
1

> <s_lp_Variant>
AV-unprocessed.smi:820-2

> <Gold.Version>
5.8.1

> <Gold.Id.Protein>
6NUR|6NUR_protein|mol2

> <Gold.PLP.Fitness>
41.3174

> <Gold.PLP.PLP>
-31.3277

> <Gold.PLP.part.hbond>
-2.0000

> <Gold.PLP.part.metal>
0.0000

> <Gold.PLP.part.buried>
-5.7132

> <Gold.PLP.part.nonpolar>
-24.8112

> <Gold.PLP.part.repulsive>
0.5228

> <Gold.PLP.ligand.clash>
0.0000

> <Gold.PLP.ligand.torsion>
1.4256

> <Gold.PLP.Chemscore.Hbond>
2.0000

> <Gold.PLP.Chemscore.CHOScore>
2.0599

> <Gold.PLP.Chemscore.Metal>
0.0000

> <Gold.Chemscore.Hbonds>
donor molecule, donor type, donor heavy atom, donor atom, acceptor molecule, acceptor atom, score
      P1  H  7989  7998       L1    10  1.00
      P1  H 10752 10765       L1    13  1.00
      L1  C    12    26       P1  7948  0.07
      L1  C    12    26       P1  7949  1.00
      L1  C    17    31       P1  8028  1.00

> <Gold.PLP.Chemscore.Internal.Correction>
0.6613

> <Gold.Rescore>
     Score         DG    S(hbond)    S(metal)    S(lipo)     H(rot)  DE(clash)    DE(int)     intcor
     15.11     -19.28       1.94        0.00      87.10       1.13       0.03       4.13       ----

> <Gold.Chemscore.Fitness>
15.1145

> <Gold.Chemscore.DG>
-19.2763

> <Gold.Chemscore.ZeroCoef>
-5.4800

> <Gold.Chemscore.Hbond>
1.9438

> <Gold.Chemscore.Metal>
0.0000

> <Gold.Chemscore.Lipo>
87.1023

> <Gold.Chemscore.Internal_Hbond>
0.0000

> <Gold.Chemscore.DEClash>
0.0329

> <Gold.Chemscore.DEInternal>
4.1289

> <Gold.Chemscore.Rot>
1.1277

> <Gold.Chemscore.Internal.Correction>
   9.000000E+99

> <Gold.Chemscore.Hbonds>
donor molecule, donor type, donor heavy atom, donor atom, acceptor molecule, acceptor atom, score
      P1  H  7989  7998       L1    10  0.97
      P1  H 10752 10765       L1    13  0.28

> <Gold.Chemscore.Hbond.Weighted>
-6.4923

> <Gold.Chemscore.Metal.Weighted>
-0.0000

> <Gold.Chemscore.Lipo.Weighted>
-10.1910

> <Gold.Chemscore.Internal_Hbond.Weighted>
0.0000

> <Gold.Chemscore.DEClash.Weighted>
0.0329

> <Gold.Chemscore.DEInternal.Weighted>
4.1289

> <Gold.Chemscore.Rot.Weighted>
2.8870

> <Gold.Chemscore.Internal.Correction.Weighted>
   9.000000E+99

> <Gold.Protein.RotatedTorsions>
[ 6907 6896 6895 6894 ] final  174.31 input  -60.11 | X-H torsion
[ 7974 7965 7964 7962 ] final  -69.07 input  175.53 | X-H torsion
[ 8008 7997 7996 7995 ] final  115.46 input   59.86 | X-H torsion
[ 10167 10162 10161 10158 ] final  129.74 input  -65.29 | X-H torsion
[ 10718 10713 10712 10709 ] final   50.97 input   66.30 | X-H torsion
[ 10763 10752 10751 10750 ] final -168.69 input  -60.55 | X-H torsion
[ 11005 11000 10999 10996 ] final  165.51 input  -57.11 | X-H torsion

> <Gold.Protein.ActiveResidues>
 VAL166  LYS551  ARG553  GLY616  TRP617  ASP618  TYR619  PRO620  LYS621  CYS622 
 ASP623  PHE694  ASN695  SER759  ASP760  ASP761  ALA762  ILE779  LEU786  VAL792 
 PHE793  MET794  SER795  GLU796  ALA797  LYS798  CYS799  TRP800  GLU811  SER814 

> <Gold.Protein.RotatedAtoms>
  151.7544  133.3329  159.3400 H   0  0  0  0  0  0  0  0  0  0  0  0  # atno 6907 bound_to 6896
  150.7522  134.6163  159.6122 H   0  0  0  0  0  0  0  0  0  0  0  0  # atno 6908 bound_to 6896
  152.3447  134.7089  160.0305 H   0  0  0  0  0  0  0  0  0  0  0  0  # atno 6909 bound_to 6896
  145.7085  140.9088  143.0693 H   0  0  0  0  0  0  0  0  0  0  0  0  # atno 7974 bound_to 7965
  156.2383  140.2938  156.0372 H   0  0  0  0  0  0  0  0  0  0  0  0  # atno 8008 bound_to 7997
  155.2027  140.0410  157.2937 H   0  0  0  0  0  0  0  0  0  0  0  0  # atno 8009 bound_to 7997
  154.6119  140.2454  155.7665 H   0  0  0  0  0  0  0  0  0  0  0  0  # atno 8010 bound_to 7997
  139.5463  144.6776  151.4462 H   0  0  0  0  0  0  0  0  0  0  0  0  # atno 10167 bound_to 10162
  157.4936  130.8392  149.8232 H   0  0  0  0  0  0  0  0  0  0  0  0  # atno 10718 bound_to 10713
  154.6602  135.2924  154.9876 H   0  0  0  0  0  0  0  0  0  0  0  0  # atno 10763 bound_to 10752
  154.0939  135.6587  153.4861 H   0  0  0  0  0  0  0  0  0  0  0  0  # atno 10764 bound_to 10752
  153.0425  135.5226  154.7549 H   0  0  0  0  0  0  0  0  0  0  0  0  # atno 10765 bound_to 10752
  140.2569  134.7933  157.3554 H   0  0  0  0  0  0  0  0  0  0  0  0  # atno 11005 bound_to 11000
  144.6948  139.9042  143.7460 LP  0  0  0  0  0  0  0  0  0  0  0  0  # atno 17320 bound_to 7965
  146.0734  139.3722  143.0509 LP  0  0  0  0  0  0  0  0  0  0  0  0  # atno 17321 bound_to 7965
  140.6712  143.8289  150.7002 LP  0  0  0  0  0  0  0  0  0  0  0  0  # atno 17342 bound_to 10162
  140.1713  143.4192  152.1998 LP  0  0  0  0  0  0  0  0  0  0  0  0  # atno 17343 bound_to 10162
  156.0187  130.3803  150.2028 LP  0  0  0  0  0  0  0  0  0  0  0  0  # atno 17370 bound_to 10713
  157.0217  130.9981  151.3338 LP  0  0  0  0  0  0  0  0  0  0  0  0  # atno 17371 bound_to 10713
  140.1503  134.4859  155.7966 LP  0  0  0  0  0  0  0  0  0  0  0  0  # atno 17394 bound_to 11000
  141.2195  133.6859  156.7366 LP  0  0  0  0  0  0  0  0  0  0  0  0  # atno 17395 bound_to 11000

$$$$
