AV-unprocessed.smi:3200|AV-procd|sdf|12236|dock2
  -GOLD-   2272018 73D 1   1.00000     0.00000
 Structure written by MMmdl.
 38 39  0  0  0  0  0  0  0  0  2 V2000
  150.9690  128.9601  155.2303 C   0  0  0  0  0  0  0  0  0  0  0  0
  150.5938  130.4027  155.2085 C   0  0  0  0  0  0  0  0  0  0  0  0
  151.1367  131.2703  156.0541 N   0  0  0  0  0  0  0  0  0  0  0  0
  150.5312  132.4857  155.7046 O   0  0  0  0  0  0  0  0  0  0  0  0
  149.6748  132.1942  154.6965 C   0  0  0  0  0  0  0  0  0  0  0  0
  148.9053  133.3029  154.0610 C   0  0  0  0  0  0  0  0  0  0  0  0
  148.0515  132.8179  152.8831 C   0  0  0  0  0  0  0  0  0  0  0  0
  147.1098  133.8671  152.4431 N   0  3  0  0  0  0  0  0  0  0  0  0
  146.2641  133.4962  151.2863 C   0  0  1  0  0  0  0  0  0  0  0  0
  145.7979  132.0332  151.3140 C   0  0  0  0  0  0  0  0  0  0  0  0
  144.4882  132.0041  150.5153 C   0  0  0  0  0  0  0  0  0  0  0  0
  144.1370  133.4674  150.2087 C   0  0  0  0  0  0  0  0  0  0  0  0
  144.9675  134.3272  151.1785 C   0  0  0  0  0  0  0  0  0  0  0  0
  144.2250  134.4608  152.5286 C   0  0  0  0  0  0  0  0  0  0  0  0
  145.2298  135.7277  150.5936 C   0  0  0  0  0  0  0  0  0  0  0  0
  149.6858  130.9145  154.3327 N   0  0  0  0  0  0  0  0  0  0  0  0
  151.9457  128.8203  155.6950 H   0  0  0  0  0  0  0  0  0  0  0  0
  151.0129  128.5629  154.2158 H   0  0  0  0  0  0  0  0  0  0  0  0
  150.2314  128.3889  155.7945 H   0  0  0  0  0  0  0  0  0  0  0  0
  148.2725  133.7653  154.8196 H   0  0  0  0  0  0  0  0  0  0  0  0
  149.6081  134.0682  153.7291 H   0  0  0  0  0  0  0  0  0  0  0  0
  148.6946  132.5377  152.0475 H   0  0  0  0  0  0  0  0  0  0  0  0
  147.4948  131.9267  153.1753 H   0  0  0  0  0  0  0  0  0  0  0  0
  146.5075  134.1150  153.2152 H   0  0  0  0  0  0  0  0  0  0  0  0
  146.8456  133.6499  150.3749 H   0  0  0  0  0  0  0  0  0  0  0  0
  146.5456  131.3583  150.8960 H   0  0  0  0  0  0  0  0  0  0  0  0
  145.6052  131.7106  152.3382 H   0  0  0  0  0  0  0  0  0  0  0  0
  144.5909  131.4283  149.5949 H   0  0  0  0  0  0  0  0  0  0  0  0
  143.7009  131.5350  151.1063 H   0  0  0  0  0  0  0  0  0  0  0  0
  144.4274  133.6848  149.1797 H   0  0  0  0  0  0  0  0  0  0  0  0
  143.0659  133.6602  150.2805 H   0  0  0  0  0  0  0  0  0  0  0  0
  143.2592  134.9497  152.3967 H   0  0  0  0  0  0  0  0  0  0  0  0
  144.7904  135.0606  153.2422 H   0  0  0  0  0  0  0  0  0  0  0  0
  144.0350  133.4921  152.9910 H   0  0  0  0  0  0  0  0  0  0  0  0
  144.2959  136.2680  150.4340 H   0  0  0  0  0  0  0  0  0  0  0  0
  145.7442  135.6739  149.6334 H   0  0  0  0  0  0  0  0  0  0  0  0
  145.8471  136.3272  151.2633 H   0  0  0  0  0  0  0  0  0  0  0  0
  147.6503  134.6800  152.1838 H   0  0  0  0  0  0  0  0  0  0  0  0
  1  2  1  0  0  0  0
  1 17  1  0  0  0  0
  1 18  1  0  0  0  0
  1 19  1  0  0  0  0
  2 16  1  0  0  0  0
  2  3  2  0  0  0  0
  3  4  1  0  0  0  0
  4  5  1  0  0  0  0
  5  6  1  0  0  0  0
  5 16  2  0  0  0  0
  6  7  1  0  0  0  0
  6 20  1  0  0  0  0
  6 21  1  0  0  0  0
  7  8  1  0  0  0  0
  7 22  1  0  0  0  0
  7 23  1  0  0  0  0
  8  9  1  0  0  0  0
  8 24  1  0  0  0  0
  8 38  1  0  0  0  0
  9 13  1  0  0  0  0
  9 10  1  0  0  0  0
  9 25  1  0  0  0  0
 10 11  1  0  0  0  0
 10 26  1  0  0  0  0
 10 27  1  0  0  0  0
 11 12  1  0  0  0  0
 11 28  1  0  0  0  0
 11 29  1  0  0  0  0
 12 13  1  0  0  0  0
 12 30  1  0  0  0  0
 12 31  1  0  0  0  0
 13 14  1  0  0  0  0
 13 15  1  0  0  0  0
 14 32  1  0  0  0  0
 14 33  1  0  0  0  0
 14 34  1  0  0  0  0
 15 35  1  0  0  0  0
 15 36  1  0  0  0  0
 15 37  1  0  0  0  0
M  CHG  1   8   1
M  END
> <s_m_source_file>
AV-unprocessed.smi

> <i_m_source_file_index>
3200

> <i_lp_mmshare_version>
43012

> <i_f3d_flags>
0

> <s_epik_input>
W0NIM11jMW5vYyhuMSlbQ0gyXVtDSDJdW05IXVtDQEBIXShDMihbQ0gzXSlbQ0gzXSlbQ0gyXVtDSDJdW0NIMl0y

> <s_epik_cmdline>
J2VwaWtfcHl0aG9uJywgJy1waCcsICc3LjAnLCAnLXRuJywgJzgnLCAnLW1hJywgJzIwMCcsICctbWV0YWxfYmluZGluZycsICctaW1hZScsICc8aW5maWxlLm1hZT4nLCAnLW9tYWUnLCAnPG91dGZpbGUubWFlPic=

> <r_lp_tautomer_probability>
1

> <r_epik_Ionization_Penalty>
0.000953161

> <r_epik_Ionization_Penalty_Charging>
0.000953161

> <r_epik_Ionization_Penalty_Neutral>
4.23223e-13

> <r_epik_State_Penalty>
0.000619331

> <r_epik_Charging_Adjusted_Penalty>
0.00157249

> <i_epik_Tot_Q>
1

> <i_epik_Tot_abs_Q>
1

> <r_epik_Metal_State_Penalty>
-0

> <b_epik_Metal_Only>
0

> <s_lp_Force_Field>
OPLS_2005

> <r_lp_Energy>
25.6419

> <b_lp_Chiralities_Consistent>
1

> <s_lp_Variant>
AV-unprocessed.smi:3200-2

> <Gold.Version>
5.8.1

> <Gold.Id.Protein>
6NUR|6NUR_protein|mol2

> <Gold.PLP.Fitness>
37.4235

> <Gold.PLP.PLP>
-31.8805

> <Gold.PLP.part.hbond>
-1.0000

> <Gold.PLP.part.metal>
0.0000

> <Gold.PLP.part.buried>
-5.2858

> <Gold.PLP.part.nonpolar>
-26.7059

> <Gold.PLP.part.repulsive>
0.0890

> <Gold.PLP.ligand.clash>
0.0000

> <Gold.PLP.ligand.torsion>
0.2604

> <Gold.PLP.Chemscore.Hbond>
2.0000

> <Gold.PLP.Chemscore.CHOScore>
0.0000

> <Gold.PLP.Chemscore.Metal>
0.0000

> <Gold.Chemscore.Hbonds>
donor molecule, donor type, donor heavy atom, donor atom, acceptor molecule, acceptor atom, score
      L1  H     8    38       P1  7948  2.00

> <Gold.PLP.Chemscore.Internal.Correction>
0.0637

> <Gold.Rescore>
     Score         DG    S(hbond)    S(metal)    S(lipo)     H(rot)  DE(clash)    DE(int)     intcor
     11.42     -11.64       0.90        0.00      66.13       1.79       0.03       0.19       ----

> <Gold.Chemscore.Fitness>
11.4248

> <Gold.Chemscore.DG>
-11.6356

> <Gold.Chemscore.ZeroCoef>
-5.4800

> <Gold.Chemscore.Hbond>
0.8965

> <Gold.Chemscore.Metal>
0.0000

> <Gold.Chemscore.Lipo>
66.1261

> <Gold.Chemscore.Internal_Hbond>
0.0000

> <Gold.Chemscore.DEClash>
0.0251

> <Gold.Chemscore.DEInternal>
0.1857

> <Gold.Chemscore.Rot>
1.7872

> <Gold.Chemscore.Internal.Correction>
   9.000000E+99

> <Gold.Chemscore.Hbonds>
donor molecule, donor type, donor heavy atom, donor atom, acceptor molecule, acceptor atom, score
      L1  H     8    38       P1  7948  0.67

> <Gold.Chemscore.Hbond.Weighted>
-2.9942

> <Gold.Chemscore.Metal.Weighted>
-0.0000

> <Gold.Chemscore.Lipo.Weighted>
-7.7368

> <Gold.Chemscore.Internal_Hbond.Weighted>
0.0000

> <Gold.Chemscore.DEClash.Weighted>
0.0251

> <Gold.Chemscore.DEInternal.Weighted>
0.1857

> <Gold.Chemscore.Rot.Weighted>
4.5753

> <Gold.Chemscore.Internal.Correction.Weighted>
   9.000000E+99

> <Gold.Protein.RotatedTorsions>
[ 6907 6896 6895 6894 ] final  -24.57 input  -60.11 | X-H torsion
[ 7974 7965 7964 7962 ] final  147.39 input  175.53 | X-H torsion
[ 8008 7997 7996 7995 ] final -115.58 input   59.86 | X-H torsion
[ 10167 10162 10161 10158 ] final  -27.71 input  -65.29 | X-H torsion
[ 10718 10713 10712 10709 ] final   52.08 input   66.30 | X-H torsion
[ 10763 10752 10751 10750 ] final   80.83 input  -60.55 | X-H torsion
[ 11005 11000 10999 10996 ] final -138.15 input  -57.11 | X-H torsion

> <Gold.Protein.ActiveResidues>
 VAL166  LYS551  ARG553  GLY616  TRP617  ASP618  TYR619  PRO620  LYS621  CYS622 
 ASP623  PHE694  ASN695  SER759  ASP760  ASP761  ALA762  ILE779  LEU786  VAL792 
 PHE793  MET794  SER795  GLU796  ALA797  LYS798  CYS799  TRP800  GLU811  SER814 

> <Gold.Protein.RotatedAtoms>
  151.1876  135.0388  159.8818 H   0  0  0  0  0  0  0  0  0  0  0  0  # atno 6907 bound_to 6896
  152.5441  134.0992  159.8320 H   0  0  0  0  0  0  0  0  0  0  0  0  # atno 6908 bound_to 6896
  151.1117  133.5121  159.2637 H   0  0  0  0  0  0  0  0  0  0  0  0  # atno 6909 bound_to 6896
  144.8596  139.6022  143.5937 H   0  0  0  0  0  0  0  0  0  0  0  0  # atno 7974 bound_to 7965
  155.0543  140.0393  157.2554 H   0  0  0  0  0  0  0  0  0  0  0  0  # atno 8008 bound_to 7997
  154.7112  140.2693  155.6603 H   0  0  0  0  0  0  0  0  0  0  0  0  # atno 8009 bound_to 7997
  156.2790  140.2721  156.1754 H   0  0  0  0  0  0  0  0  0  0  0  0  # atno 8010 bound_to 7997
  140.7275  143.4071  151.1168 H   0  0  0  0  0  0  0  0  0  0  0  0  # atno 10167 bound_to 10162
  157.5041  130.8457  149.8353 H   0  0  0  0  0  0  0  0  0  0  0  0  # atno 10718 bound_to 10713
  153.1066  135.4788  154.8961 H   0  0  0  0  0  0  0  0  0  0  0  0  # atno 10763 bound_to 10752
  154.7436  135.3088  154.8686 H   0  0  0  0  0  0  0  0  0  0  0  0  # atno 10764 bound_to 10752
  153.9287  135.6847  153.4799 H   0  0  0  0  0  0  0  0  0  0  0  0  # atno 10765 bound_to 10752
  140.8643  134.2129  157.4689 H   0  0  0  0  0  0  0  0  0  0  0  0  # atno 11005 bound_to 11000
  146.2850  139.6979  142.9202 LP  0  0  0  0  0  0  0  0  0  0  0  0  # atno 17320 bound_to 7965
  145.4339  141.0417  143.2895 LP  0  0  0  0  0  0  0  0  0  0  0  0  # atno 17321 bound_to 7965
  139.7699  143.8510  152.3118 LP  0  0  0  0  0  0  0  0  0  0  0  0  # atno 17342 bound_to 10162
  139.8425  144.7203  150.9314 LP  0  0  0  0  0  0  0  0  0  0  0  0  # atno 17343 bound_to 10162
  156.0247  130.3783  150.1857 LP  0  0  0  0  0  0  0  0  0  0  0  0  # atno 17370 bound_to 10713
  157.0047  130.9933  151.3382 LP  0  0  0  0  0  0  0  0  0  0  0  0  # atno 17371 bound_to 10713
  139.8708  134.9744  156.4847 LP  0  0  0  0  0  0  0  0  0  0  0  0  # atno 17394 bound_to 11000
  140.8646  133.8034  155.9301 LP  0  0  0  0  0  0  0  0  0  0  0  0  # atno 17395 bound_to 11000

$$$$
