#       Name:                AV-unprocessed.smi:114
#       Creating user name   scv26
#       Creation time:       Thu Mar 26 18:23:33 2020


#       File generated by GOLD software.
#

@<TRIPOS>MOLECULE
AV-unprocessed.smi:114
    43    45     1
SMALL
NO_CHARGES


@<TRIPOS>ATOM
      1 ****        -5.1231   0.3805  -0.1276 N.pl3          1 S1                 0.0000
      2 ****        -3.8004   0.5613  -0.0064 C.ar           1 S1                 0.0000
      3 ****        -3.3439   1.7993   0.2949 N.ar           1 S1                 0.0000
      4 ****        -2.0302   2.0226   0.4238 C.ar           1 S1                 0.0000
      5 ****        -1.6617   3.2890   0.7285 F              1 S1                 0.0000
      6 ****        -1.0397   1.1350   0.2847 N.ar           1 S1                 0.0000
      7 ****        -1.4953  -0.1148  -0.0194 C.ar           1 S1                 0.0000
      8 ****        -2.8582  -0.4819  -0.1799 C.ar           1 S1                 0.0000
      9 ****        -2.9527  -1.8333  -0.4824 N.2            1 S1                 0.0000
     10 ****        -1.7110  -2.2385  -0.4986 C.2            1 S1                 0.0000
     11 ****        -0.7687  -1.2684  -0.2360 N.pl3          1 S1                 0.0000
     12 ****         0.7161  -1.4296  -0.1900 C.3            1 S1                 0.0000
     13 ****         1.1844  -0.7982   0.9616 O.3            1 S1                 0.0000
     14 ****         2.3775  -0.0822   0.6653 C.3            1 S1                 0.0000
     15 ****         2.5697   1.0517   1.6839 C.3            1 S1                 0.0000
     16 ****         3.1838   0.5542   2.8535 O.3            1 S1                 0.0000
     17 ****         2.1199   0.4136  -0.7589 C.3            1 S1                 0.0000
     18 ****         3.3090   0.7709  -1.4392 O.3            1 S1                 0.0000
     19 ****         1.3795  -0.7569  -1.4034 C.3            1 S1                 0.0000
     20 ****         2.2590  -1.6537  -2.0573 O.3            1 S1                 0.0000
     21 ****         0.8795  -2.5071  -0.1383 H              1 S1                 0.0000
     22 ****         3.2244  -0.7717   0.6684 H              1 S1                 0.0000
     23 ****         1.4631   1.2833  -0.7315 H              1 S1                 0.0000
     24 ****         0.6335  -0.4148  -2.1223 H              1 S1                 0.0000
     25 ****        -5.4867  -0.5346  -0.3527 H              1 S1                 0.0000
     26 ****        -5.7532   1.1578   0.0068 H              1 S1                 0.0000
     27 ****        -1.4463  -3.2648  -0.7087 H              1 S1                 0.0000
     28 ****         3.2262   1.8189   1.2725 H              1 S1                 0.0000
     29 ****         1.6214   1.5332   1.9250 H              1 S1                 0.0000
     30 ****         3.2974   1.2695   3.4606 H              1 S1                 0.0000
     31 ****         3.0857   1.0058  -2.3269 H              1 S1                 0.0000
     32 ****         2.9424  -1.8960  -1.4510 H              1 S1                 0.0000
     33 ****        -3.9912   2.5509   0.4219 LP             1 S1                 0.0000
     34 ****        -0.0718   1.3621   0.3918 LP             1 S1                 0.0000
     35 ****        -3.7790  -2.3714  -0.6491 LP             1 S1                 0.0000
     36 ****         1.3745  -1.4850   1.6632 LP             1 S1                 0.0000
     37 ****         0.4898  -0.1620   1.2976 LP             1 S1                 0.0000
     38 ****         4.0744   0.1608   2.6255 LP             1 S1                 0.0000
     39 ****         2.6044  -0.1490   3.2656 LP             1 S1                 0.0000
     40 ****         3.9413  -0.0038  -1.4437 LP             1 S1                 0.0000
     41 ****         3.7388   1.5493  -0.9818 LP             1 S1                 0.0000
     42 ****         2.6600  -1.2097  -2.8585 LP             1 S1                 0.0000
     43 ****         1.7573  -2.4697  -2.3446 LP             1 S1                 0.0000
@<TRIPOS>BOND
    1    1    2 1     
    2    1   25 1     
    3    1   26 1     
    4    2    8 ar    
    5    2    3 ar    
    6    3    4 ar    
    7    4    5 1     
    8    4    6 ar    
    9    6    7 ar    
   10    7   11 1     
   11    7    8 ar    
   12    8    9 1     
   13    9   10 2     
   14   10   11 1     
   15   10   27 1     
   16   11   12 1     
   17   12   21 1     
   18   12   19 1     
   19   12   13 1     
   20   13   14 1     
   21   14   22 1     
   22   14   15 1     
   23   14   17 1     
   24   15   16 1     
   25   15   28 1     
   26   15   29 1     
   27   16   30 1     
   28   17   23 1     
   29   17   18 1     
   30   17   19 1     
   31   18   31 1     
   32   19   24 1     
   33   19   20 1     
   34   20   32 1     
   35    3   33 1     
   36    6   34 1     
   37    9   35 1     
   38   13   36 1     
   39   13   37 1     
   40   16   38 1     
   41   16   39 1     
   42   18   40 1     
   43   18   41 1     
   44   20   42 1     
   45   20   43 1     
@<TRIPOS>SUBSTRUCTURE
      1 S1             1
@<TRIPOS>SET
LONE_PAIRS      STATIC     ATOMS    <user>   **** ""
11 33 34 35 36 37 38 39 40 41 42 43
DONOR_HYDROGENS      STATIC     ATOMS    <user>   **** ""
5 25 26 30 31 32
ATOM$BLUE        STATIC     ATOMS    COLORGROUP SYSTEM
11 33 34 35 36 37 38 39 40 41 42 43
ATOM$RED        STATIC     ATOMS    COLORGROUP SYSTEM
5 25 26 30 31 32
