AV-unprocessed.smi:2171|AV-procd|sdf|8831|dock4
  -GOLD-   2272012 23D 1   1.00000     0.00000
 Structure written by MMmdl.
 39 41  0  0  0  0  0  0  0  0  2 V2000
  152.6770  140.0426  157.0571 O   0  0  0  0  0  0  0  0  0  0  0  0
  151.6722  140.6343  157.4507 C   0  0  0  0  0  0  0  0  0  0  0  0
  151.6651  141.2963  158.8285 C   0  0  0  0  0  0  0  0  0  0  0  0
  151.7158  142.7422  158.7059 N   0  0  0  0  0  0  0  0  0  0  0  0
  152.8054  143.5780  158.8422 C   0  0  0  0  0  0  0  0  0  0  0  0
  152.3654  144.8557  158.6470 C   0  0  0  0  0  0  0  0  0  0  0  0
  150.9745  144.6986  158.3918 C   0  0  0  0  0  0  0  0  0  0  0  0
  150.5890  143.4333  158.4285 N   0  0  0  0  0  0  0  0  0  0  0  0
  150.5526  140.7563  156.7208 N   0  0  0  0  0  0  0  0  0  0  0  0
  150.3767  140.2488  155.3637 C   0  0  1  0  0  0  0  0  0  0  0  0
  150.6729  138.7440  155.2396 C   0  0  0  0  0  0  0  0  0  0  0  0
  149.6391  138.2070  154.2294 C   0  0  0  0  0  0  0  0  0  0  0  0
  148.8818  139.3899  153.7765 N   0  3  1  0  0  0  0  0  0  0  0  0
  147.5126  139.1601  153.2658 C   0  0  0  0  0  0  0  0  0  0  0  0
  146.9250  140.4958  152.7677 C   0  0  0  0  0  0  0  0  0  0  0  0
  147.0037  141.5936  153.8482 C   0  0  0  0  0  0  0  0  0  0  0  0
  148.4336  141.7232  154.4073 C   0  0  0  0  0  0  0  0  0  0  0  0
  148.9241  140.3482  154.8913 C   0  0  2  0  0  0  0  0  0  0  0  0
  150.7666  141.0213  159.3830 H   0  0  0  0  0  0  0  0  0  0  0  0
  152.5203  140.9474  159.4100 H   0  0  0  0  0  0  0  0  0  0  0  0
  153.7911  143.1982  159.0670 H   0  0  0  0  0  0  0  0  0  0  0  0
  152.9481  145.7642  158.6810 H   0  0  0  0  0  0  0  0  0  0  0  0
  150.2384  145.4608  158.1833 H   0  0  0  0  0  0  0  0  0  0  0  0
  149.7738  141.2532  157.1287 H   0  0  0  0  0  0  0  0  0  0  0  0
  151.0242  140.7834  154.6651 H   0  0  0  0  0  0  0  0  0  0  0  0
  151.6968  138.5703  154.9062 H   0  0  0  0  0  0  0  0  0  0  0  0
  150.5499  138.2342  156.1964 H   0  0  0  0  0  0  0  0  0  0  0  0
  150.1073  137.7034  153.3831 H   0  0  0  0  0  0  0  0  0  0  0  0
  148.9711  137.4965  154.7192 H   0  0  0  0  0  0  0  0  0  0  0  0
  147.5418  138.4350  152.4518 H   0  0  0  0  0  0  0  0  0  0  0  0
  146.8873  138.7370  154.0538 H   0  0  0  0  0  0  0  0  0  0  0  0
  147.4740  140.8235  151.8839 H   0  0  0  0  0  0  0  0  0  0  0  0
  145.8909  140.3551  152.4516 H   0  0  0  0  0  0  0  0  0  0  0  0
  146.6727  142.5481  153.4384 H   0  0  0  0  0  0  0  0  0  0  0  0
  146.3170  141.3517  154.6603 H   0  0  0  0  0  0  0  0  0  0  0  0
  149.1011  142.1117  153.6371 H   0  0  0  0  0  0  0  0  0  0  0  0
  148.4471  142.4426  155.2265 H   0  0  0  0  0  0  0  0  0  0  0  0
  148.2649  139.9876  155.6845 H   0  0  0  0  0  0  0  0  0  0  0  0
  149.4169  139.8031  153.0262 H   0  0  0  0  0  0  0  0  0  0  0  0
  1  2  2  0  0  0  0
  2  3  1  0  0  0  0
  2  9  1  0  0  0  0
  3  4  1  0  0  0  0
  3 19  1  0  0  0  0
  3 20  1  0  0  0  0
  4  8  1  0  0  0  0
  4  5  1  0  0  0  0
  5  6  2  0  0  0  0
  5 21  1  0  0  0  0
  6  7  1  0  0  0  0
  6 22  1  0  0  0  0
  7  8  2  0  0  0  0
  7 23  1  0  0  0  0
  9 10  1  0  0  0  0
  9 24  1  0  0  0  0
 10 18  1  0  0  0  0
 10 11  1  0  0  0  0
 10 25  1  0  0  0  0
 11 12  1  0  0  0  0
 11 26  1  0  0  0  0
 11 27  1  0  0  0  0
 12 13  1  0  0  0  0
 12 28  1  0  0  0  0
 12 29  1  0  0  0  0
 13 18  1  0  0  0  0
 13 14  1  0  0  0  0
 13 39  1  0  0  0  0
 14 15  1  0  0  0  0
 14 30  1  0  0  0  0
 14 31  1  0  0  0  0
 15 16  1  0  0  0  0
 15 32  1  0  0  0  0
 15 33  1  0  0  0  0
 16 17  1  0  0  0  0
 16 34  1  0  0  0  0
 16 35  1  0  0  0  0
 17 18  1  0  0  0  0
 17 36  1  0  0  0  0
 17 37  1  0  0  0  0
 18 38  1  0  0  0  0
M  CHG  1  13   1
M  END
> <s_m_source_file>
AV-unprocessed.smi

> <i_m_source_file_index>
2171

> <i_lp_mmshare_version>
43012

> <i_f3d_flags>
0

> <s_epik_input>
bjFbY0hdW2NIXVtjSF1uMVtDSDJdQyg9TylbTkhdW0NASF0oW0NIMl1bQ0gyXTIpW0NAQEhdKE4yMylbQ0gyXVtDSDJdW0NIMl1bQ0gyXTM=

> <s_epik_cmdline>
J2VwaWtfcHl0aG9uJywgJy1waCcsICc3LjAnLCAnLXRuJywgJzgnLCAnLW1hJywgJzIwMCcsICctbWV0YWxfYmluZGluZycsICctaW1hZScsICc8aW5maWxlLm1hZT4nLCAnLW9tYWUnLCAnPG91dGZpbGUubWFlPic=

> <r_lp_tautomer_probability>
1

> <r_epik_Ionization_Penalty>
0.00204179

> <r_epik_Ionization_Penalty_Charging>
0.00203239

> <r_epik_Ionization_Penalty_Neutral>
9.40205e-06

> <r_epik_State_Penalty>
0.00138983

> <r_epik_Charging_Adjusted_Penalty>
0.00342221

> <i_epik_Tot_Q>
1

> <i_epik_Tot_abs_Q>
1

> <r_epik_Metal_State_Penalty>
-0

> <b_epik_Metal_Only>
0

> <s_lp_Force_Field>
OPLS_2005

> <r_lp_Energy>
34.4486

> <b_lp_Chiralities_Consistent>
1

> <s_lp_Variant>
AV-unprocessed.smi:2171-6

> <Gold.Version>
5.8.1

> <Gold.Id.Protein>
6NUR|6NUR_protein|mol2

> <Gold.PLP.Fitness>
44.9783

> <Gold.PLP.PLP>
-37.1883

> <Gold.PLP.part.hbond>
-2.0000

> <Gold.PLP.part.metal>
0.0000

> <Gold.PLP.part.buried>
-0.3161

> <Gold.PLP.part.nonpolar>
-35.4171

> <Gold.PLP.part.repulsive>
0.2743

> <Gold.PLP.ligand.clash>
0.0000

> <Gold.PLP.ligand.torsion>
0.4615

> <Gold.PLP.Chemscore.Hbond>
1.9440

> <Gold.PLP.Chemscore.CHOScore>
0.9562

> <Gold.PLP.Chemscore.Metal>
0.0000

> <Gold.Chemscore.Hbonds>
donor molecule, donor type, donor heavy atom, donor atom, acceptor molecule, acceptor atom, score
      L1  H    13    39       P1  7957  0.94
      P1  H  7997  8008       L1     1  1.00
      L1  C     7    23       P1  8028  0.01
      L1  C     7    23       P1  8029  0.96

> <Gold.PLP.Chemscore.Internal.Correction>
0.0125

> <Gold.Rescore>
     Score         DG    S(hbond)    S(metal)    S(lipo)     H(rot)  DE(clash)    DE(int)     intcor
     18.85     -19.47       1.88        0.00      97.47       1.44       0.12       0.50       ----

> <Gold.Chemscore.Fitness>
18.8478

> <Gold.Chemscore.DG>
-19.4675

> <Gold.Chemscore.ZeroCoef>
-5.4800

> <Gold.Chemscore.Hbond>
1.8779

> <Gold.Chemscore.Metal>
0.0000

> <Gold.Chemscore.Lipo>
97.4737

> <Gold.Chemscore.Internal_Hbond>
0.0000

> <Gold.Chemscore.DEClash>
0.1194

> <Gold.Chemscore.DEInternal>
0.5004

> <Gold.Chemscore.Rot>
1.4410

> <Gold.Chemscore.Internal.Correction>
   9.000000E+99

> <Gold.Chemscore.Hbonds>
donor molecule, donor type, donor heavy atom, donor atom, acceptor molecule, acceptor atom, score
      L1  H    13    39       P1  7957  0.91
      P1  H  7997  8008       L1     1  0.98

> <Gold.Chemscore.Hbond.Weighted>
-6.2721

> <Gold.Chemscore.Metal.Weighted>
-0.0000

> <Gold.Chemscore.Lipo.Weighted>
-11.4044

> <Gold.Chemscore.Internal_Hbond.Weighted>
0.0000

> <Gold.Chemscore.DEClash.Weighted>
0.1194

> <Gold.Chemscore.DEInternal.Weighted>
0.5004

> <Gold.Chemscore.Rot.Weighted>
3.6889

> <Gold.Chemscore.Internal.Correction.Weighted>
   9.000000E+99

> <Gold.Protein.RotatedTorsions>
[ 6907 6896 6895 6894 ] final   77.21 input  -60.11 | X-H torsion
[ 7974 7965 7964 7962 ] final  148.83 input  175.53 | X-H torsion
[ 8008 7997 7996 7995 ] final  -65.43 input   59.86 | X-H torsion
[ 10167 10162 10161 10158 ] final  -16.85 input  -65.29 | X-H torsion
[ 10718 10713 10712 10709 ] final   53.37 input   66.30 | X-H torsion
[ 10763 10752 10751 10750 ] final   40.86 input  -60.55 | X-H torsion
[ 11005 11000 10999 10996 ] final  113.51 input  -57.11 | X-H torsion

> <Gold.Protein.ActiveResidues>
 VAL166  LYS551  ARG553  GLY616  TRP617  ASP618  TYR619  PRO620  LYS621  CYS622 
 ASP623  PHE694  ASN695  SER759  ASP760  ASP761  ALA762  ILE779  LEU786  VAL792 
 PHE793  MET794  SER795  GLU796  ALA797  LYS798  CYS799  TRP800  GLU811  SER814 

> <Gold.Protein.RotatedAtoms>
  152.5107  134.3851  159.9364 H   0  0  0  0  0  0  0  0  0  0  0  0  # atno 6907 bound_to 6896
  151.3810  133.3815  159.2718 H   0  0  0  0  0  0  0  0  0  0  0  0  # atno 6908 bound_to 6896
  150.9505  134.8925  159.7727 H   0  0  0  0  0  0  0  0  0  0  0  0  # atno 6909 bound_to 6896
  144.8484  139.6204  143.5985 H   0  0  0  0  0  0  0  0  0  0  0  0  # atno 7974 bound_to 7965
  154.4672  140.0933  156.7050 H   0  0  0  0  0  0  0  0  0  0  0  0  # atno 8008 bound_to 7997
  155.4826  140.3468  155.4324 H   0  0  0  0  0  0  0  0  0  0  0  0  # atno 8009 bound_to 7997
  156.0976  140.1413  156.9499 H   0  0  0  0  0  0  0  0  0  0  0  0  # atno 8010 bound_to 7997
  140.7239  143.5074  150.9792 H   0  0  0  0  0  0  0  0  0  0  0  0  # atno 10167 bound_to 10162
  157.5161  130.8533  149.8497 H   0  0  0  0  0  0  0  0  0  0  0  0  # atno 10718 bound_to 10713
  152.9924  135.6179  154.2695 H   0  0  0  0  0  0  0  0  0  0  0  0  # atno 10763 bound_to 10752
  154.2428  135.2788  155.2849 H   0  0  0  0  0  0  0  0  0  0  0  0  # atno 10764 bound_to 10752
  154.5354  135.5776  153.6852 H   0  0  0  0  0  0  0  0  0  0  0  0  # atno 10765 bound_to 10752
  139.8955  134.9551  156.6749 H   0  0  0  0  0  0  0  0  0  0  0  0  # atno 11005 bound_to 11000
  146.2763  139.6763  142.9260 LP  0  0  0  0  0  0  0  0  0  0  0  0  # atno 17320 bound_to 7965
  145.4551  141.0430  143.2783 LP  0  0  0  0  0  0  0  0  0  0  0  0  # atno 17321 bound_to 7965
  139.8787  143.7100  152.3159 LP  0  0  0  0  0  0  0  0  0  0  0  0  # atno 17342 bound_to 10162
  139.7374  144.7568  151.0705 LP  0  0  0  0  0  0  0  0  0  0  0  0  # atno 17343 bound_to 10162
  156.0321  130.3761  150.1659 LP  0  0  0  0  0  0  0  0  0  0  0  0  # atno 17370 bound_to 10713
  156.9848  130.9875  151.3429 LP  0  0  0  0  0  0  0  0  0  0  0  0  # atno 17371 bound_to 10713
  140.7344  133.9031  155.8234 LP  0  0  0  0  0  0  0  0  0  0  0  0  # atno 17394 bound_to 11000
  141.0127  134.0997  157.4204 LP  0  0  0  0  0  0  0  0  0  0  0  0  # atno 17395 bound_to 11000

$$$$
