AV-unprocessed.smi:475|AV-procd|sdf|2667|dock1
  -GOLD-   2262023 83D 1   1.00000     0.00000
 Structure written by MMmdl.
 39 41  0  0  0  0  0  0  0  0  1 V2000
  149.1371  140.7645  154.3201 C   0  0  0  0  0  0  0  0  0  0  0  0
  150.3119  140.6076  155.0959 O   0  0  0  0  0  0  0  0  0  0  0  0
  150.2497  141.3110  156.3260 C   0  0  0  0  0  0  0  0  0  0  0  0
  151.4752  140.9663  157.1852 C   0  0  0  0  0  0  0  0  0  0  0  0
  151.3340  141.4284  158.5584 N   0  0  0  0  0  0  0  0  0  0  0  0
  151.4024  140.6918  159.6937 C   0  0  0  0  0  0  0  0  0  0  0  0
  151.6919  138.9521  159.6484 S   0  0  0  0  0  0  0  0  0  0  0  0
  153.1369  138.8828  160.7456 C   0  0  0  0  0  0  0  0  0  0  0  0
  153.2985  137.4777  161.3170 C   0  0  0  0  0  0  0  0  0  0  0  0
  153.2524  136.5053  160.5640 O   0  0  0  0  0  0  0  0  0  0  0  0
  153.5075  137.3462  162.7566 C   0  0  0  0  0  0  0  0  0  0  0  0
  153.8181  138.2548  163.7328 C   0  0  0  0  0  0  0  0  0  0  0  0
  153.9019  137.5524  164.9718 C   0  0  0  0  0  0  0  0  0  0  0  0
  153.6379  136.2326  164.7259 C   0  0  0  0  0  0  0  0  0  0  0  0
  153.3978  136.1169  163.3734 N   0  0  0  0  0  0  0  0  0  0  0  0
  151.2379  141.3689  160.8312 N   0  0  0  0  0  0  0  0  0  0  0  0
  151.0553  142.6654  160.3921 C   0  0  0  0  0  0  0  0  0  0  0  0
  150.8354  143.8582  161.1176 C   0  0  0  0  0  0  0  0  0  0  0  0
  150.6791  145.0859  160.4416 C   0  0  0  0  0  0  0  0  0  0  0  0
  150.7413  145.1386  159.0341 C   0  0  0  0  0  0  0  0  0  0  0  0
  150.9586  143.9616  158.2923 C   0  0  0  0  0  0  0  0  0  0  0  0
  151.1120  142.7382  158.9719 C   0  0  0  0  0  0  0  0  0  0  0  0
  153.1746  135.2543  162.8972 H   0  0  0  0  0  0  0  0  0  0  0  0
  149.2368  140.2076  153.3887 H   0  0  0  0  0  0  0  0  0  0  0  0
  148.9670  141.8123  154.0696 H   0  0  0  0  0  0  0  0  0  0  0  0
  148.2613  140.3842  154.8471 H   0  0  0  0  0  0  0  0  0  0  0  0
  150.2203  142.3858  156.1415 H   0  0  0  0  0  0  0  0  0  0  0  0
  149.3336  141.0499  156.8572 H   0  0  0  0  0  0  0  0  0  0  0  0
  151.6274  139.8866  157.1950 H   0  0  0  0  0  0  0  0  0  0  0  0
  152.3792  141.3969  156.7538 H   0  0  0  0  0  0  0  0  0  0  0  0
  154.0394  139.1408  160.1914 H   0  0  0  0  0  0  0  0  0  0  0  0
  153.0245  139.6114  161.5488 H   0  0  0  0  0  0  0  0  0  0  0  0
  153.9717  139.3128  163.5771 H   0  0  0  0  0  0  0  0  0  0  0  0
  154.1309  137.9710  165.9406 H   0  0  0  0  0  0  0  0  0  0  0  0
  153.5984  135.3729  165.3786 H   0  0  0  0  0  0  0  0  0  0  0  0
  150.7878  143.8285  162.1960 H   0  0  0  0  0  0  0  0  0  0  0  0
  150.5120  145.9919  161.0058 H   0  0  0  0  0  0  0  0  0  0  0  0
  150.6226  146.0832  158.5238 H   0  0  0  0  0  0  0  0  0  0  0  0
  151.0095  144.0002  157.2145 H   0  0  0  0  0  0  0  0  0  0  0  0
  1  2  1  0  0  0  0
  1 24  1  0  0  0  0
  1 25  1  0  0  0  0
  1 26  1  0  0  0  0
  2  3  1  0  0  0  0
  3  4  1  0  0  0  0
  3 27  1  0  0  0  0
  3 28  1  0  0  0  0
  4  5  1  0  0  0  0
  4 29  1  0  0  0  0
  4 30  1  0  0  0  0
  5 22  1  0  0  0  0
  5  6  1  0  0  0  0
  6  7  1  0  0  0  0
  6 16  2  0  0  0  0
  7  8  1  0  0  0  0
  8  9  1  0  0  0  0
  8 31  1  0  0  0  0
  8 32  1  0  0  0  0
  9 10  2  0  0  0  0
  9 11  1  0  0  0  0
 11 15  1  0  0  0  0
 11 12  2  0  0  0  0
 12 13  1  0  0  0  0
 12 33  1  0  0  0  0
 13 14  2  0  0  0  0
 13 34  1  0  0  0  0
 14 15  1  0  0  0  0
 14 35  1  0  0  0  0
 15 23  1  0  0  0  0
 16 17  1  0  0  0  0
 17 22  2  0  0  0  0
 17 18  1  0  0  0  0
 18 19  2  0  0  0  0
 18 36  1  0  0  0  0
 19 20  1  0  0  0  0
 19 37  1  0  0  0  0
 20 21  2  0  0  0  0
 20 38  1  0  0  0  0
 21 22  1  0  0  0  0
 21 39  1  0  0  0  0
M  END
> <s_m_source_file>
AV-unprocessed.smi

> <i_m_source_file_index>
475

> <i_lp_mmshare_version>
43012

> <i_f3d_flags>
0

> <s_epik_input>
W2NIXTFbY0hdW2NIXVtjSF1jKGMxMiluKFtDSDJdW0NIMl1PW0NIM10pYyhuMilTW0NIMl1DKD1PKWMzW2NIXVtjSF1bY0hdW25IXTM=

> <s_epik_cmdline>
J2VwaWtfcHl0aG9uJywgJy1waCcsICc3LjAnLCAnLXRuJywgJzgnLCAnLW1hJywgJzIwMCcsICctbWV0YWxfYmluZGluZycsICctaW1hZScsICc8aW5maWxlLm1hZT4nLCAnLW9tYWUnLCAnPG91dGZpbGUubWFlPic=

> <r_lp_tautomer_probability>
0.9999

> <r_epik_Ionization_Penalty>
0.016511

> <r_epik_Ionization_Penalty_Charging>
0

> <r_epik_Ionization_Penalty_Neutral>
0.016511

> <r_epik_State_Penalty>
0.0130354

> <r_epik_Charging_Adjusted_Penalty>
0.0130354

> <i_epik_Tot_Q>
0

> <i_epik_Tot_abs_Q>
0

> <r_epik_Metal_State_Penalty>
0.0126412

> <b_epik_Metal_Only>
0

> <s_lp_Force_Field>
OPLS_2005

> <r_lp_Energy>
12.6628

> <b_lp_Chiralities_Consistent>
1

> <s_lp_Variant>
AV-unprocessed.smi:475-1

> <Gold.Version>
5.8.1

> <Gold.Id.Protein>
6NUR|6NUR_protein|mol2

> <Gold.PLP.Fitness>
55.8498

> <Gold.PLP.PLP>
-50.7731

> <Gold.PLP.part.hbond>
-2.2115

> <Gold.PLP.part.metal>
0.0000

> <Gold.PLP.part.buried>
-5.9884

> <Gold.PLP.part.nonpolar>
-42.5024

> <Gold.PLP.part.repulsive>
0.1307

> <Gold.PLP.ligand.clash>
0.0000

> <Gold.PLP.ligand.torsion>
0.3873

> <Gold.PLP.Chemscore.Hbond>
1.8640

> <Gold.PLP.Chemscore.CHOScore>
0.0000

> <Gold.PLP.Chemscore.Metal>
0.0000

> <Gold.Chemscore.Hbonds>
donor molecule, donor type, donor heavy atom, donor atom, acceptor molecule, acceptor atom, score
      P1  H  6896  6908       L1    10  1.00
      P1  H  6933  6945       L1    16  0.01
      P1  H  7989  7998       L1     2  0.60

> <Gold.PLP.Chemscore.Internal.Correction>
0.2591

> <Gold.Rescore>
     Score         DG    S(hbond)    S(metal)    S(lipo)     H(rot)  DE(clash)    DE(int)     intcor
     20.61     -21.55       1.70        0.00     133.46       2.03       0.31       0.64       ----

> <Gold.Chemscore.Fitness>
20.6084

> <Gold.Chemscore.DG>
-21.5514

> <Gold.Chemscore.ZeroCoef>
-5.4800

> <Gold.Chemscore.Hbond>
1.6961

> <Gold.Chemscore.Metal>
0.0000

> <Gold.Chemscore.Lipo>
133.4620

> <Gold.Chemscore.Internal_Hbond>
0.0000

> <Gold.Chemscore.DEClash>
0.3060

> <Gold.Chemscore.DEInternal>
0.6370

> <Gold.Chemscore.Rot>
2.0346

> <Gold.Chemscore.Internal.Correction>
   9.000000E+99

> <Gold.Chemscore.Hbonds>
donor molecule, donor type, donor heavy atom, donor atom, acceptor molecule, acceptor atom, score
      P1  H  6896  6908       L1    10  0.99
      P1  H  7989  7998       L1     2  0.07

> <Gold.Chemscore.Hbond.Weighted>
-5.6650

> <Gold.Chemscore.Metal.Weighted>
-0.0000

> <Gold.Chemscore.Lipo.Weighted>
-15.6151

> <Gold.Chemscore.Internal_Hbond.Weighted>
0.0000

> <Gold.Chemscore.DEClash.Weighted>
0.3060

> <Gold.Chemscore.DEInternal.Weighted>
0.6370

> <Gold.Chemscore.Rot.Weighted>
5.2087

> <Gold.Chemscore.Internal.Correction.Weighted>
   9.000000E+99

> <Gold.Protein.RotatedTorsions>
[ 6907 6896 6895 6894 ] final  -89.35 input  -60.11 | X-H torsion
[ 7974 7965 7964 7962 ] final   85.18 input  175.53 | X-H torsion
[ 8008 7997 7996 7995 ] final   49.97 input   59.86 | X-H torsion
[ 10167 10162 10161 10158 ] final -103.01 input  -65.29 | X-H torsion
[ 10718 10713 10712 10709 ] final   -0.77 input   66.30 | X-H torsion
[ 10763 10752 10751 10750 ] final  142.54 input  -60.55 | X-H torsion
[ 11005 11000 10999 10996 ] final   72.98 input  -57.11 | X-H torsion

> <Gold.Protein.ActiveResidues>
 VAL166  LYS551  ARG553  GLY616  TRP617  ASP618  TYR619  PRO620  LYS621  CYS622 
 ASP623  PHE694  ASN695  SER759  ASP760  ASP761  ALA762  ILE779  LEU786  VAL792 
 PHE793  MET794  SER795  GLU796  ALA797  LYS798  CYS799  TRP800  GLU811  SER814 

> <Gold.Protein.RotatedAtoms>
  150.6873  134.2601  159.4545 H   0  0  0  0  0  0  0  0  0  0  0  0  # atno 6907 bound_to 6896
  152.0532  134.9638  160.0584 H   0  0  0  0  0  0  0  0  0  0  0  0  # atno 6908 bound_to 6896
  152.1095  133.4258  159.4661 H   0  0  0  0  0  0  0  0  0  0  0  0  # atno 6909 bound_to 6896
  145.5889  139.2335  143.2310 H   0  0  0  0  0  0  0  0  0  0  0  0  # atno 7974 bound_to 7965
  155.4109  140.3442  155.4263 H   0  0  0  0  0  0  0  0  0  0  0  0  # atno 8008 bound_to 7997
  156.1449  140.1553  156.8894 H   0  0  0  0  0  0  0  0  0  0  0  0  # atno 8009 bound_to 7997
  154.5002  140.0817  156.7762 H   0  0  0  0  0  0  0  0  0  0  0  0  # atno 8010 bound_to 7997
  140.2246  143.3651  152.0940 H   0  0  0  0  0  0  0  0  0  0  0  0  # atno 10167 bound_to 10162
  156.8155  130.5439  149.5703 H   0  0  0  0  0  0  0  0  0  0  0  0  # atno 10718 bound_to 10713
  153.9575  135.2963  155.3435 H   0  0  0  0  0  0  0  0  0  0  0  0  # atno 10763 bound_to 10752
  154.7393  135.5032  153.9098 H   0  0  0  0  0  0  0  0  0  0  0  0  # atno 10764 bound_to 10752
  153.0963  135.6722  153.9866 H   0  0  0  0  0  0  0  0  0  0  0  0  # atno 10765 bound_to 10752
  139.9463  134.7307  156.0971 H   0  0  0  0  0  0  0  0  0  0  0  0  # atno 11005 bound_to 11000
  146.1661  140.6715  142.9255 LP  0  0  0  0  0  0  0  0  0  0  0  0  # atno 17320 bound_to 7965
  144.7360  140.4810  143.6903 LP  0  0  0  0  0  0  0  0  0  0  0  0  # atno 17321 bound_to 7965
  139.5132  144.6928  151.5712 LP  0  0  0  0  0  0  0  0  0  0  0  0  # atno 17342 bound_to 10162
  140.6230  143.9222  150.6541 LP  0  0  0  0  0  0  0  0  0  0  0  0  # atno 17343 bound_to 10162
  156.1019  130.5975  150.9908 LP  0  0  0  0  0  0  0  0  0  0  0  0  # atno 17370 bound_to 10713
  157.6484  131.0900  150.8104 LP  0  0  0  0  0  0  0  0  0  0  0  0  # atno 17371 bound_to 10713
  141.1114  133.6642  156.2988 LP  0  0  0  0  0  0  0  0  0  0  0  0  # atno 17394 bound_to 11000
  140.5827  134.5730  157.5483 LP  0  0  0  0  0  0  0  0  0  0  0  0  # atno 17395 bound_to 11000

$$$$
