#       Name:                AV-unprocessed.smi:2451
#       Creating user name   scv26
#       Creation time:       Fri Mar 27 13:31:47 2020


#       File generated by GOLD software.
#

@<TRIPOS>MOLECULE
AV-unprocessed.smi:2451
    41    42     1
SMALL
NO_CHARGES


@<TRIPOS>ATOM
      1 ****        -1.6045  -2.3961  -1.5249 C.3            1 S1                 0.0000
      2 ****        -1.1893  -1.5656  -0.2964 C.3            1 S1                 0.0000
      3 ****        -1.7975  -2.2055   0.9773 C.3            1 S1                 0.0000
      4 ****        -1.4243  -1.3901   2.2304 C.3            1 S1                 0.0000
      5 ****        -1.7980   0.1071   2.1012 C.3            1 S1                 0.0000
      6 ****        -1.2114   0.7907   0.8433 C.3            1 S1                 0.0000
      7 ****         0.2339   0.9196   0.9889 N.pl3          1 S1                -1.0000
      8 ****         0.9311   2.3824   0.9243 S.o2           1 S1                 0.0000
      9 ****         0.7065   3.0689  -0.3588 O.2            1 S1                 0.0000
     10 ****         0.6937   3.1587   2.1520 O.2            1 S1                 0.0000
     11 ****         2.7167   1.9118   0.9588 C.3            1 S1                 0.0000
     12 ****         3.1535   1.3967  -0.3862 C.2            1 S1                 0.0000
     13 ****         2.9033   0.1229  -0.9693 C.2            1 S1                 0.0000
     14 ****         3.5216   0.1998  -2.1834 C.2            1 S1                 0.0000
     15 ****         4.1156   1.4099  -2.3383 O.3            1 S1                 0.0000
     16 ****         3.8794   2.1653  -1.1841 N.2            1 S1                 0.0000
     17 ****        -1.5692  -0.0489  -0.4279 C.3            1 S1                 0.0000
     18 ****        -1.0509   0.6009  -1.7360 C.3            1 S1                 0.0000
     19 ****        -2.6696  -2.2902  -1.7333 H              1 S1                 0.0000
     20 ****        -1.4005  -3.4556  -1.3680 H              1 S1                 0.0000
     21 ****        -1.0537  -2.1007  -2.4173 H              1 S1                 0.0000
     22 ****        -0.1028  -1.6496  -0.2210 H              1 S1                 0.0000
     23 ****        -2.8836  -2.2509   0.8854 H              1 S1                 0.0000
     24 ****        -1.4512  -3.2331   1.0905 H              1 S1                 0.0000
     25 ****        -1.9289  -1.8136   3.0991 H              1 S1                 0.0000
     26 ****        -0.3561  -1.4979   2.4292 H              1 S1                 0.0000
     27 ****        -2.8849   0.1896   2.0655 H              1 S1                 0.0000
     28 ****        -1.4907   0.6451   2.9990 H              1 S1                 0.0000
     29 ****        -1.6862   1.7683   0.7487 H              1 S1                 0.0000
     30 ****         3.2848   2.7998   1.2357 H              1 S1                 0.0000
     31 ****         2.8678   1.1700   1.7425 H              1 S1                 0.0000
     32 ****         2.3466  -0.7088  -0.5634 H              1 S1                 0.0000
     33 ****         3.6254  -0.4894  -3.0082 H              1 S1                 0.0000
     34 ****        -2.6573  -0.0167  -0.5016 H              1 S1                 0.0000
     35 ****         0.0338   0.5270  -1.8289 H              1 S1                 0.0000
     36 ****        -1.3193   1.6568  -1.8113 H              1 S1                 0.0000
     37 ****        -1.4830   0.1232  -2.6142 H              1 S1                 0.0000
     38 ****         0.7961   0.1045   1.1288 LP             1 S1                 0.0000
     39 ****         3.7291   1.8771  -3.1334 LP             1 S1                 0.0000
     40 ****         5.0998   1.2894  -2.4683 LP             1 S1                 0.0000
     41 ****         4.1946   3.0961  -0.9993 LP             1 S1                 0.0000
@<TRIPOS>BOND
    1    1    2 1     
    2    1   19 1     
    3    1   20 1     
    4    1   21 1     
    5    2   17 1     
    6    2    3 1     
    7    2   22 1     
    8    3    4 1     
    9    3   23 1     
   10    3   24 1     
   11    4    5 1     
   12    4   25 1     
   13    4   26 1     
   14    5    6 1     
   15    5   27 1     
   16    5   28 1     
   17    6    7 1     
   18    6   17 1     
   19    6   29 1     
   20    7    8 1     
   21    8    9 2     
   22    8   10 2     
   23    8   11 1     
   24   11   12 1     
   25   11   30 1     
   26   11   31 1     
   27   12   16 2     
   28   12   13 1     
   29   13   14 2     
   30   13   32 1     
   31   14   15 1     
   32   14   33 1     
   33   15   16 1     
   34   17   18 1     
   35   17   34 1     
   36   18   35 1     
   37   18   36 1     
   38   18   37 1     
   39    7   38 1     
   40   15   39 1     
   41   15   40 1     
   42   16   41 1     
@<TRIPOS>SUBSTRUCTURE
      1 S1             1
@<TRIPOS>SET
LONE_PAIRS      STATIC     ATOMS    <user>   **** ""
6 38 9 10 39 40 41
ATOM$BLUE        STATIC     ATOMS    COLORGROUP SYSTEM
6 38 9 10 39 40 41
