AV-unprocessed.smi:610|AV-procd|sdf|3058|dock7
  -GOLD-   2262023583D 1   1.00000     0.00000
 Structure written by MMmdl.
 38 39  0  0  0  0  0  0  0  0  2 V2000
  146.3342  138.0381  152.2240 C   0  0  0  0  0  0  0  0  0  0  0  0
  145.7856  136.6217  152.4491 C   0  0  1  0  0  0  0  0  0  0  0  0
  144.9396  136.1418  151.2550 C   0  0  0  0  0  0  0  0  0  0  0  0
  144.5300  134.7398  151.3915 N   0  0  0  0  0  0  0  0  0  0  0  0
  144.6938  133.7351  150.4728 C   0  0  0  0  0  0  0  0  0  0  0  0
  144.1543  132.6044  151.0297 C   0  0  0  0  0  0  0  0  0  0  0  0
  143.6866  132.9658  152.2649 N   0  3  0  0  0  0  0  0  0  0  0  0
  143.9173  134.2645  152.4836 C   0  0  0  0  0  0  0  0  0  0  0  0
  146.8913  135.6949  152.6795 N   0  0  0  0  0  0  0  0  0  0  0  0
  146.9601  134.7754  153.6578 C   0  0  0  0  0  0  0  0  0  0  0  0
  146.0729  134.6444  154.5020 O   0  0  0  0  0  0  0  0  0  0  0  0
  148.2146  133.8669  153.7063 C   0  0  0  0  0  0  0  0  0  0  0  0
  149.4269  134.6384  153.9520 N   0  0  0  0  0  0  0  0  0  0  0  0
  148.0650  132.7776  154.8011 C   0  0  0  0  0  0  0  0  0  0  0  0
  148.1658  131.4181  154.0990 C   0  0  0  0  0  0  0  0  0  0  0  0
  147.8107  131.6949  152.6425 C   0  0  0  0  0  0  0  0  0  0  0  0
  148.3992  133.0813  152.3845 C   0  0  0  0  0  0  0  0  0  0  0  0
  145.5249  138.7496  152.0582 H   0  0  0  0  0  0  0  0  0  0  0  0
  146.9940  138.0764  151.3565 H   0  0  0  0  0  0  0  0  0  0  0  0
  146.9010  138.3831  153.0895 H   0  0  0  0  0  0  0  0  0  0  0  0
  145.1389  136.6486  153.3281 H   0  0  0  0  0  0  0  0  0  0  0  0
  144.0291  136.7366  151.1704 H   0  0  0  0  0  0  0  0  0  0  0  0
  145.4834  136.2589  150.3159 H   0  0  0  0  0  0  0  0  0  0  0  0
  145.1669  133.8965  149.5148 H   0  0  0  0  0  0  0  0  0  0  0  0
  144.0705  131.5966  150.6496 H   0  0  0  0  0  0  0  0  0  0  0  0
  143.6555  134.8198  153.3668 H   0  0  0  0  0  0  0  0  0  0  0  0
  147.6738  135.7489  152.0431 H   0  0  0  0  0  0  0  0  0  0  0  0
  150.2301  134.0709  153.7216 H   0  0  0  0  0  0  0  0  0  0  0  0
  149.4491  135.4255  153.3200 H   0  0  0  0  0  0  0  0  0  0  0  0
  148.8165  132.8588  155.5881 H   0  0  0  0  0  0  0  0  0  0  0  0
  147.0971  132.8462  155.3013 H   0  0  0  0  0  0  0  0  0  0  0  0
  149.1921  131.0531  154.1585 H   0  0  0  0  0  0  0  0  0  0  0  0
  147.5207  130.6641  154.5511 H   0  0  0  0  0  0  0  0  0  0  0  0
  148.2036  130.9382  151.9629 H   0  0  0  0  0  0  0  0  0  0  0  0
  146.7267  131.7203  152.5235 H   0  0  0  0  0  0  0  0  0  0  0  0
  147.9329  133.5616  151.5227 H   0  0  0  0  0  0  0  0  0  0  0  0
  149.4573  132.9690  152.1405 H   0  0  0  0  0  0  0  0  0  0  0  0
  143.2328  132.3417  152.9202 H   0  0  0  0  0  0  0  0  0  0  0  0
  1  2  1  0  0  0  0
  1 18  1  0  0  0  0
  1 19  1  0  0  0  0
  1 20  1  0  0  0  0
  2  3  1  0  0  0  0
  2  9  1  0  0  0  0
  2 21  1  0  0  0  0
  3  4  1  0  0  0  0
  3 22  1  0  0  0  0
  3 23  1  0  0  0  0
  4  8  1  0  0  0  0
  4  5  1  0  0  0  0
  5  6  2  0  0  0  0
  5 24  1  0  0  0  0
  6  7  1  0  0  0  0
  6 25  1  0  0  0  0
  7  8  2  0  0  0  0
  7 38  1  0  0  0  0
  8 26  1  0  0  0  0
  9 10  1  0  0  0  0
  9 27  1  0  0  0  0
 10 11  2  0  0  0  0
 10 12  1  0  0  0  0
 12 17  1  0  0  0  0
 12 13  1  0  0  0  0
 12 14  1  0  0  0  0
 13 28  1  0  0  0  0
 13 29  1  0  0  0  0
 14 15  1  0  0  0  0
 14 30  1  0  0  0  0
 14 31  1  0  0  0  0
 15 16  1  0  0  0  0
 15 32  1  0  0  0  0
 15 33  1  0  0  0  0
 16 17  1  0  0  0  0
 16 34  1  0  0  0  0
 16 35  1  0  0  0  0
 17 36  1  0  0  0  0
 17 37  1  0  0  0  0
M  CHG  1   7   1
M  END
> <s_m_source_file>
AV-unprocessed.smi

> <i_m_source_file_index>
610

> <i_lp_mmshare_version>
43012

> <i_f3d_flags>
0

> <s_epik_input>
W2NIXTFuW2NIXVtjSF1uMVtDSDJdW0NAQEhdKFtDSDNdKVtOSF1DKD1PKUMyKFtOSDJdKVtDSDJdW0NIMl1bQ0gyXVtDSDJdMg==

> <s_epik_cmdline>
J2VwaWtfcHl0aG9uJywgJy1waCcsICc3LjAnLCAnLXRuJywgJzgnLCAnLW1hJywgJzIwMCcsICctbWV0YWxfYmluZGluZycsICctaW1hZScsICc8aW5maWxlLm1hZT4nLCAnLW9tYWUnLCAnPG91dGZpbGUubWFlPic=

> <r_epik_Ionization_Penalty>
1.50287

> <r_epik_Ionization_Penalty_Charging>
0

> <r_epik_Ionization_Penalty_Neutral>
1.50287

> <r_epik_State_Penalty>
1.57152

> <r_epik_Charging_Adjusted_Penalty>
1.57152

> <i_epik_Tot_Q>
1

> <i_epik_Tot_abs_Q>
1

> <r_epik_Metal_State_Penalty>
1.8522

> <b_epik_Metal_Only>
0

> <s_lp_Force_Field>
OPLS_2005

> <r_lp_Energy>
23.5797

> <b_lp_Chiralities_Consistent>
1

> <s_lp_Variant>
AV-unprocessed.smi:610-6

> <Gold.Version>
5.8.1

> <Gold.Id.Protein>
6NUR|6NUR_protein|mol2

> <Gold.PLP.Fitness>
39.5136

> <Gold.PLP.PLP>
-25.1770

> <Gold.PLP.part.hbond>
-2.8076

> <Gold.PLP.part.metal>
0.0000

> <Gold.PLP.part.buried>
-1.1699

> <Gold.PLP.part.nonpolar>
-22.5223

> <Gold.PLP.part.repulsive>
0.0671

> <Gold.PLP.ligand.clash>
0.0000

> <Gold.PLP.ligand.torsion>
0.3222

> <Gold.PLP.Chemscore.Hbond>
3.9825

> <Gold.PLP.Chemscore.CHOScore>
1.0000

> <Gold.PLP.Chemscore.Metal>
0.0000

> <Gold.Chemscore.Hbonds>
donor molecule, donor type, donor heavy atom, donor atom, acceptor molecule, acceptor atom, score
      L1  H     7    38       P1 10957  0.90
      L1  H     9    27       P1  7948  0.52
      L1  H    13    29       P1  7948  0.75
      L1  C     5    24       P1  7921  1.00

> <Gold.PLP.Chemscore.Internal.Correction>
0.0335

> <Gold.Rescore>
     Score         DG    S(hbond)    S(metal)    S(lipo)     H(rot)  DE(clash)    DE(int)     intcor
     12.77     -15.22       2.77        0.00      48.16       2.02       0.87       1.58       ----

> <Gold.Chemscore.Fitness>
12.7700

> <Gold.Chemscore.DG>
-15.2215

> <Gold.Chemscore.ZeroCoef>
-5.4800

> <Gold.Chemscore.Hbond>
2.7741

> <Gold.Chemscore.Metal>
0.0000

> <Gold.Chemscore.Lipo>
48.1622

> <Gold.Chemscore.Internal_Hbond>
0.0000

> <Gold.Chemscore.DEClash>
0.8711

> <Gold.Chemscore.DEInternal>
1.5804

> <Gold.Chemscore.Rot>
2.0152

> <Gold.Chemscore.Internal.Correction>
   9.000000E+99

> <Gold.Chemscore.Hbonds>
donor molecule, donor type, donor heavy atom, donor atom, acceptor molecule, acceptor atom, score
      L1  H     7    38       P1 10957  0.01
      L1  H     9    27       P1  7948  0.51
      L1  H    13    29       P1  7948  0.09

> <Gold.Chemscore.Hbond.Weighted>
-9.2654

> <Gold.Chemscore.Metal.Weighted>
-0.0000

> <Gold.Chemscore.Lipo.Weighted>
-5.6350

> <Gold.Chemscore.Internal_Hbond.Weighted>
0.0000

> <Gold.Chemscore.DEClash.Weighted>
0.8711

> <Gold.Chemscore.DEInternal.Weighted>
1.5804

> <Gold.Chemscore.Rot.Weighted>
5.1589

> <Gold.Chemscore.Internal.Correction.Weighted>
   9.000000E+99

> <Gold.Protein.RotatedTorsions>
[ 6907 6896 6895 6894 ] final  -54.79 input  -60.11 | X-H torsion
[ 7974 7965 7964 7962 ] final    2.24 input  175.53 | X-H torsion
[ 8008 7997 7996 7995 ] final -166.27 input   59.86 | X-H torsion
[ 10167 10162 10161 10158 ] final -111.21 input  -65.29 | X-H torsion
[ 10718 10713 10712 10709 ] final  -14.28 input   66.30 | X-H torsion
[ 10763 10752 10751 10750 ] final  -72.70 input  -60.55 | X-H torsion
[ 11005 11000 10999 10996 ] final   52.89 input  -57.11 | X-H torsion

> <Gold.Protein.ActiveResidues>
 VAL166  LYS551  ARG553  GLY616  TRP617  ASP618  TYR619  PRO620  LYS621  CYS622 
 ASP623  PHE694  ASN695  SER759  ASP760  ASP761  ALA762  ILE779  LEU786  VAL792 
 PHE793  MET794  SER795  GLU796  ALA797  LYS798  CYS799  TRP800  GLU811  SER814 

> <Gold.Protein.RotatedAtoms>
  150.8308  134.7560  159.6851 H   0  0  0  0  0  0  0  0  0  0  0  0  # atno 6907 bound_to 6896
  152.4412  134.5583  159.9896 H   0  0  0  0  0  0  0  0  0  0  0  0  # atno 6908 bound_to 6896
  151.5744  133.3348  159.3032 H   0  0  0  0  0  0  0  0  0  0  0  0  # atno 6909 bound_to 6896
  146.2443  140.0866  142.8354 H   0  0  0  0  0  0  0  0  0  0  0  0  # atno 7974 bound_to 7965
  155.8615  140.0979  157.1610 H   0  0  0  0  0  0  0  0  0  0  0  0  # atno 8008 bound_to 7997
  154.3991  140.1364  156.4028 H   0  0  0  0  0  0  0  0  0  0  0  0  # atno 8009 bound_to 7997
  155.7852  140.3457  155.5321 H   0  0  0  0  0  0  0  0  0  0  0  0  # atno 8010 bound_to 7997
  140.1361  143.4319  152.1594 H   0  0  0  0  0  0  0  0  0  0  0  0  # atno 10167 bound_to 10162
  156.6183  130.4868  149.6174 H   0  0  0  0  0  0  0  0  0  0  0  0  # atno 10718 bound_to 10713
  154.4494  135.5921  153.6181 H   0  0  0  0  0  0  0  0  0  0  0  0  # atno 10763 bound_to 10752
  152.9812  135.6017  154.3624 H   0  0  0  0  0  0  0  0  0  0  0  0  # atno 10764 bound_to 10752
  154.3483  135.2841  155.2364 H   0  0  0  0  0  0  0  0  0  0  0  0  # atno 10765 bound_to 10752
  140.0812  134.5336  155.8945 H   0  0  0  0  0  0  0  0  0  0  0  0  # atno 11005 bound_to 11000
  145.0687  140.9140  143.4895 LP  0  0  0  0  0  0  0  0  0  0  0  0  # atno 17320 bound_to 7965
  145.0995  139.2832  143.5693 LP  0  0  0  0  0  0  0  0  0  0  0  0  # atno 17321 bound_to 7965
  139.5495  144.7326  151.4478 LP  0  0  0  0  0  0  0  0  0  0  0  0  # atno 17342 bound_to 10162
  140.6788  143.8128  150.7094 LP  0  0  0  0  0  0  0  0  0  0  0  0  # atno 17343 bound_to 10162
  156.2333  130.6807  151.1485 LP  0  0  0  0  0  0  0  0  0  0  0  0  # atno 17370 bound_to 10713
  157.7235  131.0666  150.6035 LP  0  0  0  0  0  0  0  0  0  0  0  0  # atno 17371 bound_to 10713
  141.2047  133.6641  156.6138 LP  0  0  0  0  0  0  0  0  0  0  0  0  # atno 17394 bound_to 11000
  140.3485  134.7789  157.4449 LP  0  0  0  0  0  0  0  0  0  0  0  0  # atno 17395 bound_to 11000

$$$$
