AV-unprocessed.smi:109|AV-procd|sdf|1040|dock1
  -GOLD-   2262018 63D 1   1.00000     0.00000
 Structure written by MMmdl.
 58 61  0  0  0  0  0  0  0  0  1 V2000
  149.7322  140.9570  154.0123 O   0  0  0  0  0  0  0  0  0  0  0  0
  150.4530  139.8776  154.5658 C   0  0  0  0  0  0  0  0  0  0  0  0
  151.4045  140.3891  155.6592 C   0  0  0  0  0  0  0  0  0  0  0  0
  150.6856  141.2215  156.7405 C   0  0  1  0  0  0  0  0  0  0  0  0
  149.6866  140.3988  157.4251 N   0  0  0  0  0  0  0  0  0  0  0  0
  148.3827  140.7478  157.4936 C   0  0  0  0  0  0  0  0  0  0  0  0
  147.6054  140.8266  156.3818 N   0  0  0  0  0  0  0  0  0  0  0  0
  146.3181  141.1713  156.4861 C   0  0  0  0  0  0  0  0  0  0  0  0
  145.6198  141.4695  157.5843 N   0  0  0  0  0  0  0  0  0  0  0  0
  146.3979  141.3912  158.7024 C   0  0  0  0  0  0  0  0  0  0  0  0
  147.7756  141.0411  158.7416 C   0  0  0  0  0  0  0  0  0  0  0  0
  148.2286  141.0624  160.0546 N   0  0  0  0  0  0  0  0  0  0  0  0
  147.1735  141.3990  160.7475 C   0  0  0  0  0  0  0  0  0  0  0  0
  146.0285  141.6143  160.0095 N   0  0  0  0  0  0  0  0  0  0  0  0
  144.6603  141.9900  160.4758 C   0  0  2  0  0  0  0  0  0  0  0  0
  144.2682  143.1275  159.7663 O   0  0  0  0  0  0  0  0  0  0  0  0
  143.9065  144.1794  160.6558 C   0  0  2  0  0  0  0  0  0  0  0  0
  144.1717  145.5565  160.0225 C   0  0  0  0  0  0  0  0  0  0  0  0
  144.1706  146.5562  161.0188 O   0  0  0  0  0  0  0  0  0  0  0  0
  144.6897  143.8776  161.9404 C   0  0  2  0  0  0  0  0  0  0  0  0
  146.0081  144.3929  161.8809 O   0  0  0  0  0  0  0  0  0  0  0  0
  144.7137  142.3572  161.9670 C   0  0  1  0  0  0  0  0  0  0  0  0
  143.5928  141.8456  162.6595 O   0  0  0  0  0  0  0  0  0  0  0  0
  151.6743  141.8747  157.7423 C   0  0  0  0  0  0  0  0  0  0  0  0
  152.2594  140.8870  158.7796 C   0  0  0  0  0  0  0  0  0  0  0  0
  153.2725  141.5757  159.7092 C   0  0  0  0  0  0  0  0  0  0  0  0
  152.6540  142.7968  160.4060 C   0  0  0  0  0  0  0  0  0  0  0  0
  152.0804  143.7864  159.3809 C   0  0  0  0  0  0  0  0  0  0  0  0
  151.0628  143.1002  158.4558 C   0  0  0  0  0  0  0  0  0  0  0  0
  144.0385  141.1249  160.2398 H   0  0  0  0  0  0  0  0  0  0  0  0
  142.8442  144.0725  160.8844 H   0  0  0  0  0  0  0  0  0  0  0  0
  144.2055  144.3022  162.8209 H   0  0  0  0  0  0  0  0  0  0  0  0
  145.6105  141.9587  162.4449 H   0  0  0  0  0  0  0  0  0  0  0  0
  149.3942  140.6911  153.1706 H   0  0  0  0  0  0  0  0  0  0  0  0
  149.7489  139.1526  154.9752 H   0  0  0  0  0  0  0  0  0  0  0  0
  151.0062  139.3805  153.7684 H   0  0  0  0  0  0  0  0  0  0  0  0
  151.9214  139.5438  156.1149 H   0  0  0  0  0  0  0  0  0  0  0  0
  152.1750  141.0004  155.1875 H   0  0  0  0  0  0  0  0  0  0  0  0
  150.1998  142.0361  156.2036 H   0  0  0  0  0  0  0  0  0  0  0  0
  150.0394  139.5458  157.8350 H   0  0  0  0  0  0  0  0  0  0  0  0
  145.7694  141.2117  155.5566 H   0  0  0  0  0  0  0  0  0  0  0  0
  147.2032  141.4920  161.8234 H   0  0  0  0  0  0  0  0  0  0  0  0
  145.1543  145.5701  159.5503 H   0  0  0  0  0  0  0  0  0  0  0  0
  143.4354  145.7891  159.2524 H   0  0  0  0  0  0  0  0  0  0  0  0
  143.5633  147.2342  160.7646 H   0  0  0  0  0  0  0  0  0  0  0  0
  146.1909  144.6487  160.9898 H   0  0  0  0  0  0  0  0  0  0  0  0
  143.8935  141.1945  163.2752 H   0  0  0  0  0  0  0  0  0  0  0  0
  152.5112  142.2525  157.1527 H   0  0  0  0  0  0  0  0  0  0  0  0
  151.4583  140.4560  159.3813 H   0  0  0  0  0  0  0  0  0  0  0  0
  152.7516  140.0537  158.2790 H   0  0  0  0  0  0  0  0  0  0  0  0
  153.6337  140.8662  160.4545 H   0  0  0  0  0  0  0  0  0  0  0  0
  154.1439  141.8875  159.1319 H   0  0  0  0  0  0  0  0  0  0  0  0
  151.8627  142.4705  161.0822 H   0  0  0  0  0  0  0  0  0  0  0  0
  153.4038  143.2933  161.0226 H   0  0  0  0  0  0  0  0  0  0  0  0
  151.6073  144.6225  159.8965 H   0  0  0  0  0  0  0  0  0  0  0  0
  152.8910  144.2084  158.7856 H   0  0  0  0  0  0  0  0  0  0  0  0
  150.7000  143.8182  157.7196 H   0  0  0  0  0  0  0  0  0  0  0  0
  150.1964  142.7975  159.0450 H   0  0  0  0  0  0  0  0  0  0  0  0
  1  2  1  0  0  0  0
  1 34  1  0  0  0  0
  2  3  1  0  0  0  0
  2 35  1  0  0  0  0
  2 36  1  0  0  0  0
  3  4  1  0  0  0  0
  3 37  1  0  0  0  0
  3 38  1  0  0  0  0
  4  5  1  0  0  0  0
  4 24  1  0  0  0  0
  4 39  1  0  0  0  0
  5  6  1  0  0  0  0
  5 40  1  0  0  0  0
  6 11  1  0  0  0  0
  6  7  2  0  0  0  0
  7  8  1  0  0  0  0
  8  9  2  0  0  0  0
  8 41  1  0  0  0  0
  9 10  1  0  0  0  0
 10 14  1  0  0  0  0
 10 11  2  0  0  0  0
 11 12  1  0  0  0  0
 12 13  2  0  0  0  0
 13 14  1  0  0  0  0
 13 42  1  0  0  0  0
 14 15  1  0  0  0  0
 15 30  1  0  0  0  0
 15 22  1  0  0  0  0
 15 16  1  0  0  0  0
 16 17  1  0  0  0  0
 17 31  1  0  0  0  0
 17 18  1  0  0  0  0
 17 20  1  0  0  0  0
 18 19  1  0  0  0  0
 18 43  1  0  0  0  0
 18 44  1  0  0  0  0
 19 45  1  0  0  0  0
 20 32  1  0  0  0  0
 20 21  1  0  0  0  0
 20 22  1  0  0  0  0
 21 46  1  0  0  0  0
 22 33  1  0  0  0  0
 22 23  1  0  0  0  0
 23 47  1  0  0  0  0
 24 29  1  0  0  0  0
 24 25  1  0  0  0  0
 24 48  1  0  0  0  0
 25 26  1  0  0  0  0
 25 49  1  0  0  0  0
 25 50  1  0  0  0  0
 26 27  1  0  0  0  0
 26 51  1  0  0  0  0
 26 52  1  0  0  0  0
 27 28  1  0  0  0  0
 27 53  1  0  0  0  0
 27 54  1  0  0  0  0
 28 29  1  0  0  0  0
 28 55  1  0  0  0  0
 28 56  1  0  0  0  0
 29 57  1  0  0  0  0
 29 58  1  0  0  0  0
M  END
> <s_m_source_file>
AV-unprocessed.smi

> <i_m_source_file_index>
109

> <i_lp_mmshare_version>
43012

> <i_f3d_flags>
0

> <s_epik_input>
W0NIMl0xW0NIMl1bQ0gyXVtDSDJdW0NIMl1bQ0hdMVtDQEhdKFtDSDJdW0NIMl1bT0hdKVtOSF1jKG5bY0hdbjIpYyhjMjMpbltjSF1uM1tDQEBIXTRPW0NASF0oW0NIMl1bT0hdKVtDQEBIXShbT0hdKVtDQEhdNFtPSF0=

> <s_epik_cmdline>
J2VwaWtfcHl0aG9uJywgJy1waCcsICc3LjAnLCAnLXRuJywgJzgnLCAnLW1hJywgJzIwMCcsICctbWV0YWxfYmluZGluZycsICctaW1hZScsICc8aW5maWxlLm1hZT4nLCAnLW9tYWUnLCAnPG91dGZpbGUubWFlPic=

> <r_lp_tautomer_probability>
1

> <r_epik_Ionization_Penalty>
0.000793976

> <r_epik_Ionization_Penalty_Charging>
0

> <r_epik_Ionization_Penalty_Neutral>
0.000793976

> <r_epik_State_Penalty>
-0

> <r_epik_Charging_Adjusted_Penalty>
0

> <i_epik_Tot_Q>
0

> <i_epik_Tot_abs_Q>
0

> <r_epik_Metal_State_Penalty>
-0

> <b_epik_Metal_Only>
0

> <s_epik_Chemistry_Notes>
This compound contains an acetal/aminal-like group ( X-CH(R)-Y where X, Y are N, S, or O) that may be acid/base labile, releasing an aldehyde.

> <s_lp_Force_Field>
OPLS_2005

> <r_lp_Energy>
47.8615

> <b_lp_Chiralities_Consistent>
1

> <s_lp_Variant>
AV-unprocessed.smi:109-10

> <Gold.Version>
5.8.1

> <Gold.Id.Protein>
6NUR|6NUR_protein|mol2

> <Gold.PLP.Fitness>
53.8298

> <Gold.PLP.PLP>
-47.7725

> <Gold.PLP.part.hbond>
-4.2223

> <Gold.PLP.part.metal>
0.0000

> <Gold.PLP.part.buried>
-8.9932

> <Gold.PLP.part.nonpolar>
-35.7145

> <Gold.PLP.part.repulsive>
0.5080

> <Gold.PLP.ligand.clash>
0.0000

> <Gold.PLP.ligand.torsion>
1.2018

> <Gold.PLP.Chemscore.Hbond>
2.7455

> <Gold.PLP.Chemscore.CHOScore>
0.0000

> <Gold.PLP.Chemscore.Metal>
0.0000

> <Gold.Chemscore.Hbonds>
donor molecule, donor type, donor heavy atom, donor atom, acceptor molecule, acceptor atom, score
      L1  H     1    34       P1  7957  0.78

> <Gold.PLP.Chemscore.Internal.Correction>
0.2244

> <Gold.Rescore>
     Score         DG    S(hbond)    S(metal)    S(lipo)     H(rot)  DE(clash)    DE(int)     intcor
      8.67     -10.14       1.94        0.00     103.96       5.47       0.29       1.18       ----

> <Gold.Chemscore.Fitness>
8.6684

> <Gold.Chemscore.DG>
-10.1361

> <Gold.Chemscore.ZeroCoef>
-5.4800

> <Gold.Chemscore.Hbond>
1.9421

> <Gold.Chemscore.Metal>
0.0000

> <Gold.Chemscore.Lipo>
103.9571

> <Gold.Chemscore.Internal_Hbond>
0.0000

> <Gold.Chemscore.DEClash>
0.2917

> <Gold.Chemscore.DEInternal>
1.1760

> <Gold.Chemscore.Rot>
5.4662

> <Gold.Chemscore.Internal.Correction>
   9.000000E+99

> <Gold.Chemscore.Hbonds>
donor molecule, donor type, donor heavy atom, donor atom, acceptor molecule, acceptor atom, score
      L1  H     1    34       P1  7957  0.74

> <Gold.Chemscore.Hbond.Weighted>
-6.4866

> <Gold.Chemscore.Metal.Weighted>
-0.0000

> <Gold.Chemscore.Lipo.Weighted>
-12.1630

> <Gold.Chemscore.Internal_Hbond.Weighted>
0.0000

> <Gold.Chemscore.DEClash.Weighted>
0.2917

> <Gold.Chemscore.DEInternal.Weighted>
1.1760

> <Gold.Chemscore.Rot.Weighted>
13.9935

> <Gold.Chemscore.Internal.Correction.Weighted>
   9.000000E+99

> <Gold.Protein.RotatedTorsions>
[ 6907 6896 6895 6894 ] final  -21.51 input  -60.11 | X-H torsion
[ 7974 7965 7964 7962 ] final   26.11 input  175.53 | X-H torsion
[ 8008 7997 7996 7995 ] final -147.71 input   59.86 | X-H torsion
[ 10167 10162 10161 10158 ] final  -78.77 input  -65.29 | X-H torsion
[ 10718 10713 10712 10709 ] final -120.55 input   66.30 | X-H torsion
[ 10763 10752 10751 10750 ] final   19.68 input  -60.55 | X-H torsion
[ 11005 11000 10999 10996 ] final -119.43 input  -57.11 | X-H torsion

> <Gold.Protein.ActiveResidues>
 VAL166  LYS551  ARG553  GLY616  TRP617  ASP618  TYR619  PRO620  LYS621  CYS622 
 ASP623  PHE694  ASN695  SER759  ASP760  ASP761  ALA762  ILE779  LEU786  VAL792 
 PHE793  MET794  SER795  GLU796  ALA797  LYS798  CYS799  TRP800  GLU811  SER814 

> <Gold.Protein.RotatedAtoms>
  151.2323  135.0559  159.8992 H   0  0  0  0  0  0  0  0  0  0  0  0  # atno 6907 bound_to 6896
  152.5403  134.0524  159.8126 H   0  0  0  0  0  0  0  0  0  0  0  0  # atno 6908 bound_to 6896
  151.0705  133.5421  159.2659 H   0  0  0  0  0  0  0  0  0  0  0  0  # atno 6909 bound_to 6896
  146.1854  139.7373  142.8870 H   0  0  0  0  0  0  0  0  0  0  0  0  # atno 7974 bound_to 7965
  155.5800  140.0642  157.2785 H   0  0  0  0  0  0  0  0  0  0  0  0  # atno 8008 bound_to 7997
  154.4335  140.1854  156.1013 H   0  0  0  0  0  0  0  0  0  0  0  0  # atno 8009 bound_to 7997
  156.0312  140.3306  155.7146 H   0  0  0  0  0  0  0  0  0  0  0  0  # atno 8010 bound_to 7997
  140.4653  143.2442  151.8287 H   0  0  0  0  0  0  0  0  0  0  0  0  # atno 10167 bound_to 10162
  156.1267  130.6364  150.9553 H   0  0  0  0  0  0  0  0  0  0  0  0  # atno 10718 bound_to 10713
  153.1142  135.6704  153.9448 H   0  0  0  0  0  0  0  0  0  0  0  0  # atno 10763 bound_to 10752
  153.8982  135.3039  155.3449 H   0  0  0  0  0  0  0  0  0  0  0  0  # atno 10764 bound_to 10752
  154.7559  135.5012  153.9452 H   0  0  0  0  0  0  0  0  0  0  0  0  # atno 10765 bound_to 10752
  141.0216  134.0116  157.3274 H   0  0  0  0  0  0  0  0  0  0  0  0  # atno 11005 bound_to 11000
  145.3953  141.0378  143.3101 LP  0  0  0  0  0  0  0  0  0  0  0  0  # atno 17320 bound_to 7965
  144.8388  139.5505  143.6909 LP  0  0  0  0  0  0  0  0  0  0  0  0  # atno 17321 bound_to 7965
  139.4811  144.4958  151.9125 LP  0  0  0  0  0  0  0  0  0  0  0  0  # atno 17342 bound_to 10162
  140.4044  144.2451  150.5891 LP  0  0  0  0  0  0  0  0  0  0  0  0  # atno 17343 bound_to 10162
  157.6448  131.0905  150.8177 LP  0  0  0  0  0  0  0  0  0  0  0  0  # atno 17370 bound_to 10713
  156.8267  130.5002  149.5336 LP  0  0  0  0  0  0  0  0  0  0  0  0  # atno 17371 bound_to 10713
  139.9150  135.0195  156.7843 LP  0  0  0  0  0  0  0  0  0  0  0  0  # atno 17394 bound_to 11000
  140.6563  133.9686  155.7781 LP  0  0  0  0  0  0  0  0  0  0  0  0  # atno 17395 bound_to 11000

$$$$
