AV-unprocessed.smi:462|AV-procd|sdf|2633|dock5
  -GOLD-   2262023 43D 1   1.00000     0.00000
 Structure written by MMmdl.
 47 49  0  0  0  0  0  0  0  0  2 V2000
  147.2914  136.7453  162.5069 C   0  0  0  0  0  0  0  0  0  0  0  0
  147.9758  137.1872  161.3446 O   0  0  0  0  0  0  0  0  0  0  0  0
  148.1600  136.2905  160.3118 C   0  0  0  0  0  0  0  0  0  0  0  0
  147.7055  134.9478  160.3442 C   0  0  0  0  0  0  0  0  0  0  0  0
  147.9272  134.0932  159.2489 C   0  0  0  0  0  0  0  0  0  0  0  0
  148.6045  134.5675  158.1126 C   0  0  0  0  0  0  0  0  0  0  0  0
  149.0597  135.8978  158.0695 C   0  0  0  0  0  0  0  0  0  0  0  0
  148.8387  136.7666  159.1670 C   0  0  0  0  0  0  0  0  0  0  0  0
  149.2537  138.0796  159.1975 O   0  0  0  0  0  0  0  0  0  0  0  0
  149.3380  138.8038  157.9790 C   0  0  0  0  0  0  0  0  0  0  0  0
  150.7593  139.3719  157.8278 C   0  0  0  0  0  0  0  0  0  0  0  0
  150.7628  140.8240  157.5700 N   0  0  0  0  0  0  0  0  0  0  0  0
  150.1719  141.5637  156.5788 C   0  0  0  0  0  0  0  0  0  0  0  0
  149.3745  141.0658  155.3981 C   0  0  0  0  0  0  0  0  0  0  0  0
  150.0884  139.8922  154.6989 C   0  0  0  0  0  0  0  0  0  0  0  0
  147.9706  140.6414  155.8615 C   0  0  0  0  0  0  0  0  0  0  0  0
  149.2160  142.0607  154.4071 O   0  0  0  0  0  0  0  0  0  0  0  0
  150.5020  142.8679  156.8139 N   0  3  0  0  0  0  0  0  0  0  0  0
  151.2818  142.9694  157.9638 C   0  0  0  0  0  0  0  0  0  0  0  0
  151.8309  144.0810  158.5955 C   0  0  0  0  0  0  0  0  0  0  0  0
  152.5841  143.8379  159.7624 C   0  0  0  0  0  0  0  0  0  0  0  0
  152.7718  142.5304  160.2543 C   0  0  0  0  0  0  0  0  0  0  0  0
  152.2143  141.4122  159.6005 C   0  0  0  0  0  0  0  0  0  0  0  0
  151.4623  141.6608  158.4513 C   0  0  0  0  0  0  0  0  0  0  0  0
  147.2149  137.5722  163.2128 H   0  0  0  0  0  0  0  0  0  0  0  0
  147.8285  135.9362  163.0033 H   0  0  0  0  0  0  0  0  0  0  0  0
  146.2777  136.4179  162.2723 H   0  0  0  0  0  0  0  0  0  0  0  0
  147.1827  134.5481  161.1994 H   0  0  0  0  0  0  0  0  0  0  0  0
  147.5770  133.0720  159.2815 H   0  0  0  0  0  0  0  0  0  0  0  0
  148.7759  133.9105  157.2728 H   0  0  0  0  0  0  0  0  0  0  0  0
  149.5795  136.2293  157.1836 H   0  0  0  0  0  0  0  0  0  0  0  0
  149.1105  138.1496  157.1364 H   0  0  0  0  0  0  0  0  0  0  0  0
  148.6149  139.6201  157.9760 H   0  0  0  0  0  0  0  0  0  0  0  0
  151.3554  139.1690  158.7177 H   0  0  0  0  0  0  0  0  0  0  0  0
  151.2734  138.8773  157.0049 H   0  0  0  0  0  0  0  0  0  0  0  0
  150.2095  139.0390  155.3673 H   0  0  0  0  0  0  0  0  0  0  0  0
  151.0795  140.1820  154.3470 H   0  0  0  0  0  0  0  0  0  0  0  0
  149.5234  139.5427  153.8338 H   0  0  0  0  0  0  0  0  0  0  0  0
  148.0265  139.8468  156.6063 H   0  0  0  0  0  0  0  0  0  0  0  0
  147.3722  140.2684  155.0296 H   0  0  0  0  0  0  0  0  0  0  0  0
  147.4245  141.4712  156.3107 H   0  0  0  0  0  0  0  0  0  0  0  0
  149.0597  142.8892  154.8339 H   0  0  0  0  0  0  0  0  0  0  0  0
  151.6892  145.0835  158.2192 H   0  0  0  0  0  0  0  0  0  0  0  0
  153.0265  144.6701  160.2903 H   0  0  0  0  0  0  0  0  0  0  0  0
  153.3529  142.3803  161.1524 H   0  0  0  0  0  0  0  0  0  0  0  0
  152.3594  140.4167  159.9926 H   0  0  0  0  0  0  0  0  0  0  0  0
  150.2050  143.6349  156.2252 H   0  0  0  0  0  0  0  0  0  0  0  0
  1  2  1  0  0  0  0
  1 25  1  0  0  0  0
  1 26  1  0  0  0  0
  1 27  1  0  0  0  0
  2  3  1  0  0  0  0
  3  8  1  0  0  0  0
  3  4  2  0  0  0  0
  4  5  1  0  0  0  0
  4 28  1  0  0  0  0
  5  6  2  0  0  0  0
  5 29  1  0  0  0  0
  6  7  1  0  0  0  0
  6 30  1  0  0  0  0
  7  8  2  0  0  0  0
  7 31  1  0  0  0  0
  8  9  1  0  0  0  0
  9 10  1  0  0  0  0
 10 11  1  0  0  0  0
 10 32  1  0  0  0  0
 10 33  1  0  0  0  0
 11 12  1  0  0  0  0
 11 34  1  0  0  0  0
 11 35  1  0  0  0  0
 12 24  1  0  0  0  0
 12 13  1  0  0  0  0
 13 14  1  0  0  0  0
 13 18  2  0  0  0  0
 14 15  1  0  0  0  0
 14 16  1  0  0  0  0
 14 17  1  0  0  0  0
 15 36  1  0  0  0  0
 15 37  1  0  0  0  0
 15 38  1  0  0  0  0
 16 39  1  0  0  0  0
 16 40  1  0  0  0  0
 16 41  1  0  0  0  0
 17 42  1  0  0  0  0
 18 19  1  0  0  0  0
 18 47  1  0  0  0  0
 19 24  2  0  0  0  0
 19 20  1  0  0  0  0
 20 21  2  0  0  0  0
 20 43  1  0  0  0  0
 21 22  1  0  0  0  0
 21 44  1  0  0  0  0
 22 23  2  0  0  0  0
 22 45  1  0  0  0  0
 23 24  1  0  0  0  0
 23 46  1  0  0  0  0
M  CHG  1  18   1
M  END
> <s_m_source_file>
AV-unprocessed.smi

> <i_m_source_file_index>
462

> <i_lp_mmshare_version>
43012

> <i_f3d_flags>
0

> <s_epik_input>
W0NIM11PYzFbY0hdW2NIXVtjSF1bY0hdYzFPW0NIMl1bQ0gyXW4oYyhuMilDKFtDSDNdKShbQ0gzXSlbT0hdKWMoYzIzKVtjSF1bY0hdW2NIXVtjSF0z

> <s_epik_cmdline>
J2VwaWtfcHl0aG9uJywgJy1waCcsICc3LjAnLCAnLXRuJywgJzgnLCAnLW1hJywgJzIwMCcsICctbWV0YWxfYmluZGluZycsICctaW1hZScsICc8aW5maWxlLm1hZT4nLCAnLW9tYWUnLCAnPG91dGZpbGUubWFlPic=

> <r_lp_tautomer_probability>
1

> <r_epik_Ionization_Penalty>
1.32796

> <r_epik_Ionization_Penalty_Charging>
1.32796

> <r_epik_Ionization_Penalty_Neutral>
1.51811e-06

> <r_epik_State_Penalty>
1.40413

> <r_epik_Charging_Adjusted_Penalty>
2.73209

> <i_epik_Tot_Q>
1

> <i_epik_Tot_abs_Q>
1

> <r_epik_Metal_State_Penalty>
5.43878

> <b_epik_Metal_Only>
0

> <s_lp_Force_Field>
OPLS_2005

> <r_lp_Energy>
22.2215

> <b_lp_Chiralities_Consistent>
1

> <s_lp_Variant>
AV-unprocessed.smi:462-2

> <Gold.Version>
5.8.1

> <Gold.Id.Protein>
6NUR|6NUR_protein|mol2

> <Gold.PLP.Fitness>
60.6607

> <Gold.PLP.PLP>
-48.9848

> <Gold.PLP.part.hbond>
-6.8801

> <Gold.PLP.part.metal>
0.0000

> <Gold.PLP.part.buried>
-3.7904

> <Gold.PLP.part.nonpolar>
-37.7724

> <Gold.PLP.part.repulsive>
0.0382

> <Gold.PLP.ligand.clash>
0.0000

> <Gold.PLP.ligand.torsion>
1.5566

> <Gold.PLP.Chemscore.Hbond>
4.8844

> <Gold.PLP.Chemscore.CHOScore>
0.0000

> <Gold.PLP.Chemscore.Metal>
0.0000

> <Gold.Chemscore.Hbonds>
donor molecule, donor type, donor heavy atom, donor atom, acceptor molecule, acceptor atom, score
      L1  H    17    42       P1  8028  1.00
      L1  H    18    47       P1  8028  1.98
      P1  H  6931  6943       L1     2  1.00
      P1  H  6934  6947       L1     2  0.68
      P1  H  8011  8017       L1    17  0.22

> <Gold.PLP.Chemscore.Internal.Correction>
0.1359

> <Gold.Rescore>
     Score         DG    S(hbond)    S(metal)    S(lipo)     H(rot)  DE(clash)    DE(int)     intcor
     20.98     -22.81       3.00        0.00     113.34       2.33       0.08       1.75       ----

> <Gold.Chemscore.Fitness>
20.9764

> <Gold.Chemscore.DG>
-22.8067

> <Gold.Chemscore.ZeroCoef>
-5.4800

> <Gold.Chemscore.Hbond>
3.0032

> <Gold.Chemscore.Metal>
0.0000

> <Gold.Chemscore.Lipo>
113.3375

> <Gold.Chemscore.Internal_Hbond>
0.0000

> <Gold.Chemscore.DEClash>
0.0834

> <Gold.Chemscore.DEInternal>
1.7470

> <Gold.Chemscore.Rot>
2.3298

> <Gold.Chemscore.Internal.Correction>
   9.000000E+99

> <Gold.Chemscore.Hbonds>
donor molecule, donor type, donor heavy atom, donor atom, acceptor molecule, acceptor atom, score
      L1  H    17    42       P1  8028  0.96
      L1  H    18    47       P1  8028  0.94
      P1  H  6931  6943       L1     2  0.43
      P1  H  6934  6947       L1     2  0.30
      P1  H  8011  8017       L1    17  0.14

> <Gold.Chemscore.Hbond.Weighted>
-10.0306

> <Gold.Chemscore.Metal.Weighted>
-0.0000

> <Gold.Chemscore.Lipo.Weighted>
-13.2605

> <Gold.Chemscore.Internal_Hbond.Weighted>
0.0000

> <Gold.Chemscore.DEClash.Weighted>
0.0834

> <Gold.Chemscore.DEInternal.Weighted>
1.7470

> <Gold.Chemscore.Rot.Weighted>
5.9643

> <Gold.Chemscore.Internal.Correction.Weighted>
   9.000000E+99

> <Gold.Protein.RotatedTorsions>
[ 6907 6896 6895 6894 ] final  -73.09 input  -60.11 | X-H torsion
[ 7974 7965 7964 7962 ] final  -91.47 input  175.53 | X-H torsion
[ 8008 7997 7996 7995 ] final   55.08 input   59.86 | X-H torsion
[ 10167 10162 10161 10158 ] final  -63.10 input  -65.29 | X-H torsion
[ 10718 10713 10712 10709 ] final  173.20 input   66.30 | X-H torsion
[ 10763 10752 10751 10750 ] final   57.89 input  -60.55 | X-H torsion
[ 11005 11000 10999 10996 ] final   23.22 input  -57.11 | X-H torsion

> <Gold.Protein.ActiveResidues>
 VAL166  LYS551  ARG553  GLY616  TRP617  ASP618  TYR619  PRO620  LYS621  CYS622 
 ASP623  PHE694  ASN695  SER759  ASP760  ASP761  ALA762  ILE779  LEU786  VAL792 
 PHE793  MET794  SER795  GLU796  ALA797  LYS798  CYS799  TRP800  GLU811  SER814 

> <Gold.Protein.RotatedAtoms>
  150.7144  134.5067  159.5587 H   0  0  0  0  0  0  0  0  0  0  0  0  # atno 6907 bound_to 6896
  152.2653  134.7988  160.0433 H   0  0  0  0  0  0  0  0  0  0  0  0  # atno 6908 bound_to 6896
  151.8687  133.3436  159.3764 H   0  0  0  0  0  0  0  0  0  0  0  0  # atno 6909 bound_to 6896
  145.4127  140.9546  143.2225 H   0  0  0  0  0  0  0  0  0  0  0  0  # atno 7974 bound_to 7965
  155.4952  140.3472  155.4362 H   0  0  0  0  0  0  0  0  0  0  0  0  # atno 8008 bound_to 7997
  156.0950  140.1420  156.9571 H   0  0  0  0  0  0  0  0  0  0  0  0  # atno 8009 bound_to 7997
  154.4658  140.0918  156.6993 H   0  0  0  0  0  0  0  0  0  0  0  0  # atno 8010 bound_to 7997
  140.5894  143.2339  151.6172 H   0  0  0  0  0  0  0  0  0  0  0  0  # atno 10167 bound_to 10162
  156.9678  131.0080  151.2912 H   0  0  0  0  0  0  0  0  0  0  0  0  # atno 10718 bound_to 10713
  152.9859  135.5626  154.5464 H   0  0  0  0  0  0  0  0  0  0  0  0  # atno 10763 bound_to 10752
  154.4909  135.2793  155.1499 H   0  0  0  0  0  0  0  0  0  0  0  0  # atno 10764 bound_to 10752
  154.2969  135.6315  153.5461 H   0  0  0  0  0  0  0  0  0  0  0  0  # atno 10765 bound_to 10752
  140.3720  134.2013  155.7666 H   0  0  0  0  0  0  0  0  0  0  0  0  # atno 11005 bound_to 11000
  144.8298  139.5648  143.6949 LP  0  0  0  0  0  0  0  0  0  0  0  0  # atno 17320 bound_to 7965
  146.2696  139.6604  142.9305 LP  0  0  0  0  0  0  0  0  0  0  0  0  # atno 17321 bound_to 7965
  139.5218  144.3182  152.0933 LP  0  0  0  0  0  0  0  0  0  0  0  0  # atno 17342 bound_to 10162
  140.2344  144.4334  150.6286 LP  0  0  0  0  0  0  0  0  0  0  0  0  # atno 17343 bound_to 10162
  157.5613  130.8248  149.8270 LP  0  0  0  0  0  0  0  0  0  0  0  0  # atno 17370 bound_to 10713
  156.0295  130.3769  150.1727 LP  0  0  0  0  0  0  0  0  0  0  0  0  # atno 17371 bound_to 10713
  141.1951  133.8112  157.0727 LP  0  0  0  0  0  0  0  0  0  0  0  0  # atno 17394 bound_to 11000
  140.0545  134.9788  157.1195 LP  0  0  0  0  0  0  0  0  0  0  0  0  # atno 17395 bound_to 11000

$$$$
