#       Name:                AV-unprocessed.smi:1561
#       Creating user name   scv26
#       Creation time:       Fri Mar 27 06:48:19 2020


#       File generated by GOLD software.
#

@<TRIPOS>MOLECULE
AV-unprocessed.smi:1561
    38    39     1
SMALL
NO_CHARGES


@<TRIPOS>ATOM
      1 ****        -2.5001  -1.9049   1.0598 C.3            1 S1                 0.0000
      2 ****        -1.9618  -0.9758  -0.0477 C.3            1 S1                 0.0000
      3 ****        -0.4408  -0.7743   0.0371 C.2            1 S1                 0.0000
      4 ****         0.2857  -1.6610   0.4870 O.2            1 S1                 0.0000
      5 ****         0.0264   0.4056  -0.4020 N.am           1 S1                 0.0000
      6 ****         1.4296   0.8059  -0.4297 C.3            1 S1                 0.0000
      7 ****         1.8218   1.6198   0.8177 C.3            1 S1                 0.0000
      8 ****         3.2551   2.1104   0.8021 C.3            1 S1                 0.0000
      9 ****         3.4953   2.4464   2.2716 C.3            1 S1                 0.0000
     10 ****         2.6530   1.5719   3.0176 O.3            1 S1                 0.0000
     11 ****         1.8021   0.8456   2.1367 C.3            1 S1                 0.0000
     12 ****        -2.3374  -1.4276  -1.3828 N.pl3          1 S1                 0.0000
     13 ****        -2.8070  -0.6656  -2.4336 C.2            1 S1                 0.0000
     14 ****        -2.9872  -1.5002  -3.4990 C.2            1 S1                 0.0000
     15 ****        -2.5828  -2.7710  -3.0046 C.2            1 S1                 0.0000
     16 ****        -2.1871  -2.7238  -1.7434 N.2            1 S1                 0.0000
     17 ****        -2.2546  -1.5185   2.0496 H              1 S1                 0.0000
     18 ****        -2.0892  -2.9129   0.9889 H              1 S1                 0.0000
     19 ****        -3.5858  -1.9870   1.0025 H              1 S1                 0.0000
     20 ****        -2.4286  -0.0007   0.1020 H              1 S1                 0.0000
     21 ****        -0.6426   1.0754  -0.7530 H              1 S1                 0.0000
     22 ****         2.0799  -0.0631  -0.5448 H              1 S1                 0.0000
     23 ****         1.5789   1.4155  -1.3211 H              1 S1                 0.0000
     24 ****         1.1625   2.4849   0.9089 H              1 S1                 0.0000
     25 ****         3.9276   1.3100   0.4891 H              1 S1                 0.0000
     26 ****         3.4107   2.9638   0.1412 H              1 S1                 0.0000
     27 ****         4.5412   2.3315   2.5570 H              1 S1                 0.0000
     28 ****         3.1982   3.4746   2.4813 H              1 S1                 0.0000
     29 ****         0.7984   0.7425   2.5494 H              1 S1                 0.0000
     30 ****         2.2182  -0.1542   2.0035 H              1 S1                 0.0000
     31 ****        -2.9725   0.3973  -2.3365 H              1 S1                 0.0000
     32 ****        -3.3474  -1.2417  -4.4835 H              1 S1                 0.0000
     33 ****        -2.5609  -3.7187  -3.5222 H              1 S1                 0.0000
     34 ****        -0.1130  -2.5225   0.8016 LP             1 S1                 0.0000
     35 ****         1.2744  -1.5196   0.5378 LP             1 S1                 0.0000
     36 ****         2.0944   2.1094   3.6493 LP             1 S1                 0.0000
     37 ****         3.2183   0.9301   3.5359 LP             1 S1                 0.0000
     38 ****        -1.8510  -3.4789  -1.1804 LP             1 S1                 0.0000
@<TRIPOS>BOND
    1    1    2 1     
    2    1   17 1     
    3    1   18 1     
    4    1   19 1     
    5    2    3 1     
    6    2   12 1     
    7    2   20 1     
    8    3    4 2     
    9    3    5 am    
   10    5    6 1     
   11    5   21 1     
   12    6    7 1     
   13    6   22 1     
   14    6   23 1     
   15    7   11 1     
   16    7    8 1     
   17    7   24 1     
   18    8    9 1     
   19    8   25 1     
   20    8   26 1     
   21    9   10 1     
   22    9   27 1     
   23    9   28 1     
   24   10   11 1     
   25   11   29 1     
   26   11   30 1     
   27   12   16 1     
   28   12   13 1     
   29   13   14 2     
   30   13   31 1     
   31   14   15 1     
   32   14   32 1     
   33   15   16 2     
   34   15   33 1     
   35    4   34 1     
   36    4   35 1     
   37   10   36 1     
   38   10   37 1     
   39   16   38 1     
@<TRIPOS>SUBSTRUCTURE
      1 S1             1
@<TRIPOS>SET
LONE_PAIRS      STATIC     ATOMS    <user>   **** ""
5 34 35 36 37 38
DONOR_HYDROGENS      STATIC     ATOMS    <user>   **** ""
1 21
ATOM$BLUE        STATIC     ATOMS    COLORGROUP SYSTEM
5 34 35 36 37 38
ATOM$RED        STATIC     ATOMS    COLORGROUP SYSTEM
1 21
