AV-unprocessed.smi:697|AV-procd|sdf|3395|dock2
  -GOLD-   22720 0373D 1   1.00000     0.00000
 Structure written by MMmdl.
 43 44  0  0  0  0  0  0  0  0  2 V2000
  149.0420  141.3448  154.3944 C   0  0  0  0  0  0  0  0  0  0  0  0
  150.1551  140.5717  154.8264 O   0  0  0  0  0  0  0  0  0  0  0  0
  150.5081  140.6459  156.2144 C   0  0  1  0  0  0  0  0  0  0  0  0
  151.0583  142.0362  156.5572 C   0  0  0  0  0  0  0  0  0  0  0  0
  149.3834  140.0453  157.0792 C   0  0  0  0  0  0  0  0  0  0  0  0
  149.9966  138.6754  156.7956 C   0  0  2  0  0  0  0  0  0  0  0  0
  149.9421  137.7851  157.9503 N   0  0  0  0  0  0  0  0  0  0  0  0
  148.8429  137.1365  158.3573 C   0  0  0  0  0  0  0  0  0  0  0  0
  147.7514  137.2505  157.7999 O   0  0  0  0  0  0  0  0  0  0  0  0
  149.1107  136.3725  159.4319 N   0  0  0  0  0  0  0  0  0  0  0  0
  148.2713  135.5024  160.1498 C   0  0  0  0  0  0  0  0  0  0  0  0
  148.2770  134.1443  160.0429 C   0  0  0  0  0  0  0  0  0  0  0  0
  147.3896  133.2955  160.8278 C   0  0  0  0  0  0  0  0  0  0  0  0
  147.3037  131.7884  160.6628 C   0  0  0  0  0  0  0  0  0  0  0  0
  146.2940  131.2834  161.3717 F   0  0  0  0  0  0  0  0  0  0  0  0
  147.1268  131.4579  159.3837 F   0  0  0  0  0  0  0  0  0  0  0  0
  148.4323  131.2211  161.0856 F   0  0  0  0  0  0  0  0  0  0  0  0
  146.5628  134.0271  161.6582 C   0  0  0  0  0  0  0  0  0  0  0  0
  146.5114  135.3643  161.8434 N   0  5  0  0  0  0  0  0  0  0  0  0
  147.3467  136.1483  161.1049 C   0  0  0  0  0  0  0  0  0  0  0  0
  147.3462  137.3747  161.2194 O   0  0  0  0  0  0  0  0  0  0  0  0
  151.3584  139.3847  156.5785 C   0  0  0  0  0  0  0  0  0  0  0  0
  152.2433  138.8095  155.4669 C   0  0  0  0  0  0  0  0  0  0  0  0
  152.2719  139.5196  157.8119 C   0  0  0  0  0  0  0  0  0  0  0  0
  148.7896  141.0633  153.3725 H   0  0  0  0  0  0  0  0  0  0  0  0
  149.2728  142.4099  154.3868 H   0  0  0  0  0  0  0  0  0  0  0  0
  148.1579  141.1824  155.0100 H   0  0  0  0  0  0  0  0  0  0  0  0
  151.4292  142.0845  157.5802 H   0  0  0  0  0  0  0  0  0  0  0  0
  150.2932  142.8079  156.4781 H   0  0  0  0  0  0  0  0  0  0  0  0
  151.8818  142.3102  155.8975 H   0  0  0  0  0  0  0  0  0  0  0  0
  149.4490  140.3463  158.1262 H   0  0  0  0  0  0  0  0  0  0  0  0
  148.3688  140.1664  156.7014 H   0  0  0  0  0  0  0  0  0  0  0  0
  149.5949  138.2362  155.8795 H   0  0  0  0  0  0  0  0  0  0  0  0
  150.7996  137.6437  158.4640 H   0  0  0  0  0  0  0  0  0  0  0  0
  150.0495  136.4323  159.7985 H   0  0  0  0  0  0  0  0  0  0  0  0
  148.9590  133.6412  159.3785 H   0  0  0  0  0  0  0  0  0  0  0  0
  145.8299  133.4514  162.2629 H   0  0  0  0  0  0  0  0  0  0  0  0
  152.7321  137.8866  155.7809 H   0  0  0  0  0  0  0  0  0  0  0  0
  153.0225  139.5130  155.1726 H   0  0  0  0  0  0  0  0  0  0  0  0
  151.6694  138.5677  154.5720 H   0  0  0  0  0  0  0  0  0  0  0  0
  152.6970  138.5592  158.1056 H   0  0  0  0  0  0  0  0  0  0  0  0
  151.7389  139.9086  158.6796 H   0  0  0  0  0  0  0  0  0  0  0  0
  153.1066  140.1939  157.6186 H   0  0  0  0  0  0  0  0  0  0  0  0
  1  2  1  0  0  0  0
  1 25  1  0  0  0  0
  1 26  1  0  0  0  0
  1 27  1  0  0  0  0
  2  3  1  0  0  0  0
  3 22  1  0  0  0  0
  3  4  1  0  0  0  0
  3  5  1  0  0  0  0
  4 28  1  0  0  0  0
  4 29  1  0  0  0  0
  4 30  1  0  0  0  0
  5  6  1  0  0  0  0
  5 31  1  0  0  0  0
  5 32  1  0  0  0  0
  6  7  1  0  0  0  0
  6 22  1  0  0  0  0
  6 33  1  0  0  0  0
  7  8  1  0  0  0  0
  7 34  1  0  0  0  0
  8  9  2  0  0  0  0
  8 10  1  0  0  0  0
 10 11  1  0  0  0  0
 10 35  1  0  0  0  0
 11 20  1  0  0  0  0
 11 12  2  0  0  0  0
 12 13  1  0  0  0  0
 12 36  1  0  0  0  0
 13 14  1  0  0  0  0
 13 18  2  0  0  0  0
 14 15  1  0  0  0  0
 14 16  1  0  0  0  0
 14 17  1  0  0  0  0
 18 19  1  0  0  0  0
 18 37  1  0  0  0  0
 19 20  1  0  0  0  0
 20 21  2  0  0  0  0
 22 23  1  0  0  0  0
 22 24  1  0  0  0  0
 23 38  1  0  0  0  0
 23 39  1  0  0  0  0
 23 40  1  0  0  0  0
 24 41  1  0  0  0  0
 24 42  1  0  0  0  0
 24 43  1  0  0  0  0
M  CHG  1  19  -1
M  END
> <s_m_source_file>
AV-unprocessed.smi

> <i_m_source_file_index>
697

> <i_lp_mmshare_version>
43012

> <i_f3d_flags>
0

> <s_epik_input>
W0NIM11PW0NAQF0xKFtDSDNdKVtDSDJdW0NASF0oQzEoW0NIM10pW0NIM10pW05IXUMoPU8pW05IXWMyW2NIXWMoQyhGKShGKUYpW2NIXVtuSF1jMj1P

> <s_epik_cmdline>
J2VwaWtfcHl0aG9uJywgJy1waCcsICc3LjAnLCAnLXRuJywgJzgnLCAnLW1hJywgJzIwMCcsICctbWV0YWxfYmluZGluZycsICctaW1hZScsICc8aW5maWxlLm1hZT4nLCAnLW9tYWUnLCAnPG91dGZpbGUubWFlPic=

> <r_lp_tautomer_probability>
1

> <r_epik_Ionization_Penalty>
3.20094

> <r_epik_Ionization_Penalty_Charging>
0.180017

> <r_epik_Ionization_Penalty_Neutral>
3.02092

> <r_epik_State_Penalty>
3.01726

> <r_epik_Charging_Adjusted_Penalty>
3.19727

> <i_epik_Tot_Q>
-1

> <i_epik_Tot_abs_Q>
1

> <r_epik_Metal_State_Penalty>
0.455096

> <b_epik_Metal_Only>
1

> <s_lp_Force_Field>
OPLS_2005

> <r_lp_Energy>
36.256

> <b_lp_Chiralities_Consistent>
1

> <s_lp_Variant>
AV-unprocessed.smi:697-7

> <Gold.Version>
5.8.1

> <Gold.Id.Protein>
6NUR|6NUR_protein|mol2

> <Gold.PLP.Fitness>
39.2910

> <Gold.PLP.PLP>
-33.1211

> <Gold.PLP.part.hbond>
-2.8475

> <Gold.PLP.part.metal>
0.0000

> <Gold.PLP.part.buried>
-3.0488

> <Gold.PLP.part.nonpolar>
-26.0580

> <Gold.PLP.part.repulsive>
0.3978

> <Gold.PLP.ligand.clash>
0.0000

> <Gold.PLP.ligand.torsion>
1.0859

> <Gold.PLP.Chemscore.Hbond>
2.6240

> <Gold.PLP.Chemscore.CHOScore>
0.0000

> <Gold.PLP.Chemscore.Metal>
0.0000

> <Gold.Chemscore.Hbonds>
donor molecule, donor type, donor heavy atom, donor atom, acceptor molecule, acceptor atom, score
      P1  H  6931  6943       L1    21  0.78
      P1  H  6934  6947       L1    21  1.00
      P1  H  7989  7998       L1     2  0.91

> <Gold.PLP.Chemscore.Internal.Correction>
0.4698

> <Gold.Rescore>
     Score         DG    S(hbond)    S(metal)    S(lipo)     H(rot)  DE(clash)    DE(int)     intcor
     16.00     -17.11       1.95        0.00      72.04       1.30       0.05       1.06       ----

> <Gold.Chemscore.Fitness>
16.0046

> <Gold.Chemscore.DG>
-17.1141

> <Gold.Chemscore.ZeroCoef>
-5.4800

> <Gold.Chemscore.Hbond>
1.9539

> <Gold.Chemscore.Metal>
0.0000

> <Gold.Chemscore.Lipo>
72.0439

> <Gold.Chemscore.Internal_Hbond>
0.0000

> <Gold.Chemscore.DEClash>
0.0502

> <Gold.Chemscore.DEInternal>
1.0594

> <Gold.Chemscore.Rot>
1.2973

> <Gold.Chemscore.Internal.Correction>
   9.000000E+99

> <Gold.Chemscore.Hbonds>
donor molecule, donor type, donor heavy atom, donor atom, acceptor molecule, acceptor atom, score
      P1  H  6931  6943       L1    21  0.70
      P1  H  6934  6947       L1    21  0.94
      P1  H  7989  7998       L1     2  0.44

> <Gold.Chemscore.Hbond.Weighted>
-6.5260

> <Gold.Chemscore.Metal.Weighted>
-0.0000

> <Gold.Chemscore.Lipo.Weighted>
-8.4291

> <Gold.Chemscore.Internal_Hbond.Weighted>
0.0000

> <Gold.Chemscore.DEClash.Weighted>
0.0502

> <Gold.Chemscore.DEInternal.Weighted>
1.0594

> <Gold.Chemscore.Rot.Weighted>
3.3210

> <Gold.Chemscore.Internal.Correction.Weighted>
   9.000000E+99

> <Gold.Protein.RotatedTorsions>
[ 6907 6896 6895 6894 ] final  -45.95 input  -60.11 | X-H torsion
[ 7974 7965 7964 7962 ] final   -4.59 input  175.53 | X-H torsion
[ 8008 7997 7996 7995 ] final  -50.41 input   59.86 | X-H torsion
[ 10167 10162 10161 10158 ] final  -92.28 input  -65.29 | X-H torsion
[ 10718 10713 10712 10709 ] final  -26.90 input   66.30 | X-H torsion
[ 10763 10752 10751 10750 ] final   72.69 input  -60.55 | X-H torsion
[ 11005 11000 10999 10996 ] final   54.99 input  -57.11 | X-H torsion

> <Gold.Protein.ActiveResidues>
 VAL166  LYS551  ARG553  GLY616  TRP617  ASP618  TYR619  PRO620  LYS621  CYS622 
 ASP623  PHE694  ASN695  SER759  ASP760  ASP761  ALA762  ILE779  LEU786  VAL792 
 PHE793  MET794  SER795  GLU796  ALA797  LYS798  CYS799  TRP800  GLU811  SER814 

> <Gold.Protein.RotatedAtoms>
  150.9164  134.8582  159.7459 H   0  0  0  0  0  0  0  0  0  0  0  0  # atno 6907 bound_to 6896
  152.4971  134.4282  159.9513 H   0  0  0  0  0  0  0  0  0  0  0  0  # atno 6908 bound_to 6896
  151.4320  133.3628  159.2805 H   0  0  0  0  0  0  0  0  0  0  0  0  # atno 6909 bound_to 6896
  146.2369  140.1895  142.8332 H   0  0  0  0  0  0  0  0  0  0  0  0  # atno 7974 bound_to 7965
  154.4061  140.1273  156.4662 H   0  0  0  0  0  0  0  0  0  0  0  0  # atno 8008 bound_to 7997
  155.7225  140.3492  155.5002 H   0  0  0  0  0  0  0  0  0  0  0  0  # atno 8009 bound_to 7997
  155.9202  140.1051  157.1203 H   0  0  0  0  0  0  0  0  0  0  0  0  # atno 8010 bound_to 7997
  140.3364  143.2966  151.9885 H   0  0  0  0  0  0  0  0  0  0  0  0  # atno 10167 bound_to 10162
  156.4452  130.4472  149.7026 H   0  0  0  0  0  0  0  0  0  0  0  0  # atno 10718 bound_to 10713
  153.0474  135.5090  154.7782 H   0  0  0  0  0  0  0  0  0  0  0  0  # atno 10763 bound_to 10752
  154.6671  135.2947  154.9794 H   0  0  0  0  0  0  0  0  0  0  0  0  # atno 10764 bound_to 10752
  154.0625  135.6689  153.4866 H   0  0  0  0  0  0  0  0  0  0  0  0  # atno 10765 bound_to 10752
  140.0642  134.5559  155.9117 H   0  0  0  0  0  0  0  0  0  0  0  0  # atno 11005 bound_to 11000
  144.9869  140.8512  143.5363 LP  0  0  0  0  0  0  0  0  0  0  0  0  # atno 17320 bound_to 7965
  145.1895  139.2308  143.5250 LP  0  0  0  0  0  0  0  0  0  0  0  0  # atno 17321 bound_to 7965
  139.4848  144.6193  151.7285 LP  0  0  0  0  0  0  0  0  0  0  0  0  # atno 17342 bound_to 10162
  140.5350  144.0670  150.6067 LP  0  0  0  0  0  0  0  0  0  0  0  0  # atno 17343 bound_to 10162
  156.3875  130.7610  151.2608 LP  0  0  0  0  0  0  0  0  0  0  0  0  # atno 17370 bound_to 10713
  157.7505  131.0278  150.4019 LP  0  0  0  0  0  0  0  0  0  0  0  0  # atno 17371 bound_to 10713
  141.1986  133.6602  156.5800 LP  0  0  0  0  0  0  0  0  0  0  0  0  # atno 17394 bound_to 11000
  140.3723  134.7595  157.4607 LP  0  0  0  0  0  0  0  0  0  0  0  0  # atno 17395 bound_to 11000

$$$$
