AV-unprocessed.smi:1220|AV-procd|sdf|5115|dock1
  -GOLD-   22720 4173D 1   1.00000     0.00000
 Structure written by MMmdl.
 35 36  0  0  0  0  0  0  0  0  1 V2000
  144.7427  137.3810  152.7612 C   0  0  0  0  0  0  0  0  0  0  0  0
  145.0778  135.9067  152.4813 C   0  0  1  0  0  0  0  0  0  0  0  0
  144.9207  135.5222  150.9928 C   0  0  0  0  0  0  0  0  0  0  0  0
  144.9987  134.0908  150.7649 N   0  0  0  0  0  0  0  0  0  0  0  0
  144.0554  133.2592  150.1990 C   0  0  0  0  0  0  0  0  0  0  0  0
  144.5797  131.9985  150.1888 C   0  0  0  0  0  0  0  0  0  0  0  0
  145.8672  132.1630  150.7720 C   0  0  0  0  0  0  0  0  0  0  0  0
  146.1161  133.4171  151.1132 N   0  0  0  0  0  0  0  0  0  0  0  0
  146.4396  135.6321  152.9308 N   0  0  0  0  0  0  0  0  0  0  0  0
  146.7719  134.8536  153.9727 C   0  0  0  0  0  0  0  0  0  0  0  0
  145.9422  134.2804  154.6792 O   0  0  0  0  0  0  0  0  0  0  0  0
  148.2710  134.6943  154.2545 C   0  0  2  0  0  0  0  0  0  0  0  0
  148.7073  133.2135  154.2379 C   0  0  0  0  0  0  0  0  0  0  0  0
  150.1139  133.1162  154.8359 C   0  0  0  0  0  0  0  0  0  0  0  0
  150.1774  134.3916  156.1477 S   0  0  0  0  0  0  0  0  0  0  0  0
  149.9198  133.7628  157.4518 O   0  0  0  0  0  0  0  0  0  0  0  0
  151.3604  135.2394  155.9359 O   0  0  0  0  0  0  0  0  0  0  0  0
  148.6714  135.2918  155.6165 C   0  0  0  0  0  0  0  0  0  0  0  0
  143.7043  137.6084  152.5189 H   0  0  0  0  0  0  0  0  0  0  0  0
  145.3751  138.0493  152.1759 H   0  0  0  0  0  0  0  0  0  0  0  0
  144.8876  137.6223  153.8147 H   0  0  0  0  0  0  0  0  0  0  0  0
  144.3907  135.2997  153.0740 H   0  0  0  0  0  0  0  0  0  0  0  0
  143.9623  135.8779  150.6119 H   0  0  0  0  0  0  0  0  0  0  0  0
  145.6917  136.0029  150.3887 H   0  0  0  0  0  0  0  0  0  0  0  0
  143.1000  133.6288  149.8565 H   0  0  0  0  0  0  0  0  0  0  0  0
  144.1153  131.0962  149.8192 H   0  0  0  0  0  0  0  0  0  0  0  0
  146.6237  131.4141  150.9550 H   0  0  0  0  0  0  0  0  0  0  0  0
  147.1863  136.0653  152.4070 H   0  0  0  0  0  0  0  0  0  0  0  0
  148.8406  135.2143  153.4820 H   0  0  0  0  0  0  0  0  0  0  0  0
  148.0268  132.6163  154.8473 H   0  0  0  0  0  0  0  0  0  0  0  0
  148.6802  132.7971  153.2303 H   0  0  0  0  0  0  0  0  0  0  0  0
  150.3376  132.1336  155.2514 H   0  0  0  0  0  0  0  0  0  0  0  0
  150.8693  133.3615  154.0890 H   0  0  0  0  0  0  0  0  0  0  0  0
  148.8872  136.3587  155.5560 H   0  0  0  0  0  0  0  0  0  0  0  0
  147.9050  135.1392  156.3779 H   0  0  0  0  0  0  0  0  0  0  0  0
  1  2  1  0  0  0  0
  1 19  1  0  0  0  0
  1 20  1  0  0  0  0
  1 21  1  0  0  0  0
  2  3  1  0  0  0  0
  2  9  1  0  0  0  0
  2 22  1  0  0  0  0
  3  4  1  0  0  0  0
  3 23  1  0  0  0  0
  3 24  1  0  0  0  0
  4  8  1  0  0  0  0
  4  5  1  0  0  0  0
  5  6  2  0  0  0  0
  5 25  1  0  0  0  0
  6  7  1  0  0  0  0
  6 26  1  0  0  0  0
  7  8  2  0  0  0  0
  7 27  1  0  0  0  0
  9 10  1  0  0  0  0
  9 28  1  0  0  0  0
 10 11  2  0  0  0  0
 10 12  1  0  0  0  0
 12 18  1  0  0  0  0
 12 13  1  0  0  0  0
 12 29  1  0  0  0  0
 13 14  1  0  0  0  0
 13 30  1  0  0  0  0
 13 31  1  0  0  0  0
 14 15  1  0  0  0  0
 14 32  1  0  0  0  0
 14 33  1  0  0  0  0
 15 16  2  0  0  0  0
 15 17  2  0  0  0  0
 15 18  1  0  0  0  0
 18 34  1  0  0  0  0
 18 35  1  0  0  0  0
M  END
> <s_m_source_file>
AV-unprocessed.smi

> <i_m_source_file_index>
1220

> <i_lp_mmshare_version>
43012

> <i_f3d_flags>
0

> <s_epik_input>
bjFbY0hdW2NIXVtjSF1uMVtDSDJdW0NAQEhdKFtDSDNdKVtOSF1DKD1PKVtDQEBIXShbQ0gyXTIpW0NIMl1bQ0gyXVMyKD1PKT1P

> <s_epik_cmdline>
J2VwaWtfcHl0aG9uJywgJy1waCcsICc3LjAnLCAnLXRuJywgJzgnLCAnLW1hJywgJzIwMCcsICctbWV0YWxfYmluZGluZycsICctaW1hZScsICc8aW5maWxlLm1hZT4nLCAnLW9tYWUnLCAnPG91dGZpbGUubWFlPic=

> <r_lp_tautomer_probability>
1

> <r_epik_Ionization_Penalty>
0.000293905

> <r_epik_Ionization_Penalty_Charging>
0

> <r_epik_Ionization_Penalty_Neutral>
0.000293905

> <r_epik_State_Penalty>
-0

> <r_epik_Charging_Adjusted_Penalty>
0

> <i_epik_Tot_Q>
0

> <i_epik_Tot_abs_Q>
0

> <r_epik_Metal_State_Penalty>
-0

> <b_epik_Metal_Only>
0

> <s_lp_Force_Field>
OPLS_2005

> <r_lp_Energy>
2.06683

> <b_lp_Chiralities_Consistent>
1

> <s_lp_Variant>
AV-unprocessed.smi:1220-2

> <Gold.Version>
5.8.1

> <Gold.Id.Protein>
6NUR|6NUR_protein|mol2

> <Gold.PLP.Fitness>
42.0841

> <Gold.PLP.PLP>
-27.3038

> <Gold.PLP.part.hbond>
-3.0000

> <Gold.PLP.part.metal>
0.0000

> <Gold.PLP.part.buried>
-3.4909

> <Gold.PLP.part.nonpolar>
-21.7102

> <Gold.PLP.part.repulsive>
0.2490

> <Gold.PLP.ligand.clash>
0.0000

> <Gold.PLP.ligand.torsion>
0.1203

> <Gold.PLP.Chemscore.Hbond>
3.0000

> <Gold.PLP.Chemscore.CHOScore>
2.0000

> <Gold.PLP.Chemscore.Metal>
0.0000

> <Gold.Chemscore.Hbonds>
donor molecule, donor type, donor heavy atom, donor atom, acceptor molecule, acceptor atom, score
      L1  H     9    28       P1  7948  1.00
      P1  H  6896  6908       L1    16  1.00
      P1  H 10752 10764       L1    17  1.00
      L1  C     5    25       P1 10186  1.00
      L1  C     7    27       P1 10747  1.00

> <Gold.PLP.Chemscore.Internal.Correction>
0.0209

> <Gold.Rescore>
     Score         DG    S(hbond)    S(metal)    S(lipo)     H(rot)  DE(clash)    DE(int)     intcor
     17.34     -17.44       2.94        0.00      56.51       1.75       0.00       0.10       ----

> <Gold.Chemscore.Fitness>
17.3447

> <Gold.Chemscore.DG>
-17.4428

> <Gold.Chemscore.ZeroCoef>
-5.4800

> <Gold.Chemscore.Hbond>
2.9405

> <Gold.Chemscore.Metal>
0.0000

> <Gold.Chemscore.Lipo>
56.5063

> <Gold.Chemscore.Internal_Hbond>
0.0000

> <Gold.Chemscore.DEClash>
0.0029

> <Gold.Chemscore.DEInternal>
0.0952

> <Gold.Chemscore.Rot>
1.7460

> <Gold.Chemscore.Internal.Correction>
   9.000000E+99

> <Gold.Chemscore.Hbonds>
donor molecule, donor type, donor heavy atom, donor atom, acceptor molecule, acceptor atom, score
      L1  H     9    28       P1  7948  0.98
      P1  H  6896  6908       L1    16  0.94
      P1  H 10752 10764       L1    17  0.94

> <Gold.Chemscore.Hbond.Weighted>
-9.8213

> <Gold.Chemscore.Metal.Weighted>
-0.0000

> <Gold.Chemscore.Lipo.Weighted>
-6.6112

> <Gold.Chemscore.Internal_Hbond.Weighted>
0.0000

> <Gold.Chemscore.DEClash.Weighted>
0.0029

> <Gold.Chemscore.DEInternal.Weighted>
0.0952

> <Gold.Chemscore.Rot.Weighted>
4.4697

> <Gold.Chemscore.Internal.Correction.Weighted>
   9.000000E+99

> <Gold.Protein.RotatedTorsions>
[ 6907 6896 6895 6894 ] final  124.82 input  -60.11 | X-H torsion
[ 7974 7965 7964 7962 ] final  -23.93 input  175.53 | X-H torsion
[ 8008 7997 7996 7995 ] final  -16.88 input   59.86 | X-H torsion
[ 10167 10162 10161 10158 ] final  -33.04 input  -65.29 | X-H torsion
[ 10718 10713 10712 10709 ] final  107.86 input   66.30 | X-H torsion
[ 10763 10752 10751 10750 ] final  -31.29 input  -60.55 | X-H torsion
[ 11005 11000 10999 10996 ] final  177.73 input  -57.11 | X-H torsion

> <Gold.Protein.ActiveResidues>
 VAL166  LYS551  ARG553  GLY616  TRP617  ASP618  TYR619  PRO620  LYS621  CYS622 
 ASP623  PHE694  ASN695  SER759  ASP760  ASP761  ALA762  ILE779  LEU786  VAL792 
 PHE793  MET794  SER795  GLU796  ALA797  LYS798  CYS799  TRP800  GLU811  SER814 

> <Gold.Protein.RotatedAtoms>
  152.4046  133.6869  159.6344 H   0  0  0  0  0  0  0  0  0  0  0  0  # atno 6907 bound_to 6896
  150.7932  133.8732  159.3273 H   0  0  0  0  0  0  0  0  0  0  0  0  # atno 6908 bound_to 6896
  151.6490  135.1005  160.0208 H   0  0  0  0  0  0  0  0  0  0  0  0  # atno 6909 bound_to 6896
  146.1586  140.4682  142.8581 H   0  0  0  0  0  0  0  0  0  0  0  0  # atno 7974 bound_to 7965
  154.5020  140.2157  155.9328 H   0  0  0  0  0  0  0  0  0  0  0  0  # atno 8008 bound_to 7997
  156.1445  140.3173  155.8516 H   0  0  0  0  0  0  0  0  0  0  0  0  # atno 8009 bound_to 7997
  155.4056  140.0487  157.3025 H   0  0  0  0  0  0  0  0  0  0  0  0  # atno 8010 bound_to 7997
  140.7211  143.3650  151.1888 H   0  0  0  0  0  0  0  0  0  0  0  0  # atno 10167 bound_to 10162
  157.6611  131.0881  150.6220 H   0  0  0  0  0  0  0  0  0  0  0  0  # atno 10718 bound_to 10713
  153.7950  135.6895  153.4865 H   0  0  0  0  0  0  0  0  0  0  0  0  # atno 10763 bound_to 10752
  153.1725  135.4537  154.9920 H   0  0  0  0  0  0  0  0  0  0  0  0  # atno 10764 bound_to 10752
  154.8029  135.3345  154.7443 H   0  0  0  0  0  0  0  0  0  0  0  0  # atno 10765 bound_to 10752
  140.3873  134.6893  157.4486 H   0  0  0  0  0  0  0  0  0  0  0  0  # atno 11005 bound_to 11000
  144.7996  140.6189  143.6487 LP  0  0  0  0  0  0  0  0  0  0  0  0  # atno 17320 bound_to 7965
  145.4645  139.1509  143.3848 LP  0  0  0  0  0  0  0  0  0  0  0  0  # atno 17321 bound_to 7965
  139.7210  143.9224  152.2985 LP  0  0  0  0  0  0  0  0  0  0  0  0  # atno 17342 bound_to 10162
  139.8981  144.6928  150.8696 LP  0  0  0  0  0  0  0  0  0  0  0  0  # atno 17343 bound_to 10162
  156.6522  130.4488  149.5715 LP  0  0  0  0  0  0  0  0  0  0  0  0  # atno 17370 bound_to 10713
  156.2129  130.6690  151.1288 LP  0  0  0  0  0  0  0  0  0  0  0  0  # atno 17371 bound_to 10713
  140.0433  134.6236  155.8953 LP  0  0  0  0  0  0  0  0  0  0  0  0  # atno 17394 bound_to 11000
  141.1903  133.6568  156.5406 LP  0  0  0  0  0  0  0  0  0  0  0  0  # atno 17395 bound_to 11000

$$$$
