AV-unprocessed.smi:249|AV-procd|sdf|1927|dock4
  -GOLD-   2262021 43D 1   1.00000     0.00000
 Structure written by MMmdl.
 64 67  0  0  0  0  0  0  0  0  2 V2000
  146.5587  128.6649  151.8446 C   0  0  0  0  0  0  0  0  0  0  0  0
  145.5704  129.8359  151.9739 C   0  0  0  0  0  0  0  0  0  0  0  0
  146.1244  131.1407  151.5083 N   0  3  1  0  0  0  0  0  0  0  0  0
  145.1205  131.9223  150.7293 C   0  0  0  0  0  0  0  0  0  0  0  0
  145.7031  133.2325  150.1768 C   0  0  0  0  0  0  0  0  0  0  0  0
  146.2457  134.1263  151.3042 C   0  0  1  0  0  0  0  0  0  0  0  0
  145.1748  134.6427  152.1725 N   0  0  0  0  0  0  0  0  0  0  0  0
  143.9111  135.0000  151.5354 C   0  0  0  0  0  0  0  0  0  0  0  0
  145.5478  135.6029  153.0476 C   0  0  0  0  0  0  0  0  0  0  0  0
  145.5139  135.2894  154.3660 N   0  0  0  0  0  0  0  0  0  0  0  0
  145.8811  136.1972  155.2757 C   0  0  0  0  0  0  0  0  0  0  0  0
  146.3030  137.4492  155.0835 N   0  0  0  0  0  0  0  0  0  0  0  0
  146.3293  137.7666  153.7569 C   0  0  0  0  0  0  0  0  0  0  0  0
  145.9693  136.9109  152.6793 C   0  0  0  0  0  0  0  0  0  0  0  0
  146.1189  137.5782  151.4698 N   0  0  0  0  0  0  0  0  0  0  0  0
  146.5403  138.7651  151.8134 C   0  0  0  0  0  0  0  0  0  0  0  0
  146.6925  138.9643  153.1669 N   0  0  0  0  0  0  0  0  0  0  0  0
  147.1407  140.1817  153.8179 C   0  0  0  0  0  0  0  0  0  0  0  0
  148.4271  139.9944  154.6693 C   0  0  1  0  0  0  0  0  0  0  0  0
  149.6526  139.5339  153.8416 C   0  0  0  0  0  0  0  0  0  0  0  0
  150.5921  138.8307  154.6288 O   0  0  0  0  0  0  0  0  0  0  0  0
  148.7952  141.2458  155.5106 C   0  0  1  0  0  0  0  0  0  0  0  0
  147.6842  141.8533  156.3656 C   0  0  0  0  0  0  0  0  0  0  0  0
  148.4134  142.3699  157.6105 C   0  0  0  0  0  0  0  0  0  0  0  0
  149.7987  142.2412  157.3188 O   0  0  0  0  0  0  0  0  0  0  0  0
  149.9511  141.0937  156.5010 C   0  0  0  0  0  0  0  0  0  0  0  0
  147.3043  133.2877  152.0529 C   0  0  0  0  0  0  0  0  0  0  0  0
  146.7385  131.9585  152.6052 C   0  0  2  0  0  0  0  0  0  0  0  0
  147.8668  131.2189  153.3537 C   0  0  0  0  0  0  0  0  0  0  0  0
  146.1682  127.7820  152.3507 H   0  0  0  0  0  0  0  0  0  0  0  0
  147.5204  128.9049  152.2991 H   0  0  0  0  0  0  0  0  0  0  0  0
  146.7313  128.3805  150.8070 H   0  0  0  0  0  0  0  0  0  0  0  0
  144.6460  129.6129  151.4394 H   0  0  0  0  0  0  0  0  0  0  0  0
  145.3131  129.8908  153.0292 H   0  0  0  0  0  0  0  0  0  0  0  0
  144.7620  131.3425  149.8804 H   0  0  0  0  0  0  0  0  0  0  0  0
  144.2519  132.1290  151.3566 H   0  0  0  0  0  0  0  0  0  0  0  0
  146.5115  132.9978  149.4829 H   0  0  0  0  0  0  0  0  0  0  0  0
  144.9550  133.7572  149.5824 H   0  0  0  0  0  0  0  0  0  0  0  0
  146.7413  134.9833  150.8471 H   0  0  0  0  0  0  0  0  0  0  0  0
  143.2890  135.6238  152.1800 H   0  0  0  0  0  0  0  0  0  0  0  0
  143.3380  134.1020  151.3051 H   0  0  0  0  0  0  0  0  0  0  0  0
  144.0867  135.5429  150.6058 H   0  0  0  0  0  0  0  0  0  0  0  0
  145.8302  135.8746  156.3052 H   0  0  0  0  0  0  0  0  0  0  0  0
  146.7486  139.5355  151.0854 H   0  0  0  0  0  0  0  0  0  0  0  0
  147.2881  140.9393  153.0494 H   0  0  0  0  0  0  0  0  0  0  0  0
  146.3155  140.5314  154.4366 H   0  0  0  0  0  0  0  0  0  0  0  0
  148.2182  139.2063  155.3948 H   0  0  0  0  0  0  0  0  0  0  0  0
  149.3416  138.9143  152.9998 H   0  0  0  0  0  0  0  0  0  0  0  0
  150.1772  140.3929  153.4220 H   0  0  0  0  0  0  0  0  0  0  0  0
  150.9772  139.4336  155.2465 H   0  0  0  0  0  0  0  0  0  0  0  0
  149.1113  142.0238  154.8133 H   0  0  0  0  0  0  0  0  0  0  0  0
  147.1854  142.6621  155.8301 H   0  0  0  0  0  0  0  0  0  0  0  0
  146.9194  141.1322  156.6513 H   0  0  0  0  0  0  0  0  0  0  0  0
  148.1579  143.4030  157.8469 H   0  0  0  0  0  0  0  0  0  0  0  0
  148.1715  141.7536  158.4774 H   0  0  0  0  0  0  0  0  0  0  0  0
  149.8608  140.2060  157.1266 H   0  0  0  0  0  0  0  0  0  0  0  0
  150.9256  141.0753  156.0122 H   0  0  0  0  0  0  0  0  0  0  0  0
  148.1226  133.0651  151.3662 H   0  0  0  0  0  0  0  0  0  0  0  0
  147.7612  133.8681  152.8551 H   0  0  0  0  0  0  0  0  0  0  0  0
  145.9552  132.1892  153.3285 H   0  0  0  0  0  0  0  0  0  0  0  0
  148.3904  131.8935  154.0321 H   0  0  0  0  0  0  0  0  0  0  0  0
  148.6052  130.8124  152.6620 H   0  0  0  0  0  0  0  0  0  0  0  0
  147.4919  130.4052  153.9735 H   0  0  0  0  0  0  0  0  0  0  0  0
  146.8751  130.9212  150.8693 H   0  0  0  0  0  0  0  0  0  0  0  0
  1  2  1  0  0  0  0
  1 30  1  0  0  0  0
  1 31  1  0  0  0  0
  1 32  1  0  0  0  0
  2  3  1  0  0  0  0
  2 33  1  0  0  0  0
  2 34  1  0  0  0  0
  3 28  1  0  0  0  0
  3  4  1  0  0  0  0
  3 64  1  0  0  0  0
  4  5  1  0  0  0  0
  4 35  1  0  0  0  0
  4 36  1  0  0  0  0
  5  6  1  0  0  0  0
  5 37  1  0  0  0  0
  5 38  1  0  0  0  0
  6  7  1  0  0  0  0
  6 27  1  0  0  0  0
  6 39  1  0  0  0  0
  7  8  1  0  0  0  0
  7  9  1  0  0  0  0
  8 40  1  0  0  0  0
  8 41  1  0  0  0  0
  8 42  1  0  0  0  0
  9 14  1  0  0  0  0
  9 10  2  0  0  0  0
 10 11  1  0  0  0  0
 11 12  2  0  0  0  0
 11 43  1  0  0  0  0
 12 13  1  0  0  0  0
 13 17  1  0  0  0  0
 13 14  2  0  0  0  0
 14 15  1  0  0  0  0
 15 16  2  0  0  0  0
 16 17  1  0  0  0  0
 16 44  1  0  0  0  0
 17 18  1  0  0  0  0
 18 19  1  0  0  0  0
 18 45  1  0  0  0  0
 18 46  1  0  0  0  0
 19 20  1  0  0  0  0
 19 22  1  0  0  0  0
 19 47  1  0  0  0  0
 20 21  1  0  0  0  0
 20 48  1  0  0  0  0
 20 49  1  0  0  0  0
 21 50  1  0  0  0  0
 22 26  1  0  0  0  0
 22 23  1  0  0  0  0
 22 51  1  0  0  0  0
 23 24  1  0  0  0  0
 23 52  1  0  0  0  0
 23 53  1  0  0  0  0
 24 25  1  0  0  0  0
 24 54  1  0  0  0  0
 24 55  1  0  0  0  0
 25 26  1  0  0  0  0
 26 56  1  0  0  0  0
 26 57  1  0  0  0  0
 27 28  1  0  0  0  0
 27 58  1  0  0  0  0
 27 59  1  0  0  0  0
 28 29  1  0  0  0  0
 28 60  1  0  0  0  0
 29 61  1  0  0  0  0
 29 62  1  0  0  0  0
 29 63  1  0  0  0  0
M  CHG  1   3   1
M  END
> <s_m_source_file>
AV-unprocessed.smi

> <i_m_source_file_index>
249

> <i_lp_mmshare_version>
43012

> <i_f3d_flags>
0

> <s_epik_input>
W0NIM11bQ0gyXU4xW0NIMl1bQ0gyXVtDQEhdKFtDSDJdW0NASF0xW0NIM10pTihbQ0gzXSljKG5bY0hdbjIpYyhjMjMpbltjSF1uM1tDSDJdW0NASF0oW0NIMl1bT0hdKVtDQEBIXTRbQ0gyXVtDSDJdT1tDSDJdNA==

> <s_epik_cmdline>
J2VwaWtfcHl0aG9uJywgJy1waCcsICc3LjAnLCAnLXRuJywgJzgnLCAnLW1hJywgJzIwMCcsICctbWV0YWxfYmluZGluZycsICctaW1hZScsICc8aW5maWxlLm1hZT4nLCAnLW9tYWUnLCAnPG91dGZpbGUubWFlPic=

> <r_lp_tautomer_probability>
1

> <r_epik_Ionization_Penalty>
0.00294688

> <r_epik_Ionization_Penalty_Charging>
0.00169971

> <r_epik_Ionization_Penalty_Neutral>
0.00124717

> <r_epik_State_Penalty>
-0

> <r_epik_Charging_Adjusted_Penalty>
0.00169971

> <i_epik_Tot_Q>
1

> <i_epik_Tot_abs_Q>
1

> <r_epik_Metal_State_Penalty>
-0

> <b_epik_Metal_Only>
0

> <s_lp_Force_Field>
OPLS_2005

> <r_lp_Energy>
57.5801

> <b_lp_Chiralities_Consistent>
1

> <s_lp_Variant>
AV-unprocessed.smi:249-30

> <Gold.Version>
5.8.1

> <Gold.Id.Protein>
6NUR|6NUR_protein|mol2

> <Gold.PLP.Fitness>
41.4238

> <Gold.PLP.PLP>
-37.9773

> <Gold.PLP.part.hbond>
-1.0000

> <Gold.PLP.part.metal>
0.0000

> <Gold.PLP.part.buried>
-2.4738

> <Gold.PLP.part.nonpolar>
-36.6149

> <Gold.PLP.part.repulsive>
2.2490

> <Gold.PLP.ligand.clash>
0.0000

> <Gold.PLP.ligand.torsion>
1.1911

> <Gold.PLP.Chemscore.Hbond>
1.0000

> <Gold.PLP.Chemscore.CHOScore>
0.7147

> <Gold.PLP.Chemscore.Metal>
0.0000

> <Gold.Chemscore.Hbonds>
donor molecule, donor type, donor heavy atom, donor atom, acceptor molecule, acceptor atom, score
      L1  H     3    64       P1 10747  0.63
      L1  C    16    44       P1  7957  0.11

> <Gold.PLP.Chemscore.Internal.Correction>
0.6846

> <Gold.Rescore>
     Score         DG    S(hbond)    S(metal)    S(lipo)     H(rot)  DE(clash)    DE(int)     intcor
      9.88     -13.77       0.98        0.00     106.41       2.90       2.37       1.52       ----

> <Gold.Chemscore.Fitness>
9.8757

> <Gold.Chemscore.DG>
-13.7737

> <Gold.Chemscore.ZeroCoef>
-5.4800

> <Gold.Chemscore.Hbond>
0.9789

> <Gold.Chemscore.Metal>
0.0000

> <Gold.Chemscore.Lipo>
106.4090

> <Gold.Chemscore.Internal_Hbond>
0.0000

> <Gold.Chemscore.DEClash>
2.3749

> <Gold.Chemscore.DEInternal>
1.5232

> <Gold.Chemscore.Rot>
2.9006

> <Gold.Chemscore.Internal.Correction>
   9.000000E+99

> <Gold.Chemscore.Hbonds>
donor molecule, donor type, donor heavy atom, donor atom, acceptor molecule, acceptor atom, score
      L1  H     3    64       P1 10747  0.61

> <Gold.Chemscore.Hbond.Weighted>
-3.2695

> <Gold.Chemscore.Metal.Weighted>
-0.0000

> <Gold.Chemscore.Lipo.Weighted>
-12.4499

> <Gold.Chemscore.Internal_Hbond.Weighted>
0.0000

> <Gold.Chemscore.DEClash.Weighted>
2.3749

> <Gold.Chemscore.DEInternal.Weighted>
1.5232

> <Gold.Chemscore.Rot.Weighted>
7.4256

> <Gold.Chemscore.Internal.Correction.Weighted>
   9.000000E+99

> <Gold.Protein.RotatedTorsions>
[ 6907 6896 6895 6894 ] final  152.90 input  -60.11 | X-H torsion
[ 7974 7965 7964 7962 ] final -179.89 input  175.53 | X-H torsion
[ 8008 7997 7996 7995 ] final  113.04 input   59.86 | X-H torsion
[ 10167 10162 10161 10158 ] final -175.20 input  -65.29 | X-H torsion
[ 10718 10713 10712 10709 ] final  -15.73 input   66.30 | X-H torsion
[ 10763 10752 10751 10750 ] final  100.28 input  -60.55 | X-H torsion
[ 11005 11000 10999 10996 ] final  107.68 input  -57.11 | X-H torsion

> <Gold.Protein.ActiveResidues>
 VAL166  LYS551  ARG553  GLY616  TRP617  ASP618  TYR619  PRO620  LYS621  CYS622 
 ASP623  PHE694  ASN695  SER759  ASP760  ASP761  ALA762  ILE779  LEU786  VAL792 
 PHE793  MET794  SER795  GLU796  ALA797  LYS798  CYS799  TRP800  GLU811  SER814 

> <Gold.Protein.RotatedAtoms>
  152.0802  133.4149  159.4497 H   0  0  0  0  0  0  0  0  0  0  0  0  # atno 6907 bound_to 6896
  150.6862  134.2991  159.4708 H   0  0  0  0  0  0  0  0  0  0  0  0  # atno 6908 bound_to 6896
  152.0832  134.9457  160.0624 H   0  0  0  0  0  0  0  0  0  0  0  0  # atno 6909 bound_to 6896
  144.7140  140.0650  143.6431 H   0  0  0  0  0  0  0  0  0  0  0  0  # atno 7974 bound_to 7965
  156.2232  140.2987  156.0002 H   0  0  0  0  0  0  0  0  0  0  0  0  # atno 8008 bound_to 7997
  155.2427  140.0423  157.2994 H   0  0  0  0  0  0  0  0  0  0  0  0  # atno 8009 bound_to 7997
  154.5873  140.2392  155.7977 H   0  0  0  0  0  0  0  0  0  0  0  0  # atno 8010 bound_to 7997
  139.5593  144.1910  152.1212 H   0  0  0  0  0  0  0  0  0  0  0  0  # atno 10167 bound_to 10162
  156.5976  130.4815  149.6253 H   0  0  0  0  0  0  0  0  0  0  0  0  # atno 10718 bound_to 10713
  153.3120  135.4084  155.1344 H   0  0  0  0  0  0  0  0  0  0  0  0  # atno 10763 bound_to 10752
  154.8578  135.3567  154.5710 H   0  0  0  0  0  0  0  0  0  0  0  0  # atno 10764 bound_to 10752
  153.6140  135.7067  153.5394 H   0  0  0  0  0  0  0  0  0  0  0  0  # atno 10765 bound_to 10752
  139.8832  134.9408  156.5856 H   0  0  0  0  0  0  0  0  0  0  0  0  # atno 11005 bound_to 11000
  145.9832  139.2957  143.1029 LP  0  0  0  0  0  0  0  0  0  0  0  0  # atno 17320 bound_to 7965
  145.8987  140.9257  143.0514 LP  0  0  0  0  0  0  0  0  0  0  0  0  # atno 17321 bound_to 7965
  140.1420  144.5193  150.6738 LP  0  0  0  0  0  0  0  0  0  0  0  0  # atno 17342 bound_to 10162
  140.6871  143.2355  151.5232 LP  0  0  0  0  0  0  0  0  0  0  0  0  # atno 17343 bound_to 10162
  156.2496  130.6899  151.1632 LP  0  0  0  0  0  0  0  0  0  0  0  0  # atno 17370 bound_to 10713
  157.7288  131.0629  150.5805 LP  0  0  0  0  0  0  0  0  0  0  0  0  # atno 17371 bound_to 10713
  140.7994  133.8517  155.8714 LP  0  0  0  0  0  0  0  0  0  0  0  0  # atno 17394 bound_to 11000
  140.9606  134.1661  157.4657 LP  0  0  0  0  0  0  0  0  0  0  0  0  # atno 17395 bound_to 11000

$$$$
