AV-unprocessed.smi:944|AV-procd|sdf|4231|dock7
  -GOLD-   22720 2143D 1   1.00000     0.00000
 Structure written by MMmdl.
 28 28  0  0  0  0  0  0  0  0  1 V2000
  154.0120  141.3355  161.4864 C   0  0  0  0  0  0  0  0  0  0  0  0
  153.6512  142.2837  160.4439 N   0  0  0  0  0  0  0  0  0  0  0  0
  152.5211  143.0048  160.4377 C   0  0  0  0  0  0  0  0  0  0  0  0
  151.6766  142.9389  161.3327 O   0  0  0  0  0  0  0  0  0  0  0  0
  152.3288  143.9566  159.2453 C   0  0  2  0  0  0  0  0  0  0  0  0
  151.2753  145.0055  159.6383 C   0  0  0  0  0  0  0  0  0  0  0  0
  151.8271  143.2302  158.0803 N   0  0  0  0  0  0  0  0  0  0  0  0
  150.6375  142.6122  158.0022 C   0  0  0  0  0  0  0  0  0  0  0  0
  149.8247  142.5835  158.9260 O   0  0  0  0  0  0  0  0  0  0  0  0
  150.3149  141.9209  156.6772 C   0  0  0  0  0  0  0  0  0  0  0  0
  151.2435  140.8367  156.4144 N   0  0  0  0  0  0  0  0  0  0  0  0
  152.2034  140.3122  157.1787 C   0  0  0  0  0  0  0  0  0  0  0  0
  152.8682  139.3224  156.5990 N   0  0  0  0  0  0  0  0  0  0  0  0
  152.2212  139.2866  155.3961 C   0  0  0  0  0  0  0  0  0  0  0  0
  151.2393  140.1736  155.2335 N   0  0  0  0  0  0  0  0  0  0  0  0
  154.9768  140.8821  161.2590 H   0  0  0  0  0  0  0  0  0  0  0  0
  153.2701  140.5393  161.5605 H   0  0  0  0  0  0  0  0  0  0  0  0
  154.0882  141.8324  162.4545 H   0  0  0  0  0  0  0  0  0  0  0  0
  154.2967  142.3949  159.6754 H   0  0  0  0  0  0  0  0  0  0  0  0
  153.2695  144.4543  159.0006 H   0  0  0  0  0  0  0  0  0  0  0  0
  151.5976  145.5866  160.5033 H   0  0  0  0  0  0  0  0  0  0  0  0
  150.3160  144.5471  159.8836 H   0  0  0  0  0  0  0  0  0  0  0  0
  151.1045  145.7086  158.8222 H   0  0  0  0  0  0  0  0  0  0  0  0
  152.4268  143.2051  157.2681 H   0  0  0  0  0  0  0  0  0  0  0  0
  149.3026  141.5156  156.7035 H   0  0  0  0  0  0  0  0  0  0  0  0
  150.3523  142.6422  155.8592 H   0  0  0  0  0  0  0  0  0  0  0  0
  152.4212  140.6638  158.1767 H   0  0  0  0  0  0  0  0  0  0  0  0
  152.4820  138.5861  154.6164 H   0  0  0  0  0  0  0  0  0  0  0  0
  1  2  1  0  0  0  0
  1 16  1  0  0  0  0
  1 17  1  0  0  0  0
  1 18  1  0  0  0  0
  2  3  1  0  0  0  0
  2 19  1  0  0  0  0
  3  4  2  0  0  0  0
  3  5  1  0  0  0  0
  5  6  1  0  0  0  0
  5  7  1  0  0  0  0
  5 20  1  0  0  0  0
  6 21  1  0  0  0  0
  6 22  1  0  0  0  0
  6 23  1  0  0  0  0
  7  8  1  0  0  0  0
  7 24  1  0  0  0  0
  8  9  2  0  0  0  0
  8 10  1  0  0  0  0
 10 11  1  0  0  0  0
 10 25  1  0  0  0  0
 10 26  1  0  0  0  0
 11 15  1  0  0  0  0
 11 12  1  0  0  0  0
 12 13  2  0  0  0  0
 12 27  1  0  0  0  0
 13 14  1  0  0  0  0
 14 15  2  0  0  0  0
 14 28  1  0  0  0  0
M  END
> <s_m_source_file>
AV-unprocessed.smi

> <i_m_source_file_index>
944

> <i_lp_mmshare_version>
43012

> <i_f3d_flags>
0

> <s_epik_input>
W0NIM11bTkhdQyg9TylbQ0BIXShbQ0gzXSlbTkhdQyg9TylbQ0gyXW4xW2NIXW5bY0hdbjE=

> <s_epik_cmdline>
J2VwaWtfcHl0aG9uJywgJy1waCcsICc3LjAnLCAnLXRuJywgJzgnLCAnLW1hJywgJzIwMCcsICctbWV0YWxfYmluZGluZycsICctaW1hZScsICc8aW5maWxlLm1hZT4nLCAnLW9tYWUnLCAnPG91dGZpbGUubWFlPic=

> <r_lp_tautomer_probability>
1

> <r_epik_Ionization_Penalty>
7.54354e-06

> <r_epik_Ionization_Penalty_Charging>
0

> <r_epik_Ionization_Penalty_Neutral>
7.54354e-06

> <r_epik_State_Penalty>
-0

> <r_epik_Charging_Adjusted_Penalty>
0

> <i_epik_Tot_Q>
0

> <i_epik_Tot_abs_Q>
0

> <r_epik_Metal_State_Penalty>
-0

> <b_epik_Metal_Only>
0

> <s_lp_Force_Field>
OPLS_2005

> <r_lp_Energy>
4.44665

> <b_lp_Chiralities_Consistent>
1

> <s_lp_Variant>
AV-unprocessed.smi:944-1

> <Gold.Version>
5.8.1

> <Gold.Id.Protein>
6NUR|6NUR_protein|mol2

> <Gold.PLP.Fitness>
39.4976

> <Gold.PLP.PLP>
-33.8169

> <Gold.PLP.part.hbond>
-3.7079

> <Gold.PLP.part.metal>
0.0000

> <Gold.PLP.part.buried>
-5.0445

> <Gold.PLP.part.nonpolar>
-24.8052

> <Gold.PLP.part.repulsive>
0.3013

> <Gold.PLP.ligand.clash>
0.0000

> <Gold.PLP.ligand.torsion>
0.6329

> <Gold.PLP.Chemscore.Hbond>
2.3120

> <Gold.PLP.Chemscore.CHOScore>
0.0000

> <Gold.PLP.Chemscore.Metal>
0.0000

> <Gold.Chemscore.Hbonds>
donor molecule, donor type, donor heavy atom, donor atom, acceptor molecule, acceptor atom, score
      P1  H  6933  6945       L1     4  0.29
      P1  H  7989  7998       L1    15  1.00
      P1  H  7997  8009       L1    13  0.99

> <Gold.PLP.Chemscore.Internal.Correction>
0.0105

> <Gold.Rescore>
     Score         DG    S(hbond)    S(metal)    S(lipo)     H(rot)  DE(clash)    DE(int)     intcor
      6.43      -8.14       1.53        0.00      38.97       2.74       0.00       1.71       ----

> <Gold.Chemscore.Fitness>
6.4298

> <Gold.Chemscore.DG>
-8.1449

> <Gold.Chemscore.ZeroCoef>
-5.4800

> <Gold.Chemscore.Hbond>
1.5348

> <Gold.Chemscore.Metal>
0.0000

> <Gold.Chemscore.Lipo>
38.9708

> <Gold.Chemscore.Internal_Hbond>
0.0000

> <Gold.Chemscore.DEClash>
0.0038

> <Gold.Chemscore.DEInternal>
1.7113

> <Gold.Chemscore.Rot>
2.7426

> <Gold.Chemscore.Internal.Correction>
   9.000000E+99

> <Gold.Chemscore.Hbonds>
donor molecule, donor type, donor heavy atom, donor atom, acceptor molecule, acceptor atom, score
      P1  H  6933  6945       L1     4  0.29
      P1  H  7989  7998       L1    15  0.29
      P1  H  7997  8009       L1    13  0.10

> <Gold.Chemscore.Hbond.Weighted>
-5.1263

> <Gold.Chemscore.Metal.Weighted>
-0.0000

> <Gold.Chemscore.Lipo.Weighted>
-4.5596

> <Gold.Chemscore.Internal_Hbond.Weighted>
0.0000

> <Gold.Chemscore.DEClash.Weighted>
0.0038

> <Gold.Chemscore.DEInternal.Weighted>
1.7113

> <Gold.Chemscore.Rot.Weighted>
7.0210

> <Gold.Chemscore.Internal.Correction.Weighted>
   9.000000E+99

> <Gold.Protein.RotatedTorsions>
[ 6907 6896 6895 6894 ] final  143.93 input  -60.11 | X-H torsion
[ 7974 7965 7964 7962 ] final  172.78 input  175.53 | X-H torsion
[ 8008 7997 7996 7995 ] final -151.03 input   59.86 | X-H torsion
[ 10167 10162 10161 10158 ] final  108.49 input  -65.29 | X-H torsion
[ 10718 10713 10712 10709 ] final   93.90 input   66.30 | X-H torsion
[ 10763 10752 10751 10750 ] final  159.21 input  -60.55 | X-H torsion
[ 11005 11000 10999 10996 ] final   60.27 input  -57.11 | X-H torsion

> <Gold.Protein.ActiveResidues>
 VAL166  LYS551  ARG553  GLY616  TRP617  ASP618  TYR619  PRO620  LYS621  CYS622 
 ASP623  PHE694  ASN695  SER759  ASP760  ASP761  ALA762  ILE779  LEU786  VAL792 
 PHE793  MET794  SER795  GLU796  ALA797  LYS798  CYS799  TRP800  GLU811  SER814 

> <Gold.Protein.RotatedAtoms>
  152.2001  133.4835  159.5053 H   0  0  0  0  0  0  0  0  0  0  0  0  # atno 6907 bound_to 6896
  150.6968  134.1601  159.4182 H   0  0  0  0  0  0  0  0  0  0  0  0  # atno 6908 bound_to 6896
  151.9518  135.0165  160.0593 H   0  0  0  0  0  0  0  0  0  0  0  0  # atno 6909 bound_to 6896
  144.7259  139.9550  143.6433 H   0  0  0  0  0  0  0  0  0  0  0  0  # atno 7974 bound_to 7965
  155.6329  140.0693  157.2643 H   0  0  0  0  0  0  0  0  0  0  0  0  # atno 8008 bound_to 7997
  154.4201  140.1764  156.1540 H   0  0  0  0  0  0  0  0  0  0  0  0  # atno 8009 bound_to 7997
  155.9918  140.3344  155.6764 H   0  0  0  0  0  0  0  0  0  0  0  0  # atno 8010 bound_to 7997
  139.6842  144.7115  151.1462 H   0  0  0  0  0  0  0  0  0  0  0  0  # atno 10167 bound_to 10162
  157.6952  131.0494  150.4105 H   0  0  0  0  0  0  0  0  0  0  0  0  # atno 10718 bound_to 10713
  154.2282  135.2779  155.2900 H   0  0  0  0  0  0  0  0  0  0  0  0  # atno 10763 bound_to 10752
  154.5646  135.5637  153.7042 H   0  0  0  0  0  0  0  0  0  0  0  0  # atno 10764 bound_to 10752
  153.0026  135.6306  154.2423 H   0  0  0  0  0  0  0  0  0  0  0  0  # atno 10765 bound_to 10752
  140.0244  134.6105  155.9594 H   0  0  0  0  0  0  0  0  0  0  0  0  # atno 11005 bound_to 11000
  146.0682  139.3672  143.0539 LP  0  0  0  0  0  0  0  0  0  0  0  0  # atno 17320 bound_to 7965
  145.8003  140.9774  143.1002 LP  0  0  0  0  0  0  0  0  0  0  0  0  # atno 17321 bound_to 7965
  140.7662  143.5654  150.9053 LP  0  0  0  0  0  0  0  0  0  0  0  0  # atno 17342 bound_to 10162
  139.9328  143.6473  152.3072 LP  0  0  0  0  0  0  0  0  0  0  0  0  # atno 17343 bound_to 10162
  156.4489  130.4007  149.6648 LP  0  0  0  0  0  0  0  0  0  0  0  0  # atno 17370 bound_to 10713
  156.3805  130.7576  151.2569 LP  0  0  0  0  0  0  0  0  0  0  0  0  # atno 17371 bound_to 10713
  141.1794  133.6544  156.4957 LP  0  0  0  0  0  0  0  0  0  0  0  0  # atno 17394 bound_to 11000
  140.4332  134.7083  157.4953 LP  0  0  0  0  0  0  0  0  0  0  0  0  # atno 17395 bound_to 11000

$$$$
