AV-unprocessed.smi:633|AV-procd|sdf|3130|dock10
  -GOLD-   22720 0 53D 1   1.00000     0.00000
 Structure written by MMmdl.
 53 56  0  0  0  0  0  0  0  0  1 V2000
  153.7904  142.0326  160.6603 C   0  0  0  0  0  0  0  0  0  0  0  0
  152.5675  142.1584  159.7455 C   0  0  2  0  0  0  0  0  0  0  0  0
  152.5180  141.0334  158.6964 C   0  0  0  0  0  0  0  0  0  0  0  0
  151.4154  141.2548  157.7653 N   0  0  0  0  0  0  0  0  0  0  0  0
  151.0335  140.1887  156.9231 C   0  0  0  0  0  0  0  0  0  0  0  0
  151.0363  140.3592  155.5189 C   0  0  0  0  0  0  0  0  0  0  0  0
  150.6562  139.2841  154.6929 C   0  0  0  0  0  0  0  0  0  0  0  0
  150.2733  138.0618  155.2925 C   0  0  0  0  0  0  0  0  0  0  0  0
  149.8939  136.8977  154.5707 N   0  0  0  0  0  0  0  0  0  0  0  0
  149.7998  135.6318  155.0119 C   0  0  0  0  0  0  0  0  0  0  0  0
  150.0805  135.2539  156.1489 O   0  0  0  0  0  0  0  0  0  0  0  0
  149.3741  134.8132  154.0373 N   0  0  0  0  0  0  0  0  0  0  0  0
  149.1602  133.3705  154.1376 C   0  0  0  0  0  0  0  0  0  0  0  0
  150.3689  132.6037  154.6545 C   0  0  0  0  0  0  0  0  0  0  0  0
  150.2274  131.2160  155.2331 C   0  0  0  0  0  0  0  0  0  0  0  0
  150.5783  132.3799  156.1327 C   0  0  0  0  0  0  0  0  0  0  0  0
  148.6208  132.7399  152.8620 C   0  0  0  0  0  0  0  0  0  0  0  0
  147.3300  133.2169  152.2410 C   0  0  0  0  0  0  0  0  0  0  0  0
  147.4010  131.8499  152.8840 C   0  0  0  0  0  0  0  0  0  0  0  0
  150.3101  137.9855  156.6988 C   0  0  0  0  0  0  0  0  0  0  0  0
  150.6708  139.0142  157.4942 N   0  0  0  0  0  0  0  0  0  0  0  0
  151.4520  142.5705  157.1336 C   0  0  0  0  0  0  0  0  0  0  0  0
  151.5561  143.6892  158.1891 C   0  0  1  0  0  0  0  0  0  0  0  0
  150.2335  143.9565  158.9293 C   0  0  0  0  0  0  0  0  0  0  0  0
  152.6352  143.4233  159.0882 O   0  0  0  0  0  0  0  0  0  0  0  0
  153.7807  141.0857  161.2004 H   0  0  0  0  0  0  0  0  0  0  0  0
  153.8092  142.8353  161.3976 H   0  0  0  0  0  0  0  0  0  0  0  0
  154.7176  142.0832  160.0888 H   0  0  0  0  0  0  0  0  0  0  0  0
  151.6746  142.1160  160.3696 H   0  0  0  0  0  0  0  0  0  0  0  0
  153.4555  140.9940  158.1397 H   0  0  0  0  0  0  0  0  0  0  0  0
  152.3975  140.0738  159.2012 H   0  0  0  0  0  0  0  0  0  0  0  0
  151.3158  141.3004  155.0690 H   0  0  0  0  0  0  0  0  0  0  0  0
  150.6791  139.4169  153.6226 H   0  0  0  0  0  0  0  0  0  0  0  0
  149.7144  137.0393  153.5874 H   0  0  0  0  0  0  0  0  0  0  0  0
  149.1769  135.2272  153.1380 H   0  0  0  0  0  0  0  0  0  0  0  0
  148.3788  133.2664  154.8916 H   0  0  0  0  0  0  0  0  0  0  0  0
  151.2734  132.7705  154.0724 H   0  0  0  0  0  0  0  0  0  0  0  0
  149.2263  130.7995  155.3237 H   0  0  0  0  0  0  0  0  0  0  0  0
  151.0129  130.4971  155.0093 H   0  0  0  0  0  0  0  0  0  0  0  0
  151.5977  132.4372  156.5087 H   0  0  0  0  0  0  0  0  0  0  0  0
  149.8089  132.7375  156.8144 H   0  0  0  0  0  0  0  0  0  0  0  0
  149.3975  132.4417  152.1601 H   0  0  0  0  0  0  0  0  0  0  0  0
  146.7710  133.9902  152.7642 H   0  0  0  0  0  0  0  0  0  0  0  0
  147.2823  133.2611  151.1549 H   0  0  0  0  0  0  0  0  0  0  0  0
  147.4001  130.9832  152.2263 H   0  0  0  0  0  0  0  0  0  0  0  0
  146.8828  131.7162  153.8313 H   0  0  0  0  0  0  0  0  0  0  0  0
  150.0376  137.0713  157.2056 H   0  0  0  0  0  0  0  0  0  0  0  0
  152.3223  142.6069  156.4770 H   0  0  0  0  0  0  0  0  0  0  0  0
  150.5806  142.7465  156.5038 H   0  0  0  0  0  0  0  0  0  0  0  0
  151.8164  144.6113  157.6685 H   0  0  0  0  0  0  0  0  0  0  0  0
  149.4632  144.2899  158.2335 H   0  0  0  0  0  0  0  0  0  0  0  0
  150.3584  144.7366  159.6805 H   0  0  0  0  0  0  0  0  0  0  0  0
  149.8519  143.0668  159.4295 H   0  0  0  0  0  0  0  0  0  0  0  0
  1  2  1  0  0  0  0
  1 26  1  0  0  0  0
  1 27  1  0  0  0  0
  1 28  1  0  0  0  0
  2 25  1  0  0  0  0
  2  3  1  0  0  0  0
  2 29  1  0  0  0  0
  3  4  1  0  0  0  0
  3 30  1  0  0  0  0
  3 31  1  0  0  0  0
  4  5  1  0  0  0  0
  4 22  1  0  0  0  0
  5 21  1  0  0  0  0
  5  6  2  0  0  0  0
  6  7  1  0  0  0  0
  6 32  1  0  0  0  0
  7  8  2  0  0  0  0
  7 33  1  0  0  0  0
  8  9  1  0  0  0  0
  8 20  1  0  0  0  0
  9 10  1  0  0  0  0
  9 34  1  0  0  0  0
 10 11  2  0  0  0  0
 10 12  1  0  0  0  0
 12 13  1  0  0  0  0
 12 35  1  0  0  0  0
 13 14  1  0  0  0  0
 13 17  1  0  0  0  0
 13 36  1  0  0  0  0
 14 16  1  0  0  0  0
 14 15  1  0  0  0  0
 14 37  1  0  0  0  0
 15 16  1  0  0  0  0
 15 38  1  0  0  0  0
 15 39  1  0  0  0  0
 16 40  1  0  0  0  0
 16 41  1  0  0  0  0
 17 19  1  0  0  0  0
 17 18  1  0  0  0  0
 17 42  1  0  0  0  0
 18 19  1  0  0  0  0
 18 43  1  0  0  0  0
 18 44  1  0  0  0  0
 19 45  1  0  0  0  0
 19 46  1  0  0  0  0
 20 21  2  0  0  0  0
 20 47  1  0  0  0  0
 22 23  1  0  0  0  0
 22 48  1  0  0  0  0
 22 49  1  0  0  0  0
 23 24  1  0  0  0  0
 23 25  1  0  0  0  0
 23 50  1  0  0  0  0
 24 51  1  0  0  0  0
 24 52  1  0  0  0  0
 24 53  1  0  0  0  0
M  END
> <s_m_source_file>
AV-unprocessed.smi

> <i_m_source_file_index>
633

> <i_lp_mmshare_version>
43012

> <i_f3d_flags>
0

> <s_epik_input>
W0NIM11bQ0BASF0xW0NIMl1OKFtDSDJdW0NASF0oTzEpW0NIM10pYzJbY0hdW2NIXWMoW2NIXW4yKVtOSF1DKD1PKVtOSF1bQ0hdKFtDSF0zW0NIMl1bQ0gyXTMpW0NIXTRbQ0gyXVtDSDJdNA==

> <s_epik_cmdline>
J2VwaWtfcHl0aG9uJywgJy1waCcsICc3LjAnLCAnLXRuJywgJzgnLCAnLW1hJywgJzIwMCcsICctbWV0YWxfYmluZGluZycsICctaW1hZScsICc8aW5maWxlLm1hZT4nLCAnLW9tYWUnLCAnPG91dGZpbGUubWFlPic=

> <r_lp_tautomer_probability>
1

> <r_epik_Ionization_Penalty>
0.00291159

> <r_epik_Ionization_Penalty_Charging>
0

> <r_epik_Ionization_Penalty_Neutral>
0.00291159

> <r_epik_State_Penalty>
0.00200877

> <r_epik_Charging_Adjusted_Penalty>
0.00200877

> <i_epik_Tot_Q>
0

> <i_epik_Tot_abs_Q>
0

> <r_epik_Metal_State_Penalty>
-0

> <b_epik_Metal_Only>
0

> <s_lp_Force_Field>
OPLS_2005

> <r_lp_Energy>
43.7528

> <b_lp_Chiralities_Consistent>
1

> <s_lp_Variant>
AV-unprocessed.smi:633-1

> <Gold.Version>
5.8.1

> <Gold.Id.Protein>
6NUR|6NUR_protein|mol2

> <Gold.PLP.Fitness>
49.5599

> <Gold.PLP.PLP>
-44.2168

> <Gold.PLP.part.hbond>
-2.0000

> <Gold.PLP.part.metal>
0.0000

> <Gold.PLP.part.buried>
-4.0493

> <Gold.PLP.part.nonpolar>
-37.2490

> <Gold.PLP.part.repulsive>
0.0797

> <Gold.PLP.ligand.clash>
0.0000

> <Gold.PLP.ligand.torsion>
1.4973

> <Gold.PLP.Chemscore.Hbond>
1.9440

> <Gold.PLP.Chemscore.CHOScore>
0.0000

> <Gold.PLP.Chemscore.Metal>
0.0000

> <Gold.Chemscore.Hbonds>
donor molecule, donor type, donor heavy atom, donor atom, acceptor molecule, acceptor atom, score
      L1  H     9    34       P1  7948  0.93
      L1  H    12    35       P1  7948  0.85

> <Gold.PLP.Chemscore.Internal.Correction>
2.5057

> <Gold.Rescore>
     Score         DG    S(hbond)    S(metal)    S(lipo)     H(rot)  DE(clash)    DE(int)     intcor
     17.14     -20.61       1.51        0.00     117.01       1.40       0.48       3.00       ----

> <Gold.Chemscore.Fitness>
17.1364

> <Gold.Chemscore.DG>
-20.6140

> <Gold.Chemscore.ZeroCoef>
-5.4800

> <Gold.Chemscore.Hbond>
1.5072

> <Gold.Chemscore.Metal>
0.0000

> <Gold.Chemscore.Lipo>
117.0058

> <Gold.Chemscore.Internal_Hbond>
0.0000

> <Gold.Chemscore.DEClash>
0.4805

> <Gold.Chemscore.DEInternal>
2.9971

> <Gold.Chemscore.Rot>
1.4022

> <Gold.Chemscore.Internal.Correction>
   9.000000E+99

> <Gold.Chemscore.Hbonds>
donor molecule, donor type, donor heavy atom, donor atom, acceptor molecule, acceptor atom, score
      L1  H     9    34       P1  7948  0.60
      L1  H    12    35       P1  7948  0.14

> <Gold.Chemscore.Hbond.Weighted>
-5.0340

> <Gold.Chemscore.Metal.Weighted>
-0.0000

> <Gold.Chemscore.Lipo.Weighted>
-13.6897

> <Gold.Chemscore.Internal_Hbond.Weighted>
0.0000

> <Gold.Chemscore.DEClash.Weighted>
0.4805

> <Gold.Chemscore.DEInternal.Weighted>
2.9971

> <Gold.Chemscore.Rot.Weighted>
3.5897

> <Gold.Chemscore.Internal.Correction.Weighted>
   9.000000E+99

> <Gold.Protein.RotatedTorsions>
[ 6907 6896 6895 6894 ] final  -51.98 input  -60.11 | X-H torsion
[ 7974 7965 7964 7962 ] final  169.17 input  175.53 | X-H torsion
[ 8008 7997 7996 7995 ] final -112.79 input   59.86 | X-H torsion
[ 10167 10162 10161 10158 ] final  108.40 input  -65.29 | X-H torsion
[ 10718 10713 10712 10709 ] final  -24.02 input   66.30 | X-H torsion
[ 10763 10752 10751 10750 ] final  150.69 input  -60.55 | X-H torsion
[ 11005 11000 10999 10996 ] final -153.82 input  -57.11 | X-H torsion

> <Gold.Protein.ActiveResidues>
 VAL166  LYS551  ARG553  GLY616  TRP617  ASP618  TYR619  PRO620  LYS621  CYS622 
 ASP623  PHE694  ASN695  SER759  ASP760  ASP761  ALA762  ILE779  LEU786  VAL792 
 PHE793  MET794  SER795  GLU796  ALA797  LYS798  CYS799  TRP800  GLU811  SER814 

> <Gold.Protein.RotatedAtoms>
  150.8560  134.7899  159.7045 H   0  0  0  0  0  0  0  0  0  0  0  0  # atno 6907 bound_to 6896
  152.4612  134.5177  159.9783 H   0  0  0  0  0  0  0  0  0  0  0  0  # atno 6908 bound_to 6896
  151.5289  133.3414  159.2950 H   0  0  0  0  0  0  0  0  0  0  0  0  # atno 6909 bound_to 6896
  144.7364  139.9015  143.6409 H   0  0  0  0  0  0  0  0  0  0  0  0  # atno 7974 bound_to 7965
  155.0106  140.0393  157.2398 H   0  0  0  0  0  0  0  0  0  0  0  0  # atno 8008 bound_to 7997
  154.7463  140.2758  155.6307 H   0  0  0  0  0  0  0  0  0  0  0  0  # atno 8009 bound_to 7997
  156.2875  140.2655  156.2205 H   0  0  0  0  0  0  0  0  0  0  0  0  # atno 8010 bound_to 7997
  139.6849  144.7114  151.1450 H   0  0  0  0  0  0  0  0  0  0  0  0  # atno 10167 bound_to 10162
  156.4832  130.4550  149.6799 H   0  0  0  0  0  0  0  0  0  0  0  0  # atno 10718 bound_to 10713
  154.0916  135.2852  155.3270 H   0  0  0  0  0  0  0  0  0  0  0  0  # atno 10763 bound_to 10752
  154.6616  135.5332  153.8028 H   0  0  0  0  0  0  0  0  0  0  0  0  # atno 10764 bound_to 10752
  153.0411  135.6535  154.1085 H   0  0  0  0  0  0  0  0  0  0  0  0  # atno 10765 bound_to 10752
  140.7040  134.3906  157.5206 H   0  0  0  0  0  0  0  0  0  0  0  0  # atno 11005 bound_to 11000
  146.1068  139.4068  143.0313 LP  0  0  0  0  0  0  0  0  0  0  0  0  # atno 17320 bound_to 7965
  145.7500  140.9976  143.1255 LP  0  0  0  0  0  0  0  0  0  0  0  0  # atno 17321 bound_to 7965
  140.7664  143.5644  150.9063 LP  0  0  0  0  0  0  0  0  0  0  0  0  # atno 17342 bound_to 10162
  139.9318  143.6484  152.3074 LP  0  0  0  0  0  0  0  0  0  0  0  0  # atno 17343 bound_to 10162
  156.3500  130.7427  151.2385 LP  0  0  0  0  0  0  0  0  0  0  0  0  # atno 17370 bound_to 10713
  157.7481  131.0379  150.4480 LP  0  0  0  0  0  0  0  0  0  0  0  0  # atno 17371 bound_to 10713
  139.8889  134.8844  156.2449 LP  0  0  0  0  0  0  0  0  0  0  0  0  # atno 17394 bound_to 11000
  141.0140  133.7079  156.1158 LP  0  0  0  0  0  0  0  0  0  0  0  0  # atno 17395 bound_to 11000

$$$$
