AV-unprocessed.smi:931|AV-procd|sdf|4198|dock2
  -GOLD-   22720 2103D 1   1.00000     0.00000
 Structure written by MMmdl.
 36 37  0  0  0  0  0  0  0  0  1 V2000
  151.9937  146.1236  159.9736 C   0  0  0  0  0  0  0  0  0  0  0  0
  151.2900  144.7952  159.6613 C   0  0  0  0  0  0  0  0  0  0  0  0
  149.8161  144.7781  160.0918 C   0  0  0  0  0  0  0  0  0  0  0  0
  152.0467  143.6188  160.1934 C   0  0  0  0  0  0  0  0  0  0  0  0
  152.4948  142.6169  159.4303 N   0  0  0  0  0  0  0  0  0  0  0  0
  153.1678  141.6364  160.1656 C   0  0  0  0  0  0  0  0  0  0  0  0
  153.7495  140.4443  159.4687 C   0  0  0  0  0  0  0  0  0  0  0  0
  152.6604  139.4846  158.9607 C   0  0  0  0  0  0  0  0  0  0  0  0
  151.9010  140.0610  157.8571 N   0  0  0  0  0  0  0  0  0  0  0  0
  152.1275  139.8169  156.5566 C   0  0  0  0  0  0  0  0  0  0  0  0
  152.9912  139.0417  156.1465 O   0  0  0  0  0  0  0  0  0  0  0  0
  151.2612  140.4440  155.7449 N   0  0  0  0  0  0  0  0  0  0  0  0
  150.3736  139.9159  154.7128 C   0  0  0  0  0  0  0  0  0  0  0  0
  149.7210  141.2961  154.6974 C   0  0  0  0  0  0  0  0  0  0  0  0
  150.4142  141.5973  156.0240 C   0  0  0  0  0  0  0  0  0  0  0  0
  153.2257  141.9121  161.5087 C   0  0  0  0  0  0  0  0  0  0  0  0
  152.4337  143.4137  161.8986 S   0  0  0  0  0  0  0  0  0  0  0  0
  153.0107  146.1299  159.5807 H   0  0  0  0  0  0  0  0  0  0  0  0
  152.0498  146.3002  161.0482 H   0  0  0  0  0  0  0  0  0  0  0  0
  151.4622  146.9638  159.5263 H   0  0  0  0  0  0  0  0  0  0  0  0
  151.2929  144.6949  158.5753 H   0  0  0  0  0  0  0  0  0  0  0  0
  149.3260  143.8572  159.7747 H   0  0  0  0  0  0  0  0  0  0  0  0
  149.2687  145.6118  159.6512 H   0  0  0  0  0  0  0  0  0  0  0  0
  149.7183  144.8522  161.1754 H   0  0  0  0  0  0  0  0  0  0  0  0
  154.3687  140.7740  158.6338 H   0  0  0  0  0  0  0  0  0  0  0  0
  154.4199  139.9104  160.1436 H   0  0  0  0  0  0  0  0  0  0  0  0
  153.1154  138.5579  158.6101 H   0  0  0  0  0  0  0  0  0  0  0  0
  151.9848  139.2110  159.7729 H   0  0  0  0  0  0  0  0  0  0  0  0
  151.1507  140.6922  158.0978 H   0  0  0  0  0  0  0  0  0  0  0  0
  150.8659  139.6527  153.7760 H   0  0  0  0  0  0  0  0  0  0  0  0
  149.7119  139.1226  155.0647 H   0  0  0  0  0  0  0  0  0  0  0  0
  150.0781  141.9254  153.8805 H   0  0  0  0  0  0  0  0  0  0  0  0
  148.6320  141.2811  154.7512 H   0  0  0  0  0  0  0  0  0  0  0  0
  149.7690  141.4695  156.8948 H   0  0  0  0  0  0  0  0  0  0  0  0
  150.9377  142.5538  156.0407 H   0  0  0  0  0  0  0  0  0  0  0  0
  153.6882  141.3260  162.2890 H   0  0  0  0  0  0  0  0  0  0  0  0
  1  2  1  0  0  0  0
  1 18  1  0  0  0  0
  1 19  1  0  0  0  0
  1 20  1  0  0  0  0
  2  3  1  0  0  0  0
  2  4  1  0  0  0  0
  2 21  1  0  0  0  0
  3 22  1  0  0  0  0
  3 23  1  0  0  0  0
  3 24  1  0  0  0  0
  4 17  1  0  0  0  0
  4  5  2  0  0  0  0
  5  6  1  0  0  0  0
  6  7  1  0  0  0  0
  6 16  2  0  0  0  0
  7  8  1  0  0  0  0
  7 25  1  0  0  0  0
  7 26  1  0  0  0  0
  8  9  1  0  0  0  0
  8 27  1  0  0  0  0
  8 28  1  0  0  0  0
  9 10  1  0  0  0  0
  9 29  1  0  0  0  0
 10 11  2  0  0  0  0
 10 12  1  0  0  0  0
 12 15  1  0  0  0  0
 12 13  1  0  0  0  0
 13 14  1  0  0  0  0
 13 30  1  0  0  0  0
 13 31  1  0  0  0  0
 14 15  1  0  0  0  0
 14 32  1  0  0  0  0
 14 33  1  0  0  0  0
 15 34  1  0  0  0  0
 15 35  1  0  0  0  0
 16 17  1  0  0  0  0
 16 36  1  0  0  0  0
M  END
> <s_m_source_file>
AV-unprocessed.smi

> <i_m_source_file_index>
931

> <i_lp_mmshare_version>
43012

> <i_f3d_flags>
0

> <s_epik_input>
W0NIM11bQ0hdKFtDSDNdKWMxbmMoW2NIXXMxKVtDSDJdW0NIMl1bTkhdQyg9TylOMltDSDJdW0NIMl1bQ0gyXTI=

> <s_epik_cmdline>
J2VwaWtfcHl0aG9uJywgJy1waCcsICc3LjAnLCAnLXRuJywgJzgnLCAnLW1hJywgJzIwMCcsICctbWV0YWxfYmluZGluZycsICctaW1hZScsICc8aW5maWxlLm1hZT4nLCAnLW9tYWUnLCAnPG91dGZpbGUubWFlPic=

> <r_epik_Ionization_Penalty>
0.00159927

> <r_epik_Ionization_Penalty_Charging>
0

> <r_epik_Ionization_Penalty_Neutral>
0.00159927

> <r_epik_State_Penalty>
0.00102964

> <r_epik_Charging_Adjusted_Penalty>
0.00102964

> <i_epik_Tot_Q>
0

> <i_epik_Tot_abs_Q>
0

> <r_epik_Metal_State_Penalty>
-0

> <b_epik_Metal_Only>
0

> <s_lp_Force_Field>
OPLS_2005

> <r_lp_Energy>
8.94744

> <b_lp_Chiralities_Consistent>
1

> <s_lp_Variant>
AV-unprocessed.smi:931-1

> <Gold.Version>
5.8.1

> <Gold.Id.Protein>
6NUR|6NUR_protein|mol2

> <Gold.PLP.Fitness>
44.4737

> <Gold.PLP.PLP>
-42.9289

> <Gold.PLP.part.hbond>
-1.0000

> <Gold.PLP.part.metal>
0.0000

> <Gold.PLP.part.buried>
-2.4055

> <Gold.PLP.part.nonpolar>
-38.9483

> <Gold.PLP.part.repulsive>
0.0741

> <Gold.PLP.ligand.clash>
0.0000

> <Gold.PLP.ligand.torsion>
0.9326

> <Gold.PLP.Chemscore.Hbond>
1.0000

> <Gold.PLP.Chemscore.CHOScore>
0.0000

> <Gold.PLP.Chemscore.Metal>
0.0000

> <Gold.Chemscore.Hbonds>
donor molecule, donor type, donor heavy atom, donor atom, acceptor molecule, acceptor atom, score
      P1  H  7997  8008       L1    11  0.85

> <Gold.PLP.Chemscore.Internal.Correction>
0.4100

> <Gold.Rescore>
     Score         DG    S(hbond)    S(metal)    S(lipo)     H(rot)  DE(clash)    DE(int)     intcor
     16.22     -17.64       0.95        0.00     109.22       1.48       0.23       1.19       ----

> <Gold.Chemscore.Fitness>
16.2221

> <Gold.Chemscore.DG>
-17.6368

> <Gold.Chemscore.ZeroCoef>
-5.4800

> <Gold.Chemscore.Hbond>
0.9519

> <Gold.Chemscore.Metal>
0.0000

> <Gold.Chemscore.Lipo>
109.2153

> <Gold.Chemscore.Internal_Hbond>
0.0000

> <Gold.Chemscore.DEClash>
0.2280

> <Gold.Chemscore.DEInternal>
1.1867

> <Gold.Chemscore.Rot>
1.4847

> <Gold.Chemscore.Internal.Correction>
   9.000000E+99

> <Gold.Chemscore.Hbonds>
donor molecule, donor type, donor heavy atom, donor atom, acceptor molecule, acceptor atom, score
      P1  H  7997  8008       L1    11  0.15

> <Gold.Chemscore.Hbond.Weighted>
-3.1795

> <Gold.Chemscore.Metal.Weighted>
-0.0000

> <Gold.Chemscore.Lipo.Weighted>
-12.7782

> <Gold.Chemscore.Internal_Hbond.Weighted>
0.0000

> <Gold.Chemscore.DEClash.Weighted>
0.2280

> <Gold.Chemscore.DEInternal.Weighted>
1.1867

> <Gold.Chemscore.Rot.Weighted>
3.8009

> <Gold.Chemscore.Internal.Correction.Weighted>
   9.000000E+99

> <Gold.Protein.RotatedTorsions>
[ 6907 6896 6895 6894 ] final  152.90 input  -60.11 | X-H torsion
[ 7974 7965 7964 7962 ] final  112.11 input  175.53 | X-H torsion
[ 8008 7997 7996 7995 ] final  -44.58 input   59.86 | X-H torsion
[ 10167 10162 10161 10158 ] final  -74.70 input  -65.29 | X-H torsion
[ 10718 10713 10712 10709 ] final -158.84 input   66.30 | X-H torsion
[ 10763 10752 10751 10750 ] final -179.73 input  -60.55 | X-H torsion
[ 11005 11000 10999 10996 ] final   21.17 input  -57.11 | X-H torsion

> <Gold.Protein.ActiveResidues>
 VAL166  LYS551  ARG553  GLY616  TRP617  ASP618  TYR619  PRO620  LYS621  CYS622 
 ASP623  PHE694  ASN695  SER759  ASP760  ASP761  ALA762  ILE779  LEU786  VAL792 
 PHE793  MET794  SER795  GLU796  ALA797  LYS798  CYS799  TRP800  GLU811  SER814 

> <Gold.Protein.RotatedAtoms>
  152.0803  133.4149  159.4497 H   0  0  0  0  0  0  0  0  0  0  0  0  # atno 6907 bound_to 6896
  150.6862  134.2990  159.4707 H   0  0  0  0  0  0  0  0  0  0  0  0  # atno 6908 bound_to 6896
  152.0831  134.9457  160.0624 H   0  0  0  0  0  0  0  0  0  0  0  0  # atno 6909 bound_to 6896
  145.2337  139.2808  143.4155 H   0  0  0  0  0  0  0  0  0  0  0  0  # atno 7974 bound_to 7965
  154.3998  140.1418  156.3706 H   0  0  0  0  0  0  0  0  0  0  0  0  # atno 8008 bound_to 7997
  155.8096  140.3473  155.5429 H   0  0  0  0  0  0  0  0  0  0  0  0  # atno 8009 bound_to 7997
  155.8400  140.0925  157.1730 H   0  0  0  0  0  0  0  0  0  0  0  0  # atno 8010 bound_to 7997
  140.5005  143.2362  151.7760 H   0  0  0  0  0  0  0  0  0  0  0  0  # atno 10167 bound_to 10162
  156.5598  130.8642  151.2806 H   0  0  0  0  0  0  0  0  0  0  0  0  # atno 10718 bound_to 10713
  154.5313  135.2800  155.1177 H   0  0  0  0  0  0  0  0  0  0  0  0  # atno 10763 bound_to 10752
  154.2696  135.6306  153.5309 H   0  0  0  0  0  0  0  0  0  0  0  0  # atno 10764 bound_to 10752
  152.9957  135.5625  154.5828 H   0  0  0  0  0  0  0  0  0  0  0  0  # atno 10765 bound_to 10752
  140.3945  134.1784  155.7663 H   0  0  0  0  0  0  0  0  0  0  0  0  # atno 11005 bound_to 11000
  146.3346  140.2679  142.8604 LP  0  0  0  0  0  0  0  0  0  0  0  0  # atno 17320 bound_to 7965
  144.9653  140.8315  143.5488 LP  0  0  0  0  0  0  0  0  0  0  0  0  # atno 17321 bound_to 7965
  139.4871  144.4528  151.9633 LP  0  0  0  0  0  0  0  0  0  0  0  0  # atno 17342 bound_to 10162
  140.3617  144.2964  150.5932 LP  0  0  0  0  0  0  0  0  0  0  0  0  # atno 17343 bound_to 10162
  157.7371  130.9789  150.2172 LP  0  0  0  0  0  0  0  0  0  0  0  0  # atno 17370 bound_to 10713
  156.2809  130.3733  149.7936 LP  0  0  0  0  0  0  0  0  0  0  0  0  # atno 17371 bound_to 10713
  141.1879  133.8271  157.1015 LP  0  0  0  0  0  0  0  0  0  0  0  0  # atno 17394 bound_to 11000
  140.0382  134.9868  157.0911 LP  0  0  0  0  0  0  0  0  0  0  0  0  # atno 17395 bound_to 11000

$$$$
