AV-unprocessed.smi:2706|AV-procd|sdf|10450|dock4
  -GOLD-   2272014493D 1   1.00000     0.00000
 Structure written by MMmdl.
 44 47  0  0  0  0  0  0  0  0  2 V2000
  151.5791  139.2728  154.8096 C   0  0  0  0  0  0  0  0  0  0  0  0
  150.7297  140.4452  154.9887 N   0  0  0  0  0  0  0  0  0  0  0  0
  151.1706  141.5467  155.8348 C   0  0  0  0  0  0  0  0  0  0  0  0
  149.5338  140.5657  154.2494 C   0  0  0  0  0  0  0  0  0  0  0  0
  148.8587  141.7955  154.0617 C   0  0  0  0  0  0  0  0  0  0  0  0
  147.6719  141.8299  153.3040 C   0  0  0  0  0  0  0  0  0  0  0  0
  147.1683  140.6386  152.7472 C   0  0  0  0  0  0  0  0  0  0  0  0
  147.8603  139.4226  152.9666 C   0  0  0  0  0  0  0  0  0  0  0  0
  147.4588  138.1637  152.4440 N   0  0  0  0  0  0  0  0  0  0  0  0
  146.2142  137.7162  152.2013 C   0  0  0  0  0  0  0  0  0  0  0  0
  145.1792  138.3493  152.4094 O   0  0  0  0  0  0  0  0  0  0  0  0
  146.2352  136.4683  151.7130 N   0  0  0  0  0  0  0  0  0  0  0  0
  145.0899  135.6908  151.3615 C   0  0  2  0  0  0  0  0  0  0  0  0
  144.7521  134.4137  152.1220 C   0  0  2  0  0  0  0  0  0  0  0  0
  145.6895  133.4765  152.8877 C   0  0  1  0  0  0  0  0  0  0  0  0
  145.3106  132.0317  152.4966 C   0  0  0  0  0  0  0  0  0  0  0  0
  145.8219  131.9378  151.0360 C   0  0  0  0  0  0  0  0  0  0  0  0
  146.4191  133.3426  150.8035 C   0  0  2  0  0  0  0  0  0  0  0  0
  147.0410  133.5758  152.1803 C   0  0  0  0  0  0  0  0  0  0  0  0
  145.2473  134.3229  150.7076 C   0  0  2  0  0  0  0  0  0  0  0  0
  149.0028  139.4505  153.6907 N   0  3  0  0  0  0  0  0  0  0  0  0
  151.9462  139.2197  153.7843 H   0  0  0  0  0  0  0  0  0  0  0  0
  151.0261  138.3590  155.0288 H   0  0  0  0  0  0  0  0  0  0  0  0
  152.4435  139.3039  155.4733 H   0  0  0  0  0  0  0  0  0  0  0  0
  151.2986  142.4556  155.2459 H   0  0  0  0  0  0  0  0  0  0  0  0
  152.1250  141.3227  156.3120 H   0  0  0  0  0  0  0  0  0  0  0  0
  150.4426  141.7406  156.6231 H   0  0  0  0  0  0  0  0  0  0  0  0
  149.2341  142.7155  154.4838 H   0  0  0  0  0  0  0  0  0  0  0  0
  147.1540  142.7647  153.1472 H   0  0  0  0  0  0  0  0  0  0  0  0
  146.2677  140.6845  152.1542 H   0  0  0  0  0  0  0  0  0  0  0  0
  148.2038  137.4995  152.2935 H   0  0  0  0  0  0  0  0  0  0  0  0
  147.1323  136.0249  151.5789 H   0  0  0  0  0  0  0  0  0  0  0  0
  144.2240  136.2576  151.0218 H   0  0  0  0  0  0  0  0  0  0  0  0
  143.6923  134.2397  152.2997 H   0  0  0  0  0  0  0  0  0  0  0  0
  145.7032  133.6717  153.9603 H   0  0  0  0  0  0  0  0  0  0  0  0
  145.8205  131.3060  153.1315 H   0  0  0  0  0  0  0  0  0  0  0  0
  144.2383  131.8481  152.5743 H   0  0  0  0  0  0  0  0  0  0  0  0
  146.5868  131.1654  150.9436 H   0  0  0  0  0  0  0  0  0  0  0  0
  145.0241  131.7036  150.3301 H   0  0  0  0  0  0  0  0  0  0  0  0
  147.1035  133.4142  149.9579 H   0  0  0  0  0  0  0  0  0  0  0  0
  147.5614  134.5211  152.3017 H   0  0  0  0  0  0  0  0  0  0  0  0
  147.7404  132.7906  152.4757 H   0  0  0  0  0  0  0  0  0  0  0  0
  144.5211  134.0874  149.9314 H   0  0  0  0  0  0  0  0  0  0  0  0
  149.5004  138.5721  153.8351 H   0  0  0  0  0  0  0  0  0  0  0  0
  1  2  1  0  0  0  0
  1 22  1  0  0  0  0
  1 23  1  0  0  0  0
  1 24  1  0  0  0  0
  2  3  1  0  0  0  0
  2  4  1  0  0  0  0
  3 25  1  0  0  0  0
  3 26  1  0  0  0  0
  3 27  1  0  0  0  0
  4 21  1  0  0  0  0
  4  5  2  0  0  0  0
  5  6  1  0  0  0  0
  5 28  1  0  0  0  0
  6  7  2  0  0  0  0
  6 29  1  0  0  0  0
  7  8  1  0  0  0  0
  7 30  1  0  0  0  0
  8  9  1  0  0  0  0
  8 21  2  0  0  0  0
  9 10  1  0  0  0  0
  9 31  1  0  0  0  0
 10 11  2  0  0  0  0
 10 12  1  0  0  0  0
 12 13  1  0  0  0  0
 12 32  1  0  0  0  0
 13 20  1  0  0  0  0
 13 14  1  0  0  0  0
 13 33  1  0  0  0  0
 14 20  1  0  0  0  0
 14 15  1  0  0  0  0
 14 34  1  0  0  0  0
 15 19  1  0  0  0  0
 15 16  1  0  0  0  0
 15 35  1  0  0  0  0
 16 17  1  0  0  0  0
 16 36  1  0  0  0  0
 16 37  1  0  0  0  0
 17 18  1  0  0  0  0
 17 38  1  0  0  0  0
 17 39  1  0  0  0  0
 18 19  1  0  0  0  0
 18 20  1  0  0  0  0
 18 40  1  0  0  0  0
 19 41  1  0  0  0  0
 19 42  1  0  0  0  0
 20 43  1  0  0  0  0
 21 44  1  0  0  0  0
M  CHG  1  21   1
M  END
> <s_m_source_file>
AV-unprocessed.smi

> <i_m_source_file_index>
2706

> <i_lp_mmshare_version>
43012

> <i_f3d_flags>
0

> <s_epik_input>
W0NIM11OKFtDSDNdKWMxW2NIXVtjSF1bY0hdYyhuMSlbTkhdQyg9TylbTkhdW0NASF0yW0NAQEhdM1tDQEBIXShbQ0gyXTQpW0NIMl1bQ0gyXVtDQEBIXTRbQ0BIXTIz

> <s_epik_cmdline>
J2VwaWtfcHl0aG9uJywgJy1waCcsICc3LjAnLCAnLXRuJywgJzgnLCAnLW1hJywgJzIwMCcsICctbWV0YWxfYmluZGluZycsICctaW1hZScsICc8aW5maWxlLm1hZT4nLCAnLW9tYWUnLCAnPG91dGZpbGUubWFlPic=

> <r_lp_tautomer_probability>
0.999994

> <r_epik_Ionization_Penalty>
1.8105

> <r_epik_Ionization_Penalty_Charging>
1.79227

> <r_epik_Ionization_Penalty_Neutral>
0.0182286

> <r_epik_State_Penalty>
1.90588

> <r_epik_Charging_Adjusted_Penalty>
3.69815

> <i_epik_Tot_Q>
1

> <i_epik_Tot_abs_Q>
1

> <r_epik_Metal_State_Penalty>
1.93501

> <b_epik_Metal_Only>
0

> <s_lp_Force_Field>
OPLS_2005

> <r_lp_Energy>
91.4336

> <b_lp_Chiralities_Consistent>
1

> <s_lp_Variant>
AV-unprocessed.smi:2706-7

> <Gold.Version>
5.8.1

> <Gold.Id.Protein>
6NUR|6NUR_protein|mol2

> <Gold.PLP.Fitness>
45.8866

> <Gold.PLP.PLP>
-40.7782

> <Gold.PLP.part.hbond>
-3.2249

> <Gold.PLP.part.metal>
0.0000

> <Gold.PLP.part.buried>
0.0826

> <Gold.PLP.part.nonpolar>
-39.1521

> <Gold.PLP.part.repulsive>
3.3891

> <Gold.PLP.ligand.clash>
0.0000

> <Gold.PLP.ligand.torsion>
0.3431

> <Gold.PLP.Chemscore.Hbond>
1.9120

> <Gold.PLP.Chemscore.CHOScore>
0.0000

> <Gold.PLP.Chemscore.Metal>
0.0000

> <Gold.Chemscore.Hbonds>
donor molecule, donor type, donor heavy atom, donor atom, acceptor molecule, acceptor atom, score
      L1  H     9    31       P1  7948  0.96
      L1  H    12    32       P1  7948  0.90

> <Gold.PLP.Chemscore.Internal.Correction>
0.0584

> <Gold.Rescore>
     Score         DG    S(hbond)    S(metal)    S(lipo)     H(rot)  DE(clash)    DE(int)     intcor
     15.54     -18.43       1.95        0.00      76.86       1.00       1.66       1.23       ----

> <Gold.Chemscore.Fitness>
15.5358

> <Gold.Chemscore.DG>
-18.4253

> <Gold.Chemscore.ZeroCoef>
-5.4800

> <Gold.Chemscore.Hbond>
1.9500

> <Gold.Chemscore.Metal>
0.0000

> <Gold.Chemscore.Lipo>
76.8583

> <Gold.Chemscore.Internal_Hbond>
0.0000

> <Gold.Chemscore.DEClash>
1.6630

> <Gold.Chemscore.DEInternal>
1.2265

> <Gold.Chemscore.Rot>
1.0000

> <Gold.Chemscore.Internal.Correction>
   9.000000E+99

> <Gold.Chemscore.Hbonds>
donor molecule, donor type, donor heavy atom, donor atom, acceptor molecule, acceptor atom, score
      L1  H     9    31       P1  7948  0.91
      L1  H    12    32       P1  7948  0.88

> <Gold.Chemscore.Hbond.Weighted>
-6.5128

> <Gold.Chemscore.Metal.Weighted>
-0.0000

> <Gold.Chemscore.Lipo.Weighted>
-8.9924

> <Gold.Chemscore.Internal_Hbond.Weighted>
0.0000

> <Gold.Chemscore.DEClash.Weighted>
1.6630

> <Gold.Chemscore.DEInternal.Weighted>
1.2265

> <Gold.Chemscore.Rot.Weighted>
2.5600

> <Gold.Chemscore.Internal.Correction.Weighted>
   9.000000E+99

> <Gold.Protein.RotatedTorsions>
[ 6907 6896 6895 6894 ] final  129.24 input  -60.11 | X-H torsion
[ 7974 7965 7964 7962 ] final  -24.23 input  175.53 | X-H torsion
[ 8008 7997 7996 7995 ] final  -92.80 input   59.86 | X-H torsion
[ 10167 10162 10161 10158 ] final  178.51 input  -65.29 | X-H torsion
[ 10718 10713 10712 10709 ] final  -40.59 input   66.30 | X-H torsion
[ 10763 10752 10751 10750 ] final   78.55 input  -60.55 | X-H torsion
[ 11005 11000 10999 10996 ] final  -63.84 input  -57.11 | X-H torsion

> <Gold.Protein.ActiveResidues>
 VAL166  LYS551  ARG553  GLY616  TRP617  ASP618  TYR619  PRO620  LYS621  CYS622 
 ASP623  PHE694  ASN695  SER759  ASP760  ASP761  ALA762  ILE779  LEU786  VAL792 
 PHE793  MET794  SER795  GLU796  ALA797  LYS798  CYS799  TRP800  GLU811  SER814 

> <Gold.Protein.RotatedAtoms>
  152.3642  133.6336  159.6037 H   0  0  0  0  0  0  0  0  0  0  0  0  # atno 6907 bound_to 6896
  150.7622  133.9374  159.3454 H   0  0  0  0  0  0  0  0  0  0  0  0  # atno 6908 bound_to 6896
  151.7207  135.0896  160.0335 H   0  0  0  0  0  0  0  0  0  0  0  0  # atno 6909 bound_to 6896
  146.1568  140.4723  142.8588 H   0  0  0  0  0  0  0  0  0  0  0  0  # atno 7974 bound_to 7965
  154.7276  140.0505  157.0697 H   0  0  0  0  0  0  0  0  0  0  0  0  # atno 8008 bound_to 7997
  155.0344  140.3161  155.4727 H   0  0  0  0  0  0  0  0  0  0  0  0  # atno 8009 bound_to 7997
  156.2833  140.2144  156.5466 H   0  0  0  0  0  0  0  0  0  0  0  0  # atno 8010 bound_to 7997
  139.5297  144.2671  152.0659 H   0  0  0  0  0  0  0  0  0  0  0  0  # atno 10167 bound_to 10162
  156.2796  130.4215  149.8351 H   0  0  0  0  0  0  0  0  0  0  0  0  # atno 10718 bound_to 10713
  153.0883  135.4873  154.8640 H   0  0  0  0  0  0  0  0  0  0  0  0  # atno 10763 bound_to 10752
  154.7238  135.3045  154.9007 H   0  0  0  0  0  0  0  0  0  0  0  0  # atno 10764 bound_to 10752
  153.9663  135.6806  153.4799 H   0  0  0  0  0  0  0  0  0  0  0  0  # atno 10765 bound_to 10752
  141.1406  133.6657  156.5742 H   0  0  0  0  0  0  0  0  0  0  0  0  # atno 11005 bound_to 11000
  144.7973  140.6148  143.6501 LP  0  0  0  0  0  0  0  0  0  0  0  0  # atno 17320 bound_to 7965
  145.4689  139.1505  143.3825 LP  0  0  0  0  0  0  0  0  0  0  0  0  # atno 17321 bound_to 7965
  140.2132  144.4541  150.6376 LP  0  0  0  0  0  0  0  0  0  0  0  0  # atno 17342 bound_to 10162
  140.6467  143.2215  151.6171 LP  0  0  0  0  0  0  0  0  0  0  0  0  # atno 17343 bound_to 10162
  156.5803  130.8463  151.3381 LP  0  0  0  0  0  0  0  0  0  0  0  0  # atno 17370 bound_to 10713
  157.7310  130.9694  150.1860 LP  0  0  0  0  0  0  0  0  0  0  0  0  # atno 17371 bound_to 10713
  140.3889  134.7458  157.4709 LP  0  0  0  0  0  0  0  0  0  0  0  0  # atno 17394 bound_to 11000
  140.0581  134.6034  155.8781 LP  0  0  0  0  0  0  0  0  0  0  0  0  # atno 17395 bound_to 11000

$$$$
