AV-unprocessed.smi:767|AV-procd|sdf|3667|dock9
  -GOLD-   22720 1 73D 1   1.00000     0.00000
 Structure written by MMmdl.
 48 50  0  0  0  0  0  0  0  0  2 V2000
  143.6931  132.1026  149.5053 C   0  0  0  0  0  0  0  0  0  0  0  0
  144.2747  133.2789  150.2604 C   0  0  0  0  0  0  0  0  0  0  0  0
  145.5925  133.2714  150.7649 C   0  0  0  0  0  0  0  0  0  0  0  0
  146.0704  134.4031  151.4566 C   0  0  0  0  0  0  0  0  0  0  0  0
  145.2244  135.5212  151.6263 C   0  0  0  0  0  0  0  0  0  0  0  0
  145.7220  136.7651  152.3432 C   0  0  0  0  0  0  0  0  0  0  0  0
  146.1875  136.5013  153.7903 C   0  0  0  0  0  0  0  0  0  0  0  0
  147.4964  137.0759  154.0889 N   0  0  0  0  0  0  0  0  0  0  0  0
  147.8174  137.7229  155.2174 C   0  0  0  0  0  0  0  0  0  0  0  0
  147.0352  137.9218  156.1467 O   0  0  0  0  0  0  0  0  0  0  0  0
  149.1006  138.1045  155.2191 N   0  0  0  0  0  0  0  0  0  0  0  0
  149.7647  138.8029  156.3208 C   0  0  2  0  0  0  0  0  0  0  0  0
  149.4167  140.3084  156.3697 C   0  0  2  0  0  0  0  0  0  0  0  0
  148.3115  140.9224  155.5453 C   0  0  0  0  0  0  0  0  0  0  0  0
  149.0613  141.4706  154.3271 C   0  0  0  0  0  0  0  0  0  0  0  0
  150.2879  140.7434  154.2952 O   0  0  0  0  0  0  0  0  0  0  0  0
  150.7249  140.5706  155.6419 C   0  0  2  0  0  0  0  0  0  0  0  0
  151.2449  139.1691  156.0221 C   0  0  0  0  0  0  0  0  0  0  0  0
  152.1535  139.1543  157.2549 C   0  0  0  0  0  0  0  0  0  0  0  0
  151.9986  138.4052  154.9255 C   0  0  0  0  0  0  0  0  0  0  0  0
  143.9138  135.4689  151.1063 C   0  0  0  0  0  0  0  0  0  0  0  0
  143.4923  134.3649  150.4514 N   0  3  0  0  0  0  0  0  0  0  0  0
  144.4836  131.4513  149.1309 H   0  0  0  0  0  0  0  0  0  0  0  0
  143.1045  132.4440  148.6534 H   0  0  0  0  0  0  0  0  0  0  0  0
  143.0469  131.5164  150.1590 H   0  0  0  0  0  0  0  0  0  0  0  0
  146.2327  132.4128  150.6219 H   0  0  0  0  0  0  0  0  0  0  0  0
  147.0795  134.4148  151.8425 H   0  0  0  0  0  0  0  0  0  0  0  0
  146.5400  137.2002  151.7683 H   0  0  0  0  0  0  0  0  0  0  0  0
  144.9287  137.5139  152.3456 H   0  0  0  0  0  0  0  0  0  0  0  0
  145.4772  136.9513  154.4845 H   0  0  0  0  0  0  0  0  0  0  0  0
  146.1876  135.4311  154.0023 H   0  0  0  0  0  0  0  0  0  0  0  0
  148.2126  136.9658  153.3860 H   0  0  0  0  0  0  0  0  0  0  0  0
  149.6674  137.8880  154.4120 H   0  0  0  0  0  0  0  0  0  0  0  0
  149.6277  138.3190  157.2895 H   0  0  0  0  0  0  0  0  0  0  0  0
  149.4581  140.6820  157.3941 H   0  0  0  0  0  0  0  0  0  0  0  0
  147.5595  140.1896  155.2536 H   0  0  0  0  0  0  0  0  0  0  0  0
  147.7949  141.7207  156.0788 H   0  0  0  0  0  0  0  0  0  0  0  0
  148.5009  141.3524  153.3996 H   0  0  0  0  0  0  0  0  0  0  0  0
  149.2823  142.5308  154.4594 H   0  0  0  0  0  0  0  0  0  0  0  0
  151.2906  141.4187  156.0309 H   0  0  0  0  0  0  0  0  0  0  0  0
  153.1109  139.6361  157.0539 H   0  0  0  0  0  0  0  0  0  0  0  0
  152.3591  138.1363  157.5876 H   0  0  0  0  0  0  0  0  0  0  0  0
  151.7009  139.6812  158.0953 H   0  0  0  0  0  0  0  0  0  0  0  0
  152.9805  138.8408  154.7381 H   0  0  0  0  0  0  0  0  0  0  0  0
  151.4652  138.4161  153.9751 H   0  0  0  0  0  0  0  0  0  0  0  0
  152.1500  137.3614  155.2019 H   0  0  0  0  0  0  0  0  0  0  0  0
  143.1972  136.2733  151.1866 H   0  0  0  0  0  0  0  0  0  0  0  0
  142.5416  134.3512  150.0812 H   0  0  0  0  0  0  0  0  0  0  0  0
  1  2  1  0  0  0  0
  1 23  1  0  0  0  0
  1 24  1  0  0  0  0
  1 25  1  0  0  0  0
  2 22  1  0  0  0  0
  2  3  2  0  0  0  0
  3  4  1  0  0  0  0
  3 26  1  0  0  0  0
  4  5  2  0  0  0  0
  4 27  1  0  0  0  0
  5  6  1  0  0  0  0
  5 21  1  0  0  0  0
  6  7  1  0  0  0  0
  6 28  1  0  0  0  0
  6 29  1  0  0  0  0
  7  8  1  0  0  0  0
  7 30  1  0  0  0  0
  7 31  1  0  0  0  0
  8  9  1  0  0  0  0
  8 32  1  0  0  0  0
  9 10  2  0  0  0  0
  9 11  1  0  0  0  0
 11 12  1  0  0  0  0
 11 33  1  0  0  0  0
 12 18  1  0  0  0  0
 12 13  1  0  0  0  0
 12 34  1  0  0  0  0
 13 17  1  0  0  0  0
 13 14  1  0  0  0  0
 13 35  1  0  0  0  0
 14 15  1  0  0  0  0
 14 36  1  0  0  0  0
 14 37  1  0  0  0  0
 15 16  1  0  0  0  0
 15 38  1  0  0  0  0
 15 39  1  0  0  0  0
 16 17  1  0  0  0  0
 17 18  1  0  0  0  0
 17 40  1  0  0  0  0
 18 19  1  0  0  0  0
 18 20  1  0  0  0  0
 19 41  1  0  0  0  0
 19 42  1  0  0  0  0
 19 43  1  0  0  0  0
 20 44  1  0  0  0  0
 20 45  1  0  0  0  0
 20 46  1  0  0  0  0
 21 22  2  0  0  0  0
 21 47  1  0  0  0  0
 22 48  1  0  0  0  0
M  CHG  1  22   1
M  END
> <s_m_source_file>
AV-unprocessed.smi

> <i_m_source_file_index>
767

> <i_lp_mmshare_version>
43012

> <i_f3d_flags>
0

> <s_epik_input>
W0NIM11jMVtjSF1bY0hdYyhbY0hdbjEpW0NIMl1bQ0gyXVtOSF1DKD1PKVtOSF1bQ0BIXTJDKFtDSDNdKShbQ0gzXSlbQ0BIXShbQ0BASF0yMylPW0NIMl1bQ0gyXTM=

> <s_epik_cmdline>
J2VwaWtfcHl0aG9uJywgJy1waCcsICc3LjAnLCAnLXRuJywgJzgnLCAnLW1hJywgJzIwMCcsICctbWV0YWxfYmluZGluZycsICctaW1hZScsICc8aW5maWxlLm1hZT4nLCAnLW9tYWUnLCAnPG91dGZpbGUubWFlPic=

> <r_epik_Ionization_Penalty>
1.41853

> <r_epik_Ionization_Penalty_Charging>
1.41848

> <r_epik_Ionization_Penalty_Neutral>
5.17407e-05

> <r_epik_State_Penalty>
1.50205

> <r_epik_Charging_Adjusted_Penalty>
2.92053

> <i_epik_Tot_Q>
1

> <i_epik_Tot_abs_Q>
1

> <r_epik_Metal_State_Penalty>
1.5544

> <b_epik_Metal_Only>
0

> <s_lp_Force_Field>
OPLS_2005

> <r_lp_Energy>
40.587

> <b_lp_Chiralities_Consistent>
1

> <s_lp_Variant>
AV-unprocessed.smi:767-11

> <Gold.Version>
5.8.1

> <Gold.Id.Protein>
6NUR|6NUR_protein|mol2

> <Gold.PLP.Fitness>
43.0798

> <Gold.PLP.PLP>
-33.1425

> <Gold.PLP.part.hbond>
-2.8522

> <Gold.PLP.part.metal>
0.0000

> <Gold.PLP.part.buried>
-1.1271

> <Gold.PLP.part.nonpolar>
-29.7116

> <Gold.PLP.part.repulsive>
0.1799

> <Gold.PLP.ligand.clash>
0.0000

> <Gold.PLP.ligand.torsion>
0.5874

> <Gold.PLP.Chemscore.Hbond>
3.6400

> <Gold.PLP.Chemscore.CHOScore>
0.0000

> <Gold.PLP.Chemscore.Metal>
0.0000

> <Gold.Chemscore.Hbonds>
donor molecule, donor type, donor heavy atom, donor atom, acceptor molecule, acceptor atom, score
      L1  H     8    32       P1  7948  1.00
      L1  H    22    48       P1 10186  2.00
      P1  H  7989  7998       L1    16  0.75

> <Gold.PLP.Chemscore.Internal.Correction>
0.1920

> <Gold.Rescore>
     Score         DG    S(hbond)    S(metal)    S(lipo)     H(rot)  DE(clash)    DE(int)     intcor
     19.11     -20.07       2.33        0.00      91.47       1.52       0.29       0.67       ----

> <Gold.Chemscore.Fitness>
19.1065

> <Gold.Chemscore.DG>
-20.0734

> <Gold.Chemscore.ZeroCoef>
-5.4800

> <Gold.Chemscore.Hbond>
2.3327

> <Gold.Chemscore.Metal>
0.0000

> <Gold.Chemscore.Lipo>
91.4669

> <Gold.Chemscore.Internal_Hbond>
0.0000

> <Gold.Chemscore.DEClash>
0.2937

> <Gold.Chemscore.DEInternal>
0.6732

> <Gold.Chemscore.Rot>
1.5233

> <Gold.Chemscore.Internal.Correction>
   9.000000E+99

> <Gold.Chemscore.Hbonds>
donor molecule, donor type, donor heavy atom, donor atom, acceptor molecule, acceptor atom, score
      L1  H     8    32       P1  7948  0.98
      L1  H    22    48       P1 10186  0.87
      P1  H  7989  7998       L1    16  0.32

> <Gold.Chemscore.Hbond.Weighted>
-7.7913

> <Gold.Chemscore.Metal.Weighted>
-0.0000

> <Gold.Chemscore.Lipo.Weighted>
-10.7016

> <Gold.Chemscore.Internal_Hbond.Weighted>
0.0000

> <Gold.Chemscore.DEClash.Weighted>
0.2937

> <Gold.Chemscore.DEInternal.Weighted>
0.6732

> <Gold.Chemscore.Rot.Weighted>
3.8995

> <Gold.Chemscore.Internal.Correction.Weighted>
   9.000000E+99

> <Gold.Protein.RotatedTorsions>
[ 6907 6896 6895 6894 ] final  -38.98 input  -60.11 | X-H torsion
[ 7974 7965 7964 7962 ] final   12.98 input  175.53 | X-H torsion
[ 8008 7997 7996 7995 ] final -127.11 input   59.86 | X-H torsion
[ 10167 10162 10161 10158 ] final   28.79 input  -65.29 | X-H torsion
[ 10718 10713 10712 10709 ] final -151.49 input   66.30 | X-H torsion
[ 10763 10752 10751 10750 ] final  135.51 input  -60.55 | X-H torsion
[ 11005 11000 10999 10996 ] final  -84.42 input  -57.11 | X-H torsion

> <Gold.Protein.ActiveResidues>
 VAL166  LYS551  ARG553  GLY616  TRP617  ASP618  TYR619  PRO620  LYS621  CYS622 
 ASP623  PHE694  ASN695  SER759  ASP760  ASP761  ALA762  ILE779  LEU786  VAL792 
 PHE793  MET794  SER795  GLU796  ALA797  LYS798  CYS799  TRP800  GLU811  SER814 

> <Gold.Protein.RotatedAtoms>
  150.9959  134.9283  159.7925 H   0  0  0  0  0  0  0  0  0  0  0  0  # atno 6907 bound_to 6896
  152.5264  134.3219  159.9161 H   0  0  0  0  0  0  0  0  0  0  0  0  # atno 6908 bound_to 6896
  151.3225  133.3993  159.2690 H   0  0  0  0  0  0  0  0  0  0  0  0  # atno 6909 bound_to 6896
  146.2339  139.9256  142.8503 H   0  0  0  0  0  0  0  0  0  0  0  0  # atno 7974 bound_to 7965
  155.2408  140.0428  157.2974 H   0  0  0  0  0  0  0  0  0  0  0  0  # atno 8008 bound_to 7997
  154.5829  140.2406  155.7998 H   0  0  0  0  0  0  0  0  0  0  0  0  # atno 8009 bound_to 7997
  156.2206  140.2971  155.9951 H   0  0  0  0  0  0  0  0  0  0  0  0  # atno 8010 bound_to 7997
  140.4822  144.0598  150.6269 H   0  0  0  0  0  0  0  0  0  0  0  0  # atno 10167 bound_to 10162
  156.4600  130.8208  151.2439 H   0  0  0  0  0  0  0  0  0  0  0  0  # atno 10718 bound_to 10713
  153.8412  135.3091  155.3426 H   0  0  0  0  0  0  0  0  0  0  0  0  # atno 10763 bound_to 10752
  154.7932  135.4770  154.0103 H   0  0  0  0  0  0  0  0  0  0  0  0  # atno 10764 bound_to 10752
  153.1575  135.6855  153.8883 H   0  0  0  0  0  0  0  0  0  0  0  0  # atno 10765 bound_to 10752
  141.1650  133.7345  156.8865 H   0  0  0  0  0  0  0  0  0  0  0  0  # atno 11005 bound_to 11000
  145.2094  140.9889  143.4109 LP  0  0  0  0  0  0  0  0  0  0  0  0  # atno 17320 bound_to 7965
  144.9704  139.3886  143.6311 LP  0  0  0  0  0  0  0  0  0  0  0  0  # atno 17321 bound_to 7965
  140.3844  143.2786  152.0133 LP  0  0  0  0  0  0  0  0  0  0  0  0  # atno 17342 bound_to 10162
  139.4835  144.6129  151.7400 LP  0  0  0  0  0  0  0  0  0  0  0  0  # atno 17343 bound_to 10162
  157.7498  131.0110  150.3329 LP  0  0  0  0  0  0  0  0  0  0  0  0  # atno 17370 bound_to 10713
  156.3727  130.3866  149.7163 LP  0  0  0  0  0  0  0  0  0  0  0  0  # atno 17371 bound_to 10713
  140.1678  134.9121  157.2796 LP  0  0  0  0  0  0  0  0  0  0  0  0  # atno 17394 bound_to 11000
  140.2536  134.3653  155.7432 LP  0  0  0  0  0  0  0  0  0  0  0  0  # atno 17395 bound_to 11000

$$$$
