AV-unprocessed.smi:1446|AV-procd|sdf|5890|dock3
  -GOLD-   22720 5573D 1   1.00000     0.00000
 Structure written by MMmdl.
 47 48  0  0  0  0  0  0  0  0  1 V2000
  148.7092  134.4265  154.3328 C   0  0  0  0  0  0  0  0  0  0  0  0
  147.5495  135.3628  154.6532 C   0  0  0  0  0  0  0  0  0  0  0  0
  146.8360  135.1517  155.6336 O   0  0  0  0  0  0  0  0  0  0  0  0
  147.3716  136.3952  153.8142 N   0  0  0  0  0  0  0  0  0  0  0  0
  146.3306  137.4187  153.9336 C   0  0  1  0  0  0  0  0  0  0  0  0
  146.9412  138.6801  154.5755 C   0  0  0  0  0  0  0  0  0  0  0  0
  146.2608  139.7008  154.6947 O   0  0  0  0  0  0  0  0  0  0  0  0
  148.2165  138.5599  154.9903 N   0  0  0  0  0  0  0  0  0  0  0  0
  149.0227  139.5235  155.6514 C   0  0  0  0  0  0  0  0  0  0  0  0
  150.2884  139.0602  156.0678 C   0  0  0  0  0  0  0  0  0  0  0  0
  151.1578  139.9353  156.7457 C   0  0  0  0  0  0  0  0  0  0  0  0
  150.7525  141.2643  157.0034 C   0  0  0  0  0  0  0  0  0  0  0  0
  151.6072  142.1559  157.6877 N   0  0  0  0  0  0  0  0  0  0  0  0
  151.2815  143.5788  157.6629 C   0  0  0  0  0  0  0  0  0  0  0  0
  152.4645  144.4089  158.1897 C   0  0  0  0  0  0  0  0  0  0  0  0
  152.8298  143.9524  159.4877 O   0  0  0  0  0  0  0  0  0  0  0  0
  153.2514  142.5926  159.4702 C   0  0  0  0  0  0  0  0  0  0  0  0
  152.1000  141.6949  158.9837 C   0  0  0  0  0  0  0  0  0  0  0  0
  149.4681  141.6364  156.5370 C   0  0  0  0  0  0  0  0  0  0  0  0
  148.6324  140.7986  155.8881 N   0  0  0  0  0  0  0  0  0  0  0  0
  145.7893  137.7529  152.5115 C   0  0  0  0  0  0  0  0  0  0  0  0
  145.5652  136.5010  151.6376 C   0  0  0  0  0  0  0  0  0  0  0  0
  146.7159  138.7299  151.7608 C   0  0  0  0  0  0  0  0  0  0  0  0
  149.6487  134.9791  154.3054 H   0  0  0  0  0  0  0  0  0  0  0  0
  148.5582  133.9517  153.3630 H   0  0  0  0  0  0  0  0  0  0  0  0
  148.7957  133.6436  155.0868 H   0  0  0  0  0  0  0  0  0  0  0  0
  148.0124  136.4911  153.0397 H   0  0  0  0  0  0  0  0  0  0  0  0
  145.5137  137.0415  154.5528 H   0  0  0  0  0  0  0  0  0  0  0  0
  148.6567  137.6673  154.8213 H   0  0  0  0  0  0  0  0  0  0  0  0
  150.5962  138.0434  155.8721 H   0  0  0  0  0  0  0  0  0  0  0  0
  152.1307  139.5790  157.0500 H   0  0  0  0  0  0  0  0  0  0  0  0
  151.0445  143.8945  156.6466 H   0  0  0  0  0  0  0  0  0  0  0  0
  150.3996  143.7587  158.2791 H   0  0  0  0  0  0  0  0  0  0  0  0
  153.3188  144.3415  157.5139 H   0  0  0  0  0  0  0  0  0  0  0  0
  152.1877  145.4616  158.2485 H   0  0  0  0  0  0  0  0  0  0  0  0
  154.1281  142.4805  158.8302 H   0  0  0  0  0  0  0  0  0  0  0  0
  153.5538  142.3021  160.4763 H   0  0  0  0  0  0  0  0  0  0  0  0
  151.2790  141.7218  159.7015 H   0  0  0  0  0  0  0  0  0  0  0  0
  152.4494  140.6642  158.9409 H   0  0  0  0  0  0  0  0  0  0  0  0
  149.0727  142.6288  156.6916 H   0  0  0  0  0  0  0  0  0  0  0  0
  144.8224  138.2483  152.6173 H   0  0  0  0  0  0  0  0  0  0  0  0
  146.4847  135.9247  151.5308 H   0  0  0  0  0  0  0  0  0  0  0  0
  145.2306  136.7770  150.6373 H   0  0  0  0  0  0  0  0  0  0  0  0
  144.8025  135.8403  152.0500 H   0  0  0  0  0  0  0  0  0  0  0  0
  147.7182  138.3152  151.6494 H   0  0  0  0  0  0  0  0  0  0  0  0
  146.8066  139.6858  152.2766 H   0  0  0  0  0  0  0  0  0  0  0  0
  146.3345  138.9450  150.7621 H   0  0  0  0  0  0  0  0  0  0  0  0
  1  2  1  0  0  0  0
  1 24  1  0  0  0  0
  1 25  1  0  0  0  0
  1 26  1  0  0  0  0
  2  3  2  0  0  0  0
  2  4  1  0  0  0  0
  4  5  1  0  0  0  0
  4 27  1  0  0  0  0
  5  6  1  0  0  0  0
  5 21  1  0  0  0  0
  5 28  1  0  0  0  0
  6  7  2  0  0  0  0
  6  8  1  0  0  0  0
  8  9  1  0  0  0  0
  8 29  1  0  0  0  0
  9 20  1  0  0  0  0
  9 10  2  0  0  0  0
 10 11  1  0  0  0  0
 10 30  1  0  0  0  0
 11 12  2  0  0  0  0
 11 31  1  0  0  0  0
 12 13  1  0  0  0  0
 12 19  1  0  0  0  0
 13 18  1  0  0  0  0
 13 14  1  0  0  0  0
 14 15  1  0  0  0  0
 14 32  1  0  0  0  0
 14 33  1  0  0  0  0
 15 16  1  0  0  0  0
 15 34  1  0  0  0  0
 15 35  1  0  0  0  0
 16 17  1  0  0  0  0
 17 18  1  0  0  0  0
 17 36  1  0  0  0  0
 17 37  1  0  0  0  0
 18 38  1  0  0  0  0
 18 39  1  0  0  0  0
 19 20  2  0  0  0  0
 19 40  1  0  0  0  0
 21 22  1  0  0  0  0
 21 23  1  0  0  0  0
 21 41  1  0  0  0  0
 22 42  1  0  0  0  0
 22 43  1  0  0  0  0
 22 44  1  0  0  0  0
 23 45  1  0  0  0  0
 23 46  1  0  0  0  0
 23 47  1  0  0  0  0
M  END
> <s_m_source_file>
AV-unprocessed.smi

> <i_m_source_file_index>
1446

> <i_lp_mmshare_version>
43012

> <i_f3d_flags>
0

> <s_epik_input>
W0NIM11DKD1PKVtOSF1bQ0BASF0oW0NIXShbQ0gzXSlbQ0gzXSlDKD1PKVtOSF1jMVtjSF1bY0hdYyhbY0hdbjEpTjJbQ0gyXVtDSDJdT1tDSDJdW0NIMl0y

> <s_epik_cmdline>
J2VwaWtfcHl0aG9uJywgJy1waCcsICc3LjAnLCAnLXRuJywgJzgnLCAnLW1hJywgJzIwMCcsICctbWV0YWxfYmluZGluZycsICctaW1hZScsICc8aW5maWxlLm1hZT4nLCAnLW9tYWUnLCAnPG91dGZpbGUubWFlPic=

> <r_lp_tautomer_probability>
1

> <r_epik_Ionization_Penalty>
0.00298315

> <r_epik_Ionization_Penalty_Charging>
0

> <r_epik_Ionization_Penalty_Neutral>
0.00298315

> <r_epik_State_Penalty>
0.0038483

> <r_epik_Charging_Adjusted_Penalty>
0.0038483

> <i_epik_Tot_Q>
0

> <i_epik_Tot_abs_Q>
0

> <r_epik_Metal_State_Penalty>
-0

> <b_epik_Metal_Only>
0

> <s_lp_Force_Field>
OPLS_2005

> <r_lp_Energy>
27.8209

> <b_lp_Chiralities_Consistent>
1

> <s_lp_Variant>
AV-unprocessed.smi:1446-2

> <Gold.Version>
5.8.1

> <Gold.Id.Protein>
6NUR|6NUR_protein|mol2

> <Gold.PLP.Fitness>
36.9632

> <Gold.PLP.PLP>
-32.3366

> <Gold.PLP.part.hbond>
-1.0000

> <Gold.PLP.part.metal>
0.0000

> <Gold.PLP.part.buried>
-1.1212

> <Gold.PLP.part.nonpolar>
-30.2180

> <Gold.PLP.part.repulsive>
0.2129

> <Gold.PLP.ligand.clash>
0.0000

> <Gold.PLP.ligand.torsion>
0.8808

> <Gold.PLP.Chemscore.Hbond>
1.0000

> <Gold.PLP.Chemscore.CHOScore>
1.0000

> <Gold.PLP.Chemscore.Metal>
0.0000

> <Gold.Chemscore.Hbonds>
donor molecule, donor type, donor heavy atom, donor atom, acceptor molecule, acceptor atom, score
      L1  H     4    27       P1  7948  0.99
      L1  C    19    40       P1  8028  1.00

> <Gold.PLP.Chemscore.Internal.Correction>
0.3883

> <Gold.Rescore>
     Score         DG    S(hbond)    S(metal)    S(lipo)     H(rot)  DE(clash)    DE(int)     intcor
     13.57     -15.64       1.00        0.00      96.32       1.74       0.08       1.99       ----

> <Gold.Chemscore.Fitness>
13.5658

> <Gold.Chemscore.DG>
-15.6360

> <Gold.Chemscore.ZeroCoef>
-5.4800

> <Gold.Chemscore.Hbond>
0.9999

> <Gold.Chemscore.Metal>
0.0000

> <Gold.Chemscore.Lipo>
96.3164

> <Gold.Chemscore.Internal_Hbond>
0.0000

> <Gold.Chemscore.DEClash>
0.0806

> <Gold.Chemscore.DEInternal>
1.9896

> <Gold.Chemscore.Rot>
1.7394

> <Gold.Chemscore.Internal.Correction>
   9.000000E+99

> <Gold.Chemscore.Hbonds>
donor molecule, donor type, donor heavy atom, donor atom, acceptor molecule, acceptor atom, score
      L1  H     4    27       P1  7948  0.93

> <Gold.Chemscore.Hbond.Weighted>
-3.3398

> <Gold.Chemscore.Metal.Weighted>
-0.0000

> <Gold.Chemscore.Lipo.Weighted>
-11.2690

> <Gold.Chemscore.Internal_Hbond.Weighted>
0.0000

> <Gold.Chemscore.DEClash.Weighted>
0.0806

> <Gold.Chemscore.DEInternal.Weighted>
1.9896

> <Gold.Chemscore.Rot.Weighted>
4.4528

> <Gold.Chemscore.Internal.Correction.Weighted>
   9.000000E+99

> <Gold.Protein.RotatedTorsions>
[ 6907 6896 6895 6894 ] final -119.63 input  -60.11 | X-H torsion
[ 7974 7965 7964 7962 ] final   95.19 input  175.53 | X-H torsion
[ 8008 7997 7996 7995 ] final -129.08 input   59.86 | X-H torsion
[ 10167 10162 10161 10158 ] final  164.85 input  -65.29 | X-H torsion
[ 10718 10713 10712 10709 ] final   95.42 input   66.30 | X-H torsion
[ 10763 10752 10751 10750 ] final   45.98 input  -60.55 | X-H torsion
[ 11005 11000 10999 10996 ] final   87.50 input  -57.11 | X-H torsion

> <Gold.Protein.ActiveResidues>
 VAL166  LYS551  ARG553  GLY616  TRP617  ASP618  TYR619  PRO620  LYS621  CYS622 
 ASP623  PHE694  ASN695  SER759  ASP760  ASP761  ALA762  ILE779  LEU786  VAL792 
 PHE793  MET794  SER795  GLU796  ALA797  LYS798  CYS799  TRP800  GLU811  SER814 

> <Gold.Protein.RotatedAtoms>
  150.8322  133.8072  159.3093 H   0  0  0  0  0  0  0  0  0  0  0  0  # atno 6907 bound_to 6896
  151.5798  135.1057  160.0024 H   0  0  0  0  0  0  0  0  0  0  0  0  # atno 6908 bound_to 6896
  152.4400  133.7389  159.6686 H   0  0  0  0  0  0  0  0  0  0  0  0  # atno 6909 bound_to 6896
  145.4555  139.2290  143.3016 H   0  0  0  0  0  0  0  0  0  0  0  0  # atno 7974 bound_to 7965
  155.2733  140.0441  157.3009 H   0  0  0  0  0  0  0  0  0  0  0  0  # atno 8008 bound_to 7997
  154.5640  140.2354  155.8260 H   0  0  0  0  0  0  0  0  0  0  0  0  # atno 8009 bound_to 7997
  156.2070  140.3009  155.9657 H   0  0  0  0  0  0  0  0  0  0  0  0  # atno 8010 bound_to 7997
  139.4896  144.4193  151.9206 H   0  0  0  0  0  0  0  0  0  0  0  0  # atno 10167 bound_to 10162
  157.6939  131.0545  150.4336 H   0  0  0  0  0  0  0  0  0  0  0  0  # atno 10718 bound_to 10713
  152.9817  135.6022  154.3525 H   0  0  0  0  0  0  0  0  0  0  0  0  # atno 10763 bound_to 10752
  154.3213  135.2769  155.2520 H   0  0  0  0  0  0  0  0  0  0  0  0  # atno 10764 bound_to 10752
  154.4685  135.5948  153.6361 H   0  0  0  0  0  0  0  0  0  0  0  0  # atno 10765 bound_to 10752
  139.8918  134.8427  156.2869 H   0  0  0  0  0  0  0  0  0  0  0  0  # atno 11005 bound_to 11000
  146.2480  140.5319  142.8905 LP  0  0  0  0  0  0  0  0  0  0  0  0  # atno 17320 bound_to 7965
  144.8035  140.6256  143.6462 LP  0  0  0  0  0  0  0  0  0  0  0  0  # atno 17321 bound_to 7965
  140.3636  144.2942  150.5930 LP  0  0  0  0  0  0  0  0  0  0  0  0  # atno 17342 bound_to 10162
  140.5381  143.2229  151.8130 LP  0  0  0  0  0  0  0  0  0  0  0  0  # atno 17343 bound_to 10162
  156.4700  130.4050  149.6524 LP  0  0  0  0  0  0  0  0  0  0  0  0  # atno 17370 bound_to 10713
  156.3607  130.7480  151.2452 LP  0  0  0  0  0  0  0  0  0  0  0  0  # atno 17371 bound_to 10713
  141.0002  133.7156  156.0948 LP  0  0  0  0  0  0  0  0  0  0  0  0  # atno 17394 bound_to 11000
  140.7509  134.4046  157.5541 LP  0  0  0  0  0  0  0  0  0  0  0  0  # atno 17395 bound_to 11000

$$$$
