AV-unprocessed.smi:1072|AV-procd|sdf|4688|dock2
  -GOLD-   22720 3203D 1   1.00000     0.00000
 Structure written by MMmdl.
 45 46  0  0  0  0  0  0  0  0  2 V2000
  155.1659  140.1609  160.2626 C   0  0  0  0  0  0  0  0  0  0  0  0
  154.0224  140.8423  159.5418 C   0  0  0  0  0  0  0  0  0  0  0  0
  153.7374  142.0550  159.8289 N   0  0  0  0  0  0  0  0  0  0  0  0
  152.6770  142.6924  159.1628 C   0  0  0  0  0  0  0  0  0  0  0  0
  152.4078  144.1311  159.5686 C   0  0  0  0  0  0  0  0  0  0  0  0
  151.9465  142.0408  158.2129 C   0  0  0  0  0  0  0  0  0  0  0  0
  150.7823  142.6905  157.4649 C   0  0  0  0  0  0  0  0  0  0  0  0
  149.4571  141.9248  157.4938 C   0  0  0  0  0  0  0  0  0  0  0  0
  149.3142  140.9642  158.2499 O   0  0  0  0  0  0  0  0  0  0  0  0
  148.5070  142.3703  156.6515 N   0  0  0  0  0  0  0  0  0  0  0  0
  147.1526  141.8518  156.4126 C   0  0  1  0  0  0  0  0  0  0  0  0
  147.3457  140.3692  156.0275 C   0  0  0  0  0  0  0  0  0  0  0  0
  146.2967  141.9621  157.7049 C   0  0  0  0  0  0  0  0  0  0  0  0
  144.8191  141.5900  157.4870 C   0  0  0  0  0  0  0  0  0  0  0  0
  144.1863  142.4133  156.3507 C   0  0  2  0  0  0  0  0  0  0  0  0
  142.7100  142.0452  156.1470 C   0  0  0  0  0  0  0  0  0  0  0  0
  144.9940  142.2445  155.0512 C   0  0  0  0  0  0  0  0  0  0  0  0
  146.4729  142.6235  155.2479 C   0  0  0  0  0  0  0  0  0  0  0  0
  152.3097  140.6449  157.9085 C   0  0  0  0  0  0  0  0  0  0  0  0
  151.6914  140.0143  157.0518 O   0  0  0  0  0  0  0  0  0  0  0  0
  153.3454  140.0946  158.6045 N   0  5  0  0  0  0  0  0  0  0  0  0
  155.7858  140.8874  160.7897 H   0  0  0  0  0  0  0  0  0  0  0  0
  155.7992  139.6250  159.5548 H   0  0  0  0  0  0  0  0  0  0  0  0
  154.7786  139.4474  160.9903 H   0  0  0  0  0  0  0  0  0  0  0  0
  151.4144  144.2249  160.0072 H   0  0  0  0  0  0  0  0  0  0  0  0
  152.4714  144.7930  158.7049 H   0  0  0  0  0  0  0  0  0  0  0  0
  153.1335  144.4754  160.3063 H   0  0  0  0  0  0  0  0  0  0  0  0
  150.5990  143.7005  157.8321 H   0  0  0  0  0  0  0  0  0  0  0  0
  151.0846  142.8268  156.4260 H   0  0  0  0  0  0  0  0  0  0  0  0
  148.7599  143.1712  156.0912 H   0  0  0  0  0  0  0  0  0  0  0  0
  146.4033  139.8641  155.8207 H   0  0  0  0  0  0  0  0  0  0  0  0
  147.8377  139.8142  156.8273 H   0  0  0  0  0  0  0  0  0  0  0  0
  147.9649  140.2706  155.1351 H   0  0  0  0  0  0  0  0  0  0  0  0
  146.7209  141.3371  158.4917 H   0  0  0  0  0  0  0  0  0  0  0  0
  146.3196  142.9801  158.0928 H   0  0  0  0  0  0  0  0  0  0  0  0
  144.7283  140.5252  157.2717 H   0  0  0  0  0  0  0  0  0  0  0  0
  144.2677  141.7567  158.4129 H   0  0  0  0  0  0  0  0  0  0  0  0
  144.2263  143.4656  156.6358 H   0  0  0  0  0  0  0  0  0  0  0  0
  142.5977  140.9994  155.8591 H   0  0  0  0  0  0  0  0  0  0  0  0
  142.2570  142.6563  155.3659 H   0  0  0  0  0  0  0  0  0  0  0  0
  142.1370  142.2027  157.0611 H   0  0  0  0  0  0  0  0  0  0  0  0
  144.9136  141.2184  154.6920 H   0  0  0  0  0  0  0  0  0  0  0  0
  144.5652  142.8704  154.2676 H   0  0  0  0  0  0  0  0  0  0  0  0
  146.5087  143.6973  155.4290 H   0  0  0  0  0  0  0  0  0  0  0  0
  147.0208  142.4624  154.3186 H   0  0  0  0  0  0  0  0  0  0  0  0
  1  2  1  0  0  0  0
  1 22  1  0  0  0  0
  1 23  1  0  0  0  0
  1 24  1  0  0  0  0
  2 21  1  0  0  0  0
  2  3  2  0  0  0  0
  3  4  1  0  0  0  0
  4  5  1  0  0  0  0
  4  6  2  0  0  0  0
  5 25  1  0  0  0  0
  5 26  1  0  0  0  0
  5 27  1  0  0  0  0
  6  7  1  0  0  0  0
  6 19  1  0  0  0  0
  7  8  1  0  0  0  0
  7 28  1  0  0  0  0
  7 29  1  0  0  0  0
  8  9  2  0  0  0  0
  8 10  1  0  0  0  0
 10 11  1  0  0  0  0
 10 30  1  0  0  0  0
 11 18  1  0  0  0  0
 11 12  1  0  0  0  0
 11 13  1  0  0  0  0
 12 31  1  0  0  0  0
 12 32  1  0  0  0  0
 12 33  1  0  0  0  0
 13 14  1  0  0  0  0
 13 34  1  0  0  0  0
 13 35  1  0  0  0  0
 14 15  1  0  0  0  0
 14 36  1  0  0  0  0
 14 37  1  0  0  0  0
 15 16  1  0  0  0  0
 15 17  1  0  0  0  0
 15 38  1  0  0  0  0
 16 39  1  0  0  0  0
 16 40  1  0  0  0  0
 16 41  1  0  0  0  0
 17 18  1  0  0  0  0
 17 42  1  0  0  0  0
 17 43  1  0  0  0  0
 18 44  1  0  0  0  0
 18 45  1  0  0  0  0
 19 20  2  0  0  0  0
 19 21  1  0  0  0  0
M  CHG  1  21  -1
M  END
> <s_m_source_file>
AV-unprocessed.smi

> <i_m_source_file_index>
1072

> <i_lp_mmshare_version>
43012

> <i_f3d_flags>
0

> <s_epik_input>
W0NIM11jMW5jKFtDSDNdKWMoYyg9TylbbkhdMSlbQ0gyXUMoPU8pW05IXVtDQEBdMihbQ0gzXSlbQ0gyXVtDSDJdW0NAQEhdKFtDSDNdKVtDSDJdW0NIMl0y

> <s_epik_cmdline>
J2VwaWtfcHl0aG9uJywgJy1waCcsICc3LjAnLCAnLXRuJywgJzgnLCAnLW1hJywgJzIwMCcsICctbWV0YWxfYmluZGluZycsICctaW1hZScsICc8aW5maWxlLm1hZT4nLCAnLW9tYWUnLCAnPG91dGZpbGUubWFlPic=

> <r_lp_tautomer_probability>
0.839158

> <r_epik_Ionization_Penalty>
6.73882

> <r_epik_Ionization_Penalty_Charging>
8.02239e-08

> <r_epik_Ionization_Penalty_Neutral>
6.73882

> <r_epik_State_Penalty>
4.55873

> <r_epik_Charging_Adjusted_Penalty>
4.55873

> <i_epik_Tot_Q>
-1

> <i_epik_Tot_abs_Q>
1

> <r_epik_Metal_State_Penalty>
0.872514

> <b_epik_Metal_Only>
1

> <s_lp_Force_Field>
OPLS_2005

> <r_lp_Energy>
18.4266

> <b_lp_Chiralities_Consistent>
1

> <s_lp_Variant>
AV-unprocessed.smi:1072-6

> <Gold.Version>
5.8.1

> <Gold.Id.Protein>
6NUR|6NUR_protein|mol2

> <Gold.PLP.Fitness>
37.4888

> <Gold.PLP.PLP>
-28.8946

> <Gold.PLP.part.hbond>
-2.0000

> <Gold.PLP.part.metal>
0.0000

> <Gold.PLP.part.buried>
-3.7507

> <Gold.PLP.part.nonpolar>
-22.9654

> <Gold.PLP.part.repulsive>
0.0301

> <Gold.PLP.ligand.clash>
0.0000

> <Gold.PLP.ligand.torsion>
0.1825

> <Gold.PLP.Chemscore.Hbond>
2.9840

> <Gold.PLP.Chemscore.CHOScore>
0.0000

> <Gold.PLP.Chemscore.Metal>
0.0000

> <Gold.Chemscore.Hbonds>
donor molecule, donor type, donor heavy atom, donor atom, acceptor molecule, acceptor atom, score
      L1  H    10    30       P1  8028  1.00
      P1  H  7997  8010       L1    21  1.88

> <Gold.PLP.Chemscore.Internal.Correction>
0.0072

> <Gold.Rescore>
     Score         DG    S(hbond)    S(metal)    S(lipo)     H(rot)  DE(clash)    DE(int)     intcor
     13.25     -13.41       1.21        0.00      64.58       1.43       0.05       0.11       ----

> <Gold.Chemscore.Fitness>
13.2503

> <Gold.Chemscore.DG>
-13.4076

> <Gold.Chemscore.ZeroCoef>
-5.4800

> <Gold.Chemscore.Hbond>
1.2103

> <Gold.Chemscore.Metal>
0.0000

> <Gold.Chemscore.Lipo>
64.5798

> <Gold.Chemscore.Internal_Hbond>
0.0000

> <Gold.Chemscore.DEClash>
0.0476

> <Gold.Chemscore.DEInternal>
0.1097

> <Gold.Chemscore.Rot>
1.4339

> <Gold.Chemscore.Internal.Correction>
   9.000000E+99

> <Gold.Chemscore.Hbonds>
donor molecule, donor type, donor heavy atom, donor atom, acceptor molecule, acceptor atom, score
      L1  H    10    30       P1  8028  0.97
      P1  H  7997  8010       L1    21  0.05

> <Gold.Chemscore.Hbond.Weighted>
-4.0426

> <Gold.Chemscore.Metal.Weighted>
-0.0000

> <Gold.Chemscore.Lipo.Weighted>
-7.5558

> <Gold.Chemscore.Internal_Hbond.Weighted>
0.0000

> <Gold.Chemscore.DEClash.Weighted>
0.0476

> <Gold.Chemscore.DEInternal.Weighted>
0.1097

> <Gold.Chemscore.Rot.Weighted>
3.6708

> <Gold.Chemscore.Internal.Correction.Weighted>
   9.000000E+99

> <Gold.Protein.RotatedTorsions>
[ 6907 6896 6895 6894 ] final  106.46 input  -60.11 | X-H torsion
[ 7974 7965 7964 7962 ] final  -46.95 input  175.53 | X-H torsion
[ 8008 7997 7996 7995 ] final   22.77 input   59.86 | X-H torsion
[ 10167 10162 10161 10158 ] final -113.13 input  -65.29 | X-H torsion
[ 10718 10713 10712 10709 ] final -174.06 input   66.30 | X-H torsion
[ 10763 10752 10751 10750 ] final   -8.47 input  -60.55 | X-H torsion
[ 11005 11000 10999 10996 ] final  141.76 input  -57.11 | X-H torsion

> <Gold.Protein.ActiveResidues>
 VAL166  LYS551  ARG553  GLY616  TRP617  ASP618  TYR619  PRO620  LYS621  CYS622 
 ASP623  PHE694  ASN695  SER759  ASP760  ASP761  ALA762  ILE779  LEU786  VAL792 
 PHE793  MET794  SER795  GLU796  ALA797  LYS798  CYS799  TRP800  GLU811  SER814 

> <Gold.Protein.RotatedAtoms>
  152.5193  133.9378  159.7611 H   0  0  0  0  0  0  0  0  0  0  0  0  # atno 6907 bound_to 6896
  150.9714  133.6331  159.2744 H   0  0  0  0  0  0  0  0  0  0  0  0  # atno 6908 bound_to 6896
  151.3541  135.0896  159.9465 H   0  0  0  0  0  0  0  0  0  0  0  0  # atno 6909 bound_to 6896
  145.9667  140.7425  142.9431 H   0  0  0  0  0  0  0  0  0  0  0  0  # atno 7974 bound_to 7965
  154.9707  140.3090  155.4989 H   0  0  0  0  0  0  0  0  0  0  0  0  # atno 8008 bound_to 7997
  156.2966  140.2284  156.4739 H   0  0  0  0  0  0  0  0  0  0  0  0  # atno 8009 bound_to 7997
  154.7879  140.0441  157.1166 H   0  0  0  0  0  0  0  0  0  0  0  0  # atno 8010 bound_to 7997
  140.1152  143.4492  152.1727 H   0  0  0  0  0  0  0  0  0  0  0  0  # atno 10167 bound_to 10162
  156.7795  130.9478  151.3120 H   0  0  0  0  0  0  0  0  0  0  0  0  # atno 10718 bound_to 10713
  153.4410  135.7013  153.6169 H   0  0  0  0  0  0  0  0  0  0  0  0  # atno 10763 bound_to 10752
  153.4544  135.3750  155.2302 H   0  0  0  0  0  0  0  0  0  0  0  0  # atno 10764 bound_to 10752
  154.8727  135.4004  154.3808 H   0  0  0  0  0  0  0  0  0  0  0  0  # atno 10765 bound_to 10752
  140.0425  134.9297  157.0870 H   0  0  0  0  0  0  0  0  0  0  0  0  # atno 11005 bound_to 11000
  144.6827  140.2680  143.7310 LP  0  0  0  0  0  0  0  0  0  0  0  0  # atno 17320 bound_to 7965
  145.7964  139.1947  143.2073 LP  0  0  0  0  0  0  0  0  0  0  0  0  # atno 17321 bound_to 7965
  139.5598  144.7398  151.4188 LP  0  0  0  0  0  0  0  0  0  0  0  0  # atno 17342 bound_to 10162
  140.6903  143.7876  150.7246 LP  0  0  0  0  0  0  0  0  0  0  0  0  # atno 17343 bound_to 10162
  157.6653  130.9002  149.9918 LP  0  0  0  0  0  0  0  0  0  0  0  0  # atno 17370 bound_to 10713
  156.1227  130.3645  149.9861 LP  0  0  0  0  0  0  0  0  0  0  0  0  # atno 17371 bound_to 10713
  140.4046  134.2046  155.7163 LP  0  0  0  0  0  0  0  0  0  0  0  0  # atno 17394 bound_to 11000
  141.1890  133.8247  157.0972 LP  0  0  0  0  0  0  0  0  0  0  0  0  # atno 17395 bound_to 11000

$$$$
