AV-unprocessed.smi:2341|AV-procd|sdf|9353|dock3
  -GOLD-   2272012573D 1   1.00000     0.00000
 Structure written by MMmdl.
 52 54  0  0  0  0  0  0  0  0  2 V2000
  151.1805  142.9908  157.5821 C   0  0  0  0  0  0  0  0  0  0  0  0
  150.5900  141.7712  156.9059 C   0  0  0  0  0  0  0  0  0  0  0  0
  149.3236  141.2751  157.2696 C   0  0  0  0  0  0  0  0  0  0  0  0
  148.8257  140.1362  156.6075 C   0  0  0  0  0  0  0  0  0  0  0  0
  149.6031  139.5212  155.6005 C   0  0  0  0  0  0  0  0  0  0  0  0
  149.0111  138.3800  154.9962 N   0  0  0  0  0  0  0  0  0  0  0  0
  148.0435  137.5867  155.4893 C   0  0  0  0  0  0  0  0  0  0  0  0
  147.5003  137.7210  156.5863 O   0  0  0  0  0  0  0  0  0  0  0  0
  147.7314  136.6069  154.6279 N   0  0  0  0  0  0  0  0  0  0  0  0
  146.7117  135.5865  154.8533 C   0  0  2  0  0  0  0  0  0  0  0  0
  147.2382  134.1877  154.4750 C   0  0  0  0  0  0  0  0  0  0  0  0
  146.1241  133.1238  154.5558 C   0  0  0  0  0  0  0  0  0  0  0  0
  144.9353  133.4832  153.7286 N   0  3  2  0  0  0  0  0  0  0  0  0
  145.1266  133.3082  152.2479 C   0  0  0  0  0  0  0  0  0  0  0  0
  143.9204  133.8133  151.4099 C   0  0  0  0  0  0  0  0  0  0  0  0
  144.1062  133.5769  149.9027 C   0  0  0  0  0  0  0  0  0  0  0  0
  144.3643  132.0980  149.5965 C   0  0  0  0  0  0  0  0  0  0  0  0
  145.5741  131.5910  150.3885 C   0  0  0  0  0  0  0  0  0  0  0  0
  145.3907  131.8201  151.8970 C   0  0  0  0  0  0  0  0  0  0  0  0
  144.4013  134.8011  154.1780 C   0  0  0  0  0  0  0  0  0  0  0  0
  145.4512  135.9187  154.0371 C   0  0  0  0  0  0  0  0  0  0  0  0
  150.8221  140.0071  155.2572 N   0  0  0  0  0  0  0  0  0  0  0  0
  151.2985  141.0986  155.8919 C   0  0  0  0  0  0  0  0  0  0  0  0
  150.4675  143.4473  158.2692 H   0  0  0  0  0  0  0  0  0  0  0  0
  151.4627  143.7366  156.8384 H   0  0  0  0  0  0  0  0  0  0  0  0
  152.0709  142.7137  158.1468 H   0  0  0  0  0  0  0  0  0  0  0  0
  148.7405  141.7549  158.0419 H   0  0  0  0  0  0  0  0  0  0  0  0
  147.8553  139.7426  156.8742 H   0  0  0  0  0  0  0  0  0  0  0  0
  149.3637  138.1433  154.0809 H   0  0  0  0  0  0  0  0  0  0  0  0
  148.2279  136.5710  153.7495 H   0  0  0  0  0  0  0  0  0  0  0  0
  146.4375  135.5851  155.9102 H   0  0  0  0  0  0  0  0  0  0  0  0
  147.6671  134.2067  153.4730 H   0  0  0  0  0  0  0  0  0  0  0  0
  148.0531  133.9057  155.1429 H   0  0  0  0  0  0  0  0  0  0  0  0
  146.5206  132.1435  154.3016 H   0  0  0  0  0  0  0  0  0  0  0  0
  145.7977  133.0352  155.5930 H   0  0  0  0  0  0  0  0  0  0  0  0
  145.9937  133.8920  151.9398 H   0  0  0  0  0  0  0  0  0  0  0  0
  143.0049  133.3222  151.7434 H   0  0  0  0  0  0  0  0  0  0  0  0
  143.7724  134.8843  151.5446 H   0  0  0  0  0  0  0  0  0  0  0  0
  143.2227  133.9182  149.3621 H   0  0  0  0  0  0  0  0  0  0  0  0
  144.9412  134.1773  149.5387 H   0  0  0  0  0  0  0  0  0  0  0  0
  143.4824  131.5084  149.8504 H   0  0  0  0  0  0  0  0  0  0  0  0
  144.5330  131.9612  148.5279 H   0  0  0  0  0  0  0  0  0  0  0  0
  145.7270  130.5297  150.1900 H   0  0  0  0  0  0  0  0  0  0  0  0
  146.4759  132.1015  150.0474 H   0  0  0  0  0  0  0  0  0  0  0  0
  146.2855  131.4460  152.3909 H   0  0  0  0  0  0  0  0  0  0  0  0
  144.5634  131.2063  152.2566 H   0  0  0  0  0  0  0  0  0  0  0  0
  143.4712  135.0626  153.6764 H   0  0  0  0  0  0  0  0  0  0  0  0
  144.1243  134.7110  155.2295 H   0  0  0  0  0  0  0  0  0  0  0  0
  145.0278  136.8638  154.3793 H   0  0  0  0  0  0  0  0  0  0  0  0
  145.7076  136.0601  152.9863 H   0  0  0  0  0  0  0  0  0  0  0  0
  152.2738  141.4435  155.5807 H   0  0  0  0  0  0  0  0  0  0  0  0
  144.2175  132.8149  153.9712 H   0  0  0  0  0  0  0  0  0  0  0  0
  1  2  1  0  0  0  0
  1 24  1  0  0  0  0
  1 25  1  0  0  0  0
  1 26  1  0  0  0  0
  2 23  1  0  0  0  0
  2  3  2  0  0  0  0
  3  4  1  0  0  0  0
  3 27  1  0  0  0  0
  4  5  2  0  0  0  0
  4 28  1  0  0  0  0
  5  6  1  0  0  0  0
  5 22  1  0  0  0  0
  6  7  1  0  0  0  0
  6 29  1  0  0  0  0
  7  8  2  0  0  0  0
  7  9  1  0  0  0  0
  9 10  1  0  0  0  0
  9 30  1  0  0  0  0
 10 21  1  0  0  0  0
 10 11  1  0  0  0  0
 10 31  1  0  0  0  0
 11 12  1  0  0  0  0
 11 32  1  0  0  0  0
 11 33  1  0  0  0  0
 12 13  1  0  0  0  0
 12 34  1  0  0  0  0
 12 35  1  0  0  0  0
 13 14  1  0  0  0  0
 13 20  1  0  0  0  0
 13 52  1  0  0  0  0
 14 19  1  0  0  0  0
 14 15  1  0  0  0  0
 14 36  1  0  0  0  0
 15 16  1  0  0  0  0
 15 37  1  0  0  0  0
 15 38  1  0  0  0  0
 16 17  1  0  0  0  0
 16 39  1  0  0  0  0
 16 40  1  0  0  0  0
 17 18  1  0  0  0  0
 17 41  1  0  0  0  0
 17 42  1  0  0  0  0
 18 19  1  0  0  0  0
 18 43  1  0  0  0  0
 18 44  1  0  0  0  0
 19 45  1  0  0  0  0
 19 46  1  0  0  0  0
 20 21  1  0  0  0  0
 20 47  1  0  0  0  0
 20 48  1  0  0  0  0
 21 49  1  0  0  0  0
 21 50  1  0  0  0  0
 22 23  2  0  0  0  0
 23 51  1  0  0  0  0
M  CHG  1  13   1
M  END
> <s_m_source_file>
AV-unprocessed.smi

> <i_m_source_file_index>
2341

> <i_lp_mmshare_version>
43012

> <i_f3d_flags>
0

> <s_epik_input>
W0NIM11jMVtjSF1bY0hdYyhuW2NIXTEpW05IXUMoPU8pW05IXVtDSF0yW0NIMl1bQ0gyXU4oW0NIMl1bQ0gyXTIpW0NIXTNbQ0gyXVtDSDJdW0NIMl1bQ0gyXVtDSDJdMw==

> <s_epik_cmdline>
J2VwaWtfcHl0aG9uJywgJy1waCcsICc3LjAnLCAnLXRuJywgJzgnLCAnLW1hJywgJzIwMCcsICctbWV0YWxfYmluZGluZycsICctaW1hZScsICc8aW5maWxlLm1hZT4nLCAnLW9tYWUnLCAnPG91dGZpbGUubWFlPic=

> <r_epik_Ionization_Penalty>
0.00176486

> <r_epik_Ionization_Penalty_Charging>
0.00171891

> <r_epik_Ionization_Penalty_Neutral>
4.59494e-05

> <r_epik_State_Penalty>
0.00116222

> <r_epik_Charging_Adjusted_Penalty>
0.00288114

> <i_epik_Tot_Q>
1

> <i_epik_Tot_abs_Q>
1

> <r_epik_Metal_State_Penalty>
-0

> <b_epik_Metal_Only>
0

> <s_lp_Force_Field>
OPLS_2005

> <r_lp_Energy>
32.471

> <b_lp_Chiralities_Consistent>
1

> <s_lp_Variant>
AV-unprocessed.smi:2341-2

> <Gold.Version>
5.8.1

> <Gold.Id.Protein>
6NUR|6NUR_protein|mol2

> <Gold.PLP.Fitness>
37.1989

> <Gold.PLP.PLP>
-28.4058

> <Gold.PLP.part.hbond>
-2.7362

> <Gold.PLP.part.metal>
0.0000

> <Gold.PLP.part.buried>
-4.0916

> <Gold.PLP.part.nonpolar>
-22.2663

> <Gold.PLP.part.repulsive>
0.0405

> <Gold.PLP.ligand.clash>
0.0000

> <Gold.PLP.ligand.torsion>
0.3948

> <Gold.PLP.Chemscore.Hbond>
3.1753

> <Gold.PLP.Chemscore.CHOScore>
0.0000

> <Gold.PLP.Chemscore.Metal>
0.0000

> <Gold.Chemscore.Hbonds>
donor molecule, donor type, donor heavy atom, donor atom, acceptor molecule, acceptor atom, score
      L1  H     9    30       P1  7948  0.96
      L1  H    13    52       P1 10957  1.98
      P1  H  7989  7998       L1    22  0.23

> <Gold.PLP.Chemscore.Internal.Correction>
0.0570

> <Gold.Rescore>
     Score         DG    S(hbond)    S(metal)    S(lipo)     H(rot)  DE(clash)    DE(int)     intcor
     16.83     -19.00       1.86        0.00      88.49       1.19       0.31       1.86       ----

> <Gold.Chemscore.Fitness>
16.8293

> <Gold.Chemscore.DG>
-18.9962

> <Gold.Chemscore.ZeroCoef>
-5.4800

> <Gold.Chemscore.Hbond>
1.8603

> <Gold.Chemscore.Metal>
0.0000

> <Gold.Chemscore.Lipo>
88.4947

> <Gold.Chemscore.Internal_Hbond>
0.0000

> <Gold.Chemscore.DEClash>
0.3081

> <Gold.Chemscore.DEInternal>
1.8589

> <Gold.Chemscore.Rot>
1.1918

> <Gold.Chemscore.Internal.Correction>
   9.000000E+99

> <Gold.Chemscore.Hbonds>
donor molecule, donor type, donor heavy atom, donor atom, acceptor molecule, acceptor atom, score
      L1  H     9    30       P1  7948  0.91
      L1  H    13    52       P1 10957  0.81

> <Gold.Chemscore.Hbond.Weighted>
-6.2135

> <Gold.Chemscore.Metal.Weighted>
-0.0000

> <Gold.Chemscore.Lipo.Weighted>
-10.3539

> <Gold.Chemscore.Internal_Hbond.Weighted>
0.0000

> <Gold.Chemscore.DEClash.Weighted>
0.3081

> <Gold.Chemscore.DEInternal.Weighted>
1.8589

> <Gold.Chemscore.Rot.Weighted>
3.0511

> <Gold.Chemscore.Internal.Correction.Weighted>
   9.000000E+99

> <Gold.Protein.RotatedTorsions>
[ 6907 6896 6895 6894 ] final  -85.79 input  -60.11 | X-H torsion
[ 7974 7965 7964 7962 ] final  -89.96 input  175.53 | X-H torsion
[ 8008 7997 7996 7995 ] final   67.61 input   59.86 | X-H torsion
[ 10167 10162 10161 10158 ] final  -18.35 input  -65.29 | X-H torsion
[ 10718 10713 10712 10709 ] final   83.11 input   66.30 | X-H torsion
[ 10763 10752 10751 10750 ] final -177.41 input  -60.55 | X-H torsion
[ 11005 11000 10999 10996 ] final   81.04 input  -57.11 | X-H torsion

> <Gold.Protein.ActiveResidues>
 VAL166  LYS551  ARG553  GLY616  TRP617  ASP618  TYR619  PRO620  LYS621  CYS622 
 ASP623  PHE694  ASN695  SER759  ASP760  ASP761  ALA762  ILE779  LEU786  VAL792 
 PHE793  MET794  SER795  GLU796  ALA797  LYS798  CYS799  TRP800  GLU811  SER814 

> <Gold.Protein.RotatedAtoms>
  150.6869  134.3151  159.4762 H   0  0  0  0  0  0  0  0  0  0  0  0  # atno 6907 bound_to 6896
  152.1033  134.9324  160.0578 H   0  0  0  0  0  0  0  0  0  0  0  0  # atno 6908 bound_to 6896
  152.0595  133.4020  159.4448 H   0  0  0  0  0  0  0  0  0  0  0  0  # atno 6909 bound_to 6896
  145.4329  140.9556  143.2118 H   0  0  0  0  0  0  0  0  0  0  0  0  # atno 7974 bound_to 7965
  155.6955  140.3496  155.4911 H   0  0  0  0  0  0  0  0  0  0  0  0  # atno 8008 bound_to 7997
  155.9487  140.1115  157.1017 H   0  0  0  0  0  0  0  0  0  0  0  0  # atno 8009 bound_to 7997
  154.4117  140.1198  156.5009 H   0  0  0  0  0  0  0  0  0  0  0  0  # atno 8010 bound_to 7997
  140.7257  143.4925  150.9973 H   0  0  0  0  0  0  0  0  0  0  0  0  # atno 10167 bound_to 10162
  157.6872  131.0077  150.2475 H   0  0  0  0  0  0  0  0  0  0  0  0  # atno 10718 bound_to 10713
  154.5605  135.2820  155.0924 H   0  0  0  0  0  0  0  0  0  0  0  0  # atno 10763 bound_to 10752
  154.2335  135.6370  153.5187 H   0  0  0  0  0  0  0  0  0  0  0  0  # atno 10764 bound_to 10752
  153.0028  135.5543  154.6197 H   0  0  0  0  0  0  0  0  0  0  0  0  # atno 10765 bound_to 10752
  139.9112  134.7966  156.1989 H   0  0  0  0  0  0  0  0  0  0  0  0  # atno 11005 bound_to 11000
  144.8171  139.5857  143.7003 LP  0  0  0  0  0  0  0  0  0  0  0  0  # atno 17320 bound_to 7965
  146.2597  139.6383  142.9370 LP  0  0  0  0  0  0  0  0  0  0  0  0  # atno 17321 bound_to 7965
  139.8630  143.7289  152.3172 LP  0  0  0  0  0  0  0  0  0  0  0  0  # atno 17342 bound_to 10162
  139.7512  144.7533  151.0504 LP  0  0  0  0  0  0  0  0  0  0  0  0  # atno 17343 bound_to 10162
  156.3078  130.3767  149.7690 LP  0  0  0  0  0  0  0  0  0  0  0  0  # atno 17370 bound_to 10713
  156.5300  130.8253  151.3233 LP  0  0  0  0  0  0  0  0  0  0  0  0  # atno 17371 bound_to 10713
  141.0537  133.6876  156.1820 LP  0  0  0  0  0  0  0  0  0  0  0  0  # atno 17394 bound_to 11000
  140.6770  134.4808  157.5588 LP  0  0  0  0  0  0  0  0  0  0  0  0  # atno 17395 bound_to 11000

$$$$
