AV-unprocessed.smi:101|AV-procd|sdf|929|dock6
  -GOLD-   2262017443D 1   1.00000     0.00000
 Structure written by MMmdl.
 43 45  0  0  0  0  0  0  0  0  2 V2000
  153.3499  139.0562  159.9780 C   0  0  0  0  0  0  0  0  0  0  0  0
  152.7663  138.3163  158.7867 C   0  0  0  0  0  0  0  0  0  0  0  0
  152.4344  138.9453  157.6376 C   0  0  0  0  0  0  0  0  0  0  0  0
  151.9021  138.2723  156.5468 N   0  0  0  0  0  0  0  0  0  0  0  0
  151.6183  138.9714  155.2206 C   0  0  2  0  0  0  0  0  0  0  0  0
  151.6640  140.3447  155.4459 O   0  0  0  0  0  0  0  0  0  0  0  0
  150.3542  140.7945  155.7622 C   0  0  1  0  0  0  0  0  0  0  0  0
  150.2637  142.3236  155.6552 C   0  0  0  0  0  0  0  0  0  0  0  0
  150.9961  142.8976  156.7250 O   0  0  0  0  0  0  0  0  0  0  0  0
  150.4165  143.0717  157.9270 C   0  0  0  0  0  0  0  0  0  0  0  0
  149.2016  143.2072  158.0859 O   0  0  0  0  0  0  0  0  0  0  0  0
  151.4005  143.0796  159.0479 C   0  0  0  0  0  0  0  0  0  0  0  0
  152.3950  142.0754  159.1053 C   0  0  0  0  0  0  0  0  0  0  0  0
  153.3383  142.0589  160.1514 C   0  0  0  0  0  0  0  0  0  0  0  0
  153.2987  143.0465  161.1528 C   0  0  0  0  0  0  0  0  0  0  0  0
  152.3140  144.0505  161.1075 C   0  0  0  0  0  0  0  0  0  0  0  0
  151.3694  144.0683  160.0627 C   0  0  0  0  0  0  0  0  0  0  0  0
  149.4705  139.9869  154.7945 C   0  0  1  0  0  0  0  0  0  0  0  0
  149.2792  140.6890  153.5757 O   0  0  0  0  0  0  0  0  0  0  0  0
  150.2332  138.6627  154.6111 C   0  0  1  0  0  0  0  0  0  0  0  0
  150.3225  138.2571  153.2576 O   0  0  0  0  0  0  0  0  0  0  0  0
  151.7993  136.8543  156.6024 C   0  0  0  0  0  0  0  0  0  0  0  0
  151.4286  136.2545  155.5931 O   0  0  0  0  0  0  0  0  0  0  0  0
  152.1129  136.2129  157.7639 N   0  5  0  0  0  0  0  0  0  0  0  0
  152.5726  136.8656  158.8682 C   0  0  0  0  0  0  0  0  0  0  0  0
  152.8337  136.2762  159.9165 O   0  0  0  0  0  0  0  0  0  0  0  0
  153.4501  140.1224  159.7738 H   0  0  0  0  0  0  0  0  0  0  0  0
  154.3375  138.6642  160.2230 H   0  0  0  0  0  0  0  0  0  0  0  0
  152.7066  138.9389  160.8506 H   0  0  0  0  0  0  0  0  0  0  0  0
  152.6174  140.0063  157.5808 H   0  0  0  0  0  0  0  0  0  0  0  0
  152.4192  138.6649  154.5464 H   0  0  0  0  0  0  0  0  0  0  0  0
  150.1136  140.5002  156.7843 H   0  0  0  0  0  0  0  0  0  0  0  0
  150.6492  142.6677  154.6943 H   0  0  0  0  0  0  0  0  0  0  0  0
  149.2230  142.6421  155.7310 H   0  0  0  0  0  0  0  0  0  0  0  0
  152.4454  141.3067  158.3477 H   0  0  0  0  0  0  0  0  0  0  0  0
  154.0929  141.2870  160.1845 H   0  0  0  0  0  0  0  0  0  0  0  0
  154.0223  143.0340  161.9547 H   0  0  0  0  0  0  0  0  0  0  0  0
  152.2816  144.8093  161.8757 H   0  0  0  0  0  0  0  0  0  0  0  0
  150.6262  144.8525  160.0594 H   0  0  0  0  0  0  0  0  0  0  0  0
  148.4858  139.8119  155.2290 H   0  0  0  0  0  0  0  0  0  0  0  0
  149.0629  140.0654  152.8997 H   0  0  0  0  0  0  0  0  0  0  0  0
  149.7480  137.8399  155.1322 H   0  0  0  0  0  0  0  0  0  0  0  0
  150.0721  138.9889  152.7142 H   0  0  0  0  0  0  0  0  0  0  0  0
  1  2  1  0  0  0  0
  1 27  1  0  0  0  0
  1 28  1  0  0  0  0
  1 29  1  0  0  0  0
  2 25  1  0  0  0  0
  2  3  2  0  0  0  0
  3  4  1  0  0  0  0
  3 30  1  0  0  0  0
  4  5  1  0  0  0  0
  4 22  1  0  0  0  0
  5 20  1  0  0  0  0
  5  6  1  0  0  0  0
  5 31  1  0  0  0  0
  6  7  1  0  0  0  0
  7  8  1  0  0  0  0
  7 18  1  0  0  0  0
  7 32  1  0  0  0  0
  8  9  1  0  0  0  0
  8 33  1  0  0  0  0
  8 34  1  0  0  0  0
  9 10  1  0  0  0  0
 10 11  2  0  0  0  0
 10 12  1  0  0  0  0
 12 17  1  0  0  0  0
 12 13  2  0  0  0  0
 13 14  1  0  0  0  0
 13 35  1  0  0  0  0
 14 15  2  0  0  0  0
 14 36  1  0  0  0  0
 15 16  1  0  0  0  0
 15 37  1  0  0  0  0
 16 17  2  0  0  0  0
 16 38  1  0  0  0  0
 17 39  1  0  0  0  0
 18 19  1  0  0  0  0
 18 20  1  0  0  0  0
 18 40  1  0  0  0  0
 19 41  1  0  0  0  0
 20 21  1  0  0  0  0
 20 42  1  0  0  0  0
 21 43  1  0  0  0  0
 22 23  2  0  0  0  0
 22 24  1  0  0  0  0
 24 25  1  0  0  0  0
 25 26  2  0  0  0  0
M  CHG  1  24  -1
M  END
> <s_m_source_file>
AV-unprocessed.smi

> <i_m_source_file_index>
101

> <i_lp_mmshare_version>
43012

> <i_f3d_flags>
0

> <s_epik_input>
Tz1jMVtuSF1jKD1PKW4oW2NIXWMxW0NIM10pW0NAQEhdMk9bQ0BIXShbQ0BASF0oW09IXSlbQ0BIXTJbT0hdKVtDSDJdT0MoPU8pYzNbY0hdW2NIXVtjSF1bY0hdW2NIXTM=

> <s_epik_cmdline>
J2VwaWtfcHl0aG9uJywgJy1waCcsICc3LjAnLCAnLXRuJywgJzgnLCAnLW1hJywgJzIwMCcsICctbWV0YWxfYmluZGluZycsICctaW1hZScsICc8aW5maWxlLm1hZT4nLCAnLW9tYWUnLCAnPG91dGZpbGUubWFlPic=

> <r_lp_tautomer_probability>
0.999537

> <r_epik_Ionization_Penalty>
3.21006

> <r_epik_Ionization_Penalty_Charging>
5.75142e-08

> <r_epik_Ionization_Penalty_Neutral>
3.21006

> <r_epik_State_Penalty>
3.20925

> <r_epik_Charging_Adjusted_Penalty>
3.20925

> <i_epik_Tot_Q>
-1

> <i_epik_Tot_abs_Q>
1

> <r_epik_Metal_State_Penalty>
0.119957

> <b_epik_Metal_Only>
1

> <s_epik_Chemistry_Notes>
This compound has an ester and may undergo hydrolysis at high or low pH. This compound contains an acetal/aminal-like group ( X-CH(R)-Y where X, Y are N, S, or O) that may be acid/base labile, releasing an aldehyde.

> <s_lp_Force_Field>
OPLS_2005

> <r_lp_Energy>
45.1107

> <b_lp_Chiralities_Consistent>
1

> <s_lp_Variant>
AV-unprocessed.smi:101-17

> <Gold.Version>
5.8.1

> <Gold.Id.Protein>
6NUR|6NUR_protein|mol2

> <Gold.PLP.Fitness>
51.1326

> <Gold.PLP.PLP>
-40.2368

> <Gold.PLP.part.hbond>
-8.8001

> <Gold.PLP.part.metal>
0.0000

> <Gold.PLP.part.buried>
0.3793

> <Gold.PLP.part.nonpolar>
-33.0515

> <Gold.PLP.part.repulsive>
2.2980

> <Gold.PLP.ligand.clash>
0.0000

> <Gold.PLP.ligand.torsion>
1.5390

> <Gold.PLP.Chemscore.Hbond>
4.6060

> <Gold.PLP.Chemscore.CHOScore>
0.0000

> <Gold.PLP.Chemscore.Metal>
0.0000

> <Gold.Chemscore.Hbonds>
donor molecule, donor type, donor heavy atom, donor atom, acceptor molecule, acceptor atom, score
      L1  H    19    41       P1  7957  0.58
      L1  H    21    43       P1  7957  1.00
      P1  H  6896  6909       L1    26  0.91
      P1  H  7989  7998       L1     6  0.57
      P1  H  8011  8017       L1    19  0.57
      P1  H 10752 10763       L1    23  1.00

> <Gold.PLP.Chemscore.Internal.Correction>
0.1557

> <Gold.Rescore>
     Score         DG    S(hbond)    S(metal)    S(lipo)     H(rot)  DE(clash)    DE(int)     intcor
     14.74     -20.90       3.29        0.00     109.30       3.27       3.45       2.72       ----

> <Gold.Chemscore.Fitness>
14.7422

> <Gold.Chemscore.DG>
-20.9044

> <Gold.Chemscore.ZeroCoef>
-5.4800

> <Gold.Chemscore.Hbond>
3.2923

> <Gold.Chemscore.Metal>
0.0000

> <Gold.Chemscore.Lipo>
109.3003

> <Gold.Chemscore.Internal_Hbond>
0.0000

> <Gold.Chemscore.DEClash>
3.4459

> <Gold.Chemscore.DEInternal>
2.7163

> <Gold.Chemscore.Rot>
3.2656

> <Gold.Chemscore.Internal.Correction>
   9.000000E+99

> <Gold.Chemscore.Hbonds>
donor molecule, donor type, donor heavy atom, donor atom, acceptor molecule, acceptor atom, score
      L1  H    19    41       P1  7957  0.58
      L1  H    21    43       P1  7957  0.65
      P1  H  6896  6909       L1    26  0.79
      P1  H  7989  7998       L1     6  0.01
      P1  H  8011  8017       L1    19  0.13
      P1  H 10752 10763       L1    23  0.45

> <Gold.Chemscore.Hbond.Weighted>
-10.9961

> <Gold.Chemscore.Metal.Weighted>
-0.0000

> <Gold.Chemscore.Lipo.Weighted>
-12.7881

> <Gold.Chemscore.Internal_Hbond.Weighted>
0.0000

> <Gold.Chemscore.DEClash.Weighted>
3.4459

> <Gold.Chemscore.DEInternal.Weighted>
2.7163

> <Gold.Chemscore.Rot.Weighted>
8.3598

> <Gold.Chemscore.Internal.Correction.Weighted>
   9.000000E+99

> <Gold.Protein.RotatedTorsions>
[ 6907 6896 6895 6894 ] final  162.38 input  -60.11 | X-H torsion
[ 7974 7965 7964 7962 ] final  -59.79 input  175.53 | X-H torsion
[ 8008 7997 7996 7995 ] final   73.37 input   59.86 | X-H torsion
[ 10167 10162 10161 10158 ] final  128.10 input  -65.29 | X-H torsion
[ 10718 10713 10712 10709 ] final -142.67 input   66.30 | X-H torsion
[ 10763 10752 10751 10750 ] final   78.47 input  -60.55 | X-H torsion
[ 11005 11000 10999 10996 ] final  166.39 input  -57.11 | X-H torsion

> <Gold.Protein.ActiveResidues>
 VAL166  LYS551  ARG553  GLY616  TRP617  ASP618  TYR619  PRO620  LYS621  CYS622 
 ASP623  PHE694  ASN695  SER759  ASP760  ASP761  ALA762  ILE779  LEU786  VAL792 
 PHE793  MET794  SER795  GLU796  ALA797  LYS798  CYS799  TRP800  GLU811  SER814 

> <Gold.Protein.RotatedAtoms>
  151.9414  133.3639  159.3966 H   0  0  0  0  0  0  0  0  0  0  0  0  # atno 6907 bound_to 6896
  150.6997  134.4435  159.5312 H   0  0  0  0  0  0  0  0  0  0  0  0  # atno 6908 bound_to 6896
  152.2093  134.8516  160.0550 H   0  0  0  0  0  0  0  0  0  0  0  0  # atno 6909 bound_to 6896
  145.8233  140.8526  143.0121 H   0  0  0  0  0  0  0  0  0  0  0  0  # atno 7974 bound_to 7965
  155.7827  140.3481  155.5306 H   0  0  0  0  0  0  0  0  0  0  0  0  # atno 8008 bound_to 7997
  155.8712  140.0987  157.1569 H   0  0  0  0  0  0  0  0  0  0  0  0  # atno 8009 bound_to 7997
  154.4018  140.1340  156.4068 H   0  0  0  0  0  0  0  0  0  0  0  0  # atno 8010 bound_to 7997
  139.5544  144.6838  151.4227 H   0  0  0  0  0  0  0  0  0  0  0  0  # atno 10167 bound_to 10162
  156.3487  130.7676  151.1825 H   0  0  0  0  0  0  0  0  0  0  0  0  # atno 10718 bound_to 10713
  153.0877  135.4876  154.8629 H   0  0  0  0  0  0  0  0  0  0  0  0  # atno 10763 bound_to 10752
  154.7231  135.3043  154.9018 H   0  0  0  0  0  0  0  0  0  0  0  0  # atno 10764 bound_to 10752
  153.9676  135.6805  153.4799 H   0  0  0  0  0  0  0  0  0  0  0  0  # atno 10765 bound_to 10752
  140.2659  134.7865  157.3632 H   0  0  0  0  0  0  0  0  0  0  0  0  # atno 11005 bound_to 11000
  144.6746  140.0565  143.7477 LP  0  0  0  0  0  0  0  0  0  0  0  0  # atno 17320 bound_to 7965
  145.9651  139.2829  143.1132 LP  0  0  0  0  0  0  0  0  0  0  0  0  # atno 17321 bound_to 7965
  140.6814  143.8074  150.7126 LP  0  0  0  0  0  0  0  0  0  0  0  0  # atno 17342 bound_to 10162
  140.1528  143.4343  152.2120 LP  0  0  0  0  0  0  0  0  0  0  0  0  # atno 17343 bound_to 10162
  157.7458  131.0434  150.4740 LP  0  0  0  0  0  0  0  0  0  0  0  0  # atno 17370 bound_to 10713
  156.4932  130.4100  149.6395 LP  0  0  0  0  0  0  0  0  0  0  0  0  # atno 17371 bound_to 10713
  140.1420  134.4960  155.8025 LP  0  0  0  0  0  0  0  0  0  0  0  0  # atno 17394 bound_to 11000
  141.2184  133.6829  156.7226 LP  0  0  0  0  0  0  0  0  0  0  0  0  # atno 17395 bound_to 11000

$$$$
