AV-unprocessed.smi:3009|AV-procd|sdf|11450|dock7
  -GOLD-   2272016383D 1   1.00000     0.00000
 Structure written by MMmdl.
 44 45  0  0  0  0  0  0  0  0  2 V2000
  146.1468  130.0459  151.6219 C   0  0  0  0  0  0  0  0  0  0  0  0
  145.2695  131.2699  151.3179 C   0  0  0  0  0  0  0  0  0  0  0  0
  145.5592  131.7978  149.9026 C   0  0  0  0  0  0  0  0  0  0  0  0
  145.4699  132.3596  152.3939 C   0  0  0  0  0  0  0  0  0  0  0  0
  144.2568  133.1919  152.6228 N   0  3  2  0  0  0  0  0  0  0  0  0
  143.4513  133.4103  151.3969 C   0  0  0  0  0  0  0  0  0  0  0  0
  144.0871  134.4879  150.5011 C   0  0  0  0  0  0  0  0  0  0  0  0
  144.2351  135.6904  151.2448 O   0  0  0  0  0  0  0  0  0  0  0  0
  145.1024  135.5429  152.3655 C   0  0  1  0  0  0  0  0  0  0  0  0
  145.2503  136.9078  153.0615 C   0  0  0  0  0  0  0  0  0  0  0  0
  146.6267  137.3910  153.0244 N   0  0  0  0  0  0  0  0  0  0  0  0
  147.1386  138.3335  153.8281 C   0  0  0  0  0  0  0  0  0  0  0  0
  146.4894  138.9123  154.6992 O   0  0  0  0  0  0  0  0  0  0  0  0
  148.4348  138.5538  153.5546 N   0  0  0  0  0  0  0  0  0  0  0  0
  149.3081  139.4667  154.1977 C   0  0  0  0  0  0  0  0  0  0  0  0
  150.6976  139.2484  154.4019 C   0  0  0  0  0  0  0  0  0  0  0  0
  151.2608  140.2704  155.0301 N   0  0  0  0  0  0  0  0  0  0  0  0
  150.2438  141.1390  155.2294 N   0  0  0  0  0  0  0  0  0  0  0  0
  149.0367  140.6922  154.7386 C   0  0  0  0  0  0  0  0  0  0  0  0
  144.5003  134.4838  153.3162 C   0  0  0  0  0  0  0  0  0  0  0  0
  150.3876  142.0228  155.6971 H   0  0  0  0  0  0  0  0  0  0  0  0
  147.2068  130.3020  151.6045 H   0  0  0  0  0  0  0  0  0  0  0  0
  145.9843  129.2540  150.8900 H   0  0  0  0  0  0  0  0  0  0  0  0
  145.9208  129.6329  152.6055 H   0  0  0  0  0  0  0  0  0  0  0  0
  144.2365  130.9250  151.3417 H   0  0  0  0  0  0  0  0  0  0  0  0
  146.5874  132.1498  149.8125 H   0  0  0  0  0  0  0  0  0  0  0  0
  144.8996  132.6251  149.6405 H   0  0  0  0  0  0  0  0  0  0  0  0
  145.4100  131.0169  149.1564 H   0  0  0  0  0  0  0  0  0  0  0  0
  145.7966  131.9108  153.3318 H   0  0  0  0  0  0  0  0  0  0  0  0
  146.2897  133.0032  152.0714 H   0  0  0  0  0  0  0  0  0  0  0  0
  143.3172  132.4769  150.8492 H   0  0  0  0  0  0  0  0  0  0  0  0
  142.4533  133.7345  151.6954 H   0  0  0  0  0  0  0  0  0  0  0  0
  145.0518  134.1630  150.1092 H   0  0  0  0  0  0  0  0  0  0  0  0
  143.4463  134.6844  149.6414 H   0  0  0  0  0  0  0  0  0  0  0  0
  146.0871  135.2215  152.0231 H   0  0  0  0  0  0  0  0  0  0  0  0
  144.5677  137.6407  152.6277 H   0  0  0  0  0  0  0  0  0  0  0  0
  144.9725  136.8149  154.1117 H   0  0  0  0  0  0  0  0  0  0  0  0
  147.2377  136.9698  152.3400 H   0  0  0  0  0  0  0  0  0  0  0  0
  148.8435  138.0048  152.8125 H   0  0  0  0  0  0  0  0  0  0  0  0
  151.3037  138.3993  154.1211 H   0  0  0  0  0  0  0  0  0  0  0  0
  148.1293  141.2720  154.8201 H   0  0  0  0  0  0  0  0  0  0  0  0
  143.5430  134.8448  153.6948 H   0  0  0  0  0  0  0  0  0  0  0  0
  145.1345  134.3470  154.1907 H   0  0  0  0  0  0  0  0  0  0  0  0
  143.6756  132.6403  153.2378 H   0  0  0  0  0  0  0  0  0  0  0  0
  1  2  1  0  0  0  0
  1 22  1  0  0  0  0
  1 23  1  0  0  0  0
  1 24  1  0  0  0  0
  2  3  1  0  0  0  0
  2  4  1  0  0  0  0
  2 25  1  0  0  0  0
  3 26  1  0  0  0  0
  3 27  1  0  0  0  0
  3 28  1  0  0  0  0
  4  5  1  0  0  0  0
  4 29  1  0  0  0  0
  4 30  1  0  0  0  0
  5 20  1  0  0  0  0
  5  6  1  0  0  0  0
  5 44  1  0  0  0  0
  6  7  1  0  0  0  0
  6 31  1  0  0  0  0
  6 32  1  0  0  0  0
  7  8  1  0  0  0  0
  7 33  1  0  0  0  0
  7 34  1  0  0  0  0
  8  9  1  0  0  0  0
  9 10  1  0  0  0  0
  9 20  1  0  0  0  0
  9 35  1  0  0  0  0
 10 11  1  0  0  0  0
 10 36  1  0  0  0  0
 10 37  1  0  0  0  0
 11 12  1  0  0  0  0
 11 38  1  0  0  0  0
 12 13  2  0  0  0  0
 12 14  1  0  0  0  0
 14 15  1  0  0  0  0
 14 39  1  0  0  0  0
 15 19  2  0  0  0  0
 15 16  1  0  0  0  0
 16 17  2  0  0  0  0
 16 40  1  0  0  0  0
 17 18  1  0  0  0  0
 18 21  1  0  0  0  0
 18 19  1  0  0  0  0
 19 41  1  0  0  0  0
 20 42  1  0  0  0  0
 20 43  1  0  0  0  0
M  CHG  1   5   1
M  END
> <s_m_source_file>
AV-unprocessed.smi

> <i_m_source_file_index>
3009

> <i_lp_mmshare_version>
43012

> <i_f3d_flags>
0

> <s_epik_input>
W0NIM11bQ0hdKFtDSDNdKVtDSDJdTjFbQ0gyXVtDSDJdT1tDQEhdKFtDSDJdMSlbQ0gyXVtOSF1DKD1PKVtOSF1jMltjSF1uW25IXVtjSF0y

> <s_epik_cmdline>
J2VwaWtfcHl0aG9uJywgJy1waCcsICc3LjAnLCAnLXRuJywgJzgnLCAnLW1hJywgJzIwMCcsICctbWV0YWxfYmluZGluZycsICctaW1hZScsICc8aW5maWxlLm1hZT4nLCAnLW9tYWUnLCAnPG91dGZpbGUubWFlPic=

> <r_lp_tautomer_probability>
0.5

> <r_epik_Ionization_Penalty>
0.0974064

> <r_epik_Ionization_Penalty_Charging>
0.0973651

> <r_epik_Ionization_Penalty_Neutral>
4.13573e-05

> <r_epik_State_Penalty>
0.0874853

> <r_epik_Charging_Adjusted_Penalty>
0.18485

> <i_epik_Tot_Q>
1

> <i_epik_Tot_abs_Q>
1

> <r_epik_Metal_State_Penalty>
0.0874855

> <b_epik_Metal_Only>
0

> <s_lp_Force_Field>
OPLS_2005

> <r_lp_Energy>
22.9615

> <b_lp_Chiralities_Consistent>
1

> <s_lp_Variant>
AV-unprocessed.smi:3009-2

> <Gold.Version>
5.8.1

> <Gold.Id.Protein>
6NUR|6NUR_protein|mol2

> <Gold.PLP.Fitness>
40.6644

> <Gold.PLP.PLP>
-31.3035

> <Gold.PLP.part.hbond>
-4.8116

> <Gold.PLP.part.metal>
0.0000

> <Gold.PLP.part.buried>
-3.9854

> <Gold.PLP.part.nonpolar>
-24.0213

> <Gold.PLP.part.repulsive>
1.0722

> <Gold.PLP.ligand.clash>
0.0000

> <Gold.PLP.ligand.torsion>
1.6851

> <Gold.PLP.Chemscore.Hbond>
4.2275

> <Gold.PLP.Chemscore.CHOScore>
0.0000

> <Gold.PLP.Chemscore.Metal>
0.0000

> <Gold.Chemscore.Hbonds>
donor molecule, donor type, donor heavy atom, donor atom, acceptor molecule, acceptor atom, score
      L1  H     5    44       P1 10957  2.00
      L1  H    11    38       P1  7948  1.00
      L1  H    14    39       P1  7948  0.99
      P1  H  7989  7998       L1    17  0.25

> <Gold.PLP.Chemscore.Internal.Correction>
0.0486

> <Gold.Rescore>
     Score         DG    S(hbond)    S(metal)    S(lipo)     H(rot)  DE(clash)    DE(int)     intcor
     17.13     -19.03       2.76        0.00      76.31       1.80       0.17       1.73       ----

> <Gold.Chemscore.Fitness>
17.1284

> <Gold.Chemscore.DG>
-19.0306

> <Gold.Chemscore.ZeroCoef>
-5.4800

> <Gold.Chemscore.Hbond>
2.7608

> <Gold.Chemscore.Metal>
0.0000

> <Gold.Chemscore.Lipo>
76.3081

> <Gold.Chemscore.Internal_Hbond>
0.0000

> <Gold.Chemscore.DEClash>
0.1717

> <Gold.Chemscore.DEInternal>
1.7304

> <Gold.Chemscore.Rot>
1.7963

> <Gold.Chemscore.Internal.Correction>
   9.000000E+99

> <Gold.Chemscore.Hbonds>
donor molecule, donor type, donor heavy atom, donor atom, acceptor molecule, acceptor atom, score
      L1  H     5    44       P1 10957  0.28
      L1  H    11    38       P1  7948  0.95
      L1  H    14    39       P1  7948  0.92

> <Gold.Chemscore.Hbond.Weighted>
-9.2210

> <Gold.Chemscore.Metal.Weighted>
-0.0000

> <Gold.Chemscore.Lipo.Weighted>
-8.9280

> <Gold.Chemscore.Internal_Hbond.Weighted>
0.0000

> <Gold.Chemscore.DEClash.Weighted>
0.1717

> <Gold.Chemscore.DEInternal.Weighted>
1.7304

> <Gold.Chemscore.Rot.Weighted>
4.5985

> <Gold.Chemscore.Internal.Correction.Weighted>
   9.000000E+99

> <Gold.Protein.RotatedTorsions>
[ 6907 6896 6895 6894 ] final  -10.96 input  -60.11 | X-H torsion
[ 7974 7965 7964 7962 ] final   97.50 input  175.53 | X-H torsion
[ 8008 7997 7996 7995 ] final  -64.93 input   59.86 | X-H torsion
[ 10167 10162 10161 10158 ] final  -69.73 input  -65.29 | X-H torsion
[ 10718 10713 10712 10709 ] final -147.36 input   66.30 | X-H torsion
[ 10763 10752 10751 10750 ] final  129.87 input  -60.55 | X-H torsion
[ 11005 11000 10999 10996 ] final -106.00 input  -57.11 | X-H torsion

> <Gold.Protein.ActiveResidues>
 VAL166  LYS551  ARG553  GLY616  TRP617  ASP618  TYR619  PRO620  LYS621  CYS622 
 ASP623  PHE694  ASN695  SER759  ASP760  ASP761  ALA762  ILE779  LEU786  VAL792 
 PHE793  MET794  SER795  GLU796  ALA797  LYS798  CYS799  TRP800  GLU811  SER814 

> <Gold.Protein.RotatedAtoms>
  151.3938  135.0960  159.9534 H   0  0  0  0  0  0  0  0  0  0  0  0  # atno 6907 bound_to 6896
  152.5071  133.8954  159.7425 H   0  0  0  0  0  0  0  0  0  0  0  0  # atno 6908 bound_to 6896
  150.9413  133.6597  159.2819 H   0  0  0  0  0  0  0  0  0  0  0  0  # atno 6909 bound_to 6896
  145.4247  139.2317  143.3177 H   0  0  0  0  0  0  0  0  0  0  0  0  # atno 7974 bound_to 7965
  154.4641  140.0943  156.6972 H   0  0  0  0  0  0  0  0  0  0  0  0  # atno 8008 bound_to 7997
  155.4910  140.3470  155.4336 H   0  0  0  0  0  0  0  0  0  0  0  0  # atno 8009 bound_to 7997
  156.0924  140.1400  156.9564 H   0  0  0  0  0  0  0  0  0  0  0  0  # atno 8010 bound_to 7997
  140.5408  143.2315  151.7093 H   0  0  0  0  0  0  0  0  0  0  0  0  # atno 10167 bound_to 10162
  156.4065  130.7960  151.2175 H   0  0  0  0  0  0  0  0  0  0  0  0  # atno 10718 bound_to 10713
  153.7488  135.3213  155.3317 H   0  0  0  0  0  0  0  0  0  0  0  0  # atno 10763 bound_to 10752
  154.8270  135.4562  154.0953 H   0  0  0  0  0  0  0  0  0  0  0  0  # atno 10764 bound_to 10752
  153.2149  135.6940  153.8151 H   0  0  0  0  0  0  0  0  0  0  0  0  # atno 10765 bound_to 10752
  141.1026  133.8856  157.1803 H   0  0  0  0  0  0  0  0  0  0  0  0  # atno 11005 bound_to 11000
  146.2638  140.4976  142.8842 LP  0  0  0  0  0  0  0  0  0  0  0  0  # atno 17320 bound_to 7965
  144.8222  140.6568  143.6345 LP  0  0  0  0  0  0  0  0  0  0  0  0  # atno 17321 bound_to 7965
  139.4988  144.3972  152.0219 LP  0  0  0  0  0  0  0  0  0  0  0  0  # atno 17342 bound_to 10162
  140.3081  144.3569  150.6041 LP  0  0  0  0  0  0  0  0  0  0  0  0  # atno 17343 bound_to 10162
  157.7506  131.0270  150.3989 LP  0  0  0  0  0  0  0  0  0  0  0  0  # atno 17370 bound_to 10713
  156.4279  130.3966  149.6780 LP  0  0  0  0  0  0  0  0  0  0  0  0  # atno 17371 bound_to 10713
  139.9883  135.0074  156.9915 LP  0  0  0  0  0  0  0  0  0  0  0  0  # atno 17394 bound_to 11000
  140.4984  134.1122  155.7246 LP  0  0  0  0  0  0  0  0  0  0  0  0  # atno 17395 bound_to 11000

$$$$
