AV-unprocessed.smi:2973|AV-procd|sdf|11348|dock1
  -GOLD-   2272016263D 1   1.00000     0.00000
 Structure written by MMmdl.
 48 50  0  0  0  0  0  0  0  0  2 V2000
  151.5875  143.2089  157.6423 C   0  0  0  0  0  0  0  0  0  0  0  0
  152.2983  142.1163  158.4714 C   0  0  1  0  0  0  0  0  0  0  0  0
  152.1375  142.4125  159.9792 C   0  0  0  0  0  0  0  0  0  0  0  0
  152.8935  141.3969  160.8479 C   0  0  0  0  0  0  0  0  0  0  0  0
  152.4448  139.9625  160.5425 C   0  0  0  0  0  0  0  0  0  0  0  0
  152.6084  139.6406  159.0469 C   0  0  0  0  0  0  0  0  0  0  0  0
  151.8848  140.6489  158.1137 C   0  0  2  0  0  0  0  0  0  0  0  0
  152.2457  140.3433  156.7401 N   0  5  0  0  0  0  0  0  0  0  0  0
  151.1340  139.9853  156.0574 C   0  0  0  0  0  0  0  0  0  0  0  0
  151.0731  139.6529  154.8739 O   0  0  0  0  0  0  0  0  0  0  0  0
  150.0451  140.0355  156.8470 N   0  0  0  0  0  0  0  0  0  0  0  0
  148.6829  139.6914  156.4193 C   0  0  0  0  0  0  0  0  0  0  0  0
  148.1560  138.4022  157.0643 C   0  0  0  0  0  0  0  0  0  0  0  0
  147.8120  137.4418  156.3740 O   0  0  0  0  0  0  0  0  0  0  0  0
  148.1193  138.3918  158.4050 N   0  0  0  0  0  0  0  0  0  0  0  0
  147.6568  137.2761  159.2214 C   0  0  0  0  0  0  0  0  0  0  0  0
  146.5722  137.7141  160.2197 C   0  0  0  0  0  0  0  0  0  0  0  0
  145.7494  136.5426  160.7202 C   0  0  0  0  0  0  0  0  0  0  0  0
  144.6574  136.7490  161.5903 C   0  0  0  0  0  0  0  0  0  0  0  0
  143.9200  135.6283  162.0190 C   0  0  0  0  0  0  0  0  0  0  0  0
  144.2996  134.3513  161.5621 C   0  0  0  0  0  0  0  0  0  0  0  0
  145.4047  134.2515  160.6934 C   0  0  0  0  0  0  0  0  0  0  0  0
  146.1183  135.3196  160.2762 N   0  0  0  0  0  0  0  0  0  0  0  0
  150.3759  140.4110  158.0874 C   0  0  0  0  0  0  0  0  0  0  0  0
  149.6184  140.5501  159.0489 O   0  0  0  0  0  0  0  0  0  0  0  0
  150.5143  143.2298  157.8327 H   0  0  0  0  0  0  0  0  0  0  0  0
  151.7340  143.0619  156.5723 H   0  0  0  0  0  0  0  0  0  0  0  0
  151.9797  144.1964  157.8859 H   0  0  0  0  0  0  0  0  0  0  0  0
  153.3628  142.2093  158.2487 H   0  0  0  0  0  0  0  0  0  0  0  0
  152.5087  143.4140  160.1990 H   0  0  0  0  0  0  0  0  0  0  0  0
  151.0826  142.4161  160.2543 H   0  0  0  0  0  0  0  0  0  0  0  0
  153.9655  141.4901  160.6692 H   0  0  0  0  0  0  0  0  0  0  0  0
  152.7352  141.6192  161.9035 H   0  0  0  0  0  0  0  0  0  0  0  0
  153.0307  139.2596  161.1351 H   0  0  0  0  0  0  0  0  0  0  0  0
  151.4080  139.8258  160.8495 H   0  0  0  0  0  0  0  0  0  0  0  0
  153.6739  139.6291  158.8110 H   0  0  0  0  0  0  0  0  0  0  0  0
  152.2540  138.6253  158.8593 H   0  0  0  0  0  0  0  0  0  0  0  0
  147.9932  140.5020  156.6596 H   0  0  0  0  0  0  0  0  0  0  0  0
  148.6552  139.5934  155.3326 H   0  0  0  0  0  0  0  0  0  0  0  0
  148.4226  139.2219  158.8929 H   0  0  0  0  0  0  0  0  0  0  0  0
  147.2575  136.5135  158.5523 H   0  0  0  0  0  0  0  0  0  0  0  0
  148.5000  136.8208  159.7440 H   0  0  0  0  0  0  0  0  0  0  0  0
  147.0254  138.2155  161.0761 H   0  0  0  0  0  0  0  0  0  0  0  0
  145.9095  138.4447  159.7539 H   0  0  0  0  0  0  0  0  0  0  0  0
  144.3888  137.7420  161.9207 H   0  0  0  0  0  0  0  0  0  0  0  0
  143.0781  135.7462  162.6852 H   0  0  0  0  0  0  0  0  0  0  0  0
  143.7572  133.4694  161.8694 H   0  0  0  0  0  0  0  0  0  0  0  0
  145.7236  133.2881  160.3235 H   0  0  0  0  0  0  0  0  0  0  0  0
  1  2  1  0  0  0  0
  1 26  1  0  0  0  0
  1 27  1  0  0  0  0
  1 28  1  0  0  0  0
  2  7  1  0  0  0  0
  2  3  1  0  0  0  0
  2 29  1  0  0  0  0
  3  4  1  0  0  0  0
  3 30  1  0  0  0  0
  3 31  1  0  0  0  0
  4  5  1  0  0  0  0
  4 32  1  0  0  0  0
  4 33  1  0  0  0  0
  5  6  1  0  0  0  0
  5 34  1  0  0  0  0
  5 35  1  0  0  0  0
  6  7  1  0  0  0  0
  6 36  1  0  0  0  0
  6 37  1  0  0  0  0
  7 24  1  0  0  0  0
  7  8  1  0  0  0  0
  8  9  1  0  0  0  0
  9 10  2  0  0  0  0
  9 11  1  0  0  0  0
 11 12  1  0  0  0  0
 11 24  1  0  0  0  0
 12 13  1  0  0  0  0
 12 38  1  0  0  0  0
 12 39  1  0  0  0  0
 13 14  2  0  0  0  0
 13 15  1  0  0  0  0
 15 16  1  0  0  0  0
 15 40  1  0  0  0  0
 16 17  1  0  0  0  0
 16 41  1  0  0  0  0
 16 42  1  0  0  0  0
 17 18  1  0  0  0  0
 17 43  1  0  0  0  0
 17 44  1  0  0  0  0
 18 23  1  0  0  0  0
 18 19  2  0  0  0  0
 19 20  1  0  0  0  0
 19 45  1  0  0  0  0
 20 21  2  0  0  0  0
 20 46  1  0  0  0  0
 21 22  1  0  0  0  0
 21 47  1  0  0  0  0
 22 23  2  0  0  0  0
 22 48  1  0  0  0  0
 24 25  2  0  0  0  0
M  CHG  1   8  -1
M  END
> <s_m_source_file>
AV-unprocessed.smi

> <i_m_source_file_index>
2973

> <i_lp_mmshare_version>
43012

> <i_f3d_flags>
0

> <s_epik_input>
W0NIMl0xW0NIMl1bQ0gyXVtDSDJdW0NAQEhdKFtDSDNdKVtDQF0xMltOSF1DKD1PKU4oQzI9TylbQ0gyXUMoPU8pW05IXVtDSDJdW0NIMl1jM1tjSF1bY0hdW2NIXVtjSF1uMw==

> <s_epik_cmdline>
J2VwaWtfcHl0aG9uJywgJy1waCcsICc3LjAnLCAnLXRuJywgJzgnLCAnLW1hJywgJzIwMCcsICctbWV0YWxfYmluZGluZycsICctaW1hZScsICc8aW5maWxlLm1hZT4nLCAnLW9tYWUnLCAnPG91dGZpbGUubWFlPic=

> <r_lp_tautomer_probability>
1

> <r_epik_Ionization_Penalty>
6.04175

> <r_epik_Ionization_Penalty_Charging>
6.01728

> <r_epik_Ionization_Penalty_Neutral>
0.0244696

> <r_epik_State_Penalty>
6.03712

> <r_epik_Charging_Adjusted_Penalty>
12.0544

> <i_epik_Tot_Q>
-1

> <i_epik_Tot_abs_Q>
1

> <r_epik_Metal_State_Penalty>
2.01153

> <b_epik_Metal_Only>
1

> <s_lp_Force_Field>
OPLS_2005

> <r_lp_Energy>
9.40787

> <b_lp_Chiralities_Consistent>
1

> <s_lp_Variant>
AV-unprocessed.smi:2973-12

> <Gold.Version>
5.8.1

> <Gold.Id.Protein>
6NUR|6NUR_protein|mol2

> <Gold.PLP.Fitness>
44.2232

> <Gold.PLP.PLP>
-35.6935

> <Gold.PLP.part.hbond>
-4.0125

> <Gold.PLP.part.metal>
0.0000

> <Gold.PLP.part.buried>
1.2695

> <Gold.PLP.part.nonpolar>
-32.5587

> <Gold.PLP.part.repulsive>
0.2371

> <Gold.PLP.ligand.clash>
0.0000

> <Gold.PLP.ligand.torsion>
0.1948

> <Gold.PLP.Chemscore.Hbond>
2.9520

> <Gold.PLP.Chemscore.CHOScore>
0.0000

> <Gold.PLP.Chemscore.Metal>
0.0000

> <Gold.Chemscore.Hbonds>
donor molecule, donor type, donor heavy atom, donor atom, acceptor molecule, acceptor atom, score
      P1  H  7989  7998       L1    10  1.00
      P1  H  7997  8010       L1     8  1.52

> <Gold.PLP.Chemscore.Internal.Correction>
0.0634

> <Gold.Rescore>
     Score         DG    S(hbond)    S(metal)    S(lipo)     H(rot)  DE(clash)    DE(int)     intcor
     15.71     -18.89       1.71        0.00     105.49       1.81       1.57       1.61       ----

> <Gold.Chemscore.Fitness>
15.7121

> <Gold.Chemscore.DG>
-18.8905

> <Gold.Chemscore.ZeroCoef>
-5.4800

> <Gold.Chemscore.Hbond>
1.7065

> <Gold.Chemscore.Metal>
0.0000

> <Gold.Chemscore.Lipo>
105.4858

> <Gold.Chemscore.Internal_Hbond>
0.0000

> <Gold.Chemscore.DEClash>
1.5657

> <Gold.Chemscore.DEInternal>
1.6127

> <Gold.Chemscore.Rot>
1.8090

> <Gold.Chemscore.Internal.Correction>
   9.000000E+99

> <Gold.Chemscore.Hbonds>
donor molecule, donor type, donor heavy atom, donor atom, acceptor molecule, acceptor atom, score
      P1  H  7989  7998       L1    10  0.97
      P1  H  7997  8010       L1     8  0.64

> <Gold.Chemscore.Hbond.Weighted>
-5.6997

> <Gold.Chemscore.Metal.Weighted>
-0.0000

> <Gold.Chemscore.Lipo.Weighted>
-12.3418

> <Gold.Chemscore.Internal_Hbond.Weighted>
0.0000

> <Gold.Chemscore.DEClash.Weighted>
1.5657

> <Gold.Chemscore.DEInternal.Weighted>
1.6127

> <Gold.Chemscore.Rot.Weighted>
4.6310

> <Gold.Chemscore.Internal.Correction.Weighted>
   9.000000E+99

> <Gold.Protein.RotatedTorsions>
[ 6907 6896 6895 6894 ] final  -92.62 input  -60.11 | X-H torsion
[ 7974 7965 7964 7962 ] final  -48.15 input  175.53 | X-H torsion
[ 8008 7997 7996 7995 ] final   75.71 input   59.86 | X-H torsion
[ 10167 10162 10161 10158 ] final  -26.09 input  -65.29 | X-H torsion
[ 10718 10713 10712 10709 ] final  145.29 input   66.30 | X-H torsion
[ 10763 10752 10751 10750 ] final -117.05 input  -60.55 | X-H torsion
[ 11005 11000 10999 10996 ] final  164.06 input  -57.11 | X-H torsion

> <Gold.Protein.ActiveResidues>
 VAL166  LYS551  ARG553  GLY616  TRP617  ASP618  TYR619  PRO620  LYS621  CYS622 
 ASP623  PHE694  ASN695  SER759  ASP760  ASP761  ALA762  ILE779  LEU786  VAL792 
 PHE793  MET794  SER795  GLU796  ALA797  LYS798  CYS799  TRP800  GLU811  SER814 

> <Gold.Protein.RotatedAtoms>
  150.6909  134.2093  159.4352 H   0  0  0  0  0  0  0  0  0  0  0  0  # atno 6907 bound_to 6896
  152.0056  134.9902  160.0576 H   0  0  0  0  0  0  0  0  0  0  0  0  # atno 6908 bound_to 6896
  152.1538  133.4503  159.4863 H   0  0  0  0  0  0  0  0  0  0  0  0  # atno 6909 bound_to 6896
  145.9541  140.7543  142.9490 H   0  0  0  0  0  0  0  0  0  0  0  0  # atno 7974 bound_to 7965
  155.8168  140.3471  155.5490 H   0  0  0  0  0  0  0  0  0  0  0  0  # atno 8008 bound_to 7997
  155.8383  140.0937  157.1770 H   0  0  0  0  0  0  0  0  0  0  0  0  # atno 8009 bound_to 7997
  154.4004  140.1399  156.3685 H   0  0  0  0  0  0  0  0  0  0  0  0  # atno 8010 bound_to 7997
  140.7284  143.4208  151.0954 H   0  0  0  0  0  0  0  0  0  0  0  0  # atno 10167 bound_to 10162
  157.3471  131.0945  151.1033 H   0  0  0  0  0  0  0  0  0  0  0  0  # atno 10718 bound_to 10713
  154.8541  135.4323  154.1918 H   0  0  0  0  0  0  0  0  0  0  0  0  # atno 10763 bound_to 10752
  153.2984  135.6967  153.7232 H   0  0  0  0  0  0  0  0  0  0  0  0  # atno 10764 bound_to 10752
  153.6371  135.3474  155.3034 H   0  0  0  0  0  0  0  0  0  0  0  0  # atno 10765 bound_to 10752
  140.2421  134.8043  157.3420 H   0  0  0  0  0  0  0  0  0  0  0  0  # atno 11005 bound_to 11000
  144.6801  140.2484  143.7335 LP  0  0  0  0  0  0  0  0  0  0  0  0  # atno 17320 bound_to 7965
  145.8130  139.2011  143.1982 LP  0  0  0  0  0  0  0  0  0  0  0  0  # atno 17321 bound_to 7965
  139.7854  143.8295  152.3144 LP  0  0  0  0  0  0  0  0  0  0  0  0  # atno 17342 bound_to 10162
  139.8261  144.7274  150.9510 LP  0  0  0  0  0  0  0  0  0  0  0  0  # atno 17343 bound_to 10162
  157.2223  130.6487  149.5816 LP  0  0  0  0  0  0  0  0  0  0  0  0  # atno 17370 bound_to 10713
  155.9716  130.4625  150.6149 LP  0  0  0  0  0  0  0  0  0  0  0  0  # atno 17371 bound_to 10713
  140.1643  134.4689  155.7873 LP  0  0  0  0  0  0  0  0  0  0  0  0  # atno 17394 bound_to 11000
  141.2209  133.6914  156.7598 LP  0  0  0  0  0  0  0  0  0  0  0  0  # atno 17395 bound_to 11000

$$$$
