AV-unprocessed.smi:837|AV-procd|sdf|3903|dock1
  -GOLD-   22720 1363D 1   1.00000     0.00000
 Structure written by MMmdl.
 48 50  0  0  0  0  0  0  0  0  2 V2000
  150.2516  142.5735  156.0645 C   0  0  0  0  0  0  0  0  0  0  0  0
  151.3409  142.0644  157.0338 C   0  0  1  0  0  0  0  0  0  0  0  0
  151.2335  142.7787  158.3989 C   0  0  0  0  0  0  0  0  0  0  0  0
  152.3700  142.3728  159.3488 C   0  0  0  0  0  0  0  0  0  0  0  0
  152.4103  140.8522  159.5467 C   0  0  0  0  0  0  0  0  0  0  0  0
  152.5268  140.1178  158.1997 C   0  0  0  0  0  0  0  0  0  0  0  0
  151.4038  140.5111  157.2042 C   0  0  1  0  0  0  0  0  0  0  0  0
  150.1305  139.9621  157.6441 N   0  5  0  0  0  0  0  0  0  0  0  0
  149.6987  139.0644  156.7285 C   0  0  0  0  0  0  0  0  0  0  0  0
  148.6662  138.3970  156.7835 O   0  0  0  0  0  0  0  0  0  0  0  0
  150.5603  138.9712  155.6978 N   0  0  0  0  0  0  0  0  0  0  0  0
  150.3959  138.0722  154.5480 C   0  0  0  0  0  0  0  0  0  0  0  0
  150.6068  136.5973  154.9146 C   0  0  0  0  0  0  0  0  0  0  0  0
  151.6425  136.2280  155.4695 O   0  0  0  0  0  0  0  0  0  0  0  0
  149.6202  135.7564  154.5699 N   0  0  0  0  0  0  0  0  0  0  0  0
  149.6228  134.3178  154.8149 C   0  0  0  0  0  0  0  0  0  0  0  0
  149.3402  133.4999  153.5404 C   0  0  0  0  0  0  0  0  0  0  0  0
  147.9215  133.6645  153.0236 C   0  0  0  0  0  0  0  0  0  0  0  0
  146.9720  134.4268  153.7355 C   0  0  0  0  0  0  0  0  0  0  0  0
  145.6677  134.5404  153.2170 C   0  0  0  0  0  0  0  0  0  0  0  0
  145.3679  133.8855  152.0058 C   0  0  0  0  0  0  0  0  0  0  0  0
  146.2687  133.1533  151.3159 N   0  0  0  0  0  0  0  0  0  0  0  0
  147.5175  133.0503  151.8193 C   0  0  0  0  0  0  0  0  0  0  0  0
  151.6068  139.7838  155.8819 C   0  0  0  0  0  0  0  0  0  0  0  0
  152.5765  139.9395  155.1380 O   0  0  0  0  0  0  0  0  0  0  0  0
  149.2514  142.3236  156.4187 H   0  0  0  0  0  0  0  0  0  0  0  0
  150.3665  142.1542  155.0652 H   0  0  0  0  0  0  0  0  0  0  0  0
  150.2994  143.6577  155.9632 H   0  0  0  0  0  0  0  0  0  0  0  0
  152.2945  142.3735  156.6020 H   0  0  0  0  0  0  0  0  0  0  0  0
  151.2548  143.8595  158.2556 H   0  0  0  0  0  0  0  0  0  0  0  0
  150.2722  142.5519  158.8621 H   0  0  0  0  0  0  0  0  0  0  0  0
  153.3241  142.7155  158.9464 H   0  0  0  0  0  0  0  0  0  0  0  0
  152.2435  142.8685  160.3117 H   0  0  0  0  0  0  0  0  0  0  0  0
  153.2498  140.5838  160.1883 H   0  0  0  0  0  0  0  0  0  0  0  0
  151.5095  140.5267  160.0686 H   0  0  0  0  0  0  0  0  0  0  0  0
  153.4990  140.3529  157.7636 H   0  0  0  0  0  0  0  0  0  0  0  0
  152.5303  139.0398  158.3715 H   0  0  0  0  0  0  0  0  0  0  0  0
  149.4037  138.2097  154.1147 H   0  0  0  0  0  0  0  0  0  0  0  0
  151.1011  138.3322  153.7569 H   0  0  0  0  0  0  0  0  0  0  0  0
  148.8073  136.1413  154.1110 H   0  0  0  0  0  0  0  0  0  0  0  0
  150.5713  134.0127  155.2594 H   0  0  0  0  0  0  0  0  0  0  0  0
  148.8545  134.1098  155.5603 H   0  0  0  0  0  0  0  0  0  0  0  0
  150.0412  133.7849  152.7548 H   0  0  0  0  0  0  0  0  0  0  0  0
  149.5225  132.4426  153.7361 H   0  0  0  0  0  0  0  0  0  0  0  0
  147.2353  134.9119  154.6641 H   0  0  0  0  0  0  0  0  0  0  0  0
  144.9144  135.1144  153.7359 H   0  0  0  0  0  0  0  0  0  0  0  0
  144.3776  133.9503  151.5802 H   0  0  0  0  0  0  0  0  0  0  0  0
  148.2140  132.4559  151.2464 H   0  0  0  0  0  0  0  0  0  0  0  0
  1  2  1  0  0  0  0
  1 26  1  0  0  0  0
  1 27  1  0  0  0  0
  1 28  1  0  0  0  0
  2  7  1  0  0  0  0
  2  3  1  0  0  0  0
  2 29  1  0  0  0  0
  3  4  1  0  0  0  0
  3 30  1  0  0  0  0
  3 31  1  0  0  0  0
  4  5  1  0  0  0  0
  4 32  1  0  0  0  0
  4 33  1  0  0  0  0
  5  6  1  0  0  0  0
  5 34  1  0  0  0  0
  5 35  1  0  0  0  0
  6  7  1  0  0  0  0
  6 36  1  0  0  0  0
  6 37  1  0  0  0  0
  7 24  1  0  0  0  0
  7  8  1  0  0  0  0
  8  9  1  0  0  0  0
  9 10  2  0  0  0  0
  9 11  1  0  0  0  0
 11 12  1  0  0  0  0
 11 24  1  0  0  0  0
 12 13  1  0  0  0  0
 12 38  1  0  0  0  0
 12 39  1  0  0  0  0
 13 14  2  0  0  0  0
 13 15  1  0  0  0  0
 15 16  1  0  0  0  0
 15 40  1  0  0  0  0
 16 17  1  0  0  0  0
 16 41  1  0  0  0  0
 16 42  1  0  0  0  0
 17 18  1  0  0  0  0
 17 43  1  0  0  0  0
 17 44  1  0  0  0  0
 18 23  1  0  0  0  0
 18 19  2  0  0  0  0
 19 20  1  0  0  0  0
 19 45  1  0  0  0  0
 20 21  2  0  0  0  0
 20 46  1  0  0  0  0
 21 22  1  0  0  0  0
 21 47  1  0  0  0  0
 22 23  2  0  0  0  0
 23 48  1  0  0  0  0
 24 25  2  0  0  0  0
M  CHG  1   8  -1
M  END
> <s_m_source_file>
AV-unprocessed.smi

> <i_m_source_file_index>
837

> <i_lp_mmshare_version>
43012

> <i_f3d_flags>
0

> <s_epik_input>
W0NIMl0xW0NIMl1bQ0gyXVtDSDJdW0NAQEhdKFtDSDNdKVtDQEBdMTJbTkhdQyg9TylOKEMyPU8pW0NIMl1DKD1PKVtOSF1bQ0gyXVtDSDJdYzNbY0hdW2NIXVtjSF1uW2NIXTM=

> <s_epik_cmdline>
J2VwaWtfcHl0aG9uJywgJy1waCcsICc3LjAnLCAnLXRuJywgJzgnLCAnLW1hJywgJzIwMCcsICctbWV0YWxfYmluZGluZycsICctaW1hZScsICc8aW5maWxlLm1hZT4nLCAnLW9tYWUnLCAnPG91dGZpbGUubWFlPic=

> <r_lp_tautomer_probability>
1

> <r_epik_Ionization_Penalty>
6.03002

> <r_epik_Ionization_Penalty_Charging>
6.01728

> <r_epik_Ionization_Penalty_Neutral>
0.0127382

> <r_epik_State_Penalty>
6.02713

> <r_epik_Charging_Adjusted_Penalty>
12.0444

> <i_epik_Tot_Q>
-1

> <i_epik_Tot_abs_Q>
1

> <r_epik_Metal_State_Penalty>
1.99078

> <b_epik_Metal_Only>
1

> <s_lp_Force_Field>
OPLS_2005

> <r_lp_Energy>
20.5142

> <b_lp_Chiralities_Consistent>
1

> <s_lp_Variant>
AV-unprocessed.smi:837-12

> <Gold.Version>
5.8.1

> <Gold.Id.Protein>
6NUR|6NUR_protein|mol2

> <Gold.PLP.Fitness>
45.7328

> <Gold.PLP.PLP>
-35.7941

> <Gold.PLP.part.hbond>
-3.9491

> <Gold.PLP.part.metal>
0.0000

> <Gold.PLP.part.buried>
0.1396

> <Gold.PLP.part.nonpolar>
-32.0284

> <Gold.PLP.part.repulsive>
0.2562

> <Gold.PLP.ligand.clash>
0.0000

> <Gold.PLP.ligand.torsion>
0.2265

> <Gold.PLP.Chemscore.Hbond>
2.4431

> <Gold.PLP.Chemscore.CHOScore>
1.0000

> <Gold.PLP.Chemscore.Metal>
0.0000

> <Gold.Chemscore.Hbonds>
donor molecule, donor type, donor heavy atom, donor atom, acceptor molecule, acceptor atom, score
      L1  H    15    40       P1  7948  0.13
      P1  H  7989  7998       L1    25  0.49
      P1  H  7997  8009       L1    25  0.99
      P1  H 10752 10765       L1    14  1.00
      L1  C    23    48       P1 10747  0.95

> <Gold.PLP.Chemscore.Internal.Correction>
0.0622

> <Gold.Rescore>
     Score         DG    S(hbond)    S(metal)    S(lipo)     H(rot)  DE(clash)    DE(int)     intcor
     16.73     -18.67       2.11        0.00      92.02       1.81       1.67       0.27       ----

> <Gold.Chemscore.Fitness>
16.7290

> <Gold.Chemscore.DG>
-18.6727

> <Gold.Chemscore.ZeroCoef>
-5.4800

> <Gold.Chemscore.Hbond>
2.1130

> <Gold.Chemscore.Metal>
0.0000

> <Gold.Chemscore.Lipo>
92.0208

> <Gold.Chemscore.Internal_Hbond>
0.0000

> <Gold.Chemscore.DEClash>
1.6724

> <Gold.Chemscore.DEInternal>
0.2712

> <Gold.Chemscore.Rot>
1.8090

> <Gold.Chemscore.Internal.Correction>
   9.000000E+99

> <Gold.Chemscore.Hbonds>
donor molecule, donor type, donor heavy atom, donor atom, acceptor molecule, acceptor atom, score
      L1  H    15    40       P1  7948  0.13
      P1  H  7989  7998       L1    25  0.14
      P1  H  7997  8009       L1    25  0.86
      P1  H 10752 10765       L1    14  1.00

> <Gold.Chemscore.Hbond.Weighted>
-7.0573

> <Gold.Chemscore.Metal.Weighted>
-0.0000

> <Gold.Chemscore.Lipo.Weighted>
-10.7664

> <Gold.Chemscore.Internal_Hbond.Weighted>
0.0000

> <Gold.Chemscore.DEClash.Weighted>
1.6724

> <Gold.Chemscore.DEInternal.Weighted>
0.2712

> <Gold.Chemscore.Rot.Weighted>
4.6310

> <Gold.Chemscore.Internal.Correction.Weighted>
   9.000000E+99

> <Gold.Protein.RotatedTorsions>
[ 6907 6896 6895 6894 ] final  124.56 input  -60.11 | X-H torsion
[ 7974 7965 7964 7962 ] final  -36.38 input  175.53 | X-H torsion
[ 8008 7997 7996 7995 ] final -147.07 input   59.86 | X-H torsion
[ 10167 10162 10161 10158 ] final  -65.44 input  -65.29 | X-H torsion
[ 10718 10713 10712 10709 ] final  122.23 input   66.30 | X-H torsion
[ 10763 10752 10751 10750 ] final -170.56 input  -60.55 | X-H torsion
[ 11005 11000 10999 10996 ] final   97.11 input  -57.11 | X-H torsion

> <Gold.Protein.ActiveResidues>
 VAL166  LYS551  ARG553  GLY616  TRP617  ASP618  TYR619  PRO620  LYS621  CYS622 
 ASP623  PHE694  ASN695  SER759  ASP760  ASP761  ALA762  ILE779  LEU786  VAL792 
 PHE793  MET794  SER795  GLU796  ALA797  LYS798  CYS799  TRP800  GLU811  SER814 

> <Gold.Protein.RotatedAtoms>
  152.4067  133.6900  159.6362 H   0  0  0  0  0  0  0  0  0  0  0  0  # atno 6907 bound_to 6896
  150.7951  133.8696  159.3263 H   0  0  0  0  0  0  0  0  0  0  0  0  # atno 6908 bound_to 6896
  151.6449  135.1010  160.0200 H   0  0  0  0  0  0  0  0  0  0  0  0  # atno 6909 bound_to 6896
  146.0667  140.6271  142.8972 H   0  0  0  0  0  0  0  0  0  0  0  0  # atno 7974 bound_to 7965
  155.5696  140.0633  157.2810 H   0  0  0  0  0  0  0  0  0  0  0  0  # atno 8008 bound_to 7997
  154.4365  140.1871  156.0911 H   0  0  0  0  0  0  0  0  0  0  0  0  # atno 8009 bound_to 7997
  156.0386  140.3298  155.7223 H   0  0  0  0  0  0  0  0  0  0  0  0  # atno 8010 bound_to 7997
  140.5729  143.2319  151.6501 H   0  0  0  0  0  0  0  0  0  0  0  0  # atno 10167 bound_to 10162
  157.5758  131.1079  150.8282 H   0  0  0  0  0  0  0  0  0  0  0  0  # atno 10718 bound_to 10713
  154.6401  135.2897  155.0113 H   0  0  0  0  0  0  0  0  0  0  0  0  # atno 10763 bound_to 10752
  154.1243  135.6543  153.4913 H   0  0  0  0  0  0  0  0  0  0  0  0  # atno 10764 bound_to 10752
  153.0322  135.5295  154.7265 H   0  0  0  0  0  0  0  0  0  0  0  0  # atno 10765 bound_to 10752
  139.8777  134.8985  156.4259 H   0  0  0  0  0  0  0  0  0  0  0  0  # atno 11005 bound_to 11000
  144.7206  140.4361  143.7011 LP  0  0  0  0  0  0  0  0  0  0  0  0  # atno 17320 bound_to 7965
  145.6465  139.1558  143.2886 LP  0  0  0  0  0  0  0  0  0  0  0  0  # atno 17321 bound_to 7965
  139.5127  144.3467  152.0690 LP  0  0  0  0  0  0  0  0  0  0  0  0  # atno 17342 bound_to 10162
  140.2606  144.4071  150.6187 LP  0  0  0  0  0  0  0  0  0  0  0  0  # atno 17343 bound_to 10162
  156.8741  130.5156  149.5295 LP  0  0  0  0  0  0  0  0  0  0  0  0  # atno 17370 bound_to 10713
  156.0803  130.5815  150.9550 LP  0  0  0  0  0  0  0  0  0  0  0  0  # atno 17371 bound_to 10713
  140.9101  133.7718  155.9781 LP  0  0  0  0  0  0  0  0  0  0  0  0  # atno 17394 bound_to 11000
  140.8556  134.2902  157.5257 LP  0  0  0  0  0  0  0  0  0  0  0  0  # atno 17395 bound_to 11000

$$$$
