AV-unprocessed.smi:2733|AV-procd|sdf|10536|dock3
  -GOLD-   2272014583D 1   1.00000     0.00000
 Structure written by MMmdl.
 44 45  0  0  0  0  0  0  0  0  1 V2000
  145.8280  135.9477  150.9753 C   0  0  0  0  0  0  0  0  0  0  0  0
  145.3608  136.8866  151.8146 C   0  0  0  0  0  0  0  0  0  0  0  0
  144.1526  136.6406  152.6996 C   0  0  0  0  0  0  0  0  0  0  0  0
  146.0191  138.2528  151.9387 C   0  0  0  0  0  0  0  0  0  0  0  0
  147.3984  138.1651  152.4068 N   0  0  0  0  0  0  0  0  0  0  0  0
  147.8820  138.7941  153.4873 C   0  0  0  0  0  0  0  0  0  0  0  0
  147.2035  139.5314  154.2024 O   0  0  0  0  0  0  0  0  0  0  0  0
  149.1771  138.4946  153.6856 N   0  0  0  0  0  0  0  0  0  0  0  0
  150.0376  138.9409  154.7246 C   0  0  0  0  0  0  0  0  0  0  0  0
  151.4502  138.9512  154.6396 C   0  0  0  0  0  0  0  0  0  0  0  0
  152.1942  139.4061  155.7444 C   0  0  0  0  0  0  0  0  0  0  0  0
  151.5051  139.8378  156.8996 C   0  0  0  0  0  0  0  0  0  0  0  0
  152.2624  140.3173  158.1034 C   0  0  0  0  0  0  0  0  0  0  0  0
  153.1953  139.6307  158.5222 O   0  0  0  0  0  0  0  0  0  0  0  0
  151.8893  141.4907  158.6749 N   0  0  0  0  0  0  0  0  0  0  0  0
  150.6989  142.2842  158.3296 C   0  0  0  0  0  0  0  0  0  0  0  0
  151.1416  143.6483  157.7693 C   0  0  0  0  0  0  0  0  0  0  0  0
  152.0560  144.3813  158.7673 C   0  0  0  0  0  0  0  0  0  0  0  0
  153.2030  143.4764  159.2531 C   0  0  0  0  0  0  0  0  0  0  0  0
  152.6665  142.1216  159.7505 C   0  0  0  0  0  0  0  0  0  0  0  0
  150.1572  139.8022  156.9971 N   0  0  0  0  0  0  0  0  0  0  0  0
  149.4498  139.3642  155.9345 C   0  0  0  0  0  0  0  0  0  0  0  0
  145.3553  134.9797  150.8964 H   0  0  0  0  0  0  0  0  0  0  0  0
  146.6904  136.1336  150.3520 H   0  0  0  0  0  0  0  0  0  0  0  0
  144.4177  136.7808  153.7477 H   0  0  0  0  0  0  0  0  0  0  0  0
  143.7720  135.6258  152.5795 H   0  0  0  0  0  0  0  0  0  0  0  0
  143.3467  137.3320  152.4527 H   0  0  0  0  0  0  0  0  0  0  0  0
  146.0175  138.7313  150.9592 H   0  0  0  0  0  0  0  0  0  0  0  0
  145.4411  138.8998  152.6012 H   0  0  0  0  0  0  0  0  0  0  0  0
  148.0238  137.5764  151.8763 H   0  0  0  0  0  0  0  0  0  0  0  0
  149.5758  137.8119  153.0577 H   0  0  0  0  0  0  0  0  0  0  0  0
  151.9763  138.6075  153.7626 H   0  0  0  0  0  0  0  0  0  0  0  0
  153.2736  139.4165  155.7045 H   0  0  0  0  0  0  0  0  0  0  0  0
  150.0303  141.7886  157.6266 H   0  0  0  0  0  0  0  0  0  0  0  0
  150.1023  142.4334  159.2305 H   0  0  0  0  0  0  0  0  0  0  0  0
  151.6712  143.5056  156.8271 H   0  0  0  0  0  0  0  0  0  0  0  0
  150.2691  144.2620  157.5432 H   0  0  0  0  0  0  0  0  0  0  0  0
  152.4563  145.2894  158.3154 H   0  0  0  0  0  0  0  0  0  0  0  0
  151.4644  144.6989  159.6269 H   0  0  0  0  0  0  0  0  0  0  0  0
  153.9077  143.3103  158.4371 H   0  0  0  0  0  0  0  0  0  0  0  0
  153.7602  143.9744  160.0470 H   0  0  0  0  0  0  0  0  0  0  0  0
  152.0266  142.2660  160.6222 H   0  0  0  0  0  0  0  0  0  0  0  0
  153.4998  141.5057  160.0910 H   0  0  0  0  0  0  0  0  0  0  0  0
  148.3761  139.3573  156.0542 H   0  0  0  0  0  0  0  0  0  0  0  0
  1  2  2  0  0  0  0
  1 23  1  0  0  0  0
  1 24  1  0  0  0  0
  2  3  1  0  0  0  0
  2  4  1  0  0  0  0
  3 25  1  0  0  0  0
  3 26  1  0  0  0  0
  3 27  1  0  0  0  0
  4  5  1  0  0  0  0
  4 28  1  0  0  0  0
  4 29  1  0  0  0  0
  5  6  1  0  0  0  0
  5 30  1  0  0  0  0
  6  7  2  0  0  0  0
  6  8  1  0  0  0  0
  8  9  1  0  0  0  0
  8 31  1  0  0  0  0
  9 22  1  0  0  0  0
  9 10  2  0  0  0  0
 10 11  1  0  0  0  0
 10 32  1  0  0  0  0
 11 12  2  0  0  0  0
 11 33  1  0  0  0  0
 12 13  1  0  0  0  0
 12 21  1  0  0  0  0
 13 14  2  0  0  0  0
 13 15  1  0  0  0  0
 15 20  1  0  0  0  0
 15 16  1  0  0  0  0
 16 17  1  0  0  0  0
 16 34  1  0  0  0  0
 16 35  1  0  0  0  0
 17 18  1  0  0  0  0
 17 36  1  0  0  0  0
 17 37  1  0  0  0  0
 18 19  1  0  0  0  0
 18 38  1  0  0  0  0
 18 39  1  0  0  0  0
 19 20  1  0  0  0  0
 19 40  1  0  0  0  0
 19 41  1  0  0  0  0
 20 42  1  0  0  0  0
 20 43  1  0  0  0  0
 21 22  2  0  0  0  0
 22 44  1  0  0  0  0
M  END
> <s_m_source_file>
AV-unprocessed.smi

> <i_m_source_file_index>
2733

> <i_lp_mmshare_version>
43012

> <i_f3d_flags>
0

> <s_epik_input>
W0NIMl09QyhbQ0gzXSlbQ0gyXVtOSF1DKD1PKVtOSF1jMVtjSF1bY0hdYyhuW2NIXTEpQyg9TylOMltDSDJdW0NIMl1bQ0gyXVtDSDJdW0NIMl0y

> <s_epik_cmdline>
J2VwaWtfcHl0aG9uJywgJy1waCcsICc3LjAnLCAnLXRuJywgJzgnLCAnLW1hJywgJzIwMCcsICctbWV0YWxfYmluZGluZycsICctaW1hZScsICc8aW5maWxlLm1hZT4nLCAnLW9tYWUnLCAnPG91dGZpbGUubWFlPic=

> <r_lp_tautomer_probability>
1

> <r_epik_Ionization_Penalty>
4.66871e-05

> <r_epik_Ionization_Penalty_Charging>
0

> <r_epik_Ionization_Penalty_Neutral>
4.66871e-05

> <r_epik_State_Penalty>
-0

> <r_epik_Charging_Adjusted_Penalty>
0

> <i_epik_Tot_Q>
0

> <i_epik_Tot_abs_Q>
0

> <r_epik_Metal_State_Penalty>
-0

> <b_epik_Metal_Only>
0

> <s_lp_Force_Field>
OPLS_2005

> <r_lp_Energy>
34.8173

> <b_lp_Chiralities_Consistent>
1

> <s_lp_Variant>
AV-unprocessed.smi:2733-1

> <Gold.Version>
5.8.1

> <Gold.Id.Protein>
6NUR|6NUR_protein|mol2

> <Gold.PLP.Fitness>
50.4819

> <Gold.PLP.PLP>
-42.8974

> <Gold.PLP.part.hbond>
-4.5351

> <Gold.PLP.part.metal>
0.0000

> <Gold.PLP.part.buried>
0.2576

> <Gold.PLP.part.nonpolar>
-40.1325

> <Gold.PLP.part.repulsive>
0.2646

> <Gold.PLP.ligand.clash>
0.0000

> <Gold.PLP.ligand.torsion>
1.0184

> <Gold.PLP.Chemscore.Hbond>
2.8089

> <Gold.PLP.Chemscore.CHOScore>
0.0000

> <Gold.PLP.Chemscore.Metal>
0.0000

> <Gold.Chemscore.Hbonds>
donor molecule, donor type, donor heavy atom, donor atom, acceptor molecule, acceptor atom, score
      L1  H     5    30       P1  7948  0.98
      L1  H     8    31       P1  7948  0.80
      P1  H  7997  8009       L1    14  0.88

> <Gold.PLP.Chemscore.Internal.Correction>
1.1947

> <Gold.Rescore>
     Score         DG    S(hbond)    S(metal)    S(lipo)     H(rot)  DE(clash)    DE(int)     intcor
     20.80     -24.45       2.84        0.00     106.15       1.15       0.03       3.62       ----

> <Gold.Chemscore.Fitness>
20.8013

> <Gold.Chemscore.DG>
-24.4451

> <Gold.Chemscore.ZeroCoef>
-5.4800

> <Gold.Chemscore.Hbond>
2.8375

> <Gold.Chemscore.Metal>
0.0000

> <Gold.Chemscore.Lipo>
106.1504

> <Gold.Chemscore.Internal_Hbond>
0.0000

> <Gold.Chemscore.DEClash>
0.0284

> <Gold.Chemscore.DEInternal>
3.6154

> <Gold.Chemscore.Rot>
1.1452

> <Gold.Chemscore.Internal.Correction>
   9.000000E+99

> <Gold.Chemscore.Hbonds>
donor molecule, donor type, donor heavy atom, donor atom, acceptor molecule, acceptor atom, score
      L1  H     5    30       P1  7948  0.92
      L1  H     8    31       P1  7948  0.62
      P1  H  7997  8009       L1    14  0.26

> <Gold.Chemscore.Hbond.Weighted>
-9.4772

> <Gold.Chemscore.Metal.Weighted>
-0.0000

> <Gold.Chemscore.Lipo.Weighted>
-12.4196

> <Gold.Chemscore.Internal_Hbond.Weighted>
0.0000

> <Gold.Chemscore.DEClash.Weighted>
0.0284

> <Gold.Chemscore.DEInternal.Weighted>
3.6154

> <Gold.Chemscore.Rot.Weighted>
2.9317

> <Gold.Chemscore.Internal.Correction.Weighted>
   9.000000E+99

> <Gold.Protein.RotatedTorsions>
[ 6907 6896 6895 6894 ] final   44.53 input  -60.11 | X-H torsion
[ 7974 7965 7964 7962 ] final  153.73 input  175.53 | X-H torsion
[ 8008 7997 7996 7995 ] final  148.75 input   59.86 | X-H torsion
[ 10167 10162 10161 10158 ] final  -16.00 input  -65.29 | X-H torsion
[ 10718 10713 10712 10709 ] final   97.29 input   66.30 | X-H torsion
[ 10763 10752 10751 10750 ] final -178.20 input  -60.55 | X-H torsion
[ 11005 11000 10999 10996 ] final   56.08 input  -57.11 | X-H torsion

> <Gold.Protein.ActiveResidues>
 VAL166  LYS551  ARG553  GLY616  TRP617  ASP618  TYR619  PRO620  LYS621  CYS622 
 ASP623  PHE694  ASN695  SER759  ASP760  ASP761  ALA762  ILE779  LEU786  VAL792 
 PHE793  MET794  SER795  GLU796  ALA797  LYS798  CYS799  TRP800  GLU811  SER814 

> <Gold.Protein.RotatedAtoms>
  152.2337  134.8297  160.0469 H   0  0  0  0  0  0  0  0  0  0  0  0  # atno 6907 bound_to 6896
  151.9037  133.3539  159.3847 H   0  0  0  0  0  0  0  0  0  0  0  0  # atno 6908 bound_to 6896
  150.7033  134.4728  159.5477 H   0  0  0  0  0  0  0  0  0  0  0  0  # atno 6909 bound_to 6896
  144.8135  139.6839  143.6131 H   0  0  0  0  0  0  0  0  0  0  0  0  # atno 7974 bound_to 7965
  156.2780  140.2120  156.5748 H   0  0  0  0  0  0  0  0  0  0  0  0  # atno 8008 bound_to 7997
  154.7106  140.0512  157.0570 H   0  0  0  0  0  0  0  0  0  0  0  0  # atno 8009 bound_to 7997
  155.0610  140.3166  155.4663 H   0  0  0  0  0  0  0  0  0  0  0  0  # atno 8010 bound_to 7997
  140.7227  143.5160  150.9691 H   0  0  0  0  0  0  0  0  0  0  0  0  # atno 10167 bound_to 10162
  157.6914  131.0605  150.4622 H   0  0  0  0  0  0  0  0  0  0  0  0  # atno 10718 bound_to 10713
  154.5507  135.2812  155.1011 H   0  0  0  0  0  0  0  0  0  0  0  0  # atno 10763 bound_to 10752
  154.2458  135.6348  153.5226 H   0  0  0  0  0  0  0  0  0  0  0  0  # atno 10764 bound_to 10752
  153.0002  135.5571  154.6072 H   0  0  0  0  0  0  0  0  0  0  0  0  # atno 10765 bound_to 10752
  140.0557  134.5673  155.9210 H   0  0  0  0  0  0  0  0  0  0  0  0  # atno 11005 bound_to 11000
  146.2436  139.6052  142.9475 LP  0  0  0  0  0  0  0  0  0  0  0  0  # atno 17320 bound_to 7965
  145.5268  141.0429  143.2405 LP  0  0  0  0  0  0  0  0  0  0  0  0  # atno 17321 bound_to 7965
  139.8876  143.6994  152.3149 LP  0  0  0  0  0  0  0  0  0  0  0  0  # atno 17342 bound_to 10162
  139.7298  144.7585  151.0820 LP  0  0  0  0  0  0  0  0  0  0  0  0  # atno 17343 bound_to 10162
  156.4965  130.4107  149.6377 LP  0  0  0  0  0  0  0  0  0  0  0  0  # atno 17370 bound_to 10713
  156.3368  130.7361  151.2299 LP  0  0  0  0  0  0  0  0  0  0  0  0  # atno 17371 bound_to 10713
  141.1951  133.6585  156.5626 LP  0  0  0  0  0  0  0  0  0  0  0  0  # atno 17394 bound_to 11000
  140.3848  134.7492  157.4684 LP  0  0  0  0  0  0  0  0  0  0  0  0  # atno 17395 bound_to 11000

$$$$
