AV-unprocessed.smi:2026|AV-procd|sdf|8208|dock1
  -GOLD-   2272010473D 1   1.00000     0.00000
 Structure written by MMmdl.
 46 48  0  0  0  0  0  0  0  0  3 V2000
  152.4734  143.7121  161.1235 C   0  0  0  0  0  0  0  0  0  0  0  0
  152.1527  142.8598  159.9074 C   0  0  0  0  0  0  0  0  0  0  0  0
  151.2700  143.3786  158.9338 C   0  0  0  0  0  0  0  0  0  0  0  0
  150.9927  142.5734  157.8354 C   0  0  0  0  0  0  0  0  0  0  0  0
  150.1776  142.7954  156.7233 N   0  3  0  0  0  0  0  0  0  0  0  0
  150.2196  141.7076  155.9055 C   0  0  0  0  0  0  0  0  0  0  0  0
  151.0477  140.7935  156.4795 N   0  0  0  0  0  0  0  0  0  0  0  0
  151.4315  139.4562  156.0050 C   0  0  0  0  0  0  0  0  0  0  0  0
  150.4576  138.8980  154.9496 C   0  0  1  0  0  0  0  0  0  0  0  0
  150.7824  139.4585  153.6924 O   0  0  0  0  0  0  0  0  0  0  0  0
  150.5505  137.3613  154.8501 C   0  0  0  0  0  0  0  0  0  0  0  0
  150.1048  136.7034  156.0830 N   0  0  0  0  0  0  0  0  0  0  0  0
  150.8102  135.7861  156.7708 C   0  0  0  0  0  0  0  0  0  0  0  0
  151.9279  135.4137  156.4151 O   0  0  0  0  0  0  0  0  0  0  0  0
  150.1244  135.3624  157.8589 N   0  5  0  0  0  0  0  0  0  0  0  0
  148.8468  136.0458  157.9035 C   0  0  0  0  0  0  0  0  0  0  0  0
  147.6962  135.0266  157.7995 C   0  0  0  0  0  0  0  0  0  0  0  0
  148.7416  136.8921  159.1865 C   0  0  0  0  0  0  0  0  0  0  0  0
  148.9220  136.9232  156.6669 C   0  0  0  0  0  0  0  0  0  0  0  0
  148.0292  137.6852  156.2923 O   0  0  0  0  0  0  0  0  0  0  0  0
  151.5581  141.2919  157.6845 C   0  0  0  0  0  0  0  0  0  0  0  0
  152.4349  140.7685  158.6326 C   0  0  0  0  0  0  0  0  0  0  0  0
  152.7292  141.5720  159.7576 C   0  0  0  0  0  0  0  0  0  0  0  0
  153.6809  141.0265  160.8087 C   0  0  0  0  0  0  0  0  0  0  0  0
  151.9642  144.6754  161.0816 H   0  0  0  0  0  0  0  0  0  0  0  0
  153.5447  143.9047  161.1861 H   0  0  0  0  0  0  0  0  0  0  0  0
  152.1575  143.2080  162.0370 H   0  0  0  0  0  0  0  0  0  0  0  0
  150.8295  144.3593  159.0398 H   0  0  0  0  0  0  0  0  0  0  0  0
  149.6923  141.5899  154.9698 H   0  0  0  0  0  0  0  0  0  0  0  0
  152.4554  139.4772  155.6317 H   0  0  0  0  0  0  0  0  0  0  0  0
  151.4406  138.8035  156.8789 H   0  0  0  0  0  0  0  0  0  0  0  0
  149.4437  139.2009  155.2154 H   0  0  0  0  0  0  0  0  0  0  0  0
  149.9936  139.5141  153.1752 H   0  0  0  0  0  0  0  0  0  0  0  0
  150.0056  136.9915  153.9797 H   0  0  0  0  0  0  0  0  0  0  0  0
  151.5881  137.0705  154.6766 H   0  0  0  0  0  0  0  0  0  0  0  0
  146.7250  135.5207  157.8487 H   0  0  0  0  0  0  0  0  0  0  0  0
  147.7363  134.3032  158.6148 H   0  0  0  0  0  0  0  0  0  0  0  0
  147.7335  134.4672  156.8632 H   0  0  0  0  0  0  0  0  0  0  0  0
  147.7834  137.4100  159.2402 H   0  0  0  0  0  0  0  0  0  0  0  0
  149.5266  137.6483  159.2390 H   0  0  0  0  0  0  0  0  0  0  0  0
  148.8265  136.2693  160.0777 H   0  0  0  0  0  0  0  0  0  0  0  0
  152.8790  139.7909  158.5184 H   0  0  0  0  0  0  0  0  0  0  0  0
  154.0262  140.0244  160.5530 H   0  0  0  0  0  0  0  0  0  0  0  0
  153.1887  140.9712  161.7799 H   0  0  0  0  0  0  0  0  0  0  0  0
  154.5578  141.6678  160.8997 H   0  0  0  0  0  0  0  0  0  0  0  0
  149.6335  143.6273  156.5331 H   0  0  0  0  0  0  0  0  0  0  0  0
  1  2  1  0  0  0  0
  1 25  1  0  0  0  0
  1 26  1  0  0  0  0
  1 27  1  0  0  0  0
  2 23  1  0  0  0  0
  2  3  2  0  0  0  0
  3  4  1  0  0  0  0
  3 28  1  0  0  0  0
  4 21  2  0  0  0  0
  4  5  1  0  0  0  0
  5  6  2  0  0  0  0
  5 46  1  0  0  0  0
  6  7  1  0  0  0  0
  6 29  1  0  0  0  0
  7  8  1  0  0  0  0
  7 21  1  0  0  0  0
  8  9  1  0  0  0  0
  8 30  1  0  0  0  0
  8 31  1  0  0  0  0
  9 10  1  0  0  0  0
  9 11  1  0  0  0  0
  9 32  1  0  0  0  0
 10 33  1  0  0  0  0
 11 12  1  0  0  0  0
 11 34  1  0  0  0  0
 11 35  1  0  0  0  0
 12 19  1  0  0  0  0
 12 13  1  0  0  0  0
 13 14  2  0  0  0  0
 13 15  1  0  0  0  0
 15 16  1  0  0  0  0
 16 17  1  0  0  0  0
 16 18  1  0  0  0  0
 16 19  1  0  0  0  0
 17 36  1  0  0  0  0
 17 37  1  0  0  0  0
 17 38  1  0  0  0  0
 18 39  1  0  0  0  0
 18 40  1  0  0  0  0
 18 41  1  0  0  0  0
 19 20  2  0  0  0  0
 21 22  1  0  0  0  0
 22 23  2  0  0  0  0
 22 42  1  0  0  0  0
 23 24  1  0  0  0  0
 24 43  1  0  0  0  0
 24 44  1  0  0  0  0
 24 45  1  0  0  0  0
M  CHG  1   5   1
M  CHG  1  15  -1
M  END
> <s_m_source_file>
AV-unprocessed.smi

> <i_m_source_file_index>
2026

> <i_lp_mmshare_version>
43012

> <i_f3d_flags>
0

> <s_epik_input>
W0NIM11jKFtjSF0xKWMoW0NIM10pW2NIXWMoYzEyKW4oW2NIXW4yKVtDSDJdW0NASF0oW09IXSlbQ0gyXU4oQzM9TylDKD1PKVtOSF1DMyhbQ0gzXSlbQ0gzXQ==

> <s_epik_cmdline>
J2VwaWtfcHl0aG9uJywgJy1waCcsICc3LjAnLCAnLXRuJywgJzgnLCAnLW1hJywgJzIwMCcsICctbWV0YWxfYmluZGluZycsICctaW1hZScsICc8aW5maWxlLm1hZT4nLCAnLW9tYWUnLCAnPG91dGZpbGUubWFlPic=

> <r_lp_tautomer_probability>
1

> <r_epik_Ionization_Penalty>
6.70784

> <r_epik_Ionization_Penalty_Charging>
6.70784

> <r_epik_Ionization_Penalty_Neutral>
1.13852e-06

> <r_epik_State_Penalty>
6.78089

> <r_epik_Charging_Adjusted_Penalty>
13.4887

> <i_epik_Tot_Q>
0

> <i_epik_Tot_abs_Q>
2

> <r_epik_Metal_State_Penalty>
2.84685

> <b_epik_Metal_Only>
1

> <s_lp_Force_Field>
OPLS_2005

> <r_lp_Energy>
23.6038

> <b_lp_Chiralities_Consistent>
1

> <s_lp_Variant>
AV-unprocessed.smi:2026-8

> <Gold.Version>
5.8.1

> <Gold.Id.Protein>
6NUR|6NUR_protein|mol2

> <Gold.PLP.Fitness>
57.9789

> <Gold.PLP.PLP>
-40.7041

> <Gold.PLP.part.hbond>
-5.0000

> <Gold.PLP.part.metal>
0.0000

> <Gold.PLP.part.buried>
-2.5067

> <Gold.PLP.part.nonpolar>
-33.3783

> <Gold.PLP.part.repulsive>
0.0542

> <Gold.PLP.ligand.clash>
0.0000

> <Gold.PLP.ligand.torsion>
0.5276

> <Gold.PLP.Chemscore.Hbond>
6.1037

> <Gold.PLP.Chemscore.CHOScore>
0.0000

> <Gold.PLP.Chemscore.Metal>
0.0000

> <Gold.Chemscore.Hbonds>
donor molecule, donor type, donor heavy atom, donor atom, acceptor molecule, acceptor atom, score
      L1  H     5    46       P1  8028  2.00
      L1  H    10    33       P1  7957  0.52
      P1  H  6896  6908       L1    15  1.57
      P1  H  7989  7998       L1    10  0.98
      P1  H 10752 10763       L1    14  1.00

> <Gold.PLP.Chemscore.Internal.Correction>
0.0188

> <Gold.Rescore>
     Score         DG    S(hbond)    S(metal)    S(lipo)     H(rot)  DE(clash)    DE(int)     intcor
     22.81     -23.87       3.88        0.00      99.67       2.44       0.55       0.51       ----

> <Gold.Chemscore.Fitness>
22.8145

> <Gold.Chemscore.DG>
-23.8726

> <Gold.Chemscore.ZeroCoef>
-5.4800

> <Gold.Chemscore.Hbond>
3.8822

> <Gold.Chemscore.Metal>
0.0000

> <Gold.Chemscore.Lipo>
99.6709

> <Gold.Chemscore.Internal_Hbond>
0.0000

> <Gold.Chemscore.DEClash>
0.5477

> <Gold.Chemscore.DEInternal>
0.5105

> <Gold.Chemscore.Rot>
2.4357

> <Gold.Chemscore.Internal.Correction>
   9.000000E+99

> <Gold.Chemscore.Hbonds>
donor molecule, donor type, donor heavy atom, donor atom, acceptor molecule, acceptor atom, score
      L1  H     5    46       P1  8028  0.97
      L1  H    10    33       P1  7957  0.52
      P1  H  6896  6908       L1    15  0.73
      P1  H  7989  7998       L1    10  0.61
      P1  H 10752 10763       L1    14  1.00

> <Gold.Chemscore.Hbond.Weighted>
-12.9665

> <Gold.Chemscore.Metal.Weighted>
-0.0000

> <Gold.Chemscore.Lipo.Weighted>
-11.6615

> <Gold.Chemscore.Internal_Hbond.Weighted>
0.0000

> <Gold.Chemscore.DEClash.Weighted>
0.5477

> <Gold.Chemscore.DEInternal.Weighted>
0.5105

> <Gold.Chemscore.Rot.Weighted>
6.2353

> <Gold.Chemscore.Internal.Correction.Weighted>
   9.000000E+99

> <Gold.Protein.RotatedTorsions>
[ 6907 6896 6895 6894 ] final  165.16 input  -60.11 | X-H torsion
[ 7974 7965 7964 7962 ] final  129.58 input  175.53 | X-H torsion
[ 8008 7997 7996 7995 ] final  119.58 input   59.86 | X-H torsion
[ 10167 10162 10161 10158 ] final   75.88 input  -65.29 | X-H torsion
[ 10718 10713 10712 10709 ] final   51.40 input   66.30 | X-H torsion
[ 10763 10752 10751 10750 ] final   86.38 input  -60.55 | X-H torsion
[ 11005 11000 10999 10996 ] final  -81.67 input  -57.11 | X-H torsion

> <Gold.Protein.ActiveResidues>
 VAL166  LYS551  ARG553  GLY616  TRP617  ASP618  TYR619  PRO620  LYS621  CYS622 
 ASP623  PHE694  ASN695  SER759  ASP760  ASP761  ALA762  ILE779  LEU786  VAL792 
 PHE793  MET794  SER795  GLU796  ALA797  LYS798  CYS799  TRP800  GLU811  SER814 

> <Gold.Protein.RotatedAtoms>
  151.8986  133.3533  159.3822 H   0  0  0  0  0  0  0  0  0  0  0  0  # atno 6907 bound_to 6896
  150.7085  134.4851  159.5498 H   0  0  0  0  0  0  0  0  0  0  0  0  # atno 6908 bound_to 6896
  152.2435  134.8205  160.0507 H   0  0  0  0  0  0  0  0  0  0  0  0  # atno 6909 bound_to 6896
  145.0271  139.4079  143.5168 H   0  0  0  0  0  0  0  0  0  0  0  0  # atno 7974 bound_to 7965
  156.2602  140.2850  156.1014 H   0  0  0  0  0  0  0  0  0  0  0  0  # atno 8008 bound_to 7997
  155.1356  140.0394  157.2803 H   0  0  0  0  0  0  0  0  0  0  0  0  # atno 8009 bound_to 7997
  154.6567  140.2557  155.7159 H   0  0  0  0  0  0  0  0  0  0  0  0  # atno 8010 bound_to 7997
  139.9982  144.5706  150.7759 H   0  0  0  0  0  0  0  0  0  0  0  0  # atno 10167 bound_to 10162
  157.4977  130.8417  149.8278 H   0  0  0  0  0  0  0  0  0  0  0  0  # atno 10718 bound_to 10713
  153.1565  135.4582  154.9711 H   0  0  0  0  0  0  0  0  0  0  0  0  # atno 10763 bound_to 10752
  154.7865  135.3206  154.7877 H   0  0  0  0  0  0  0  0  0  0  0  0  # atno 10764 bound_to 10752
  153.8373  135.6933  153.4861 H   0  0  0  0  0  0  0  0  0  0  0  0  # atno 10765 bound_to 10752
  141.1666  133.7208  156.8458 H   0  0  0  0  0  0  0  0  0  0  0  0  # atno 11005 bound_to 11000
  146.3493  139.9800  142.8697 LP  0  0  0  0  0  0  0  0  0  0  0  0  # atno 17320 bound_to 7965
  145.1819  140.9771  143.4261 LP  0  0  0  0  0  0  0  0  0  0  0  0  # atno 17321 bound_to 7965
  140.7429  143.2838  151.3521 LP  0  0  0  0  0  0  0  0  0  0  0  0  # atno 17342 bound_to 10162
  139.6290  144.0757  152.2460 LP  0  0  0  0  0  0  0  0  0  0  0  0  # atno 17343 bound_to 10162
  156.0210  130.3795  150.1962 LP  0  0  0  0  0  0  0  0  0  0  0  0  # atno 17370 bound_to 10713
  157.0151  130.9963  151.3355 LP  0  0  0  0  0  0  0  0  0  0  0  0  # atno 17371 bound_to 10713
  140.1951  134.8938  157.3105 LP  0  0  0  0  0  0  0  0  0  0  0  0  # atno 17394 bound_to 11000
  140.2248  134.3980  155.7549 LP  0  0  0  0  0  0  0  0  0  0  0  0  # atno 17395 bound_to 11000

$$$$
