#       Name:                AV-unprocessed.smi:101
#       Creating user name   scv26
#       Creation time:       Thu Mar 26 17:46:07 2020


#       File generated by GOLD software.
#

@<TRIPOS>MOLECULE
AV-unprocessed.smi:101
    56    58     1
SMALL
NO_CHARGES


@<TRIPOS>ATOM
      1 ****        -3.7119   2.9164   3.5846 C.3            1 S1                 0.0000
      2 ****        -3.5795   2.5409   2.1189 C.2            1 S1                 0.0000
      3 ****        -2.4884   1.9094   1.6319 C.2            1 S1                 0.0000
      4 ****        -2.3708   1.5668   0.2947 N.am           1 S1                 0.0000
      5 ****        -1.1427   0.8579  -0.2477 C.3            1 S1                 0.0000
      6 ****        -0.1130   0.8756   0.6949 O.3            1 S1                 0.0000
      7 ****        -0.0461  -0.3566   1.4076 C.3            1 S1                 0.0000
      8 ****         1.4223  -0.7912   1.5195 C.3            1 S1                 0.0000
      9 ****         1.9843  -1.0229   0.2360 O.3            1 S1                 0.0000
     10 ****         3.2889  -1.3461   0.1261 C.2            1 S1                 0.0000
     11 ****         4.0417  -1.4761   1.0938 O.2            1 S1                 0.0000
     12 ****         3.7315  -1.5304  -1.2865 C.ar           1 S1                 0.0000
     13 ****         5.0743  -1.8882  -1.5511 C.ar           1 S1                 0.0000
     14 ****         5.5219  -2.0691  -2.8744 C.ar           1 S1                 0.0000
     15 ****         4.6320  -1.8938  -3.9500 C.ar           1 S1                 0.0000
     16 ****         3.2942  -1.5364  -3.7003 C.ar           1 S1                 0.0000
     17 ****         2.8459  -1.3548  -2.3775 C.ar           1 S1                 0.0000
     18 ****        -0.9587  -1.3585   0.6813 C.3            1 S1                 0.0000
     19 ****        -2.0571  -1.6747   1.5155 O.3            1 S1                 0.0000
     20 ****        -1.4552  -0.6162  -0.5548 C.3            1 S1                 0.0000
     21 ****        -0.7814  -1.0435  -1.7192 O.3            1 S1                 0.0000
     22 ****        -3.4133   1.9111  -0.6067 C.2            1 S1                 0.0000
     23 ****        -3.2716   1.6154  -1.7937 O.2            1 S1                 0.0000
     24 ****        -4.5190   2.5452  -0.1240 N.pl3          1 S1                -1.0000
     25 ****        -4.6662   2.8746   1.1910 C.2            1 S1                 0.0000
     26 ****        -5.6739   3.4392   1.6152 O.2            1 S1                 0.0000
     27 ****        -2.8271   2.6250   4.1511 H              1 S1                 0.0000
     28 ****        -4.5759   2.4205   4.0279 H              1 S1                 0.0000
     29 ****        -3.8409   3.9938   3.6909 H              1 S1                 0.0000
     30 ****        -1.6917   1.6775   2.3198 H              1 S1                 0.0000
     31 ****        -0.8471   1.4456  -1.1188 H              1 S1                 0.0000
     32 ****        -0.4119  -0.1781   2.4195 H              1 S1                 0.0000
     33 ****         1.9943  -0.0204   2.0380 H              1 S1                 0.0000
     34 ****         1.4929  -1.7025   2.1150 H              1 S1                 0.0000
     35 ****         5.7765  -2.0286  -0.7419 H              1 S1                 0.0000
     36 ****         6.5494  -2.3426  -3.0635 H              1 S1                 0.0000
     37 ****         4.9749  -2.0329  -4.9646 H              1 S1                 0.0000
     38 ****         2.6094  -1.4005  -4.5243 H              1 S1                 0.0000
     39 ****         1.8149  -1.0779  -2.2212 H              1 S1                 0.0000
     40 ****        -0.4458  -2.2876   0.4280 H              1 S1                 0.0000
     41 ****        -2.5319  -0.8778   1.6969 H              1 S1                 0.0000
     42 ****        -2.5213  -0.7687  -0.7299 H              1 S1                 0.0000
     43 ****        -1.1075  -0.5395  -2.4495 H              1 S1                 0.0000
     44 ****        -0.2769   1.6191   1.3433 LP             1 S1                 0.0000
     45 ****         0.7566   1.0286   0.2254 LP             1 S1                 0.0000
     46 ****         3.6923  -1.3403   2.0209 LP             1 S1                 0.0000
     47 ****         5.0017  -1.7173   0.9516 LP             1 S1                 0.0000
     48 ****        -1.7277  -2.0741   2.3711 LP             1 S1                 0.0000
     49 ****        -2.6566  -2.3272   1.0521 LP             1 S1                 0.0000
     50 ****        -0.9557  -2.0160  -1.8739 LP             1 S1                 0.0000
     51 ****         0.2019  -0.8933  -1.6160 LP             1 S1                 0.0000
     52 ****        -2.4415   1.1473  -2.0967 LP             1 S1                 0.0000
     53 ****        -3.9866   1.8434  -2.4546 LP             1 S1                 0.0000
     54 ****        -5.2534   2.7788  -0.7612 LP             1 S1                 0.0000
     55 ****        -5.7480   3.6673   2.5860 LP             1 S1                 0.0000
     56 ****        -6.4187   3.6699   0.9892 LP             1 S1                 0.0000
@<TRIPOS>BOND
    1    1    2 1     
    2    1   27 1     
    3    1   28 1     
    4    1   29 1     
    5    2   25 1     
    6    2    3 2     
    7    3    4 1     
    8    3   30 1     
    9    4    5 1     
   10    4   22 am    
   11    5   20 1     
   12    5    6 1     
   13    5   31 1     
   14    6    7 1     
   15    7    8 1     
   16    7   18 1     
   17    7   32 1     
   18    8    9 1     
   19    8   33 1     
   20    8   34 1     
   21    9   10 1     
   22   10   11 2     
   23   10   12 1     
   24   12   17 ar    
   25   12   13 ar    
   26   13   14 ar    
   27   13   35 1     
   28   14   15 ar    
   29   14   36 1     
   30   15   16 ar    
   31   15   37 1     
   32   16   17 ar    
   33   16   38 1     
   34   17   39 1     
   35   18   19 1     
   36   18   20 1     
   37   18   40 1     
   38   19   41 1     
   39   20   21 1     
   40   20   42 1     
   41   21   43 1     
   42   22   23 2     
   43   22   24 1     
   44   24   25 1     
   45   25   26 2     
   46    6   44 1     
   47    6   45 1     
   48   11   46 1     
   49   11   47 1     
   50   19   48 1     
   51   19   49 1     
   52   21   50 1     
   53   21   51 1     
   54   23   52 1     
   55   23   53 1     
   56   24   54 1     
   57   26   55 1     
   58   26   56 1     
@<TRIPOS>SUBSTRUCTURE
      1 S1             1
@<TRIPOS>SET
LONE_PAIRS      STATIC     ATOMS    <user>   **** ""
13 44 45 46 47 48 49 50 51 52 53 54 55 56
DONOR_HYDROGENS      STATIC     ATOMS    <user>   **** ""
2 41 43
ATOM$BLUE        STATIC     ATOMS    COLORGROUP SYSTEM
13 44 45 46 47 48 49 50 51 52 53 54 55 56
ATOM$RED        STATIC     ATOMS    COLORGROUP SYSTEM
2 41 43
