#       Name:                AV-unprocessed.smi:2230
#       Creating user name   scv26
#       Creation time:       Fri Mar 27 12:24:23 2020


#       File generated by GOLD software.
#

@<TRIPOS>MOLECULE
AV-unprocessed.smi:2230
    37    38     1
SMALL
NO_CHARGES


@<TRIPOS>ATOM
      1 ****        -2.3952  -2.4081   2.3811 O.co2          1 S1                 0.0000
      2 ****        -3.0136  -1.3752   2.0392 C.2            1 S1                 0.0000
      3 ****        -4.1116  -1.0093   2.5144 O.co2          1 S1                -1.0000
      4 ****        -2.4013  -0.5063   0.9297 C.3            1 S1                 0.0000
      5 ****        -0.8556  -0.5304   0.9787 C.3            1 S1                 0.0000
      6 ****        -0.3068   0.3629  -0.0341 N.3            1 S1                 0.0000
      7 ****         1.0883   0.2625  -0.1604 C.ar           1 S1                 0.0000
      8 ****         1.8419   0.9432   0.7380 N.ar           1 S1                 0.0000
      9 ****         3.1849   0.8523   0.6592 C.ar           1 S1                 0.0000
     10 ****         3.8472   0.0814  -0.3126 C.ar           1 S1                 0.0000
     11 ****         3.0687  -0.6251  -1.2474 C.ar           1 S1                 0.0000
     12 ****         1.6592  -0.5400  -1.1840 C.ar           1 S1                 0.0000
     13 ****         0.7942  -1.2872  -2.1978 C.3            1 S1                 0.0000
     14 ****         1.5384  -1.8788  -3.1330 F              1 S1                 0.0000
     15 ****         0.0782  -2.2291  -1.5850 F              1 S1                 0.0000
     16 ****        -0.0343  -0.4418  -2.8116 F              1 S1                 0.0000
     17 ****        -0.8305   1.7189   0.0710 C.3            1 S1                 0.0000
     18 ****        -2.3660   1.6863   0.0207 C.3            1 S1                 0.0000
     19 ****        -2.8554   0.8428   1.0584 O.3            1 S1                 0.0000
     20 ****        -2.7460  -0.9069  -0.0252 H              1 S1                 0.0000
     21 ****        -0.5045  -0.2177   1.9635 H              1 S1                 0.0000
     22 ****        -0.4842  -1.5424   0.8133 H              1 S1                 0.0000
     23 ****         3.7478   1.4099   1.3929 H              1 S1                 0.0000
     24 ****         4.9258   0.0346  -0.3409 H              1 S1                 0.0000
     25 ****         3.5596  -1.2215  -2.0019 H              1 S1                 0.0000
     26 ****        -0.5034   2.1735   1.0073 H              1 S1                 0.0000
     27 ****        -0.4396   2.3306  -0.7429 H              1 S1                 0.0000
     28 ****        -2.7686   2.6895   0.1592 H              1 S1                 0.0000
     29 ****        -2.7180   1.3308  -0.9491 H              1 S1                 0.0000
     30 ****        -2.7763  -3.0097   3.0831 LP             1 S1                 0.0000
     31 ****        -1.5200  -2.6318   1.9522 LP             1 S1                 0.0000
     32 ****        -4.5580  -1.5576   3.2215 LP             1 S1                 0.0000
     33 ****        -4.5428  -0.1685   2.1871 LP             1 S1                 0.0000
     34 ****        -0.6435   0.0412  -0.9191 LP             1 S1                 0.0000
     35 ****         1.4098   1.5022   1.4457 LP             1 S1                 0.0000
     36 ****        -2.5440   1.2031   1.9377 LP             1 S1                 0.0000
     37 ****        -3.8550   0.8483   1.0310 LP             1 S1                 0.0000
@<TRIPOS>BOND
    1    1    2 ar    
    2    2    3 ar    
    3    2    4 1     
    4    4   19 1     
    5    4    5 1     
    6    4   20 1     
    7    5    6 1     
    8    5   21 1     
    9    5   22 1     
   10    6    7 1     
   11    6   17 1     
   12    7   12 ar    
   13    7    8 ar    
   14    8    9 ar    
   15    9   10 ar    
   16    9   23 1     
   17   10   11 ar    
   18   10   24 1     
   19   11   12 ar    
   20   11   25 1     
   21   12   13 1     
   22   13   14 1     
   23   13   15 1     
   24   13   16 1     
   25   17   18 1     
   26   17   26 1     
   27   17   27 1     
   28   18   19 1     
   29   18   28 1     
   30   18   29 1     
   31    1   30 1     
   32    1   31 1     
   33    3   32 1     
   34    3   33 1     
   35    6   34 1     
   36    8   35 1     
   37   19   36 1     
   38   19   37 1     
@<TRIPOS>SUBSTRUCTURE
      1 S1             1
@<TRIPOS>SET
LONE_PAIRS      STATIC     ATOMS    <user>   **** ""
8 30 31 32 33 34 35 36 37
ATOM$BLUE        STATIC     ATOMS    COLORGROUP SYSTEM
8 30 31 32 33 34 35 36 37
