AV-unprocessed.smi:2986|AV-procd|sdf|11381|dock8
  -GOLD-   2272016303D 1   1.00000     0.00000
 Structure written by MMmdl.
 42 44  0  0  0  0  0  0  0  0  1 V2000
  147.3908  140.8451  153.2031 C   0  0  0  0  0  0  0  0  0  0  0  0
  148.7232  141.1642  153.5631 O   0  0  0  0  0  0  0  0  0  0  0  0
  148.9170  141.1778  154.9667 C   0  0  0  0  0  0  0  0  0  0  0  0
  150.3103  141.7425  155.2656 C   0  0  0  0  0  0  0  0  0  0  0  0
  150.6734  141.5634  156.6619 N   0  0  0  0  0  0  0  0  0  0  0  0
  150.5982  140.4326  157.4049 C   0  0  0  0  0  0  0  0  0  0  0  0
  150.0076  138.9127  156.7316 S   0  0  0  0  0  0  0  0  0  0  0  0
  149.9092  137.9532  158.2760 C   0  0  0  0  0  0  0  0  0  0  0  0
  149.6505  136.4603  158.0589 C   0  0  0  0  0  0  0  0  0  0  0  0
  149.2914  135.7680  159.0099 O   0  0  0  0  0  0  0  0  0  0  0  0
  149.8356  136.0069  156.8056 N   0  0  0  0  0  0  0  0  0  0  0  0
  149.7506  134.6757  156.3251 C   0  0  0  0  0  0  0  0  0  0  0  0
  149.6007  134.2759  154.9654 C   0  0  0  0  0  0  0  0  0  0  0  0
  149.5689  132.9126  155.0491 C   0  0  0  0  0  0  0  0  0  0  0  0
  149.4353  131.8364  154.0272 C   0  0  0  0  0  0  0  0  0  0  0  0
  149.6883  132.5144  156.3443 O   0  0  0  0  0  0  0  0  0  0  0  0
  149.8051  133.6498  157.1543 N   0  0  0  0  0  0  0  0  0  0  0  0
  151.0056  140.5426  158.6693 N   0  0  0  0  0  0  0  0  0  0  0  0
  151.3770  141.8702  158.7552 C   0  0  0  0  0  0  0  0  0  0  0  0
  151.8953  142.6114  159.8412 C   0  0  0  0  0  0  0  0  0  0  0  0
  152.2016  143.9798  159.6897 C   0  0  0  0  0  0  0  0  0  0  0  0
  151.9942  144.6253  158.4534 C   0  0  0  0  0  0  0  0  0  0  0  0
  151.4803  143.9051  157.3580 C   0  0  0  0  0  0  0  0  0  0  0  0
  151.1775  142.5394  157.5144 C   0  0  0  0  0  0  0  0  0  0  0  0
  147.2963  140.8396  152.1172 H   0  0  0  0  0  0  0  0  0  0  0  0
  146.6891  141.5807  153.5989 H   0  0  0  0  0  0  0  0  0  0  0  0
  147.1083  139.8577  153.5704 H   0  0  0  0  0  0  0  0  0  0  0  0
  148.1524  141.7919  155.4457 H   0  0  0  0  0  0  0  0  0  0  0  0
  148.8262  140.1657  155.3648 H   0  0  0  0  0  0  0  0  0  0  0  0
  151.0594  141.2669  154.6330 H   0  0  0  0  0  0  0  0  0  0  0  0
  150.3437  142.8064  155.0290 H   0  0  0  0  0  0  0  0  0  0  0  0
  150.8352  138.0888  158.8364 H   0  0  0  0  0  0  0  0  0  0  0  0
  149.1072  138.3638  158.8899 H   0  0  0  0  0  0  0  0  0  0  0  0
  150.1215  136.6939  156.1230 H   0  0  0  0  0  0  0  0  0  0  0  0
  149.5277  134.8722  154.0686 H   0  0  0  0  0  0  0  0  0  0  0  0
  149.4087  132.2559  153.0214 H   0  0  0  0  0  0  0  0  0  0  0  0
  148.5174  131.2690  154.1812 H   0  0  0  0  0  0  0  0  0  0  0  0
  150.2753  131.1438  154.0831 H   0  0  0  0  0  0  0  0  0  0  0  0
  152.0573  142.1264  160.7925 H   0  0  0  0  0  0  0  0  0  0  0  0
  152.5975  144.5366  160.5263 H   0  0  0  0  0  0  0  0  0  0  0  0
  152.2309  145.6738  158.3462 H   0  0  0  0  0  0  0  0  0  0  0  0
  151.3205  144.3968  156.4098 H   0  0  0  0  0  0  0  0  0  0  0  0
  1  2  1  0  0  0  0
  1 25  1  0  0  0  0
  1 26  1  0  0  0  0
  1 27  1  0  0  0  0
  2  3  1  0  0  0  0
  3  4  1  0  0  0  0
  3 28  1  0  0  0  0
  3 29  1  0  0  0  0
  4  5  1  0  0  0  0
  4 30  1  0  0  0  0
  4 31  1  0  0  0  0
  5 24  1  0  0  0  0
  5  6  1  0  0  0  0
  6  7  1  0  0  0  0
  6 18  2  0  0  0  0
  7  8  1  0  0  0  0
  8  9  1  0  0  0  0
  8 32  1  0  0  0  0
  8 33  1  0  0  0  0
  9 10  2  0  0  0  0
  9 11  1  0  0  0  0
 11 12  1  0  0  0  0
 11 34  1  0  0  0  0
 12 17  2  0  0  0  0
 12 13  1  0  0  0  0
 13 14  2  0  0  0  0
 13 35  1  0  0  0  0
 14 15  1  0  0  0  0
 14 16  1  0  0  0  0
 15 36  1  0  0  0  0
 15 37  1  0  0  0  0
 15 38  1  0  0  0  0
 16 17  1  0  0  0  0
 18 19  1  0  0  0  0
 19 24  2  0  0  0  0
 19 20  1  0  0  0  0
 20 21  2  0  0  0  0
 20 39  1  0  0  0  0
 21 22  1  0  0  0  0
 21 40  1  0  0  0  0
 22 23  2  0  0  0  0
 22 41  1  0  0  0  0
 23 24  1  0  0  0  0
 23 42  1  0  0  0  0
M  END
> <s_m_source_file>
AV-unprocessed.smi

> <i_m_source_file_index>
2986

> <i_lp_mmshare_version>
43012

> <i_f3d_flags>
0

> <s_epik_input>
W2NIXTFbY0hdW2NIXVtjSF1jKGMxMiluKFtDSDJdW0NIMl1PW0NIM10pYyhuMilTW0NIMl1DKD1PKVtOSF1jM1tjSF1jKFtDSDNdKW9uMw==

> <s_epik_cmdline>
J2VwaWtfcHl0aG9uJywgJy1waCcsICc3LjAnLCAnLXRuJywgJzgnLCAnLW1hJywgJzIwMCcsICctbWV0YWxfYmluZGluZycsICctaW1hZScsICc8aW5maWxlLm1hZT4nLCAnLW9tYWUnLCAnPG91dGZpbGUubWFlPic=

> <r_epik_Ionization_Penalty>
0.0256487

> <r_epik_Ionization_Penalty_Charging>
0

> <r_epik_Ionization_Penalty_Neutral>
0.0256487

> <r_epik_State_Penalty>
0.0204505

> <r_epik_Charging_Adjusted_Penalty>
0.0204505

> <i_epik_Tot_Q>
0

> <i_epik_Tot_abs_Q>
0

> <r_epik_Metal_State_Penalty>
0.237509

> <b_epik_Metal_Only>
0

> <s_lp_Force_Field>
OPLS_2005

> <r_lp_Energy>
8.97746

> <b_lp_Chiralities_Consistent>
1

> <s_lp_Variant>
AV-unprocessed.smi:2986-1

> <Gold.Version>
5.8.1

> <Gold.Id.Protein>
6NUR|6NUR_protein|mol2

> <Gold.PLP.Fitness>
50.0795

> <Gold.PLP.PLP>
-45.7056

> <Gold.PLP.part.hbond>
-3.4374

> <Gold.PLP.part.metal>
0.0000

> <Gold.PLP.part.buried>
-5.8414

> <Gold.PLP.part.nonpolar>
-37.1732

> <Gold.PLP.part.repulsive>
0.4805

> <Gold.PLP.ligand.clash>
0.0000

> <Gold.PLP.ligand.torsion>
0.5135

> <Gold.PLP.Chemscore.Hbond>
1.7680

> <Gold.PLP.Chemscore.CHOScore>
0.0000

> <Gold.PLP.Chemscore.Metal>
0.0000

> <Gold.Chemscore.Hbonds>
donor molecule, donor type, donor heavy atom, donor atom, acceptor molecule, acceptor atom, score
      P1  H  6896  6907       L1    10  1.00
      P1  H  8011  8017       L1     2  0.87

> <Gold.PLP.Chemscore.Internal.Correction>
0.0970

> <Gold.Rescore>
     Score         DG    S(hbond)    S(metal)    S(lipo)     H(rot)  DE(clash)    DE(int)     intcor
     15.10     -17.10       1.27        0.00     113.00       2.28       0.24       1.76       ----

> <Gold.Chemscore.Fitness>
15.1042

> <Gold.Chemscore.DG>
-17.1028

> <Gold.Chemscore.ZeroCoef>
-5.4800

> <Gold.Chemscore.Hbond>
1.2692

> <Gold.Chemscore.Metal>
0.0000

> <Gold.Chemscore.Lipo>
113.0050

> <Gold.Chemscore.Internal_Hbond>
0.0000

> <Gold.Chemscore.DEClash>
0.2428

> <Gold.Chemscore.DEInternal>
1.7558

> <Gold.Chemscore.Rot>
2.2804

> <Gold.Chemscore.Internal.Correction>
   9.000000E+99

> <Gold.Chemscore.Hbonds>
donor molecule, donor type, donor heavy atom, donor atom, acceptor molecule, acceptor atom, score
      P1  H  6896  6907       L1    10  0.81
      P1  H  8011  8017       L1     2  0.76

> <Gold.Chemscore.Hbond.Weighted>
-4.2391

> <Gold.Chemscore.Metal.Weighted>
-0.0000

> <Gold.Chemscore.Lipo.Weighted>
-13.2216

> <Gold.Chemscore.Internal_Hbond.Weighted>
0.0000

> <Gold.Chemscore.DEClash.Weighted>
0.2428

> <Gold.Chemscore.DEInternal.Weighted>
1.7558

> <Gold.Chemscore.Rot.Weighted>
5.8379

> <Gold.Chemscore.Internal.Correction.Weighted>
   9.000000E+99

> <Gold.Protein.RotatedTorsions>
[ 6907 6896 6895 6894 ] final  -76.00 input  -60.11 | X-H torsion
[ 7974 7965 7964 7962 ] final  -76.35 input  175.53 | X-H torsion
[ 8008 7997 7996 7995 ] final -128.76 input   59.86 | X-H torsion
[ 10167 10162 10161 10158 ] final  -39.07 input  -65.29 | X-H torsion
[ 10718 10713 10712 10709 ] final  154.81 input   66.30 | X-H torsion
[ 10763 10752 10751 10750 ] final  -97.32 input  -60.55 | X-H torsion
[ 11005 11000 10999 10996 ] final  160.88 input  -57.11 | X-H torsion

> <Gold.Protein.ActiveResidues>
 VAL166  LYS551  ARG553  GLY616  TRP617  ASP618  TYR619  PRO620  LYS621  CYS622 
 ASP623  PHE694  ASN695  SER759  ASP760  ASP761  ALA762  ILE779  LEU786  VAL792 
 PHE793  MET794  SER795  GLU796  ALA797  LYS798  CYS799  TRP800  GLU811  SER814 

> <Gold.Protein.RotatedAtoms>
  150.7041  134.4638  159.5392 H   0  0  0  0  0  0  0  0  0  0  0  0  # atno 6907 bound_to 6896
  152.2307  134.8322  160.0483 H   0  0  0  0  0  0  0  0  0  0  0  0  # atno 6908 bound_to 6896
  151.9139  133.3533  159.3910 H   0  0  0  0  0  0  0  0  0  0  0  0  # atno 6909 bound_to 6896
  145.6140  140.9379  143.1174 H   0  0  0  0  0  0  0  0  0  0  0  0  # atno 7974 bound_to 7965
  155.2681  140.0439  157.3004 H   0  0  0  0  0  0  0  0  0  0  0  0  # atno 8008 bound_to 7997
  154.5670  140.2363  155.8217 H   0  0  0  0  0  0  0  0  0  0  0  0  # atno 8009 bound_to 7997
  156.2093  140.3003  155.9704 H   0  0  0  0  0  0  0  0  0  0  0  0  # atno 8010 bound_to 7997
  140.7074  143.3237  151.2731 H   0  0  0  0  0  0  0  0  0  0  0  0  # atno 10167 bound_to 10162
  157.2267  131.0730  151.1879 H   0  0  0  0  0  0  0  0  0  0  0  0  # atno 10718 bound_to 10713
  154.7318  135.5051  153.8976 H   0  0  0  0  0  0  0  0  0  0  0  0  # atno 10763 bound_to 10752
  153.0956  135.6671  153.9777 H   0  0  0  0  0  0  0  0  0  0  0  0  # atno 10764 bound_to 10752
  153.9576  135.3051  155.3414 H   0  0  0  0  0  0  0  0  0  0  0  0  # atno 10765 bound_to 10752
  140.2103  134.8272  157.3113 H   0  0  0  0  0  0  0  0  0  0  0  0  # atno 11005 bound_to 11000
  144.7258  139.7880  143.7365 LP  0  0  0  0  0  0  0  0  0  0  0  0  # atno 17320 bound_to 7965
  146.1482  139.4558  143.0065 LP  0  0  0  0  0  0  0  0  0  0  0  0  # atno 17321 bound_to 7965
  139.6699  144.0039  152.2746 LP  0  0  0  0  0  0  0  0  0  0  0  0  # atno 17342 bound_to 10162
  139.9634  144.6542  150.8057 LP  0  0  0  0  0  0  0  0  0  0  0  0  # atno 17343 bound_to 10162
  157.3520  130.7087  149.6447 LP  0  0  0  0  0  0  0  0  0  0  0  0  # atno 17370 bound_to 10713
  155.9678  130.4250  150.4632 LP  0  0  0  0  0  0  0  0  0  0  0  0  # atno 17371 bound_to 10713
  140.1958  134.4315  155.7690 LP  0  0  0  0  0  0  0  0  0  0  0  0  # atno 17394 bound_to 11000
  141.2226  133.7048  156.8102 LP  0  0  0  0  0  0  0  0  0  0  0  0  # atno 17395 bound_to 11000

$$$$
