AV-unprocessed.smi:439|AV-procd|sdf|2580|dock5
  -GOLD-   2262022563D 1   1.00000     0.00000
 Structure written by MMmdl.
 45 46  0  0  0  0  0  0  0  0  2 V2000
  141.9812  135.5088  162.5882 C   0  0  0  0  0  0  0  0  0  0  0  0
  143.2898  134.7415  162.8204 C   0  0  0  0  0  0  0  0  0  0  0  0
  144.4733  135.2746  161.9971 C   0  0  0  0  0  0  0  0  0  0  0  0
  145.7774  134.4809  162.2034 C   0  0  0  0  0  0  0  0  0  0  0  0
  146.8872  135.0555  161.4133 N   0  0  0  0  0  0  0  0  0  0  0  0
  147.1151  134.5795  160.0940 C   0  0  0  0  0  0  0  0  0  0  0  0
  146.2895  133.5872  159.5839 N   0  0  0  0  0  0  0  0  0  0  0  0
  148.1140  135.1135  159.3405 C   0  0  0  0  0  0  0  0  0  0  0  0
  148.3906  134.6613  158.0305 N   0  0  0  0  0  0  0  0  0  0  0  0
  147.9224  135.5327  156.9380 C   0  0  0  0  0  0  0  0  0  0  0  0
  149.0830  136.0183  156.0553 C   0  0  0  0  0  0  0  0  0  0  0  0
  148.9726  133.4584  157.7371 C   0  0  0  0  0  0  0  0  0  0  0  0
  149.5015  132.7774  158.6192 O   0  0  0  0  0  0  0  0  0  0  0  0
  148.9104  133.0011  156.3447 C   0  0  0  0  0  0  0  0  0  0  0  0
  150.0206  132.4648  155.7874 C   0  0  0  0  0  0  0  0  0  0  0  0
  150.0685  131.9557  154.5133 O   0  0  0  0  0  0  0  0  0  0  0  0
  148.8024  131.8089  153.8807 C   0  0  0  0  0  0  0  0  0  0  0  0
  147.8943  133.0011  154.2116 C   0  0  0  0  0  0  0  0  0  0  0  0
  147.7445  133.1133  155.6210 O   0  0  0  0  0  0  0  0  0  0  0  0
  148.9697  136.1511  159.9329 C   0  0  0  0  0  0  0  0  0  0  0  0
  149.8986  136.6343  159.2851 O   0  0  0  0  0  0  0  0  0  0  0  0
  148.7007  136.5427  161.2059 N   0  5  0  0  0  0  0  0  0  0  0  0
  147.6926  136.0179  161.9589 C   0  0  0  0  0  0  0  0  0  0  0  0
  147.4935  136.3871  163.1172 O   0  0  0  0  0  0  0  0  0  0  0  0
  141.1614  135.0482  163.1399 H   0  0  0  0  0  0  0  0  0  0  0  0
  141.7097  135.5131  161.5323 H   0  0  0  0  0  0  0  0  0  0  0  0
  142.0574  136.5438  162.9208 H   0  0  0  0  0  0  0  0  0  0  0  0
  143.5415  134.7524  163.8815 H   0  0  0  0  0  0  0  0  0  0  0  0
  143.1272  133.6955  162.5592 H   0  0  0  0  0  0  0  0  0  0  0  0
  144.2042  135.2380  160.9408 H   0  0  0  0  0  0  0  0  0  0  0  0
  144.6341  136.3281  162.2288 H   0  0  0  0  0  0  0  0  0  0  0  0
  146.0401  134.4393  163.2597 H   0  0  0  0  0  0  0  0  0  0  0  0
  145.6092  133.4339  161.9461 H   0  0  0  0  0  0  0  0  0  0  0  0
  145.5322  133.1947  160.1241 H   0  0  0  0  0  0  0  0  0  0  0  0
  146.4514  133.1795  158.6743 H   0  0  0  0  0  0  0  0  0  0  0  0
  147.2102  135.0012  156.3060 H   0  0  0  0  0  0  0  0  0  0  0  0
  147.3709  136.3861  157.3359 H   0  0  0  0  0  0  0  0  0  0  0  0
  148.7148  136.6515  155.2481 H   0  0  0  0  0  0  0  0  0  0  0  0
  149.6105  135.1783  155.6023 H   0  0  0  0  0  0  0  0  0  0  0  0
  149.8081  136.5985  156.6261 H   0  0  0  0  0  0  0  0  0  0  0  0
  150.9693  132.3554  156.2933 H   0  0  0  0  0  0  0  0  0  0  0  0
  148.9482  131.7278  152.8033 H   0  0  0  0  0  0  0  0  0  0  0  0
  148.3421  130.8777  154.2135 H   0  0  0  0  0  0  0  0  0  0  0  0
  148.3152  133.9280  153.8189 H   0  0  0  0  0  0  0  0  0  0  0  0
  146.9115  132.8750  153.7573 H   0  0  0  0  0  0  0  0  0  0  0  0
  1  2  1  0  0  0  0
  1 25  1  0  0  0  0
  1 26  1  0  0  0  0
  1 27  1  0  0  0  0
  2  3  1  0  0  0  0
  2 28  1  0  0  0  0
  2 29  1  0  0  0  0
  3  4  1  0  0  0  0
  3 30  1  0  0  0  0
  3 31  1  0  0  0  0
  4  5  1  0  0  0  0
  4 32  1  0  0  0  0
  4 33  1  0  0  0  0
  5 23  1  0  0  0  0
  5  6  1  0  0  0  0
  6  7  1  0  0  0  0
  6  8  2  0  0  0  0
  7 34  1  0  0  0  0
  7 35  1  0  0  0  0
  8  9  1  0  0  0  0
  8 20  1  0  0  0  0
  9 10  1  0  0  0  0
  9 12  1  0  0  0  0
 10 11  1  0  0  0  0
 10 36  1  0  0  0  0
 10 37  1  0  0  0  0
 11 38  1  0  0  0  0
 11 39  1  0  0  0  0
 11 40  1  0  0  0  0
 12 13  2  0  0  0  0
 12 14  1  0  0  0  0
 14 19  1  0  0  0  0
 14 15  2  0  0  0  0
 15 16  1  0  0  0  0
 15 41  1  0  0  0  0
 16 17  1  0  0  0  0
 17 18  1  0  0  0  0
 17 42  1  0  0  0  0
 17 43  1  0  0  0  0
 18 19  1  0  0  0  0
 18 44  1  0  0  0  0
 18 45  1  0  0  0  0
 20 21  2  0  0  0  0
 20 22  1  0  0  0  0
 22 23  1  0  0  0  0
 23 24  2  0  0  0  0
M  CHG  1  22  -1
M  END
> <s_m_source_file>
AV-unprocessed.smi

> <i_m_source_file_index>
439

> <i_lp_mmshare_version>
43012

> <i_f3d_flags>
0

> <s_epik_input>
W0NIM11bQ0gyXVtDSDJdW0NIMl1uMWMoW05IMl0pYyhjKD1PKVtuSF1jMT1PKU4oW0NIMl1bQ0gzXSlDKD1PKUMyPVtDSF1PW0NIMl1bQ0gyXU8y

> <s_epik_cmdline>
J2VwaWtfcHl0aG9uJywgJy1waCcsICc3LjAnLCAnLXRuJywgJzgnLCAnLW1hJywgJzIwMCcsICctbWV0YWxfYmluZGluZycsICctaW1hZScsICc8aW5maWxlLm1hZT4nLCAnLW9tYWUnLCAnPG91dGZpbGUubWFlPic=

> <r_lp_tautomer_probability>
1

> <r_epik_Ionization_Penalty>
6.21372

> <r_epik_Ionization_Penalty_Charging>
0.188923

> <r_epik_Ionization_Penalty_Neutral>
6.0248

> <r_epik_State_Penalty>
6.02477

> <r_epik_Charging_Adjusted_Penalty>
6.2137

> <i_epik_Tot_Q>
-1

> <i_epik_Tot_abs_Q>
1

> <r_epik_Metal_State_Penalty>
1.95433

> <b_epik_Metal_Only>
1

> <s_epik_Chemistry_Notes>
This compound has an imine and may undergo hydrolysis.

> <s_lp_Force_Field>
OPLS_2005

> <r_lp_Energy>
37.3971

> <b_lp_Chiralities_Consistent>
1

> <s_lp_Variant>
AV-unprocessed.smi:439-2

> <Gold.Version>
5.8.1

> <Gold.Id.Protein>
6NUR|6NUR_protein|mol2

> <Gold.PLP.Fitness>
36.6766

> <Gold.PLP.PLP>
-27.8982

> <Gold.PLP.part.hbond>
-2.8938

> <Gold.PLP.part.metal>
0.0000

> <Gold.PLP.part.buried>
-4.5828

> <Gold.PLP.part.nonpolar>
-21.7104

> <Gold.PLP.part.repulsive>
0.0506

> <Gold.PLP.ligand.clash>
0.0000

> <Gold.PLP.ligand.torsion>
2.5804

> <Gold.PLP.Chemscore.Hbond>
3.4568

> <Gold.PLP.Chemscore.CHOScore>
0.0000

> <Gold.PLP.Chemscore.Metal>
0.0000

> <Gold.Chemscore.Hbonds>
donor molecule, donor type, donor heavy atom, donor atom, acceptor molecule, acceptor atom, score
      P1  H  6896  6908       L1    13  1.00
      P1  H  6896  6909       L1    21  0.50
      P1  H  6931  6943       L1    22  2.00

> <Gold.PLP.Chemscore.Internal.Correction>
3.5689

> <Gold.Rescore>
     Score         DG    S(hbond)    S(metal)    S(lipo)     H(rot)  DE(clash)    DE(int)     intcor
     10.00     -13.97       1.88        0.00      54.68       1.63       0.01       3.96       ----

> <Gold.Chemscore.Fitness>
9.9959

> <Gold.Chemscore.DG>
-13.9663

> <Gold.Chemscore.ZeroCoef>
-5.4800

> <Gold.Chemscore.Hbond>
1.8765

> <Gold.Chemscore.Metal>
0.0000

> <Gold.Chemscore.Lipo>
54.6839

> <Gold.Chemscore.Internal_Hbond>
0.0000

> <Gold.Chemscore.DEClash>
0.0059

> <Gold.Chemscore.DEInternal>
3.9645

> <Gold.Chemscore.Rot>
1.6325

> <Gold.Chemscore.Internal.Correction>
   9.000000E+99

> <Gold.Chemscore.Hbonds>
donor molecule, donor type, donor heavy atom, donor atom, acceptor molecule, acceptor atom, score
      P1  H  6896  6908       L1    13  0.78
      P1  H  6896  6909       L1    21  0.03
      P1  H  6931  6943       L1    22  0.60

> <Gold.Chemscore.Hbond.Weighted>
-6.2676

> <Gold.Chemscore.Metal.Weighted>
-0.0000

> <Gold.Chemscore.Lipo.Weighted>
-6.3980

> <Gold.Chemscore.Internal_Hbond.Weighted>
0.0000

> <Gold.Chemscore.DEClash.Weighted>
0.0059

> <Gold.Chemscore.DEInternal.Weighted>
3.9645

> <Gold.Chemscore.Rot.Weighted>
4.1793

> <Gold.Chemscore.Internal.Correction.Weighted>
   9.000000E+99

> <Gold.Protein.RotatedTorsions>
[ 6907 6896 6895 6894 ] final   99.90 input  -60.11 | X-H torsion
[ 7974 7965 7964 7962 ] final  -60.98 input  175.53 | X-H torsion
[ 8008 7997 7996 7995 ] final    5.56 input   59.86 | X-H torsion
[ 10167 10162 10161 10158 ] final  -82.20 input  -65.29 | X-H torsion
[ 10718 10713 10712 10709 ] final   -3.84 input   66.30 | X-H torsion
[ 10763 10752 10751 10750 ] final   83.54 input  -60.55 | X-H torsion
[ 11005 11000 10999 10996 ] final  -33.14 input  -57.11 | X-H torsion

> <Gold.Protein.ActiveResidues>
 VAL166  LYS551  ARG553  GLY616  TRP617  ASP618  TYR619  PRO620  LYS621  CYS622 
 ASP623  PHE694  ASN695  SER759  ASP760  ASP761  ALA762  ILE779  LEU786  VAL792 
 PHE793  MET794  SER795  GLU796  ALA797  LYS798  CYS799  TRP800  GLU811  SER814 

> <Gold.Protein.RotatedAtoms>
  152.5383  134.0359  159.8045 H   0  0  0  0  0  0  0  0  0  0  0  0  # atno 6907 bound_to 6896
  151.0523  133.5606  159.2648 H   0  0  0  0  0  0  0  0  0  0  0  0  # atno 6908 bound_to 6896
  151.2536  135.0638  159.9125 H   0  0  0  0  0  0  0  0  0  0  0  0  # atno 6909 bound_to 6896
  145.8090  140.8610  143.0191 H   0  0  0  0  0  0  0  0  0  0  0  0  # atno 7974 bound_to 7965
  154.7300  140.2728  155.6465 H   0  0  0  0  0  0  0  0  0  0  0  0  # atno 8008 bound_to 7997
  156.2847  140.2717  156.1922 H   0  0  0  0  0  0  0  0  0  0  0  0  # atno 8009 bound_to 7997
  155.0395  140.0371  157.2494 H   0  0  0  0  0  0  0  0  0  0  0  0  # atno 8010 bound_to 7997
  140.4342  143.2538  151.8717 H   0  0  0  0  0  0  0  0  0  0  0  0  # atno 10167 bound_to 10162
  156.7702  130.5297  149.5769 H   0  0  0  0  0  0  0  0  0  0  0  0  # atno 10718 bound_to 10713
  153.1301  135.4687  154.9334 H   0  0  0  0  0  0  0  0  0  0  0  0  # atno 10763 bound_to 10752
  154.7656  135.3144  154.8295 H   0  0  0  0  0  0  0  0  0  0  0  0  # atno 10764 bound_to 10752
  153.8840  135.6891  153.4819 H   0  0  0  0  0  0  0  0  0  0  0  0  # atno 10765 bound_to 10752
  140.9610  133.7164  156.1370 H   0  0  0  0  0  0  0  0  0  0  0  0  # atno 11005 bound_to 11000
  144.6759  140.0369  143.7481 LP  0  0  0  0  0  0  0  0  0  0  0  0  # atno 17320 bound_to 7965
  145.9797  139.2932  143.1049 LP  0  0  0  0  0  0  0  0  0  0  0  0  # atno 17321 bound_to 7965
  139.4786  144.5302  151.8678 LP  0  0  0  0  0  0  0  0  0  0  0  0  # atno 17342 bound_to 10162
  140.4393  144.2008  150.5890 LP  0  0  0  0  0  0  0  0  0  0  0  0  # atno 17343 bound_to 10162
  156.1283  130.6159  151.0296 LP  0  0  0  0  0  0  0  0  0  0  0  0  # atno 17370 bound_to 10713
  157.6694  131.0864  150.7648 LP  0  0  0  0  0  0  0  0  0  0  0  0  # atno 17371 bound_to 10713
  140.7467  134.4090  157.5547 LP  0  0  0  0  0  0  0  0  0  0  0  0  # atno 17394 bound_to 11000
  139.8878  134.8873  156.2508 LP  0  0  0  0  0  0  0  0  0  0  0  0  # atno 17395 bound_to 11000

$$$$
