#       Name:                AV-unprocessed.smi:1501
#       Creating user name   scv26
#       Creation time:       Fri Mar 27 06:18:19 2020


#       File generated by GOLD software.
#

@<TRIPOS>MOLECULE
AV-unprocessed.smi:1501
    56    57     1
SMALL
NO_CHARGES


@<TRIPOS>ATOM
      1 ****        -0.8953  -2.3309  -1.8643 C.3            1 S1                 0.0000
      2 ****        -1.3625  -1.0183  -1.2607 C.2            1 S1                 0.0000
      3 ****        -2.7305  -0.9219  -1.0863 N.pl3          1 S1                 0.0000
      4 ****        -3.2680   0.2468  -0.5611 C.2            1 S1                 0.0000
      5 ****        -4.6582   0.2442  -0.4491 N.pl3          1 S1                 0.0000
      6 ****        -5.3255   1.1948   0.4403 C.3            1 S1                 0.0000
      7 ****        -6.7458   0.7245   0.7963 C.3            1 S1                 0.0000
      8 ****        -7.4902   0.5075  -0.3949 O.3            1 S1                 0.0000
      9 ****        -6.8986  -0.5034  -1.2002 C.3            1 S1                 0.0000
     10 ****        -5.4821  -0.0719  -1.6166 C.3            1 S1                 0.0000
     11 ****        -2.5369   1.2588  -0.1908 N.2            1 S1                 0.0000
     12 ****        -1.1409   1.2132  -0.3215 C.2            1 S1                 0.0000
     13 ****        -0.4485   2.1624   0.0433 O.2            1 S1                 0.0000
     14 ****        -0.5390  -0.0051  -0.9017 C.2            1 S1                 0.0000
     15 ****         0.9746  -0.0545  -1.0879 C.3            1 S1                 0.0000
     16 ****         1.7036  -0.5226   0.1865 C.3            1 S1                 0.0000
     17 ****         3.2275  -0.5699   0.0361 C.2            1 S1                 0.0000
     18 ****         3.7557  -0.5456  -1.0763 O.2            1 S1                 0.0000
     19 ****         3.9274  -0.6405   1.1784 N.am           1 S1                 0.0000
     20 ****         5.3837  -0.6831   1.2679 C.3            1 S1                 0.0000
     21 ****         6.0257   0.7149   1.1396 C.3            1 S1                 0.0000
     22 ****         7.5579   0.6130   1.1346 C.3            1 S1                 0.0000
     23 ****         5.5489   1.6801   2.2386 C.3            1 S1                 0.0000
     24 ****        -3.2986  -1.7100  -1.3607 H              1 S1                 0.0000
     25 ****        -0.1564  -2.8057  -1.2182 H              1 S1                 0.0000
     26 ****        -0.4423  -2.1597  -2.8410 H              1 S1                 0.0000
     27 ****        -1.7222  -3.0299  -1.9969 H              1 S1                 0.0000
     28 ****        -5.3667   2.1690  -0.0492 H              1 S1                 0.0000
     29 ****        -4.7499   1.3232   1.3584 H              1 S1                 0.0000
     30 ****        -6.7150  -0.1888   1.3927 H              1 S1                 0.0000
     31 ****        -7.2513   1.4802   1.3974 H              1 S1                 0.0000
     32 ****        -6.8730  -1.4501  -0.6581 H              1 S1                 0.0000
     33 ****        -7.5176  -0.6593  -2.0836 H              1 S1                 0.0000
     34 ****        -5.0318  -0.8640  -2.2157 H              1 S1                 0.0000
     35 ****        -5.5372   0.8106  -2.2558 H              1 S1                 0.0000
     36 ****         1.3368   0.9292  -1.3915 H              1 S1                 0.0000
     37 ****         1.2180  -0.7173  -1.9183 H              1 S1                 0.0000
     38 ****         1.4557   0.1421   1.0154 H              1 S1                 0.0000
     39 ****         1.3568  -1.5174   0.4683 H              1 S1                 0.0000
     40 ****         3.4156  -0.6556   2.0488 H              1 S1                 0.0000
     41 ****         5.6502  -1.1286   2.2269 H              1 S1                 0.0000
     42 ****         5.7767  -1.3539   0.5018 H              1 S1                 0.0000
     43 ****         5.7297   1.1374   0.1784 H              1 S1                 0.0000
     44 ****         7.9315   0.1984   2.0716 H              1 S1                 0.0000
     45 ****         8.0170   1.5925   0.9968 H              1 S1                 0.0000
     46 ****         7.9060  -0.0279   0.3241 H              1 S1                 0.0000
     47 ****         5.7951   1.3017   3.2311 H              1 S1                 0.0000
     48 ****         4.4703   1.8333   2.1981 H              1 S1                 0.0000
     49 ****         6.0179   2.6585   2.1307 H              1 S1                 0.0000
     50 ****        -7.5249   1.3600  -0.9166 LP             1 S1                 0.0000
     51 ****        -8.4188   0.2275  -0.1516 LP             1 S1                 0.0000
     52 ****        -2.9736   2.0741   0.1893 LP             1 S1                 0.0000
     53 ****        -0.8802   2.9743   0.4364 LP             1 S1                 0.0000
     54 ****         0.5460   2.1221  -0.0533 LP             1 S1                 0.0000
     55 ****         3.1884  -0.4943  -1.8982 LP             1 S1                 0.0000
     56 ****         4.7519  -0.5772  -1.1576 LP             1 S1                 0.0000
@<TRIPOS>BOND
    1    1   25 1     
    2    1   26 1     
    3    1   27 1     
    4    1    2 1     
    5    2   14 2     
    6    2    3 1     
    7    3   24 1     
    8    3    4 1     
    9    4    5 1     
   10    4   11 2     
   11    5   10 1     
   12    5    6 1     
   13    6    7 1     
   14    6   28 1     
   15    6   29 1     
   16    7    8 1     
   17    7   30 1     
   18    7   31 1     
   19    8    9 1     
   20    9   10 1     
   21    9   32 1     
   22    9   33 1     
   23   10   34 1     
   24   10   35 1     
   25   11   12 1     
   26   12   13 2     
   27   12   14 1     
   28   14   15 1     
   29   15   16 1     
   30   15   36 1     
   31   15   37 1     
   32   16   17 1     
   33   16   38 1     
   34   16   39 1     
   35   17   18 2     
   36   17   19 am    
   37   19   20 1     
   38   19   40 1     
   39   20   21 1     
   40   20   41 1     
   41   20   42 1     
   42   21   22 1     
   43   21   23 1     
   44   21   43 1     
   45   22   44 1     
   46   22   45 1     
   47   22   46 1     
   48   23   47 1     
   49   23   48 1     
   50   23   49 1     
   51    8   50 1     
   52    8   51 1     
   53   11   52 1     
   54   13   53 1     
   55   13   54 1     
   56   18   55 1     
   57   18   56 1     
@<TRIPOS>SUBSTRUCTURE
      1 S1             1
@<TRIPOS>SET
LONE_PAIRS      STATIC     ATOMS    <user>   **** ""
7 50 51 52 53 54 55 56
DONOR_HYDROGENS      STATIC     ATOMS    <user>   **** ""
2 24 40
ATOM$BLUE        STATIC     ATOMS    COLORGROUP SYSTEM
7 50 51 52 53 54 55 56
ATOM$RED        STATIC     ATOMS    COLORGROUP SYSTEM
2 24 40
