AV-unprocessed.smi:72|AV-procd|sdf|745|dock6
  -GOLD-   2262017 73D 1   1.00000     0.00000
 Structure written by MMmdl.
 29 30  0  0  0  0  0  0  0  0  1 V2000
  152.7338  140.9833  159.1434 N   0  0  0  0  0  0  0  0  0  0  0  0
  152.0069  140.9744  157.9716 C   0  0  0  0  0  0  0  0  0  0  0  0
  150.8983  141.8296  157.9199 N   0  0  0  0  0  0  0  0  0  0  0  0
  150.2060  141.8176  156.8251 C   0  0  0  0  0  0  0  0  0  0  0  0
  150.5562  140.9423  155.7166 N   0  0  0  0  0  0  0  0  0  0  0  0
  149.7763  140.9097  154.4111 C   0  0  2  0  0  0  0  0  0  0  0  0
  148.8736  141.9774  154.3680 O   0  0  0  0  0  0  0  0  0  0  0  0
  147.5779  141.5313  154.7579 C   0  0  1  0  0  0  0  0  0  0  0  0
  146.4900  142.5316  154.3307 C   0  0  0  0  0  0  0  0  0  0  0  0
  145.2113  141.9656  154.5250 O   0  0  0  0  0  0  0  0  0  0  0  0
  147.5103  140.1498  154.1010 C   0  0  1  0  0  0  0  0  0  0  0  0
  147.1613  140.2676  152.7308 O   0  0  0  0  0  0  0  0  0  0  0  0
  148.9305  139.6206  154.3045 C   0  0  1  0  0  0  0  0  0  0  0  0
  149.3424  138.7609  153.2579 O   0  0  0  0  0  0  0  0  0  0  0  0
  151.7180  140.1281  155.8279 C   0  0  0  0  0  0  0  0  0  0  0  0
  152.0658  139.4159  154.8859 O   0  0  0  0  0  0  0  0  0  0  0  0
  152.4266  140.1751  157.0339 N   0  0  0  0  0  0  0  0  0  0  0  0
  150.5241  141.0312  153.6253 H   0  0  0  0  0  0  0  0  0  0  0  0
  147.5494  141.3917  155.8403 H   0  0  0  0  0  0  0  0  0  0  0  0
  146.7721  139.5091  154.5844 H   0  0  0  0  0  0  0  0  0  0  0  0
  148.9762  139.0789  155.2506 H   0  0  0  0  0  0  0  0  0  0  0  0
  153.5519  140.4110  159.2940 H   0  0  0  0  0  0  0  0  0  0  0  0
  152.5015  141.5615  159.9378 H   0  0  0  0  0  0  0  0  0  0  0  0
  149.3352  142.4561  156.6766 H   0  0  0  0  0  0  0  0  0  0  0  0
  146.5743  143.4709  154.8780 H   0  0  0  0  0  0  0  0  0  0  0  0
  146.5874  142.7614  153.2692 H   0  0  0  0  0  0  0  0  0  0  0  0
  144.9952  141.4459  153.7658 H   0  0  0  0  0  0  0  0  0  0  0  0
  147.9502  140.1802  152.2175 H   0  0  0  0  0  0  0  0  0  0  0  0
  149.6390  139.2922  152.5345 H   0  0  0  0  0  0  0  0  0  0  0  0
  1  2  1  0  0  0  0
  1 22  1  0  0  0  0
  1 23  1  0  0  0  0
  2 17  2  0  0  0  0
  2  3  1  0  0  0  0
  3  4  2  0  0  0  0
  4  5  1  0  0  0  0
  4 24  1  0  0  0  0
  5  6  1  0  0  0  0
  5 15  1  0  0  0  0
  6 18  1  0  0  0  0
  6 13  1  0  0  0  0
  6  7  1  0  0  0  0
  7  8  1  0  0  0  0
  8 19  1  0  0  0  0
  8  9  1  0  0  0  0
  8 11  1  0  0  0  0
  9 10  1  0  0  0  0
  9 25  1  0  0  0  0
  9 26  1  0  0  0  0
 10 27  1  0  0  0  0
 11 20  1  0  0  0  0
 11 12  1  0  0  0  0
 11 13  1  0  0  0  0
 12 28  1  0  0  0  0
 13 21  1  0  0  0  0
 13 14  1  0  0  0  0
 14 29  1  0  0  0  0
 15 16  2  0  0  0  0
 15 17  1  0  0  0  0
M  END
> <s_m_source_file>
AV-unprocessed.smi

> <i_m_source_file_index>
72

> <i_lp_mmshare_version>
43012

> <i_f3d_flags>
0

> <s_epik_input>
W05IMl1jMW5bY0hdbihjKD1PKW4xKVtDQEBIXTJPW0NASF0oW0NIMl1bT0hdKVtDQEBIXShbT0hdKVtDQEhdMltPSF0=

> <s_epik_cmdline>
J2VwaWtfcHl0aG9uJywgJy1waCcsICc3LjAnLCAnLXRuJywgJzgnLCAnLW1hJywgJzIwMCcsICctbWV0YWxfYmluZGluZycsICctaW1hZScsICc8aW5maWxlLm1hZT4nLCAnLW9tYWUnLCAnPG91dGZpbGUubWFlPic=

> <r_lp_tautomer_probability>
4.77166e-05

> <r_epik_Ionization_Penalty>
1.3546

> <r_epik_Ionization_Penalty_Charging>
1.46833e-10

> <r_epik_Ionization_Penalty_Neutral>
1.3546

> <r_epik_State_Penalty>
3.51908

> <r_epik_Charging_Adjusted_Penalty>
3.51908

> <i_epik_Tot_Q>
0

> <i_epik_Tot_abs_Q>
0

> <r_epik_Metal_State_Penalty>
3.44088

> <b_epik_Metal_Only>
1

> <s_epik_Chemistry_Notes>
This compound contains an acetal/aminal-like group ( X-CH(R)-Y where X, Y are N, S, or O) that may be acid/base labile, releasing an aldehyde.

> <s_lp_Force_Field>
OPLS_2005

> <r_lp_Energy>
31.2985

> <b_lp_Chiralities_Consistent>
1

> <s_lp_Variant>
AV-unprocessed.smi:72-83

> <Gold.Version>
5.8.1

> <Gold.Id.Protein>
6NUR|6NUR_protein|mol2

> <Gold.PLP.Fitness>
45.7156

> <Gold.PLP.PLP>
-29.3602

> <Gold.PLP.part.hbond>
-6.7860

> <Gold.PLP.part.metal>
0.0000

> <Gold.PLP.part.buried>
-2.4777

> <Gold.PLP.part.nonpolar>
-20.6333

> <Gold.PLP.part.repulsive>
1.0042

> <Gold.PLP.ligand.clash>
0.0000

> <Gold.PLP.ligand.torsion>
0.3476

> <Gold.PLP.Chemscore.Hbond>
4.6760

> <Gold.PLP.Chemscore.CHOScore>
1.0000

> <Gold.PLP.Chemscore.Metal>
0.0000

> <Gold.Chemscore.Hbonds>
donor molecule, donor type, donor heavy atom, donor atom, acceptor molecule, acceptor atom, score
      L1  H    10    27       P1 10175  0.93
      L1  H    12    28       P1  7957  1.00
      L1  H    14    29       P1  7957  1.00
      P1  H  7989  7998       L1    16  0.57
      P1  H  7997  8009       L1    17  1.00
      P1  H  8011  8017       L1     7  0.05
      L1  C     4    24       P1  8028  1.00

> <Gold.PLP.Chemscore.Internal.Correction>
0.0227

> <Gold.Rescore>
     Score         DG    S(hbond)    S(metal)    S(lipo)     H(rot)  DE(clash)    DE(int)     intcor
      8.58      -9.12       3.47        0.00      20.86       4.06       0.24       0.30       ----

> <Gold.Chemscore.Fitness>
8.5775

> <Gold.Chemscore.DG>
-9.1155

> <Gold.Chemscore.ZeroCoef>
-5.4800

> <Gold.Chemscore.Hbond>
3.4695

> <Gold.Chemscore.Metal>
0.0000

> <Gold.Chemscore.Lipo>
20.8642

> <Gold.Chemscore.Internal_Hbond>
0.0000

> <Gold.Chemscore.DEClash>
0.2425

> <Gold.Chemscore.DEInternal>
0.2955

> <Gold.Chemscore.Rot>
4.0600

> <Gold.Chemscore.Internal.Correction>
   9.000000E+99

> <Gold.Chemscore.Hbonds>
donor molecule, donor type, donor heavy atom, donor atom, acceptor molecule, acceptor atom, score
      L1  H    10    27       P1 10175  0.22
      L1  H    12    28       P1  7957  0.99
      L1  H    14    29       P1  7957  0.93
      P1  H  7989  7998       L1    16  0.05
      P1  H  7997  8009       L1    17  0.51

> <Gold.Chemscore.Hbond.Weighted>
-11.5880

> <Gold.Chemscore.Metal.Weighted>
-0.0000

> <Gold.Chemscore.Lipo.Weighted>
-2.4411

> <Gold.Chemscore.Internal_Hbond.Weighted>
0.0000

> <Gold.Chemscore.DEClash.Weighted>
0.2425

> <Gold.Chemscore.DEInternal.Weighted>
0.2955

> <Gold.Chemscore.Rot.Weighted>
10.3936

> <Gold.Chemscore.Internal.Correction.Weighted>
   9.000000E+99

> <Gold.Protein.RotatedTorsions>
[ 6907 6896 6895 6894 ] final   62.64 input  -60.11 | X-H torsion
[ 7974 7965 7964 7962 ] final  167.23 input  175.53 | X-H torsion
[ 8008 7997 7996 7995 ] final -174.10 input   59.86 | X-H torsion
[ 10167 10162 10161 10158 ] final -166.51 input  -65.29 | X-H torsion
[ 10718 10713 10712 10709 ] final -101.71 input   66.30 | X-H torsion
[ 10763 10752 10751 10750 ] final  -96.73 input  -60.55 | X-H torsion
[ 11005 11000 10999 10996 ] final  115.64 input  -57.11 | X-H torsion

> <Gold.Protein.ActiveResidues>
 VAL166  LYS551  ARG553  GLY616  TRP617  ASP618  TYR619  PRO620  LYS621  CYS622 
 ASP623  PHE694  ASN695  SER759  ASP760  ASP761  ALA762  ILE779  LEU786  VAL792 
 PHE793  MET794  SER795  GLU796  ALA797  LYS798  CYS799  TRP800  GLU811  SER814 

> <Gold.Protein.RotatedAtoms>
  152.4188  134.5993  159.9995 H   0  0  0  0  0  0  0  0  0  0  0  0  # atno 6907 bound_to 6896
  151.6148  133.3338  159.3083 H   0  0  0  0  0  0  0  0  0  0  0  0  # atno 6908 bound_to 6896
  150.8076  134.7250  159.6725 H   0  0  0  0  0  0  0  0  0  0  0  0  # atno 6909 bound_to 6896
  144.7432  139.8731  143.6390 H   0  0  0  0  0  0  0  0  0  0  0  0  # atno 7974 bound_to 7965
  155.9658  140.1153  157.0856 H   0  0  0  0  0  0  0  0  0  0  0  0  # atno 8008 bound_to 7997
  154.4143  140.1173  156.5307 H   0  0  0  0  0  0  0  0  0  0  0  0  # atno 8009 bound_to 7997
  155.6661  140.3473  155.4803 H   0  0  0  0  0  0  0  0  0  0  0  0  # atno 8010 bound_to 7997
  139.6110  144.0815  152.1842 H   0  0  0  0  0  0  0  0  0  0  0  0  # atno 10167 bound_to 10162
  156.0204  130.5386  150.7002 H   0  0  0  0  0  0  0  0  0  0  0  0  # atno 10718 bound_to 10713
  154.7266  135.5072  153.8896 H   0  0  0  0  0  0  0  0  0  0  0  0  # atno 10763 bound_to 10752
  153.0910  135.6659  153.9862 H   0  0  0  0  0  0  0  0  0  0  0  0  # atno 10764 bound_to 10752
  153.9673  135.3042  155.3409 H   0  0  0  0  0  0  0  0  0  0  0  0  # atno 10765 bound_to 10752
  139.9016  134.9587  156.7076 H   0  0  0  0  0  0  0  0  0  0  0  0  # atno 11005 bound_to 11000
  146.1266  139.4293  143.0195 LP  0  0  0  0  0  0  0  0  0  0  0  0  # atno 17320 bound_to 7965
  145.7226  141.0070  143.1394 LP  0  0  0  0  0  0  0  0  0  0  0  0  # atno 17321 bound_to 7965
  140.0433  144.5990  150.7393 LP  0  0  0  0  0  0  0  0  0  0  0  0  # atno 17342 bound_to 10162
  140.7319  143.2699  151.3921 LP  0  0  0  0  0  0  0  0  0  0  0  0  # atno 17343 bound_to 10162
  157.4664  131.0888  151.0690 LP  0  0  0  0  0  0  0  0  0  0  0  0  # atno 17370 bound_to 10713
  157.1163  130.6043  149.5494 LP  0  0  0  0  0  0  0  0  0  0  0  0  # atno 17371 bound_to 10713
  140.7101  133.9231  155.8079 LP  0  0  0  0  0  0  0  0  0  0  0  0  # atno 17394 bound_to 11000
  141.0307  134.0760  157.4017 LP  0  0  0  0  0  0  0  0  0  0  0  0  # atno 17395 bound_to 11000

$$$$
