AV-unprocessed.smi:101|AV-procd|sdf|939|dock9
  -GOLD-   2262017463D 1   1.00000     0.00000
 Structure written by MMmdl.
 43 45  0  0  0  0  0  0  0  0  2 V2000
  141.8906  140.8808  156.4890 C   0  0  0  0  0  0  0  0  0  0  0  0
  143.3665  141.1268  156.7483 C   0  0  0  0  0  0  0  0  0  0  0  0
  144.3321  140.6443  155.9350 C   0  0  0  0  0  0  0  0  0  0  0  0
  145.6752  140.8737  156.1765 N   0  0  0  0  0  0  0  0  0  0  0  0
  146.7349  140.3157  155.2511 C   0  0  2  0  0  0  0  0  0  0  0  0
  147.7251  139.7074  156.0169 O   0  0  0  0  0  0  0  0  0  0  0  0
  148.9414  139.7585  155.2933 C   0  0  2  0  0  0  0  0  0  0  0  0
  150.1154  139.5577  156.2591 C   0  0  0  0  0  0  0  0  0  0  0  0
  150.6344  140.8192  156.6476 O   0  0  0  0  0  0  0  0  0  0  0  0
  151.8030  140.8904  157.3138 C   0  0  0  0  0  0  0  0  0  0  0  0
  152.6484  139.9931  157.3056 O   0  0  0  0  0  0  0  0  0  0  0  0
  151.9700  142.1712  158.0599 C   0  0  0  0  0  0  0  0  0  0  0  0
  152.7796  142.1964  159.2195 C   0  0  0  0  0  0  0  0  0  0  0  0
  152.9595  143.3912  159.9433 C   0  0  0  0  0  0  0  0  0  0  0  0
  152.3310  144.5755  159.5169 C   0  0  0  0  0  0  0  0  0  0  0  0
  151.5217  144.5634  158.3657 C   0  0  0  0  0  0  0  0  0  0  0  0
  151.3407  143.3694  157.6404 C   0  0  0  0  0  0  0  0  0  0  0  0
  148.9079  141.1334  154.6149 C   0  0  1  0  0  0  0  0  0  0  0  0
  149.6096  141.0873  153.3876 O   0  0  0  0  0  0  0  0  0  0  0  0
  147.4200  141.3901  154.3754 C   0  0  2  0  0  0  0  0  0  0  0  0
  147.0859  142.7222  154.7227 O   0  0  0  0  0  0  0  0  0  0  0  0
  146.0688  141.6071  157.3248 C   0  0  0  0  0  0  0  0  0  0  0  0
  147.2737  141.7514  157.5328 O   0  0  0  0  0  0  0  0  0  0  0  0
  145.1019  142.1046  158.1474 N   0  5  0  0  0  0  0  0  0  0  0  0
  143.7701  141.9116  157.9219 C   0  0  0  0  0  0  0  0  0  0  0  0
  142.9074  142.3708  158.6698 O   0  0  0  0  0  0  0  0  0  0  0  0
  141.7405  140.2836  155.5893 H   0  0  0  0  0  0  0  0  0  0  0  0
  141.3652  141.8273  156.3577 H   0  0  0  0  0  0  0  0  0  0  0  0
  141.4396  140.3488  157.3272 H   0  0  0  0  0  0  0  0  0  0  0  0
  144.0418  140.0571  155.0763 H   0  0  0  0  0  0  0  0  0  0  0  0
  146.2532  139.5338  154.6611 H   0  0  0  0  0  0  0  0  0  0  0  0
  148.9121  138.9569  154.5522 H   0  0  0  0  0  0  0  0  0  0  0  0
  149.7953  138.9860  157.1316 H   0  0  0  0  0  0  0  0  0  0  0  0
  150.9054  138.9884  155.7678 H   0  0  0  0  0  0  0  0  0  0  0  0
  153.2727  141.2997  159.5662 H   0  0  0  0  0  0  0  0  0  0  0  0
  153.5809  143.3980  160.8268 H   0  0  0  0  0  0  0  0  0  0  0  0
  152.4694  145.4918  160.0719 H   0  0  0  0  0  0  0  0  0  0  0  0
  151.0384  145.4718  158.0377 H   0  0  0  0  0  0  0  0  0  0  0  0
  150.7123  143.3946  156.7620 H   0  0  0  0  0  0  0  0  0  0  0  0
  149.3371  141.8919  155.2718 H   0  0  0  0  0  0  0  0  0  0  0  0
  149.1805  140.4648  152.8208 H   0  0  0  0  0  0  0  0  0  0  0  0
  147.1299  141.2078  153.3398 H   0  0  0  0  0  0  0  0  0  0  0  0
  147.8821  143.1755  154.9565 H   0  0  0  0  0  0  0  0  0  0  0  0
  1  2  1  0  0  0  0
  1 27  1  0  0  0  0
  1 28  1  0  0  0  0
  1 29  1  0  0  0  0
  2 25  1  0  0  0  0
  2  3  2  0  0  0  0
  3  4  1  0  0  0  0
  3 30  1  0  0  0  0
  4  5  1  0  0  0  0
  4 22  1  0  0  0  0
  5 20  1  0  0  0  0
  5  6  1  0  0  0  0
  5 31  1  0  0  0  0
  6  7  1  0  0  0  0
  7  8  1  0  0  0  0
  7 18  1  0  0  0  0
  7 32  1  0  0  0  0
  8  9  1  0  0  0  0
  8 33  1  0  0  0  0
  8 34  1  0  0  0  0
  9 10  1  0  0  0  0
 10 11  2  0  0  0  0
 10 12  1  0  0  0  0
 12 17  1  0  0  0  0
 12 13  2  0  0  0  0
 13 14  1  0  0  0  0
 13 35  1  0  0  0  0
 14 15  2  0  0  0  0
 14 36  1  0  0  0  0
 15 16  1  0  0  0  0
 15 37  1  0  0  0  0
 16 17  2  0  0  0  0
 16 38  1  0  0  0  0
 17 39  1  0  0  0  0
 18 19  1  0  0  0  0
 18 20  1  0  0  0  0
 18 40  1  0  0  0  0
 19 41  1  0  0  0  0
 20 21  1  0  0  0  0
 20 42  1  0  0  0  0
 21 43  1  0  0  0  0
 22 23  2  0  0  0  0
 22 24  1  0  0  0  0
 24 25  1  0  0  0  0
 25 26  2  0  0  0  0
M  CHG  1  24  -1
M  END
> <s_m_source_file>
AV-unprocessed.smi

> <i_m_source_file_index>
101

> <i_lp_mmshare_version>
43012

> <i_f3d_flags>
0

> <s_epik_input>
Tz1jMVtuSF1jKD1PKW4oW2NIXWMxW0NIM10pW0NAQEhdMk9bQ0BIXShbQ0BASF0oW09IXSlbQ0BIXTJbT0hdKVtDSDJdT0MoPU8pYzNbY0hdW2NIXVtjSF1bY0hdW2NIXTM=

> <s_epik_cmdline>
J2VwaWtfcHl0aG9uJywgJy1waCcsICc3LjAnLCAnLXRuJywgJzgnLCAnLW1hJywgJzIwMCcsICctbWV0YWxfYmluZGluZycsICctaW1hZScsICc8aW5maWxlLm1hZT4nLCAnLW9tYWUnLCAnPG91dGZpbGUubWFlPic=

> <r_lp_tautomer_probability>
0.999537

> <r_epik_Ionization_Penalty>
3.21006

> <r_epik_Ionization_Penalty_Charging>
5.75142e-08

> <r_epik_Ionization_Penalty_Neutral>
3.21006

> <r_epik_State_Penalty>
3.20925

> <r_epik_Charging_Adjusted_Penalty>
3.20925

> <i_epik_Tot_Q>
-1

> <i_epik_Tot_abs_Q>
1

> <r_epik_Metal_State_Penalty>
0.119957

> <b_epik_Metal_Only>
1

> <s_epik_Chemistry_Notes>
This compound has an ester and may undergo hydrolysis at high or low pH. This compound contains an acetal/aminal-like group ( X-CH(R)-Y where X, Y are N, S, or O) that may be acid/base labile, releasing an aldehyde.

> <s_lp_Force_Field>
OPLS_2005

> <r_lp_Energy>
44.2535

> <b_lp_Chiralities_Consistent>
1

> <s_lp_Variant>
AV-unprocessed.smi:101-27

> <Gold.Version>
5.8.1

> <Gold.Id.Protein>
6NUR|6NUR_protein|mol2

> <Gold.PLP.Fitness>
48.6931

> <Gold.PLP.PLP>
-36.8777

> <Gold.PLP.part.hbond>
-4.5234

> <Gold.PLP.part.metal>
0.0000

> <Gold.PLP.part.buried>
-5.2980

> <Gold.PLP.part.nonpolar>
-27.8336

> <Gold.PLP.part.repulsive>
0.1573

> <Gold.PLP.ligand.clash>
0.0000

> <Gold.PLP.ligand.torsion>
1.4777

> <Gold.PLP.Chemscore.Hbond>
3.8400

> <Gold.PLP.Chemscore.CHOScore>
1.0000

> <Gold.PLP.Chemscore.Metal>
0.0000

> <Gold.Chemscore.Hbonds>
donor molecule, donor type, donor heavy atom, donor atom, acceptor molecule, acceptor atom, score
      L1  H    19    41       P1  7957  0.54
      L1  H    21    43       P1  8028  1.00
      P1  H  7989  7998       L1    19  0.19
      P1  H  7997  8009       L1    11  1.00
      P1  H  8011  8017       L1    19  1.00
      L1  C     3    30       P1 10175  0.74

> <Gold.PLP.Chemscore.Internal.Correction>
0.2507

> <Gold.Rescore>
     Score         DG    S(hbond)    S(metal)    S(lipo)     H(rot)  DE(clash)    DE(int)     intcor
     14.46     -18.13       3.03        0.00      93.07       3.27       0.16       3.51       ----

> <Gold.Chemscore.Fitness>
14.4629

> <Gold.Chemscore.DG>
-18.1333

> <Gold.Chemscore.ZeroCoef>
-5.4800

> <Gold.Chemscore.Hbond>
3.0312

> <Gold.Chemscore.Metal>
0.0000

> <Gold.Chemscore.Lipo>
93.0688

> <Gold.Chemscore.Internal_Hbond>
0.0000

> <Gold.Chemscore.DEClash>
0.1589

> <Gold.Chemscore.DEInternal>
3.5115

> <Gold.Chemscore.Rot>
3.2656

> <Gold.Chemscore.Internal.Correction>
   9.000000E+99

> <Gold.Chemscore.Hbonds>
donor molecule, donor type, donor heavy atom, donor atom, acceptor molecule, acceptor atom, score
      L1  H    19    41       P1  7957  0.54
      L1  H    21    43       P1  8028  0.75
      P1  H  7989  7998       L1    19  0.15
      P1  H  7997  8009       L1    11  0.99
      P1  H  8011  8017       L1    19  0.29

> <Gold.Chemscore.Hbond.Weighted>
-10.1240

> <Gold.Chemscore.Metal.Weighted>
-0.0000

> <Gold.Chemscore.Lipo.Weighted>
-10.8891

> <Gold.Chemscore.Internal_Hbond.Weighted>
0.0000

> <Gold.Chemscore.DEClash.Weighted>
0.1589

> <Gold.Chemscore.DEInternal.Weighted>
3.5115

> <Gold.Chemscore.Rot.Weighted>
8.3598

> <Gold.Chemscore.Internal.Correction.Weighted>
   9.000000E+99

> <Gold.Protein.RotatedTorsions>
[ 6907 6896 6895 6894 ] final  167.46 input  -60.11 | X-H torsion
[ 7974 7965 7964 7962 ] final  -58.65 input  175.53 | X-H torsion
[ 8008 7997 7996 7995 ] final  172.82 input   59.86 | X-H torsion
[ 10167 10162 10161 10158 ] final -156.33 input  -65.29 | X-H torsion
[ 10718 10713 10712 10709 ] final -105.70 input   66.30 | X-H torsion
[ 10763 10752 10751 10750 ] final -128.30 input  -60.55 | X-H torsion
[ 11005 11000 10999 10996 ] final -105.03 input  -57.11 | X-H torsion

> <Gold.Protein.ActiveResidues>
 VAL166  LYS551  ARG553  GLY616  TRP617  ASP618  TYR619  PRO620  LYS621  CYS622 
 ASP623  PHE694  ASN695  SER759  ASP760  ASP761  ALA762  ILE779  LEU786  VAL792 
 PHE793  MET794  SER795  GLU796  ALA797  LYS798  CYS799  TRP800  GLU811  SER814 

> <Gold.Protein.RotatedAtoms>
  151.8630  133.3461  159.3709 H   0  0  0  0  0  0  0  0  0  0  0  0  # atno 6907 bound_to 6896
  150.7174  134.5188  159.5652 H   0  0  0  0  0  0  0  0  0  0  0  0  # atno 6908 bound_to 6896
  152.2705  134.7938  160.0466 H   0  0  0  0  0  0  0  0  0  0  0  0  # atno 6909 bound_to 6896
  145.8368  140.8443  143.0055 H   0  0  0  0  0  0  0  0  0  0  0  0  # atno 7974 bound_to 7965
  156.1137  140.1476  156.9302 H   0  0  0  0  0  0  0  0  0  0  0  0  # atno 8008 bound_to 7997
  154.4785  140.0887  156.7364 H   0  0  0  0  0  0  0  0  0  0  0  0  # atno 8009 bound_to 7997
  155.4551  140.3436  155.4308 H   0  0  0  0  0  0  0  0  0  0  0  0  # atno 8010 bound_to 7997
  139.6859  143.9502  152.2361 H   0  0  0  0  0  0  0  0  0  0  0  0  # atno 10167 bound_to 10162
  156.0357  130.5576  150.7577 H   0  0  0  0  0  0  0  0  0  0  0  0  # atno 10718 bound_to 10713
  154.8756  135.3933  154.3734 H   0  0  0  0  0  0  0  0  0  0  0  0  # atno 10763 bound_to 10752
  153.4491  135.7028  153.6125 H   0  0  0  0  0  0  0  0  0  0  0  0  # atno 10764 bound_to 10752
  153.4673  135.3798  155.2340 H   0  0  0  0  0  0  0  0  0  0  0  0  # atno 10765 bound_to 10752
  141.1073  133.8773  157.1684 H   0  0  0  0  0  0  0  0  0  0  0  0  # atno 11005 bound_to 11000
  144.6736  140.0754  143.7471 LP  0  0  0  0  0  0  0  0  0  0  0  0  # atno 17320 bound_to 7965
  145.9509  139.2733  143.1212 LP  0  0  0  0  0  0  0  0  0  0  0  0  # atno 17321 bound_to 7965
  139.9305  144.6744  150.8368 LP  0  0  0  0  0  0  0  0  0  0  0  0  # atno 17342 bound_to 10162
  140.7667  143.3312  151.2406 LP  0  0  0  0  0  0  0  0  0  0  0  0  # atno 17343 bound_to 10162
  157.5104  131.0925  151.0205 LP  0  0  0  0  0  0  0  0  0  0  0  0  # atno 17370 bound_to 10713
  157.0562  130.5807  149.5378 LP  0  0  0  0  0  0  0  0  0  0  0  0  # atno 17371 bound_to 10713
  139.9949  135.0050  157.0059 LP  0  0  0  0  0  0  0  0  0  0  0  0  # atno 17394 bound_to 11000
  140.4869  134.1232  155.7226 LP  0  0  0  0  0  0  0  0  0  0  0  0  # atno 17395 bound_to 11000

$$$$
