AV-unprocessed.smi:37|AV-procd|sdf|312|dock1
  -GOLD-   2262016123D 1   1.00000     0.00000
 Structure written by MMmdl.
 44 45  0  0  0  0  0  0  0  0  1 V2000
  151.6835  144.5313  158.2988 C   0  0  0  0  0  0  0  0  0  0  0  0
  152.3760  144.3761  159.6596 C   0  0  0  0  0  0  0  0  0  0  0  0
  152.4237  142.9211  160.1210 C   0  0  0  0  0  0  0  0  0  0  0  0
  151.3945  142.2651  160.2822 O   0  0  0  0  0  0  0  0  0  0  0  0
  153.6768  142.4781  160.3073 O   0  0  0  0  0  0  0  0  0  0  0  0
  153.8954  141.1287  160.6824 C   0  0  0  0  0  0  0  0  0  0  0  0
  153.9669  140.2576  159.4219 C   0  0  1  0  0  0  0  0  0  0  0  0
  155.3364  139.9374  159.1840 O   0  0  0  0  0  0  0  0  0  0  0  0
  155.4798  138.5583  159.0682 C   0  0  1  0  0  0  0  0  0  0  0  0
  156.8629  138.1259  159.5083 N   0  0  0  0  0  0  0  0  0  0  0  0
  157.7460  139.0786  159.9963 C   0  0  0  0  0  0  0  0  0  0  0  0
  158.9929  138.7799  160.4311 C   0  0  0  0  0  0  0  0  0  0  0  0
  159.7915  139.7621  160.8821 F   0  0  0  0  0  0  0  0  0  0  0  0
  159.4764  137.4030  160.4148 C   0  0  0  0  0  0  0  0  0  0  0  0
  160.5895  137.0337  160.7836 O   0  0  0  0  0  0  0  0  0  0  0  0
  158.5508  136.4733  159.9330 N   0  0  0  0  0  0  0  0  0  0  0  0
  157.2613  136.7667  159.4857 C   0  0  0  0  0  0  0  0  0  0  0  0
  156.5314  135.8541  159.1017 O   0  0  0  0  0  0  0  0  0  0  0  0
  154.3080  137.8980  159.8089 C   0  0  1  0  0  0  0  0  0  0  0  0
  154.5515  137.6791  161.7783 Br  0  0  0  0  0  0  0  0  0  0  0  0
  153.2108  138.9231  159.5655 C   0  0  2  0  0  0  0  0  0  0  0  0
  152.5338  138.6536  158.3425 O   0  0  0  0  0  0  0  0  0  0  0  0
  151.7123  139.5727  157.8013 C   0  0  0  0  0  0  0  0  0  0  0  0
  151.0555  140.4086  158.4220 O   0  0  0  0  0  0  0  0  0  0  0  0
  151.6421  139.4769  156.2788 C   0  0  0  0  0  0  0  0  0  0  0  0
  150.6494  140.4821  155.6793 C   0  0  0  0  0  0  0  0  0  0  0  0
  158.8374  135.5055  159.9116 H   0  0  0  0  0  0  0  0  0  0  0  0
  151.7121  145.5700  157.9702 H   0  0  0  0  0  0  0  0  0  0  0  0
  150.6365  144.2301  158.3462 H   0  0  0  0  0  0  0  0  0  0  0  0
  152.1733  143.9288  157.5331 H   0  0  0  0  0  0  0  0  0  0  0  0
  153.3949  144.7596  159.6014 H   0  0  0  0  0  0  0  0  0  0  0  0
  151.8572  144.9689  160.4133 H   0  0  0  0  0  0  0  0  0  0  0  0
  154.8334  141.0596  161.2347 H   0  0  0  0  0  0  0  0  0  0  0  0
  153.1013  140.7820  161.3447 H   0  0  0  0  0  0  0  0  0  0  0  0
  153.5927  140.8302  158.5718 H   0  0  0  0  0  0  0  0  0  0  0  0
  155.4363  138.3424  157.9989 H   0  0  0  0  0  0  0  0  0  0  0  0
  157.4374  140.1139  160.0259 H   0  0  0  0  0  0  0  0  0  0  0  0
  154.0940  136.9130  159.3930 H   0  0  0  0  0  0  0  0  0  0  0  0
  152.4925  138.9555  160.3865 H   0  0  0  0  0  0  0  0  0  0  0  0
  152.6384  139.6439  155.8688 H   0  0  0  0  0  0  0  0  0  0  0  0
  151.3524  138.4626  156.0029 H   0  0  0  0  0  0  0  0  0  0  0  0
  150.5888  140.3621  154.5976 H   0  0  0  0  0  0  0  0  0  0  0  0
  150.9505  141.5109  155.8798 H   0  0  0  0  0  0  0  0  0  0  0  0
  149.6468  140.3391  156.0842 H   0  0  0  0  0  0  0  0  0  0  0  0
  1  2  1  0  0  0  0
  1 28  1  0  0  0  0
  1 29  1  0  0  0  0
  1 30  1  0  0  0  0
  2  3  1  0  0  0  0
  2 31  1  0  0  0  0
  2 32  1  0  0  0  0
  3  4  2  0  0  0  0
  3  5  1  0  0  0  0
  5  6  1  0  0  0  0
  6  7  1  0  0  0  0
  6 33  1  0  0  0  0
  6 34  1  0  0  0  0
  7 21  1  0  0  0  0
  7  8  1  0  0  0  0
  7 35  1  0  0  0  0
  8  9  1  0  0  0  0
  9 10  1  0  0  0  0
  9 19  1  0  0  0  0
  9 36  1  0  0  0  0
 10 17  1  0  0  0  0
 10 11  1  0  0  0  0
 11 12  2  0  0  0  0
 11 37  1  0  0  0  0
 12 13  1  0  0  0  0
 12 14  1  0  0  0  0
 14 15  2  0  0  0  0
 14 16  1  0  0  0  0
 16 27  1  0  0  0  0
 16 17  1  0  0  0  0
 17 18  2  0  0  0  0
 19 20  1  0  0  0  0
 19 21  1  0  0  0  0
 19 38  1  0  0  0  0
 21 22  1  0  0  0  0
 21 39  1  0  0  0  0
 22 23  1  0  0  0  0
 23 24  2  0  0  0  0
 23 25  1  0  0  0  0
 25 26  1  0  0  0  0
 25 40  1  0  0  0  0
 25 41  1  0  0  0  0
 26 42  1  0  0  0  0
 26 43  1  0  0  0  0
 26 44  1  0  0  0  0
M  END
> <s_m_source_file>
AV-unprocessed.smi

> <i_m_source_file_index>
37

> <i_lp_mmshare_version>
43012

> <i_f3d_flags>
0

> <s_epik_input>
W0NIM11bQ0gyXUMoPU8pT1tDSDJdW0NAQEhdMU9bQ0BASF0objJbY0hdYyhGKWMoPU8pW25IXWMyPU8pW0NAQEhdKEJyKVtDQEhdMU9DKD1PKVtDSDJdW0NIM10=

> <s_epik_cmdline>
J2VwaWtfcHl0aG9uJywgJy1waCcsICc3LjAnLCAnLXRuJywgJzgnLCAnLW1hJywgJzIwMCcsICctbWV0YWxfYmluZGluZycsICctaW1hZScsICc8aW5maWxlLm1hZT4nLCAnLW9tYWUnLCAnPG91dGZpbGUubWFlPic=

> <r_lp_tautomer_probability>
0.999537

> <r_epik_Ionization_Penalty>
0.104106

> <r_epik_Ionization_Penalty_Charging>
0.104106

> <r_epik_Ionization_Penalty_Neutral>
3.94675e-16

> <r_epik_State_Penalty>
0.0940182

> <r_epik_Charging_Adjusted_Penalty>
0.198124

> <i_epik_Tot_Q>
0

> <i_epik_Tot_abs_Q>
0

> <r_epik_Metal_State_Penalty>
3.05314

> <b_epik_Metal_Only>
0

> <s_epik_Chemistry_Notes>
This compound has an ester and may undergo hydrolysis at high or low pH. This compound contains an acetal/aminal-like group ( X-CH(R)-Y where X, Y are N, S, or O) that may be acid/base labile, releasing an aldehyde.

> <s_lp_Force_Field>
OPLS_2005

> <r_lp_Energy>
23.0288

> <b_lp_Chiralities_Consistent>
1

> <s_lp_Variant>
AV-unprocessed.smi:37-10

> <Gold.Version>
5.8.1

> <Gold.Id.Protein>
6NUR|6NUR_protein|mol2

> <Gold.PLP.Fitness>
36.4885

> <Gold.PLP.PLP>
-35.4884

> <Gold.PLP.part.hbond>
-2.0000

> <Gold.PLP.part.metal>
0.0000

> <Gold.PLP.part.buried>
-4.5864

> <Gold.PLP.part.nonpolar>
-28.7977

> <Gold.PLP.part.repulsive>
0.0680

> <Gold.PLP.ligand.clash>
0.0000

> <Gold.PLP.ligand.torsion>
1.2182

> <Gold.PLP.Chemscore.Hbond>
1.0000

> <Gold.PLP.Chemscore.CHOScore>
0.0000

> <Gold.PLP.Chemscore.Metal>
0.0000

> <Gold.Chemscore.Hbonds>
donor molecule, donor type, donor heavy atom, donor atom, acceptor molecule, acceptor atom, score
      P1  H  7997  8008       L1     8  0.38

> <Gold.PLP.Chemscore.Internal.Correction>
0.4365

> <Gold.Rescore>
     Score         DG    S(hbond)    S(metal)    S(lipo)     H(rot)  DE(clash)    DE(int)     intcor
      5.38      -7.44       0.47        0.00      76.14       3.33       0.05       2.02       ----

> <Gold.Chemscore.Fitness>
5.3754

> <Gold.Chemscore.DG>
-7.4429

> <Gold.Chemscore.ZeroCoef>
-5.4800

> <Gold.Chemscore.Hbond>
0.4730

> <Gold.Chemscore.Metal>
0.0000

> <Gold.Chemscore.Lipo>
76.1425

> <Gold.Chemscore.Internal_Hbond>
0.0000

> <Gold.Chemscore.DEClash>
0.0494

> <Gold.Chemscore.DEInternal>
2.0181

> <Gold.Chemscore.Rot>
3.3303

> <Gold.Chemscore.Internal.Correction>
   9.000000E+99

> <Gold.Chemscore.Hbonds>
donor molecule, donor type, donor heavy atom, donor atom, acceptor molecule, acceptor atom, score
      P1  H  6933  6945       L1     4  0.01
      P1  H  7997  8008       L1     8  0.01

> <Gold.Chemscore.Hbond.Weighted>
-1.5798

> <Gold.Chemscore.Metal.Weighted>
-0.0000

> <Gold.Chemscore.Lipo.Weighted>
-8.9087

> <Gold.Chemscore.Internal_Hbond.Weighted>
0.0000

> <Gold.Chemscore.DEClash.Weighted>
0.0494

> <Gold.Chemscore.DEInternal.Weighted>
2.0181

> <Gold.Chemscore.Rot.Weighted>
8.5256

> <Gold.Chemscore.Internal.Correction.Weighted>
   9.000000E+99

> <Gold.Protein.RotatedTorsions>
[ 6907 6896 6895 6894 ] final -119.01 input  -60.11 | X-H torsion
[ 7974 7965 7964 7962 ] final  -19.80 input  175.53 | X-H torsion
[ 8008 7997 7996 7995 ] final -148.21 input   59.86 | X-H torsion
[ 10167 10162 10161 10158 ] final   81.53 input  -65.29 | X-H torsion
[ 10718 10713 10712 10709 ] final  138.55 input   66.30 | X-H torsion
[ 10763 10752 10751 10750 ] final -150.89 input  -60.55 | X-H torsion
[ 11005 11000 10999 10996 ] final   80.92 input  -57.11 | X-H torsion

> <Gold.Protein.ActiveResidues>
 VAL166  LYS551  ARG553  GLY616  TRP617  ASP618  TYR619  PRO620  LYS621  CYS622 
 ASP623  PHE694  ASN695  SER759  ASP760  ASP761  ALA762  ILE779  LEU786  VAL792 
 PHE793  MET794  SER795  GLU796  ALA797  LYS798  CYS799  TRP800  GLU811  SER814 

> <Gold.Protein.RotatedAtoms>
  150.8269  133.8157  159.3114 H   0  0  0  0  0  0  0  0  0  0  0  0  # atno 6907 bound_to 6896
  151.5899  135.1052  160.0046 H   0  0  0  0  0  0  0  0  0  0  0  0  # atno 6908 bound_to 6896
  152.4353  133.7308  159.6643 H   0  0  0  0  0  0  0  0  0  0  0  0  # atno 6909 bound_to 6896
  146.1822  140.4113  142.8490 H   0  0  0  0  0  0  0  0  0  0  0  0  # atno 7974 bound_to 7965
  155.5879  140.0649  157.2766 H   0  0  0  0  0  0  0  0  0  0  0  0  # atno 8008 bound_to 7997
  154.4313  140.1840  156.1091 H   0  0  0  0  0  0  0  0  0  0  0  0  # atno 8009 bound_to 7997
  156.0255  140.3312  155.7087 H   0  0  0  0  0  0  0  0  0  0  0  0  # atno 8010 bound_to 7997
  139.9383  144.6107  150.8277 H   0  0  0  0  0  0  0  0  0  0  0  0  # atno 10167 bound_to 10162
  157.4241  131.1041  151.0322 H   0  0  0  0  0  0  0  0  0  0  0  0  # atno 10718 bound_to 10713
  154.8092  135.3273  154.7351 H   0  0  0  0  0  0  0  0  0  0  0  0  # atno 10763 bound_to 10752
  153.8004  135.6904  153.4861 H   0  0  0  0  0  0  0  0  0  0  0  0  # atno 10764 bound_to 10752
  153.1858  135.4569  155.0032 H   0  0  0  0  0  0  0  0  0  0  0  0  # atno 10765 bound_to 10752
  139.9116  134.7957  156.1973 H   0  0  0  0  0  0  0  0  0  0  0  0  # atno 11005 bound_to 11000
  144.8335  140.6744  143.6276 LP  0  0  0  0  0  0  0  0  0  0  0  0  # atno 17320 bound_to 7965
  145.4043  139.1592  143.4160 LP  0  0  0  0  0  0  0  0  0  0  0  0  # atno 17321 bound_to 7965
  140.7618  143.3183  151.2681 LP  0  0  0  0  0  0  0  0  0  0  0  0  # atno 17342 bound_to 10162
  139.6725  143.9994  152.2762 LP  0  0  0  0  0  0  0  0  0  0  0  0  # atno 17343 bound_to 10162
  157.1242  130.6074  149.5512 LP  0  0  0  0  0  0  0  0  0  0  0  0  # atno 17370 bound_to 10713
  155.9890  130.4936  150.7196 LP  0  0  0  0  0  0  0  0  0  0  0  0  # atno 17371 bound_to 10713
  141.0546  133.6871  156.1837 LP  0  0  0  0  0  0  0  0  0  0  0  0  # atno 17394 bound_to 11000
  140.6756  134.4821  157.5588 LP  0  0  0  0  0  0  0  0  0  0  0  0  # atno 17395 bound_to 11000

$$$$
