AV-unprocessed.smi:672|AV-procd|sdf|3292|dock5
  -GOLD-   22720 0253D 1   1.00000     0.00000
 Structure written by MMmdl.
 36 37  0  0  0  0  0  0  0  0  1 V2000
  146.2066  129.4368  152.0351 C   0  0  0  0  0  0  0  0  0  0  0  0
  147.3579  129.2431  153.0276 C   0  0  0  0  0  0  0  0  0  0  0  0
  147.9911  130.5324  153.4327 C   0  0  0  0  0  0  0  0  0  0  0  0
  149.0537  130.5926  154.2450 N   0  0  0  0  0  0  0  0  0  0  0  0
  149.4785  131.8961  154.4603 N   0  0  0  0  0  0  0  0  0  0  0  0
  148.7305  132.7829  153.7893 C   0  0  0  0  0  0  0  0  0  0  0  0
  148.9457  134.1862  153.8280 N   0  0  0  0  0  0  0  0  0  0  0  0
  149.4687  134.9216  154.8248 C   0  0  0  0  0  0  0  0  0  0  0  0
  149.8635  134.4805  155.9045 O   0  0  0  0  0  0  0  0  0  0  0  0
  149.5066  136.2220  154.5001 N   0  0  0  0  0  0  0  0  0  0  0  0
  150.0129  137.2875  155.3625 C   0  0  1  0  0  0  0  0  0  0  0  0
  151.4151  137.7394  154.9114 C   0  0  0  0  0  0  0  0  0  0  0  0
  151.3634  139.2662  154.8289 C   0  0  0  0  0  0  0  0  0  0  0  0
  149.9065  139.5774  154.4915 C   0  0  2  0  0  0  0  0  0  0  0  0
  149.4256  141.2826  154.8902 S   0  0  0  0  0  0  0  0  0  0  0  0
  147.8650  141.4008  153.9767 C   0  0  0  0  0  0  0  0  0  0  0  0
  149.1190  138.5421  155.2977 C   0  0  0  0  0  0  0  0  0  0  0  0
  147.4364  132.0892  152.8275 S   0  0  0  0  0  0  0  0  0  0  0  0
  145.7672  128.4781  151.7596 H   0  0  0  0  0  0  0  0  0  0  0  0
  146.5524  129.9203  151.1209 H   0  0  0  0  0  0  0  0  0  0  0  0
  145.4172  130.0547  152.4638 H   0  0  0  0  0  0  0  0  0  0  0  0
  146.9955  128.7363  153.9222 H   0  0  0  0  0  0  0  0  0  0  0  0
  148.1204  128.5973  152.5909 H   0  0  0  0  0  0  0  0  0  0  0  0
  148.6613  134.6901  153.0013 H   0  0  0  0  0  0  0  0  0  0  0  0
  149.1616  136.4970  153.5923 H   0  0  0  0  0  0  0  0  0  0  0  0
  150.0623  136.9288  156.3925 H   0  0  0  0  0  0  0  0  0  0  0  0
  152.1955  137.3973  155.5918 H   0  0  0  0  0  0  0  0  0  0  0  0
  151.6516  137.3386  153.9244 H   0  0  0  0  0  0  0  0  0  0  0  0
  151.6208  139.6929  155.7993 H   0  0  0  0  0  0  0  0  0  0  0  0
  152.0624  139.6654  154.0935 H   0  0  0  0  0  0  0  0  0  0  0  0
  149.7352  139.3998  153.4287 H   0  0  0  0  0  0  0  0  0  0  0  0
  147.4073  142.3758  154.1437 H   0  0  0  0  0  0  0  0  0  0  0  0
  147.1689  140.6308  154.3093 H   0  0  0  0  0  0  0  0  0  0  0  0
  148.0353  141.2800  152.9070 H   0  0  0  0  0  0  0  0  0  0  0  0
  148.1337  138.3542  154.8685 H   0  0  0  0  0  0  0  0  0  0  0  0
  148.9576  138.9111  156.3117 H   0  0  0  0  0  0  0  0  0  0  0  0
  1  2  1  0  0  0  0
  1 19  1  0  0  0  0
  1 20  1  0  0  0  0
  1 21  1  0  0  0  0
  2  3  1  0  0  0  0
  2 22  1  0  0  0  0
  2 23  1  0  0  0  0
  3 18  1  0  0  0  0
  3  4  2  0  0  0  0
  4  5  1  0  0  0  0
  5  6  2  0  0  0  0
  6  7  1  0  0  0  0
  6 18  1  0  0  0  0
  7  8  1  0  0  0  0
  7 24  1  0  0  0  0
  8  9  2  0  0  0  0
  8 10  1  0  0  0  0
 10 11  1  0  0  0  0
 10 25  1  0  0  0  0
 11 17  1  0  0  0  0
 11 12  1  0  0  0  0
 11 26  1  0  0  0  0
 12 13  1  0  0  0  0
 12 27  1  0  0  0  0
 12 28  1  0  0  0  0
 13 14  1  0  0  0  0
 13 29  1  0  0  0  0
 13 30  1  0  0  0  0
 14 15  1  0  0  0  0
 14 17  1  0  0  0  0
 14 31  1  0  0  0  0
 15 16  1  0  0  0  0
 16 32  1  0  0  0  0
 16 33  1  0  0  0  0
 16 34  1  0  0  0  0
 17 35  1  0  0  0  0
 17 36  1  0  0  0  0
M  END
> <s_m_source_file>
AV-unprocessed.smi

> <i_m_source_file_index>
672

> <i_lp_mmshare_version>
43012

> <i_f3d_flags>
0

> <s_epik_input>
W0NIM11bQ0gyXWMxbm5jKHMxKVtOSF1DKD1PKVtOSF1bQ0BASF0yW0NIMl1bQ0gyXVtDQEhdKFtDSDJdMilTW0NIM10=

> <s_epik_cmdline>
J2VwaWtfcHl0aG9uJywgJy1waCcsICc3LjAnLCAnLXRuJywgJzgnLCAnLW1hJywgJzIwMCcsICctbWV0YWxfYmluZGluZycsICctaW1hZScsICc8aW5maWxlLm1hZT4nLCAnLW9tYWUnLCAnPG91dGZpbGUubWFlPic=

> <r_lp_tautomer_probability>
1

> <r_epik_Ionization_Penalty>
0.000422169

> <r_epik_Ionization_Penalty_Charging>
0

> <r_epik_Ionization_Penalty_Neutral>
0.000422169

> <r_epik_State_Penalty>
-0

> <r_epik_Charging_Adjusted_Penalty>
0

> <i_epik_Tot_Q>
0

> <i_epik_Tot_abs_Q>
0

> <r_epik_Metal_State_Penalty>
0.200061

> <b_epik_Metal_Only>
0

> <s_lp_Force_Field>
OPLS_2005

> <r_lp_Energy>
11.6788

> <b_lp_Chiralities_Consistent>
1

> <s_lp_Variant>
AV-unprocessed.smi:672-4

> <Gold.Version>
5.8.1

> <Gold.Id.Protein>
6NUR|6NUR_protein|mol2

> <Gold.PLP.Fitness>
37.5211

> <Gold.PLP.PLP>
-32.7074

> <Gold.PLP.part.hbond>
-2.0000

> <Gold.PLP.part.metal>
0.0000

> <Gold.PLP.part.buried>
-1.4637

> <Gold.PLP.part.nonpolar>
-27.9744

> <Gold.PLP.part.repulsive>
0.1344

> <Gold.PLP.ligand.clash>
0.0000

> <Gold.PLP.ligand.torsion>
0.5407

> <Gold.PLP.Chemscore.Hbond>
1.9600

> <Gold.PLP.Chemscore.CHOScore>
0.0000

> <Gold.PLP.Chemscore.Metal>
0.0000

> <Gold.Chemscore.Hbonds>
donor molecule, donor type, donor heavy atom, donor atom, acceptor molecule, acceptor atom, score
      L1  H     7    24       P1  7948  0.90
      L1  H    10    25       P1  7948  1.00

> <Gold.PLP.Chemscore.Internal.Correction>
0.0151

> <Gold.Rescore>
     Score         DG    S(hbond)    S(metal)    S(lipo)     H(rot)  DE(clash)    DE(int)     intcor
     13.27     -14.83       1.48        0.00      67.61       1.37       0.07       1.49       ----

> <Gold.Chemscore.Fitness>
13.2716

> <Gold.Chemscore.DG>
-14.8325

> <Gold.Chemscore.ZeroCoef>
-5.4800

> <Gold.Chemscore.Hbond>
1.4793

> <Gold.Chemscore.Metal>
0.0000

> <Gold.Chemscore.Lipo>
67.6141

> <Gold.Chemscore.Internal_Hbond>
0.0000

> <Gold.Chemscore.DEClash>
0.0659

> <Gold.Chemscore.DEInternal>
1.4949

> <Gold.Chemscore.Rot>
1.3669

> <Gold.Chemscore.Internal.Correction>
   9.000000E+99

> <Gold.Chemscore.Hbonds>
donor molecule, donor type, donor heavy atom, donor atom, acceptor molecule, acceptor atom, score
      L1  H     7    24       P1  7948  0.20
      L1  H    10    25       P1  7948  0.93

> <Gold.Chemscore.Hbond.Weighted>
-4.9408

> <Gold.Chemscore.Metal.Weighted>
-0.0000

> <Gold.Chemscore.Lipo.Weighted>
-7.9109

> <Gold.Chemscore.Internal_Hbond.Weighted>
0.0000

> <Gold.Chemscore.DEClash.Weighted>
0.0659

> <Gold.Chemscore.DEInternal.Weighted>
1.4949

> <Gold.Chemscore.Rot.Weighted>
3.4992

> <Gold.Chemscore.Internal.Correction.Weighted>
   9.000000E+99

> <Gold.Protein.RotatedTorsions>
[ 6907 6896 6895 6894 ] final -118.75 input  -60.11 | X-H torsion
[ 7974 7965 7964 7962 ] final    9.99 input  175.53 | X-H torsion
[ 8008 7997 7996 7995 ] final  -70.27 input   59.86 | X-H torsion
[ 10167 10162 10161 10158 ] final   18.60 input  -65.29 | X-H torsion
[ 10718 10713 10712 10709 ] final  120.40 input   66.30 | X-H torsion
[ 10763 10752 10751 10750 ] final -149.96 input  -60.55 | X-H torsion
[ 11005 11000 10999 10996 ] final  101.44 input  -57.11 | X-H torsion

> <Gold.Protein.ActiveResidues>
 VAL166  LYS551  ARG553  GLY616  TRP617  ASP618  TYR619  PRO620  LYS621  CYS622 
 ASP623  PHE694  ASN695  SER759  ASP760  ASP761  ALA762  ILE779  LEU786  VAL792 
 PHE793  MET794  SER795  GLU796  ALA797  LYS798  CYS799  TRP800  GLU811  SER814 

> <Gold.Protein.RotatedAtoms>
  150.8246  133.8194  159.3124 H   0  0  0  0  0  0  0  0  0  0  0  0  # atno 6907 bound_to 6896
  151.5942  135.1050  160.0055 H   0  0  0  0  0  0  0  0  0  0  0  0  # atno 6908 bound_to 6896
  152.4332  133.7273  159.6624 H   0  0  0  0  0  0  0  0  0  0  0  0  # atno 6909 bound_to 6896
  146.2395  139.9701  142.8448 H   0  0  0  0  0  0  0  0  0  0  0  0  # atno 7974 bound_to 7965
  154.4999  140.0837  156.7776 H   0  0  0  0  0  0  0  0  0  0  0  0  # atno 8008 bound_to 7997
  155.4027  140.3438  155.4240 H   0  0  0  0  0  0  0  0  0  0  0  0  # atno 8009 bound_to 7997
  156.1443  140.1539  156.8859 H   0  0  0  0  0  0  0  0  0  0  0  0  # atno 8010 bound_to 7997
  140.5641  143.9283  150.6664 H   0  0  0  0  0  0  0  0  0  0  0  0  # atno 10167 bound_to 10162
  157.5894  131.1066  150.8029 H   0  0  0  0  0  0  0  0  0  0  0  0  # atno 10718 bound_to 10713
  154.8147  135.3296  154.7209 H   0  0  0  0  0  0  0  0  0  0  0  0  # atno 10763 bound_to 10752
  153.7852  135.6915  153.4886 H   0  0  0  0  0  0  0  0  0  0  0  0  # atno 10764 bound_to 10752
  153.1954  135.4535  155.0148 H   0  0  0  0  0  0  0  0  0  0  0  0  # atno 10765 bound_to 10752
  139.8773  134.9183  156.4907 H   0  0  0  0  0  0  0  0  0  0  0  0  # atno 11005 bound_to 11000
  145.1689  140.9711  143.4333 LP  0  0  0  0  0  0  0  0  0  0  0  0  # atno 17320 bound_to 7965
  145.0046  139.3566  143.6150 LP  0  0  0  0  0  0  0  0  0  0  0  0  # atno 17321 bound_to 7965
  140.2741  143.3435  152.1211 LP  0  0  0  0  0  0  0  0  0  0  0  0  # atno 17342 bound_to 10162
  139.5084  144.6849  151.5912 LP  0  0  0  0  0  0  0  0  0  0  0  0  # atno 17343 bound_to 10162
  156.8455  130.5062  149.5317 LP  0  0  0  0  0  0  0  0  0  0  0  0  # atno 17370 bound_to 10713
  156.0946  130.5922  150.9792 LP  0  0  0  0  0  0  0  0  0  0  0  0  # atno 17371 bound_to 10713
  140.8660  133.8024  155.9315 LP  0  0  0  0  0  0  0  0  0  0  0  0  # atno 17394 bound_to 11000
  140.9001  134.2389  157.5046 LP  0  0  0  0  0  0  0  0  0  0  0  0  # atno 17395 bound_to 11000

$$$$
