AV-unprocessed.smi:101|AV-procd|sdf|920|dock6
  -GOLD-   2262017423D 1   1.00000     0.00000
 Structure written by MMmdl.
 44 46  0  0  0  0  0  0  0  0  1 V2000
  144.9696  140.5195  159.3451 C   0  0  0  0  0  0  0  0  0  0  0  0
  144.9530  141.2111  157.9915 C   0  0  0  0  0  0  0  0  0  0  0  0
  146.0377  141.2369  157.1752 C   0  0  0  0  0  0  0  0  0  0  0  0
  146.0548  141.8638  155.9343 N   0  0  0  0  0  0  0  0  0  0  0  0
  147.2878  141.8931  155.0468 C   0  0  1  0  0  0  0  0  0  0  0  0
  148.4190  141.5758  155.8025 O   0  0  0  0  0  0  0  0  0  0  0  0
  148.8443  140.2522  155.4988 C   0  0  2  0  0  0  0  0  0  0  0  0
  150.2990  140.0267  155.9301 C   0  0  0  0  0  0  0  0  0  0  0  0
  150.6714  141.0983  156.7803 O   0  0  0  0  0  0  0  0  0  0  0  0
  151.8343  141.0629  157.4556 C   0  0  0  0  0  0  0  0  0  0  0  0
  152.6990  140.2015  157.2840 O   0  0  0  0  0  0  0  0  0  0  0  0
  151.9648  142.1827  158.4326 C   0  0  0  0  0  0  0  0  0  0  0  0
  152.6249  141.9576  159.6632 C   0  0  0  0  0  0  0  0  0  0  0  0
  152.7635  142.9976  160.6031 C   0  0  0  0  0  0  0  0  0  0  0  0
  152.2427  144.2748  160.3245 C   0  0  0  0  0  0  0  0  0  0  0  0
  151.5838  144.5116  159.1041 C   0  0  0  0  0  0  0  0  0  0  0  0
  151.4452  143.4735  158.1625 C   0  0  0  0  0  0  0  0  0  0  0  0
  148.5529  140.1384  154.0016 C   0  0  2  0  0  0  0  0  0  0  0  0
  149.5668  140.7704  153.2417 O   0  0  0  0  0  0  0  0  0  0  0  0
  147.2286  140.8829  153.8697 C   0  0  1  0  0  0  0  0  0  0  0  0
  146.1593  139.9565  153.9602 O   0  0  0  0  0  0  0  0  0  0  0  0
  144.8943  142.5252  155.4826 C   0  0  0  0  0  0  0  0  0  0  0  0
  144.8392  143.1023  154.3972 O   0  0  0  0  0  0  0  0  0  0  0  0
  143.7800  142.4969  156.3186 N   0  0  0  0  0  0  0  0  0  0  0  0
  143.7166  141.8736  157.5669 C   0  0  0  0  0  0  0  0  0  0  0  0
  142.6714  141.9144  158.2137 O   0  0  0  0  0  0  0  0  0  0  0  0
  142.9473  142.9675  155.9954 H   0  0  0  0  0  0  0  0  0  0  0  0
  145.9438  140.0821  159.5664 H   0  0  0  0  0  0  0  0  0  0  0  0
  144.2295  139.7191  159.3725 H   0  0  0  0  0  0  0  0  0  0  0  0
  144.7357  141.2298  160.1387 H   0  0  0  0  0  0  0  0  0  0  0  0
  146.9282  140.7414  157.5298 H   0  0  0  0  0  0  0  0  0  0  0  0
  147.3907  142.9304  154.7224 H   0  0  0  0  0  0  0  0  0  0  0  0
  148.2003  139.5417  156.0202 H   0  0  0  0  0  0  0  0  0  0  0  0
  150.3892  139.0892  156.4801 H   0  0  0  0  0  0  0  0  0  0  0  0
  150.9560  139.9701  155.0609 H   0  0  0  0  0  0  0  0  0  0  0  0
  153.0333  140.9853  159.8990 H   0  0  0  0  0  0  0  0  0  0  0  0
  153.2704  142.8144  161.5389 H   0  0  0  0  0  0  0  0  0  0  0  0
  152.3484  145.0717  161.0459 H   0  0  0  0  0  0  0  0  0  0  0  0
  151.1831  145.4912  158.8889 H   0  0  0  0  0  0  0  0  0  0  0  0
  150.9339  143.6905  157.2360 H   0  0  0  0  0  0  0  0  0  0  0  0
  148.4872  139.0989  153.6766 H   0  0  0  0  0  0  0  0  0  0  0  0
  149.7112  140.2673  152.4547 H   0  0  0  0  0  0  0  0  0  0  0  0
  147.1424  141.4192  152.9236 H   0  0  0  0  0  0  0  0  0  0  0  0
  145.4758  140.2330  153.3687 H   0  0  0  0  0  0  0  0  0  0  0  0
  1  2  1  0  0  0  0
  1 28  1  0  0  0  0
  1 29  1  0  0  0  0
  1 30  1  0  0  0  0
  2 25  1  0  0  0  0
  2  3  2  0  0  0  0
  3  4  1  0  0  0  0
  3 31  1  0  0  0  0
  4  5  1  0  0  0  0
  4 22  1  0  0  0  0
  5 20  1  0  0  0  0
  5  6  1  0  0  0  0
  5 32  1  0  0  0  0
  6  7  1  0  0  0  0
  7  8  1  0  0  0  0
  7 18  1  0  0  0  0
  7 33  1  0  0  0  0
  8  9  1  0  0  0  0
  8 34  1  0  0  0  0
  8 35  1  0  0  0  0
  9 10  1  0  0  0  0
 10 11  2  0  0  0  0
 10 12  1  0  0  0  0
 12 17  1  0  0  0  0
 12 13  2  0  0  0  0
 13 14  1  0  0  0  0
 13 36  1  0  0  0  0
 14 15  2  0  0  0  0
 14 37  1  0  0  0  0
 15 16  1  0  0  0  0
 15 38  1  0  0  0  0
 16 17  2  0  0  0  0
 16 39  1  0  0  0  0
 17 40  1  0  0  0  0
 18 19  1  0  0  0  0
 18 20  1  0  0  0  0
 18 41  1  0  0  0  0
 19 42  1  0  0  0  0
 20 21  1  0  0  0  0
 20 43  1  0  0  0  0
 21 44  1  0  0  0  0
 22 23  2  0  0  0  0
 22 24  1  0  0  0  0
 24 27  1  0  0  0  0
 24 25  1  0  0  0  0
 25 26  2  0  0  0  0
M  END
> <s_m_source_file>
AV-unprocessed.smi

> <i_m_source_file_index>
101

> <i_lp_mmshare_version>
43012

> <i_f3d_flags>
0

> <s_epik_input>
Tz1jMVtuSF1jKD1PKW4oW2NIXWMxW0NIM10pW0NAQEhdMk9bQ0BIXShbQ0BASF0oW09IXSlbQ0BIXTJbT0hdKVtDSDJdT0MoPU8pYzNbY0hdW2NIXVtjSF1bY0hdW2NIXTM=

> <s_epik_cmdline>
J2VwaWtfcHl0aG9uJywgJy1waCcsICc3LjAnLCAnLXRuJywgJzgnLCAnLW1hJywgJzIwMCcsICctbWV0YWxfYmluZGluZycsICctaW1hZScsICc8aW5maWxlLm1hZT4nLCAnLW9tYWUnLCAnPG91dGZpbGUubWFlPic=

> <r_lp_tautomer_probability>
0.999537

> <r_epik_Ionization_Penalty>
0.00263537

> <r_epik_Ionization_Penalty_Charging>
0.00263428

> <r_epik_Ionization_Penalty_Neutral>
1.09111e-06

> <r_epik_State_Penalty>
0.00183335

> <r_epik_Charging_Adjusted_Penalty>
0.00446763

> <i_epik_Tot_Q>
0

> <i_epik_Tot_abs_Q>
0

> <r_epik_Metal_State_Penalty>
1.00528

> <b_epik_Metal_Only>
0

> <s_epik_Chemistry_Notes>
This compound has an ester and may undergo hydrolysis at high or low pH. This compound contains an acetal/aminal-like group ( X-CH(R)-Y where X, Y are N, S, or O) that may be acid/base labile, releasing an aldehyde.

> <s_lp_Force_Field>
OPLS_2005

> <r_lp_Energy>
36.6069

> <b_lp_Chiralities_Consistent>
1

> <s_lp_Variant>
AV-unprocessed.smi:101-8

> <Gold.Version>
5.8.1

> <Gold.Id.Protein>
6NUR|6NUR_protein|mol2

> <Gold.PLP.Fitness>
47.3364

> <Gold.PLP.PLP>
-39.7489

> <Gold.PLP.part.hbond>
-3.4486

> <Gold.PLP.part.metal>
0.0000

> <Gold.PLP.part.buried>
-5.8903

> <Gold.PLP.part.nonpolar>
-32.3045

> <Gold.PLP.part.repulsive>
1.3597

> <Gold.PLP.ligand.clash>
0.0000

> <Gold.PLP.ligand.torsion>
1.7524

> <Gold.PLP.Chemscore.Hbond>
3.6760

> <Gold.PLP.Chemscore.CHOScore>
0.0000

> <Gold.PLP.Chemscore.Metal>
0.0000

> <Gold.Chemscore.Hbonds>
donor molecule, donor type, donor heavy atom, donor atom, acceptor molecule, acceptor atom, score
      L1  H    19    42       P1  7957  0.46
      L1  H    21    44       P1 10175  1.00
      P1  H  7989  7998       L1    19  0.10
      P1  H  7997  8008       L1    11  0.99
      P1  H  8011  8017       L1    19  0.60

> <Gold.PLP.Chemscore.Internal.Correction>
0.0643

> <Gold.Rescore>
     Score         DG    S(hbond)    S(metal)    S(lipo)     H(rot)  DE(clash)    DE(int)     intcor
     15.28     -16.64       2.65        0.00      92.36       3.32       0.11       1.24       ----

> <Gold.Chemscore.Fitness>
15.2824

> <Gold.Chemscore.DG>
-16.6380

> <Gold.Chemscore.ZeroCoef>
-5.4800

> <Gold.Chemscore.Hbond>
2.6479

> <Gold.Chemscore.Metal>
0.0000

> <Gold.Chemscore.Lipo>
92.3603

> <Gold.Chemscore.Internal_Hbond>
0.0000

> <Gold.Chemscore.DEClash>
0.1145

> <Gold.Chemscore.DEInternal>
1.2411

> <Gold.Chemscore.Rot>
3.3172

> <Gold.Chemscore.Internal.Correction>
   9.000000E+99

> <Gold.Chemscore.Hbonds>
donor molecule, donor type, donor heavy atom, donor atom, acceptor molecule, acceptor atom, score
      L1  H    19    42       P1  7957  0.45
      L1  H    21    44       P1 10175  0.94
      P1  H  7997  8008       L1    11  0.93
      P1  H  8011  8017       L1    19  0.04

> <Gold.Chemscore.Hbond.Weighted>
-8.8439

> <Gold.Chemscore.Metal.Weighted>
-0.0000

> <Gold.Chemscore.Lipo.Weighted>
-10.8062

> <Gold.Chemscore.Internal_Hbond.Weighted>
0.0000

> <Gold.Chemscore.DEClash.Weighted>
0.1145

> <Gold.Chemscore.DEInternal.Weighted>
1.2411

> <Gold.Chemscore.Rot.Weighted>
8.4920

> <Gold.Chemscore.Internal.Correction.Weighted>
   9.000000E+99

> <Gold.Protein.RotatedTorsions>
[ 6907 6896 6895 6894 ] final  169.34 input  -60.11 | X-H torsion
[ 7974 7965 7964 7962 ] final  -88.28 input  175.53 | X-H torsion
[ 8008 7997 7996 7995 ] final  -70.22 input   59.86 | X-H torsion
[ 10167 10162 10161 10158 ] final  157.18 input  -65.29 | X-H torsion
[ 10718 10713 10712 10709 ] final  -19.64 input   66.30 | X-H torsion
[ 10763 10752 10751 10750 ] final   28.91 input  -60.55 | X-H torsion
[ 11005 11000 10999 10996 ] final  103.23 input  -57.11 | X-H torsion

> <Gold.Protein.ActiveResidues>
 VAL166  LYS551  ARG553  GLY616  TRP617  ASP618  TYR619  PRO620  LYS621  CYS622 
 ASP623  PHE694  ASN695  SER759  ASP760  ASP761  ALA762  ILE779  LEU786  VAL792 
 PHE793  MET794  SER795  GLU796  ALA797  LYS798  CYS799  TRP800  GLU811  SER814 

> <Gold.Protein.RotatedAtoms>
  151.8335  133.3412  159.3620 H   0  0  0  0  0  0  0  0  0  0  0  0  # atno 6907 bound_to 6896
  150.7257  134.5460  159.5780 H   0  0  0  0  0  0  0  0  0  0  0  0  # atno 6908 bound_to 6896
  152.2918  134.7713  160.0427 H   0  0  0  0  0  0  0  0  0  0  0  0  # atno 6909 bound_to 6896
  145.4552  140.9561  143.2000 H   0  0  0  0  0  0  0  0  0  0  0  0  # atno 7974 bound_to 7965
  154.4996  140.0838  156.7769 H   0  0  0  0  0  0  0  0  0  0  0  0  # atno 8008 bound_to 7997
  155.4034  140.3438  155.4240 H   0  0  0  0  0  0  0  0  0  0  0  0  # atno 8009 bound_to 7997
  156.1439  140.1538  156.8865 H   0  0  0  0  0  0  0  0  0  0  0  0  # atno 8010 bound_to 7997
  139.4822  144.4941  151.8265 H   0  0  0  0  0  0  0  0  0  0  0  0  # atno 10167 bound_to 10162
  156.5429  130.4682  149.6490 H   0  0  0  0  0  0  0  0  0  0  0  0  # atno 10718 bound_to 10713
  153.0462  135.6502  154.0810 H   0  0  0  0  0  0  0  0  0  0  0  0  # atno 10763 bound_to 10752
  154.0507  135.2896  155.3342 H   0  0  0  0  0  0  0  0  0  0  0  0  # atno 10764 bound_to 10752
  154.6721  135.5352  153.8218 H   0  0  0  0  0  0  0  0  0  0  0  0  # atno 10765 bound_to 10752
  139.8782  134.9255  156.5178 H   0  0  0  0  0  0  0  0  0  0  0  0  # atno 11005 bound_to 11000
  144.8036  139.6093  143.7060 LP  0  0  0  0  0  0  0  0  0  0  0  0  # atno 17320 bound_to 7965
  146.2482  139.6142  142.9445 LP  0  0  0  0  0  0  0  0  0  0  0  0  # atno 17321 bound_to 7965
  140.4428  144.1963  150.5892 LP  0  0  0  0  0  0  0  0  0  0  0  0  # atno 17342 bound_to 10162
  140.4665  143.2429  151.9148 LP  0  0  0  0  0  0  0  0  0  0  0  0  # atno 17343 bound_to 10162
  156.2955  130.7148  151.2007 LP  0  0  0  0  0  0  0  0  0  0  0  0  # atno 17370 bound_to 10713
  157.7402  131.0520  150.5182 LP  0  0  0  0  0  0  0  0  0  0  0  0  # atno 17371 bound_to 10713
  140.8473  133.8159  155.9133 LP  0  0  0  0  0  0  0  0  0  0  0  0  # atno 17394 bound_to 11000
  140.9179  134.2179  157.4945 LP  0  0  0  0  0  0  0  0  0  0  0  0  # atno 17395 bound_to 11000

$$$$
