#       Name:                AV-unprocessed.smi:504
#       Creating user name   scv26
#       Creation time:       Thu Mar 26 23:21:12 2020


#       File generated by GOLD software.
#

@<TRIPOS>MOLECULE
AV-unprocessed.smi:504
    41    42     1
SMALL
NO_CHARGES


@<TRIPOS>ATOM
      1 ****        -1.7913   2.4045   0.8480 N.1            1 S1                 0.0000
      2 ****        -1.6359   1.4875   0.1594 C.1            1 S1                 0.0000
      3 ****        -1.4379   0.3176  -0.7206 C.3            1 S1                 0.0000
      4 ****        -0.0208  -0.0453  -0.7970 N.am           1 S1                 0.0000
      5 ****         0.8078  -0.2870   0.2321 C.2            1 S1                 0.0000
      6 ****         0.4520  -0.2556   1.4106 O.2            1 S1                 0.0000
      7 ****         2.2562  -0.6343  -0.1424 C.3            1 S1                 0.0000
      8 ****         3.2147  -0.4016   0.9483 N.am           1 S1                 0.0000
      9 ****         3.5913  -1.5494   1.6233 N.2            1 S1                 0.0000
     10 ****         4.4182  -1.4638   2.6078 C.2            1 S1                 0.0000
     11 ****         4.9772  -0.2009   3.0371 C.2            1 S1                 0.0000
     12 ****         6.0821  -0.1488   4.3652 Cl             1 S1                 0.0000
     13 ****         4.6059   0.9178   2.3652 C.2            1 S1                 0.0000
     14 ****         5.2334   2.4650   2.8197 Cl             1 S1                 0.0000
     15 ****         3.6663   0.8581   1.2368 C.2            1 S1                 0.0000
     16 ****         3.3080   1.8489   0.5985 O.2            1 S1                 0.0000
     17 ****        -2.2685  -0.8901  -0.2167 C.3            1 S1                 0.0000
     18 ****        -3.7826  -0.6266  -0.2876 C.3            1 S1                 0.0000
     19 ****        -4.2135  -0.2511  -1.7124 C.3            1 S1                 0.0000
     20 ****        -3.4073   0.9445  -2.2395 C.3            1 S1                 0.0000
     21 ****        -1.8955   0.6725  -2.1540 C.3            1 S1                 0.0000
     22 ****         0.3706  -0.1028  -1.7257 H              1 S1                 0.0000
     23 ****         2.2818  -1.6807  -0.4521 H              1 S1                 0.0000
     24 ****         2.5527  -0.0616  -1.0234 H              1 S1                 0.0000
     25 ****         4.7415  -2.3400   3.1700 H              1 S1                 0.0000
     26 ****        -2.0334  -1.7734  -0.8123 H              1 S1                 0.0000
     27 ****        -2.0006  -1.1370   0.8110 H              1 S1                 0.0000
     28 ****        -4.3286  -1.5103   0.0437 H              1 S1                 0.0000
     29 ****        -4.0518   0.1755   0.4006 H              1 S1                 0.0000
     30 ****        -4.0715  -1.1069  -2.3737 H              1 S1                 0.0000
     31 ****        -5.2789  -0.0201  -1.7309 H              1 S1                 0.0000
     32 ****        -3.6886   1.1534  -3.2721 H              1 S1                 0.0000
     33 ****        -3.6574   1.8383  -1.6667 H              1 S1                 0.0000
     34 ****        -1.3499   1.5459  -2.5143 H              1 S1                 0.0000
     35 ****        -1.6457  -0.1432  -2.8347 H              1 S1                 0.0000
     36 ****        -1.9256   3.1969   1.4430 LP             1 S1                 0.0000
     37 ****        -0.4973  -0.0416   1.6407 LP             1 S1                 0.0000
     38 ****         1.1124  -0.4440   2.1374 LP             1 S1                 0.0000
     39 ****         3.2246  -2.4384   1.3491 LP             1 S1                 0.0000
     40 ****         2.6649   1.7489  -0.1608 LP             1 S1                 0.0000
     41 ****         3.6602   2.7533   0.8395 LP             1 S1                 0.0000
@<TRIPOS>BOND
    1    1    2 3     
    2    2    3 1     
    3    3   21 1     
    4    3    4 1     
    5    3   17 1     
    6    4    5 am    
    7    4   22 1     
    8    5    6 2     
    9    5    7 1     
   10    7    8 1     
   11    7   23 1     
   12    7   24 1     
   13    8   15 am    
   14    8    9 1     
   15    9   10 2     
   16   10   11 1     
   17   10   25 1     
   18   11   12 1     
   19   11   13 2     
   20   13   14 1     
   21   13   15 1     
   22   15   16 2     
   23   17   18 1     
   24   17   26 1     
   25   17   27 1     
   26   18   19 1     
   27   18   28 1     
   28   18   29 1     
   29   19   20 1     
   30   19   30 1     
   31   19   31 1     
   32   20   21 1     
   33   20   32 1     
   34   20   33 1     
   35   21   34 1     
   36   21   35 1     
   37    1   36 1     
   38    6   37 1     
   39    6   38 1     
   40    9   39 1     
   41   16   40 1     
   42   16   41 1     
@<TRIPOS>SUBSTRUCTURE
      1 S1             1
@<TRIPOS>SET
LONE_PAIRS      STATIC     ATOMS    <user>   **** ""
6 36 37 38 39 40 41
DONOR_HYDROGENS      STATIC     ATOMS    <user>   **** ""
1 22
ATOM$BLUE        STATIC     ATOMS    COLORGROUP SYSTEM
6 36 37 38 39 40 41
ATOM$RED        STATIC     ATOMS    COLORGROUP SYSTEM
1 22
