#       Name:                AV-unprocessed.smi:605
#       Creating user name   scv26
#       Creation time:       Thu Mar 26 23:56:00 2020


#       File generated by GOLD software.
#

@<TRIPOS>MOLECULE
AV-unprocessed.smi:605
    39    40     1
SMALL
NO_CHARGES


@<TRIPOS>ATOM
      1 ****        -5.0461   1.5368   0.2768 C.3            1 S1                 0.0000
      2 ****        -3.8331   0.9199  -0.4345 C.3            1 S1                 0.0000
      3 ****        -3.9610  -0.5966  -0.6396 C.3            1 S1                 0.0000
      4 ****        -2.5425   1.2911   0.2264 C.2            1 S1                 0.0000
      5 ****        -2.2268   0.9221   1.4717 N.2            1 S1                 0.0000
      6 ****        -0.9770   1.3846   1.8552 N.2            1 S1                 0.0000
      7 ****        -0.3588   2.0862   0.8950 C.2            1 S1                 0.0000
      8 ****         0.8682   2.6140   1.0606 N.pl3          1 S1                -1.0000
      9 ****         2.0002   1.9694   0.6718 C.2            1 S1                 0.0000
     10 ****         3.1269   2.4456   0.8043 O.2            1 S1                 0.0000
     11 ****         1.8699   0.7486   0.1167 N.am           1 S1                 0.0000
     12 ****         2.9545  -0.1004  -0.3697 C.3            1 S1                 0.0000
     13 ****         2.4150  -1.1614  -1.3486 C.3            1 S1                 0.0000
     14 ****         2.9834  -2.5020  -0.8795 C.3            1 S1                 0.0000
     15 ****         3.1658  -2.3301   0.6249 C.3            1 S1                 0.0000
     16 ****         3.6204  -0.8792   0.7820 C.3            1 S1                 0.0000
     17 ****        -1.3120   2.2518  -0.5785 S.3            1 S1                 0.0000
     18 ****        -4.9588   2.6225   0.3305 H              1 S1                 0.0000
     19 ****        -5.1420   1.1596   1.2953 H              1 S1                 0.0000
     20 ****        -5.9716   1.3058  -0.2513 H              1 S1                 0.0000
     21 ****        -3.8054   1.3620  -1.4312 H              1 S1                 0.0000
     22 ****        -3.1236  -0.9854  -1.2200 H              1 S1                 0.0000
     23 ****        -4.8778  -0.8449  -1.1747 H              1 S1                 0.0000
     24 ****        -3.9795  -1.1254   0.3138 H              1 S1                 0.0000
     25 ****         0.9347   0.3789   0.0296 H              1 S1                 0.0000
     26 ****         3.7014   0.5137  -0.8759 H              1 S1                 0.0000
     27 ****         1.3253  -1.2046  -1.3076 H              1 S1                 0.0000
     28 ****         2.6876  -0.9438  -2.3817 H              1 S1                 0.0000
     29 ****         2.3371  -3.3432  -1.1313 H              1 S1                 0.0000
     30 ****         3.9531  -2.6742  -1.3482 H              1 S1                 0.0000
     31 ****         2.2092  -2.4713   1.1301 H              1 S1                 0.0000
     32 ****         3.8762  -3.0411   1.0478 H              1 S1                 0.0000
     33 ****         4.7041  -0.8274   0.6684 H              1 S1                 0.0000
     34 ****         3.3844  -0.4819   1.7701 H              1 S1                 0.0000
     35 ****        -2.8234   0.3754   2.0593 LP             1 S1                 0.0000
     36 ****        -0.5780   1.2123   2.7558 LP             1 S1                 0.0000
     37 ****         0.9503   3.5152   1.4862 LP             1 S1                 0.0000
     38 ****         3.2423   3.3498   1.2155 LP             1 S1                 0.0000
     39 ****         3.9271   1.9284   0.5009 LP             1 S1                 0.0000
@<TRIPOS>BOND
    1    1    2 1     
    2    1   18 1     
    3    1   19 1     
    4    1   20 1     
    5    2    3 1     
    6    2    4 1     
    7    2   21 1     
    8    3   22 1     
    9    3   23 1     
   10    3   24 1     
   11    4   17 1     
   12    4    5 2     
   13    5    6 1     
   14    6    7 2     
   15    7    8 1     
   16    7   17 1     
   17    8    9 1     
   18    9   10 2     
   19    9   11 am    
   20   11   12 1     
   21   11   25 1     
   22   12   16 1     
   23   12   13 1     
   24   12   26 1     
   25   13   14 1     
   26   13   27 1     
   27   13   28 1     
   28   14   15 1     
   29   14   29 1     
   30   14   30 1     
   31   15   16 1     
   32   15   31 1     
   33   15   32 1     
   34   16   33 1     
   35   16   34 1     
   36    5   35 1     
   37    6   36 1     
   38    8   37 1     
   39   10   38 1     
   40   10   39 1     
@<TRIPOS>SUBSTRUCTURE
      1 S1             1
@<TRIPOS>SET
LONE_PAIRS      STATIC     ATOMS    <user>   **** ""
5 35 36 37 38 39
DONOR_HYDROGENS      STATIC     ATOMS    <user>   **** ""
1 25
ATOM$BLUE        STATIC     ATOMS    COLORGROUP SYSTEM
5 35 36 37 38 39
ATOM$RED        STATIC     ATOMS    COLORGROUP SYSTEM
1 25
