#       Name:                AV-unprocessed.smi:944
#       Creating user name   scv26
#       Creation time:       Fri Mar 27 02:14:00 2020


#       File generated by GOLD software.
#

@<TRIPOS>MOLECULE
AV-unprocessed.smi:944
    34    34     1
SMALL
NO_CHARGES


@<TRIPOS>ATOM
      1 ****        -3.5667   2.9630   0.5396 C.3            1 S1                 0.0000
      2 ****        -2.8850   1.7598   0.0883 N.am           1 S1                 0.0000
      3 ****        -1.8539   1.1911   0.7291 C.2            1 S1                 0.0000
      4 ****        -1.3886   1.6345   1.7805 O.2            1 S1                 0.0000
      5 ****        -1.2751  -0.0820   0.0896 C.3            1 S1                 0.0000
      6 ****        -1.8637  -1.2957   0.8279 C.3            1 S1                 0.0000
      7 ****         0.1778  -0.1231   0.2443 N.am           1 S1                 0.0000
      8 ****         1.0626   0.4992  -0.5514 C.2            1 S1                 0.0000
      9 ****         0.7397   1.1817  -1.5234 O.2            1 S1                 0.0000
     10 ****         2.5391   0.3255  -0.1947 C.3            1 S1                 0.0000
     11 ****         3.0097  -1.0006  -0.5507 N.pl3          1 S1                 0.0000
     12 ****         3.3865  -1.4999  -1.7294 C.2            1 S1                 0.0000
     13 ****         3.7549  -2.7725  -1.6786 N.2            1 S1                 0.0000
     14 ****         3.5681  -3.0111  -0.3462 C.2            1 S1                 0.0000
     15 ****         3.1221  -1.9826   0.3752 N.2            1 S1                 0.0000
     16 ****        -4.3682   3.2184  -0.1535 H              1 S1                 0.0000
     17 ****        -2.8757   3.8057   0.5874 H              1 S1                 0.0000
     18 ****        -4.0044   2.8145   1.5277 H              1 S1                 0.0000
     19 ****        -3.2121   1.3356  -0.7677 H              1 S1                 0.0000
     20 ****        -1.5413  -0.1308  -0.9683 H              1 S1                 0.0000
     21 ****        -2.9508  -1.3227   0.7429 H              1 S1                 0.0000
     22 ****        -1.6128  -1.2874   1.8898 H              1 S1                 0.0000
     23 ****        -1.4835  -2.2275   0.4076 H              1 S1                 0.0000
     24 ****         0.5365  -0.6575   1.0226 H              1 S1                 0.0000
     25 ****         3.1414   1.0643  -0.7250 H              1 S1                 0.0000
     26 ****         2.6891   0.4936   0.8730 H              1 S1                 0.0000
     27 ****         3.3882  -0.9216  -2.6419 H              1 S1                 0.0000
     28 ****         3.7662  -3.9719   0.1056 H              1 S1                 0.0000
     29 ****        -1.7817   2.4557   2.1942 LP             1 S1                 0.0000
     30 ****        -0.6179   1.1732   2.2200 LP             1 S1                 0.0000
     31 ****        -0.2263   1.2956  -1.7557 LP             1 S1                 0.0000
     32 ****         1.4433   1.6223  -2.0809 LP             1 S1                 0.0000
     33 ****         4.0761  -3.3809  -2.4044 LP             1 S1                 0.0000
     34 ****         2.9210  -1.9455   1.3541 LP             1 S1                 0.0000
@<TRIPOS>BOND
    1    1    2 1     
    2    1   16 1     
    3    1   17 1     
    4    1   18 1     
    5    2    3 am    
    6    2   19 1     
    7    3    4 2     
    8    3    5 1     
    9    5    6 1     
   10    5    7 1     
   11    5   20 1     
   12    6   21 1     
   13    6   22 1     
   14    6   23 1     
   15    7    8 am    
   16    7   24 1     
   17    8    9 2     
   18    8   10 1     
   19   10   11 1     
   20   10   25 1     
   21   10   26 1     
   22   11   15 1     
   23   11   12 1     
   24   12   13 2     
   25   12   27 1     
   26   13   14 1     
   27   14   15 2     
   28   14   28 1     
   29    4   29 1     
   30    4   30 1     
   31    9   31 1     
   32    9   32 1     
   33   13   33 1     
   34   15   34 1     
@<TRIPOS>SUBSTRUCTURE
      1 S1             1
@<TRIPOS>SET
LONE_PAIRS      STATIC     ATOMS    <user>   **** ""
6 29 30 31 32 33 34
DONOR_HYDROGENS      STATIC     ATOMS    <user>   **** ""
2 19 24
ATOM$BLUE        STATIC     ATOMS    COLORGROUP SYSTEM
6 29 30 31 32 33 34
ATOM$RED        STATIC     ATOMS    COLORGROUP SYSTEM
2 19 24
