AV-unprocessed.smi:2375|AV-procd|sdf|9443|dock1
  -GOLD-   2272013 73D 1   1.00000     0.00000
 Structure written by MMmdl.
 37 38  0  0  0  0  0  0  0  0  1 V2000
  151.8361  145.1209  160.2050 C   0  0  0  0  0  0  0  0  0  0  0  0
  152.4608  143.8173  160.5695 C   0  0  0  0  0  0  0  0  0  0  0  0
  152.4813  143.2105  161.8006 C   0  0  0  0  0  0  0  0  0  0  0  0
  153.1367  141.9776  161.8111 N   0  0  0  0  0  0  0  0  0  0  0  0
  153.6085  141.6392  160.6078 C   0  0  0  0  0  0  0  0  0  0  0  0
  154.3160  140.3486  160.3221 C   0  0  1  0  0  0  0  0  0  0  0  0
  155.4148  140.0485  161.3510 C   0  0  0  0  0  0  0  0  0  0  0  0
  153.3496  139.1626  160.1103 C   0  0  0  0  0  0  0  0  0  0  0  0
  152.2253  139.5072  159.2457 N   0  0  0  0  0  0  0  0  0  0  0  0
  152.2796  139.6236  157.9091 C   0  0  0  0  0  0  0  0  0  0  0  0
  153.2821  139.3643  157.2460 O   0  0  0  0  0  0  0  0  0  0  0  0
  151.1390  140.0526  157.3397 N   0  0  0  0  0  0  0  0  0  0  0  0
  150.8782  140.2805  155.9168 C   0  0  0  0  0  0  0  0  0  0  0  0
  150.2654  141.6783  155.6598 C   0  0  0  0  0  0  0  0  0  0  0  0
  149.1582  141.4062  154.6772 C   0  0  0  0  0  0  0  0  0  0  0  0
  148.9530  140.1039  154.4908 C   0  0  0  0  0  0  0  0  0  0  0  0
  149.8823  139.2560  155.3139 C   0  0  0  0  0  0  0  0  0  0  0  0
  153.2861  142.8525  159.3741 S   0  0  0  0  0  0  0  0  0  0  0  0
  151.4659  145.6398  161.0895 H   0  0  0  0  0  0  0  0  0  0  0  0
  150.9958  144.9685  159.5276 H   0  0  0  0  0  0  0  0  0  0  0  0
  152.5572  145.7715  159.7102 H   0  0  0  0  0  0  0  0  0  0  0  0
  152.0490  143.5797  162.7188 H   0  0  0  0  0  0  0  0  0  0  0  0
  154.8297  140.4960  159.3712 H   0  0  0  0  0  0  0  0  0  0  0  0
  156.1371  140.8637  161.4020 H   0  0  0  0  0  0  0  0  0  0  0  0
  155.9585  139.1405  161.0891 H   0  0  0  0  0  0  0  0  0  0  0  0
  154.9965  139.9097  162.3482 H   0  0  0  0  0  0  0  0  0  0  0  0
  153.8827  138.2947  159.7188 H   0  0  0  0  0  0  0  0  0  0  0  0
  152.9315  138.8585  161.0703 H   0  0  0  0  0  0  0  0  0  0  0  0
  151.3537  139.7307  159.7035 H   0  0  0  0  0  0  0  0  0  0  0  0
  150.3497  140.1819  157.9560 H   0  0  0  0  0  0  0  0  0  0  0  0
  151.8159  140.2270  155.3604 H   0  0  0  0  0  0  0  0  0  0  0  0
  149.8411  142.1212  156.5620 H   0  0  0  0  0  0  0  0  0  0  0  0
  150.9969  142.3718  155.2437 H   0  0  0  0  0  0  0  0  0  0  0  0
  148.5943  142.1995  154.2091 H   0  0  0  0  0  0  0  0  0  0  0  0
  148.1969  139.6748  153.8495 H   0  0  0  0  0  0  0  0  0  0  0  0
  150.3869  138.5110  154.6982 H   0  0  0  0  0  0  0  0  0  0  0  0
  149.3022  138.7404  156.0797 H   0  0  0  0  0  0  0  0  0  0  0  0
  1  2  1  0  0  0  0
  1 19  1  0  0  0  0
  1 20  1  0  0  0  0
  1 21  1  0  0  0  0
  2 18  1  0  0  0  0
  2  3  2  0  0  0  0
  3  4  1  0  0  0  0
  3 22  1  0  0  0  0
  4  5  2  0  0  0  0
  5  6  1  0  0  0  0
  5 18  1  0  0  0  0
  6  7  1  0  0  0  0
  6  8  1  0  0  0  0
  6 23  1  0  0  0  0
  7 24  1  0  0  0  0
  7 25  1  0  0  0  0
  7 26  1  0  0  0  0
  8  9  1  0  0  0  0
  8 27  1  0  0  0  0
  8 28  1  0  0  0  0
  9 10  1  0  0  0  0
  9 29  1  0  0  0  0
 10 11  2  0  0  0  0
 10 12  1  0  0  0  0
 12 13  1  0  0  0  0
 12 30  1  0  0  0  0
 13 17  1  0  0  0  0
 13 14  1  0  0  0  0
 13 31  1  0  0  0  0
 14 15  1  0  0  0  0
 14 32  1  0  0  0  0
 14 33  1  0  0  0  0
 15 16  2  0  0  0  0
 15 34  1  0  0  0  0
 16 17  1  0  0  0  0
 16 35  1  0  0  0  0
 17 36  1  0  0  0  0
 17 37  1  0  0  0  0
M  END
> <s_m_source_file>
AV-unprocessed.smi

> <i_m_source_file_index>
2375

> <i_lp_mmshare_version>
43012

> <i_f3d_flags>
0

> <s_epik_input>
W0NIM11jMVtjSF1uYyhzMSlbQ0BIXShbQ0gzXSlbQ0gyXVtOSF1DKD1PKVtOSF1bQ0hdMltDSDJdW0NIXT1bQ0hdW0NIMl0y

> <s_epik_cmdline>
J2VwaWtfcHl0aG9uJywgJy1waCcsICc3LjAnLCAnLXRuJywgJzgnLCAnLW1hJywgJzIwMCcsICctbWV0YWxfYmluZGluZycsICctaW1hZScsICc8aW5maWxlLm1hZT4nLCAnLW9tYWUnLCAnPG91dGZpbGUubWFlPic=

> <r_epik_Ionization_Penalty>
0.000644205

> <r_epik_Ionization_Penalty_Charging>
0

> <r_epik_Ionization_Penalty_Neutral>
0.000644205

> <r_epik_State_Penalty>
0.000370883

> <r_epik_Charging_Adjusted_Penalty>
0.000370883

> <i_epik_Tot_Q>
0

> <i_epik_Tot_abs_Q>
0

> <r_epik_Metal_State_Penalty>
-0

> <b_epik_Metal_Only>
0

> <s_lp_Force_Field>
OPLS_2005

> <r_lp_Energy>
15.8173

> <b_lp_Chiralities_Consistent>
1

> <s_lp_Variant>
AV-unprocessed.smi:2375-2

> <Gold.Version>
5.8.1

> <Gold.Id.Protein>
6NUR|6NUR_protein|mol2

> <Gold.PLP.Fitness>
43.2836

> <Gold.PLP.PLP>
-41.6741

> <Gold.PLP.part.hbond>
-0.6904

> <Gold.PLP.part.metal>
0.0000

> <Gold.PLP.part.buried>
-4.8441

> <Gold.PLP.part.nonpolar>
-35.4998

> <Gold.PLP.part.repulsive>
0.2117

> <Gold.PLP.ligand.clash>
0.0000

> <Gold.PLP.ligand.torsion>
0.7006

> <Gold.PLP.Chemscore.Hbond>
0.9440

> <Gold.PLP.Chemscore.CHOScore>
0.0000

> <Gold.PLP.Chemscore.Metal>
0.0000

> <Gold.Chemscore.Hbonds>
donor molecule, donor type, donor heavy atom, donor atom, acceptor molecule, acceptor atom, score
      P1  H  7997  8008       L1    11  0.92

> <Gold.PLP.Chemscore.Internal.Correction>
0.1786

> <Gold.Rescore>
     Score         DG    S(hbond)    S(metal)    S(lipo)     H(rot)  DE(clash)    DE(int)     intcor
     18.20     -18.62       0.98        0.00     117.32       1.50       0.14       0.28       ----

> <Gold.Chemscore.Fitness>
18.2034

> <Gold.Chemscore.DG>
-18.6235

> <Gold.Chemscore.ZeroCoef>
-5.4800

> <Gold.Chemscore.Hbond>
0.9761

> <Gold.Chemscore.Metal>
0.0000

> <Gold.Chemscore.Lipo>
117.3187

> <Gold.Chemscore.Internal_Hbond>
0.0000

> <Gold.Chemscore.DEClash>
0.1391

> <Gold.Chemscore.DEInternal>
0.2810

> <Gold.Chemscore.Rot>
1.5012

> <Gold.Chemscore.Internal.Correction>
   9.000000E+99

> <Gold.Chemscore.Hbonds>
donor molecule, donor type, donor heavy atom, donor atom, acceptor molecule, acceptor atom, score
      P1  H  7997  8008       L1    11  0.84

> <Gold.Chemscore.Hbond.Weighted>
-3.2602

> <Gold.Chemscore.Metal.Weighted>
-0.0000

> <Gold.Chemscore.Lipo.Weighted>
-13.7263

> <Gold.Chemscore.Internal_Hbond.Weighted>
0.0000

> <Gold.Chemscore.DEClash.Weighted>
0.1391

> <Gold.Chemscore.DEInternal.Weighted>
0.2810

> <Gold.Chemscore.Rot.Weighted>
3.8429

> <Gold.Chemscore.Internal.Correction.Weighted>
   9.000000E+99

> <Gold.Protein.RotatedTorsions>
[ 6907 6896 6895 6894 ] final -125.81 input  -60.11 | X-H torsion
[ 7974 7965 7964 7962 ] final -139.23 input  175.53 | X-H torsion
[ 8008 7997 7996 7995 ] final  -90.80 input   59.86 | X-H torsion
[ 10167 10162 10161 10158 ] final  -10.50 input  -65.29 | X-H torsion
[ 10718 10713 10712 10709 ] final  -56.75 input   66.30 | X-H torsion
[ 10763 10752 10751 10750 ] final  160.04 input  -60.55 | X-H torsion
[ 11005 11000 10999 10996 ] final   41.90 input  -57.11 | X-H torsion

> <Gold.Protein.ActiveResidues>
 VAL166  LYS551  ARG553  GLY616  TRP617  ASP618  TYR619  PRO620  LYS621  CYS622 
 ASP623  PHE694  ASN695  SER759  ASP760  ASP761  ALA762  ILE779  LEU786  VAL792 
 PHE793  MET794  SER795  GLU796  ALA797  LYS798  CYS799  TRP800  GLU811  SER814 

> <Gold.Protein.RotatedAtoms>
  150.8905  133.7250  159.2905 H   0  0  0  0  0  0  0  0  0  0  0  0  # atno 6907 bound_to 6896
  151.4801  135.1050  159.9785 H   0  0  0  0  0  0  0  0  0  0  0  0  # atno 6908 bound_to 6896
  152.4817  133.8223  159.7115 H   0  0  0  0  0  0  0  0  0  0  0  0  # atno 6909 bound_to 6896
  144.8694  140.6343  143.5277 H   0  0  0  0  0  0  0  0  0  0  0  0  # atno 7974 bound_to 7965
  154.7029  140.0526  157.0476 H   0  0  0  0  0  0  0  0  0  0  0  0  # atno 8008 bound_to 7997
  155.0660  140.3194  155.4626 H   0  0  0  0  0  0  0  0  0  0  0  0  # atno 8009 bound_to 7997
  156.2766  140.2090  156.5787 H   0  0  0  0  0  0  0  0  0  0  0  0  # atno 8010 bound_to 7997
  140.7115  143.5741  150.9061 H   0  0  0  0  0  0  0  0  0  0  0  0  # atno 10167 bound_to 10162
  156.1264  130.4162  150.0347 H   0  0  0  0  0  0  0  0  0  0  0  0  # atno 10718 bound_to 10713
  154.2412  135.2774  155.2853 H   0  0  0  0  0  0  0  0  0  0  0  0  # atno 10763 bound_to 10752
  154.5543  135.5666  153.6954 H   0  0  0  0  0  0  0  0  0  0  0  0  # atno 10764 bound_to 10752
  152.9999  135.6282  154.2556 H   0  0  0  0  0  0  0  0  0  0  0  0  # atno 10765 bound_to 10752
  140.1790  134.4127  155.8211 H   0  0  0  0  0  0  0  0  0  0  0  0  # atno 11005 bound_to 11000
  145.4159  139.1572  143.4100 LP  0  0  0  0  0  0  0  0  0  0  0  0  # atno 17320 bound_to 7965
  146.2919  140.4266  142.8736 LP  0  0  0  0  0  0  0  0  0  0  0  0  # atno 17321 bound_to 7965
  139.9467  143.6319  152.3040 LP  0  0  0  0  0  0  0  0  0  0  0  0  # atno 17342 bound_to 10162
  139.6823  144.7654  151.1586 LP  0  0  0  0  0  0  0  0  0  0  0  0  # atno 17343 bound_to 10162
  156.8271  130.9379  151.3639 LP  0  0  0  0  0  0  0  0  0  0  0  0  # atno 17370 bound_to 10713
  157.6445  130.8833  149.9513 LP  0  0  0  0  0  0  0  0  0  0  0  0  # atno 17371 bound_to 10713
  141.2222  133.6991  156.7898 LP  0  0  0  0  0  0  0  0  0  0  0  0  # atno 17394 bound_to 11000
  140.2289  134.8701  157.3455 LP  0  0  0  0  0  0  0  0  0  0  0  0  # atno 17395 bound_to 11000

$$$$
