AV-unprocessed.smi:3082|AV-procd|sdf|11743|dock8
  -GOLD-   2272017133D 1   1.00000     0.00000
 Structure written by MMmdl.
 28 29  0  0  0  0  0  0  0  0  2 V2000
  153.4007  142.4034  162.1966 C   0  0  0  0  0  0  0  0  0  0  0  0
  153.2269  141.8463  160.8131 C   0  0  0  0  0  0  0  0  0  0  0  0
  154.0970  140.9674  160.1082 C   0  0  0  0  0  0  0  0  0  0  0  0
  153.6495  140.6611  158.9017 N   0  0  0  0  0  0  0  0  0  0  0  0
  152.4817  141.3322  158.7905 N   0  0  0  0  0  0  0  0  0  0  0  0
  151.6903  141.2333  157.5732 C   0  0  1  0  0  0  0  0  0  0  0  0
  150.6535  140.0952  157.6607 C   0  0  0  0  0  0  0  0  0  0  0  0
  149.8213  140.0319  156.3707 C   0  0  0  0  0  0  0  0  0  0  0  0
  149.1747  141.3939  156.0672 C   0  0  0  0  0  0  0  0  0  0  0  0
  150.2008  142.4573  155.9974 N   0  3  0  0  0  0  0  0  0  0  0  0
  150.9984  142.5722  157.2381 C   0  0  0  0  0  0  0  0  0  0  0  0
  152.2051  142.0569  159.9312 C   0  0  0  0  0  0  0  0  0  0  0  0
  154.3335  142.0720  162.6537 H   0  0  0  0  0  0  0  0  0  0  0  0
  152.5917  142.0940  162.8588 H   0  0  0  0  0  0  0  0  0  0  0  0
  153.4153  143.4935  162.1921 H   0  0  0  0  0  0  0  0  0  0  0  0
  155.0348  140.5440  160.4366 H   0  0  0  0  0  0  0  0  0  0  0  0
  152.3812  140.9982  156.7614 H   0  0  0  0  0  0  0  0  0  0  0  0
  151.1531  139.1405  157.8295 H   0  0  0  0  0  0  0  0  0  0  0  0
  149.9878  140.2527  158.5105 H   0  0  0  0  0  0  0  0  0  0  0  0
  150.4589  139.7340  155.5374 H   0  0  0  0  0  0  0  0  0  0  0  0
  149.0515  139.2651  156.4610 H   0  0  0  0  0  0  0  0  0  0  0  0
  148.6375  141.3551  155.1193 H   0  0  0  0  0  0  0  0  0  0  0  0
  148.4455  141.6485  156.8376 H   0  0  0  0  0  0  0  0  0  0  0  0
  150.8260  142.2510  155.2315 H   0  0  0  0  0  0  0  0  0  0  0  0
  150.3394  142.8847  158.0496 H   0  0  0  0  0  0  0  0  0  0  0  0
  151.7397  143.3612  157.1084 H   0  0  0  0  0  0  0  0  0  0  0  0
  151.3116  142.6570  160.0225 H   0  0  0  0  0  0  0  0  0  0  0  0
  149.7457  143.3410  155.8181 H   0  0  0  0  0  0  0  0  0  0  0  0
  1  2  1  0  0  0  0
  1 13  1  0  0  0  0
  1 14  1  0  0  0  0
  1 15  1  0  0  0  0
  2 12  2  0  0  0  0
  2  3  1  0  0  0  0
  3  4  2  0  0  0  0
  3 16  1  0  0  0  0
  4  5  1  0  0  0  0
  5  6  1  0  0  0  0
  5 12  1  0  0  0  0
  6 11  1  0  0  0  0
  6  7  1  0  0  0  0
  6 17  1  0  0  0  0
  7  8  1  0  0  0  0
  7 18  1  0  0  0  0
  7 19  1  0  0  0  0
  8  9  1  0  0  0  0
  8 20  1  0  0  0  0
  8 21  1  0  0  0  0
  9 10  1  0  0  0  0
  9 22  1  0  0  0  0
  9 23  1  0  0  0  0
 10 11  1  0  0  0  0
 10 24  1  0  0  0  0
 10 28  1  0  0  0  0
 11 25  1  0  0  0  0
 11 26  1  0  0  0  0
 12 27  1  0  0  0  0
M  CHG  1  10   1
M  END
> <s_m_source_file>
AV-unprocessed.smi

> <i_m_source_file_index>
3082

> <i_lp_mmshare_version>
43012

> <i_f3d_flags>
0

> <s_epik_input>
W0NIM11jMVtjSF1ubihbY0hdMSlbQ0BASF0yW0NIMl1bQ0gyXVtDSDJdW05IXVtDSDJdMg==

> <s_epik_cmdline>
J2VwaWtfcHl0aG9uJywgJy1waCcsICc3LjAnLCAnLXRuJywgJzgnLCAnLW1hJywgJzIwMCcsICctbWV0YWxfYmluZGluZycsICctaW1hZScsICc8aW5maWxlLm1hZT4nLCAnLW9tYWUnLCAnPG91dGZpbGUubWFlPic=

> <r_lp_tautomer_probability>
1

> <r_epik_Ionization_Penalty>
0.000667973

> <r_epik_Ionization_Penalty_Charging>
0.000651447

> <r_epik_Ionization_Penalty_Neutral>
1.65255e-05

> <r_epik_State_Penalty>
-0

> <r_epik_Charging_Adjusted_Penalty>
0.000651447

> <i_epik_Tot_Q>
1

> <i_epik_Tot_abs_Q>
1

> <r_epik_Metal_State_Penalty>
-0

> <b_epik_Metal_Only>
0

> <s_lp_Force_Field>
OPLS_2005

> <r_lp_Energy>
15.6496

> <b_lp_Chiralities_Consistent>
1

> <s_lp_Variant>
AV-unprocessed.smi:3082-2

> <Gold.Version>
5.8.1

> <Gold.Id.Protein>
6NUR|6NUR_protein|mol2

> <Gold.PLP.Fitness>
32.0452

> <Gold.PLP.PLP>
-25.8722

> <Gold.PLP.part.hbond>
-2.0000

> <Gold.PLP.part.metal>
0.0000

> <Gold.PLP.part.buried>
-2.0834

> <Gold.PLP.part.nonpolar>
-21.2470

> <Gold.PLP.part.repulsive>
0.1339

> <Gold.PLP.ligand.clash>
0.0000

> <Gold.PLP.ligand.torsion>
0.7118

> <Gold.PLP.Chemscore.Hbond>
2.5262

> <Gold.PLP.Chemscore.CHOScore>
0.0000

> <Gold.PLP.Chemscore.Metal>
0.0000

> <Gold.Chemscore.Hbonds>
donor molecule, donor type, donor heavy atom, donor atom, acceptor molecule, acceptor atom, score
      L1  H    10    28       P1  8028  2.00
      P1  H  7997  8009       L1     4  0.53

> <Gold.PLP.Chemscore.Internal.Correction>
0.0179

> <Gold.Rescore>
     Score         DG    S(hbond)    S(metal)    S(lipo)     H(rot)  DE(clash)    DE(int)     intcor
     16.19     -16.94       1.86        0.00      66.78       1.00       0.01       0.74       ----

> <Gold.Chemscore.Fitness>
16.1891

> <Gold.Chemscore.DG>
-16.9446

> <Gold.Chemscore.ZeroCoef>
-5.4800

> <Gold.Chemscore.Hbond>
1.8596

> <Gold.Chemscore.Metal>
0.0000

> <Gold.Chemscore.Lipo>
66.7819

> <Gold.Chemscore.Internal_Hbond>
0.0000

> <Gold.Chemscore.DEClash>
0.0149

> <Gold.Chemscore.DEInternal>
0.7407

> <Gold.Chemscore.Rot>
1.0000

> <Gold.Chemscore.Internal.Correction>
   9.000000E+99

> <Gold.Chemscore.Hbonds>
donor molecule, donor type, donor heavy atom, donor atom, acceptor molecule, acceptor atom, score
      L1  H    10    28       P1  8028  0.99
      P1  H  7997  8009       L1     4  0.51

> <Gold.Chemscore.Hbond.Weighted>
-6.2112

> <Gold.Chemscore.Metal.Weighted>
-0.0000

> <Gold.Chemscore.Lipo.Weighted>
-7.8135

> <Gold.Chemscore.Internal_Hbond.Weighted>
0.0000

> <Gold.Chemscore.DEClash.Weighted>
0.0149

> <Gold.Chemscore.DEInternal.Weighted>
0.7407

> <Gold.Chemscore.Rot.Weighted>
2.5600

> <Gold.Chemscore.Internal.Correction.Weighted>
   9.000000E+99

> <Gold.Protein.RotatedTorsions>
[ 6907 6896 6895 6894 ] final   24.75 input  -60.11 | X-H torsion
[ 7974 7965 7964 7962 ] final  -92.05 input  175.53 | X-H torsion
[ 8008 7997 7996 7995 ] final  142.97 input   59.86 | X-H torsion
[ 10167 10162 10161 10158 ] final  -18.26 input  -65.29 | X-H torsion
[ 10718 10713 10712 10709 ] final  112.97 input   66.30 | X-H torsion
[ 10763 10752 10751 10750 ] final -173.97 input  -60.55 | X-H torsion
[ 11005 11000 10999 10996 ] final  -72.34 input  -57.11 | X-H torsion

> <Gold.Protein.ActiveResidues>
 VAL166  LYS551  ARG553  GLY616  TRP617  ASP618  TYR619  PRO620  LYS621  CYS622 
 ASP623  PHE694  ASN695  SER759  ASP760  ASP761  ALA762  ILE779  LEU786  VAL792 
 PHE793  MET794  SER795  GLU796  ALA797  LYS798  CYS799  TRP800  GLU811  SER814 

> <Gold.Protein.RotatedAtoms>
  151.9622  135.0118  160.0547 H   0  0  0  0  0  0  0  0  0  0  0  0  # atno 6907 bound_to 6896
  152.1859  133.4734  159.4990 H   0  0  0  0  0  0  0  0  0  0  0  0  # atno 6908 bound_to 6896
  150.6926  134.1692  159.4248 H   0  0  0  0  0  0  0  0  0  0  0  0  # atno 6909 bound_to 6896
  145.4049  140.9540  143.2266 H   0  0  0  0  0  0  0  0  0  0  0  0  # atno 7974 bound_to 7965
  156.2939  140.2275  156.4814 H   0  0  0  0  0  0  0  0  0  0  0  0  # atno 8008 bound_to 7997
  154.7850  140.0458  157.1178 H   0  0  0  0  0  0  0  0  0  0  0  0  # atno 8009 bound_to 7997
  154.9713  140.3067  155.4990 H   0  0  0  0  0  0  0  0  0  0  0  0  # atno 8010 bound_to 7997
  140.7256  143.4934  150.9962 H   0  0  0  0  0  0  0  0  0  0  0  0  # atno 10167 bound_to 10162
  157.6363  131.0976  150.6973 H   0  0  0  0  0  0  0  0  0  0  0  0  # atno 10718 bound_to 10713
  154.6017  135.2855  155.0528 H   0  0  0  0  0  0  0  0  0  0  0  0  # atno 10763 bound_to 10752
  154.1791  135.6460  153.5033 H   0  0  0  0  0  0  0  0  0  0  0  0  # atno 10764 bound_to 10752
  153.0159  135.5419  154.6738 H   0  0  0  0  0  0  0  0  0  0  0  0  # atno 10765 bound_to 10752
  141.1607  133.6844  156.7043 H   0  0  0  0  0  0  0  0  0  0  0  0  # atno 11005 bound_to 11000
  144.8348  139.5568  143.6927 LP  0  0  0  0  0  0  0  0  0  0  0  0  # atno 17320 bound_to 7965
  146.2733  139.6690  142.9280 LP  0  0  0  0  0  0  0  0  0  0  0  0  # atno 17321 bound_to 7965
  139.8640  143.7278  152.3171 LP  0  0  0  0  0  0  0  0  0  0  0  0  # atno 17342 bound_to 10162
  139.7503  144.7536  151.0516 LP  0  0  0  0  0  0  0  0  0  0  0  0  # atno 17343 bound_to 10162
  156.7304  130.4708  149.5501 LP  0  0  0  0  0  0  0  0  0  0  0  0  # atno 17370 bound_to 10713
  156.1606  130.6371  151.0713 LP  0  0  0  0  0  0  0  0  0  0  0  0  # atno 17371 bound_to 10713
  140.2935  134.8221  157.4037 LP  0  0  0  0  0  0  0  0  0  0  0  0  # atno 17394 bound_to 11000
  140.1326  134.5076  155.8094 LP  0  0  0  0  0  0  0  0  0  0  0  0  # atno 17395 bound_to 11000

$$$$
