AV-unprocessed.smi:240|AV-procd|sdf|1830|dock5
  -GOLD-   2262020433D 1   1.00000     0.00000
 Structure written by MMmdl.
 55 59  0  0  0  0  0  0  0  0  1 V2000
  150.0228  140.3991  153.6480 O   0  0  0  0  0  0  0  0  0  0  0  0
  148.9783  139.9744  154.5046 C   0  0  2  0  0  0  0  0  0  0  0  0
  147.6405  140.2229  153.8002 C   0  0  0  0  0  0  0  0  0  0  0  0
  147.2164  141.6447  154.1857 C   0  0  0  0  0  0  0  0  0  0  0  0
  148.2018  142.1072  155.2659 C   0  0  0  0  0  0  0  0  0  0  0  0
  148.9096  140.8402  155.7825 C   0  0  2  0  0  0  0  0  0  0  0  0
  150.2433  141.0951  156.5644 C   0  0  1  0  0  0  0  0  0  0  0  0
  150.0171  142.1288  157.7000 C   0  0  0  0  0  0  0  0  0  0  0  0
  151.2053  142.3438  158.4510 O   0  0  0  0  0  0  0  0  0  0  0  0
  151.6414  141.1569  159.0942 C   0  0  0  0  0  0  0  0  0  0  0  0
  151.9766  140.1206  158.0176 C   0  0  0  0  0  0  0  0  0  0  0  0
  150.8167  139.8772  157.1645 N   0  0  0  0  0  0  0  0  0  0  0  0
  151.0596  138.8350  156.3410 C   0  0  0  0  0  0  0  0  0  0  0  0
  151.8685  139.0640  155.2777 N   0  0  0  0  0  0  0  0  0  0  0  0
  152.1550  138.0698  154.4319 C   0  0  0  0  0  0  0  0  0  0  0  0
  151.7440  136.8001  154.4651 N   0  0  0  0  0  0  0  0  0  0  0  0
  150.9167  136.5722  155.5256 C   0  0  0  0  0  0  0  0  0  0  0  0
  150.5205  137.5274  156.5031 C   0  0  0  0  0  0  0  0  0  0  0  0
  149.6744  136.9342  157.4319 N   0  0  0  0  0  0  0  0  0  0  0  0
  149.5799  135.6964  157.0290 C   0  0  0  0  0  0  0  0  0  0  0  0
  150.2921  135.3923  155.8904 N   0  0  0  0  0  0  0  0  0  0  0  0
  150.3682  134.0957  155.2346 C   0  0  0  0  0  0  0  0  0  0  0  0
  149.0024  133.5798  154.7256 C   0  0  1  0  0  0  0  0  0  0  0  0
  148.2841  134.6602  154.1546 O   0  0  0  0  0  0  0  0  0  0  0  0
  149.1021  132.4612  153.6924 C   0  0  0  0  0  0  0  0  0  0  0  0
  147.8509  131.6372  153.9617 C   0  0  0  0  0  0  0  0  0  0  0  0
  147.7671  131.6557  155.3762 O   0  0  0  0  0  0  0  0  0  0  0  0
  148.1350  132.9526  155.8355 C   0  0  0  0  0  0  0  0  0  0  0  0
  149.7524  140.2627  152.7525 H   0  0  0  0  0  0  0  0  0  0  0  0
  149.0996  138.9129  154.7120 H   0  0  0  0  0  0  0  0  0  0  0  0
  147.6962  140.0797  152.7201 H   0  0  0  0  0  0  0  0  0  0  0  0
  146.8999  139.5163  154.1772 H   0  0  0  0  0  0  0  0  0  0  0  0
  147.2457  142.3156  153.3264 H   0  0  0  0  0  0  0  0  0  0  0  0
  146.1939  141.6443  154.5652 H   0  0  0  0  0  0  0  0  0  0  0  0
  148.9316  142.7817  154.8159 H   0  0  0  0  0  0  0  0  0  0  0  0
  147.6948  142.6553  156.0608 H   0  0  0  0  0  0  0  0  0  0  0  0
  148.2130  140.3559  156.4694 H   0  0  0  0  0  0  0  0  0  0  0  0
  150.9816  141.5215  155.8849 H   0  0  0  0  0  0  0  0  0  0  0  0
  149.7234  143.0964  157.2942 H   0  0  0  0  0  0  0  0  0  0  0  0
  149.2137  141.8073  158.3652 H   0  0  0  0  0  0  0  0  0  0  0  0
  152.5248  141.3790  159.6928 H   0  0  0  0  0  0  0  0  0  0  0  0
  150.8746  140.7854  159.7760 H   0  0  0  0  0  0  0  0  0  0  0  0
  152.8125  140.4798  157.4162 H   0  0  0  0  0  0  0  0  0  0  0  0
  152.2963  139.1909  158.4908 H   0  0  0  0  0  0  0  0  0  0  0  0
  152.8090  138.3280  153.6120 H   0  0  0  0  0  0  0  0  0  0  0  0
  148.9822  134.9652  157.5540 H   0  0  0  0  0  0  0  0  0  0  0  0
  151.0732  134.1726  154.4057 H   0  0  0  0  0  0  0  0  0  0  0  0
  150.8015  133.3827  155.9374 H   0  0  0  0  0  0  0  0  0  0  0  0
  148.7958  135.0181  153.4451 H   0  0  0  0  0  0  0  0  0  0  0  0
  149.1746  132.8147  152.6629 H   0  0  0  0  0  0  0  0  0  0  0  0
  149.9754  131.8395  153.8925 H   0  0  0  0  0  0  0  0  0  0  0  0
  146.9667  132.1105  153.5320 H   0  0  0  0  0  0  0  0  0  0  0  0
  147.9231  130.6198  153.5764 H   0  0  0  0  0  0  0  0  0  0  0  0
  148.6751  132.8539  156.7778 H   0  0  0  0  0  0  0  0  0  0  0  0
  147.2363  133.5382  156.0358 H   0  0  0  0  0  0  0  0  0  0  0  0
  1  2  1  0  0  0  0
  1 29  1  0  0  0  0
  2  6  1  0  0  0  0
  2  3  1  0  0  0  0
  2 30  1  0  0  0  0
  3  4  1  0  0  0  0
  3 31  1  0  0  0  0
  3 32  1  0  0  0  0
  4  5  1  0  0  0  0
  4 33  1  0  0  0  0
  4 34  1  0  0  0  0
  5  6  1  0  0  0  0
  5 35  1  0  0  0  0
  5 36  1  0  0  0  0
  6  7  1  0  0  0  0
  6 37  1  0  0  0  0
  7 12  1  0  0  0  0
  7  8  1  0  0  0  0
  7 38  1  0  0  0  0
  8  9  1  0  0  0  0
  8 39  1  0  0  0  0
  8 40  1  0  0  0  0
  9 10  1  0  0  0  0
 10 11  1  0  0  0  0
 10 41  1  0  0  0  0
 10 42  1  0  0  0  0
 11 12  1  0  0  0  0
 11 43  1  0  0  0  0
 11 44  1  0  0  0  0
 12 13  1  0  0  0  0
 13 18  1  0  0  0  0
 13 14  2  0  0  0  0
 14 15  1  0  0  0  0
 15 16  2  0  0  0  0
 15 45  1  0  0  0  0
 16 17  1  0  0  0  0
 17 21  1  0  0  0  0
 17 18  2  0  0  0  0
 18 19  1  0  0  0  0
 19 20  2  0  0  0  0
 20 21  1  0  0  0  0
 20 46  1  0  0  0  0
 21 22  1  0  0  0  0
 22 23  1  0  0  0  0
 22 47  1  0  0  0  0
 22 48  1  0  0  0  0
 23 28  1  0  0  0  0
 23 24  1  0  0  0  0
 23 25  1  0  0  0  0
 24 49  1  0  0  0  0
 25 26  1  0  0  0  0
 25 50  1  0  0  0  0
 25 51  1  0  0  0  0
 26 27  1  0  0  0  0
 26 52  1  0  0  0  0
 26 53  1  0  0  0  0
 27 28  1  0  0  0  0
 28 54  1  0  0  0  0
 28 55  1  0  0  0  0
M  END
> <s_m_source_file>
AV-unprocessed.smi

> <i_m_source_file_index>
240

> <i_lp_mmshare_version>
43012

> <i_f3d_flags>
0

> <s_epik_input>
W09IXVtDQEBIXTFbQ0gyXVtDSDJdW0NIMl1bQ0BIXTFbQ0BASF0yW0NIMl1PW0NIMl1bQ0gyXU4yYyhuW2NIXW4zKWMoYzM0KW5bY0hdbjRbQ0gyXVtDQEBdNShbT0hdKVtDSDJdW0NIMl1PW0NIMl01

> <s_epik_cmdline>
J2VwaWtfcHl0aG9uJywgJy1waCcsICc3LjAnLCAnLXRuJywgJzgnLCAnLW1hJywgJzIwMCcsICctbWV0YWxfYmluZGluZycsICctaW1hZScsICc8aW5maWxlLm1hZT4nLCAnLW9tYWUnLCAnPG91dGZpbGUubWFlPic=

> <r_lp_tautomer_probability>
1

> <r_epik_Ionization_Penalty>
0.000130618

> <r_epik_Ionization_Penalty_Charging>
0

> <r_epik_Ionization_Penalty_Neutral>
0.000130618

> <r_epik_State_Penalty>
-0

> <r_epik_Charging_Adjusted_Penalty>
0

> <i_epik_Tot_Q>
0

> <i_epik_Tot_abs_Q>
0

> <r_epik_Metal_State_Penalty>
-0

> <b_epik_Metal_Only>
0

> <s_lp_Force_Field>
OPLS_2005

> <r_lp_Energy>
63.9037

> <b_lp_Chiralities_Consistent>
1

> <s_lp_Variant>
AV-unprocessed.smi:240-7

> <Gold.Version>
5.8.1

> <Gold.Id.Protein>
6NUR|6NUR_protein|mol2

> <Gold.PLP.Fitness>
47.4575

> <Gold.PLP.PLP>
-37.3903

> <Gold.PLP.part.hbond>
-3.6020

> <Gold.PLP.part.metal>
0.0000

> <Gold.PLP.part.buried>
-3.0836

> <Gold.PLP.part.nonpolar>
-30.8148

> <Gold.PLP.part.repulsive>
0.3491

> <Gold.PLP.ligand.clash>
0.0000

> <Gold.PLP.ligand.torsion>
0.5154

> <Gold.PLP.Chemscore.Hbond>
3.5920

> <Gold.PLP.Chemscore.CHOScore>
0.0000

> <Gold.PLP.Chemscore.Metal>
0.0000

> <Gold.Chemscore.Hbonds>
donor molecule, donor type, donor heavy atom, donor atom, acceptor molecule, acceptor atom, score
      L1  H     1    29       P1  7957  1.00
      L1  H    24    49       P1  7948  1.00
      P1  H  7989  7998       L1     1  0.61
      P1  H 10752 10765       L1    16  1.00

> <Gold.PLP.Chemscore.Internal.Correction>
0.3219

> <Gold.Rescore>
     Score         DG    S(hbond)    S(metal)    S(lipo)     H(rot)  DE(clash)    DE(int)     intcor
     14.11     -16.24       2.73        0.00      79.80       3.00       1.52       0.60       ----

> <Gold.Chemscore.Fitness>
14.1129

> <Gold.Chemscore.DG>
-16.2365

> <Gold.Chemscore.ZeroCoef>
-5.4800

> <Gold.Chemscore.Hbond>
2.7276

> <Gold.Chemscore.Metal>
0.0000

> <Gold.Chemscore.Lipo>
79.7974

> <Gold.Chemscore.Internal_Hbond>
0.0000

> <Gold.Chemscore.DEClash>
1.5231

> <Gold.Chemscore.DEInternal>
0.6006

> <Gold.Chemscore.Rot>
3.0039

> <Gold.Chemscore.Internal.Correction>
   9.000000E+99

> <Gold.Chemscore.Hbonds>
donor molecule, donor type, donor heavy atom, donor atom, acceptor molecule, acceptor atom, score
      L1  H     1    29       P1  7957  0.99
      L1  H    24    49       P1  7948  0.52
      P1  H  7989  7998       L1     1  0.21
      P1  H 10752 10765       L1    16  0.80

> <Gold.Chemscore.Hbond.Weighted>
-9.1101

> <Gold.Chemscore.Metal.Weighted>
-0.0000

> <Gold.Chemscore.Lipo.Weighted>
-9.3363

> <Gold.Chemscore.Internal_Hbond.Weighted>
0.0000

> <Gold.Chemscore.DEClash.Weighted>
1.5231

> <Gold.Chemscore.DEInternal.Weighted>
0.6006

> <Gold.Chemscore.Rot.Weighted>
7.6899

> <Gold.Chemscore.Internal.Correction.Weighted>
   9.000000E+99

> <Gold.Protein.RotatedTorsions>
[ 6907 6896 6895 6894 ] final  123.85 input  -60.11 | X-H torsion
[ 7974 7965 7964 7962 ] final  175.52 input  175.53 | X-H torsion
[ 8008 7997 7996 7995 ] final  -90.49 input   59.86 | X-H torsion
[ 10167 10162 10161 10158 ] final  -75.52 input  -65.29 | X-H torsion
[ 10718 10713 10712 10709 ] final -172.10 input   66.30 | X-H torsion
[ 10763 10752 10751 10750 ] final  153.86 input  -60.55 | X-H torsion
[ 11005 11000 10999 10996 ] final -148.34 input  -57.11 | X-H torsion

> <Gold.Protein.ActiveResidues>
 VAL166  LYS551  ARG553  GLY616  TRP617  ASP618  TYR619  PRO620  LYS621  CYS622 
 ASP623  PHE694  ASN695  SER759  ASP760  ASP761  ALA762  ILE779  LEU786  VAL792 
 PHE793  MET794  SER795  GLU796  ALA797  LYS798  CYS799  TRP800  GLU811  SER814 

> <Gold.Protein.RotatedAtoms>
  152.4128  133.6990  159.6412 H   0  0  0  0  0  0  0  0  0  0  0  0  # atno 6907 bound_to 6896
  150.8007  133.8594  159.3236 H   0  0  0  0  0  0  0  0  0  0  0  0  # atno 6908 bound_to 6896
  151.6332  135.1022  160.0177 H   0  0  0  0  0  0  0  0  0  0  0  0  # atno 6909 bound_to 6896
  144.7200  139.9959  143.6440 H   0  0  0  0  0  0  0  0  0  0  0  0  # atno 7974 bound_to 7965
  154.6992  140.0530  157.0441 H   0  0  0  0  0  0  0  0  0  0  0  0  # atno 8008 bound_to 7997
  155.0708  140.3199  155.4612 H   0  0  0  0  0  0  0  0  0  0  0  0  # atno 8009 bound_to 7997
  156.2754  140.2082  156.5835 H   0  0  0  0  0  0  0  0  0  0  0  0  # atno 8010 bound_to 7997
  140.4935  143.2375  151.7868 H   0  0  0  0  0  0  0  0  0  0  0  0  # atno 10167 bound_to 10162
  156.7505  130.9376  151.3114 H   0  0  0  0  0  0  0  0  0  0  0  0  # atno 10718 bound_to 10713
  154.1430  135.2819  155.3156 H   0  0  0  0  0  0  0  0  0  0  0  0  # atno 10763 bound_to 10752
  154.6273  135.5447  153.7644 H   0  0  0  0  0  0  0  0  0  0  0  0  # atno 10764 bound_to 10752
  153.0244  135.6454  154.1577 H   0  0  0  0  0  0  0  0  0  0  0  0  # atno 10765 bound_to 10752
  140.7622  134.3285  157.5098 H   0  0  0  0  0  0  0  0  0  0  0  0  # atno 11005 bound_to 11000
  146.0375  139.3390  143.0718 LP  0  0  0  0  0  0  0  0  0  0  0  0  # atno 17320 bound_to 7965
  145.8377  140.9597  143.0816 LP  0  0  0  0  0  0  0  0  0  0  0  0  # atno 17321 bound_to 7965
  139.4856  144.4618  151.9532 LP  0  0  0  0  0  0  0  0  0  0  0  0  # atno 17342 bound_to 10162
  140.3705  144.2861  150.5920 LP  0  0  0  0  0  0  0  0  0  0  0  0  # atno 17343 bound_to 10162
  157.6779  130.9112  150.0195 LP  0  0  0  0  0  0  0  0  0  0  0  0  # atno 17370 bound_to 10713
  156.1404  130.3642  149.9591 LP  0  0  0  0  0  0  0  0  0  0  0  0  # atno 17371 bound_to 10713
  139.8769  134.9209  156.3263 LP  0  0  0  0  0  0  0  0  0  0  0  0  # atno 17394 bound_to 11000
  140.9652  133.7363  156.0457 LP  0  0  0  0  0  0  0  0  0  0  0  0  # atno 17395 bound_to 11000

$$$$
