#       Name:                AV-unprocessed.smi:3088
#       Creating user name   scv26
#       Creation time:       Fri Mar 27 17:14:59 2020


#       File generated by GOLD software.
#

@<TRIPOS>MOLECULE
AV-unprocessed.smi:3088
    30    31     1
SMALL
NO_CHARGES


@<TRIPOS>ATOM
      1 ****        -3.7993   2.7855   1.4086 N.4            1 S1                 1.0000
      2 ****        -2.8274   1.6808   1.3505 C.3            1 S1                 0.0000
      3 ****        -1.3905   2.1890   1.5331 C.3            1 S1                 0.0000
      4 ****        -0.3851   1.0790   1.4781 C.2            1 S1                 0.0000
      5 ****         0.2534   0.4915   2.5423 C.2            1 S1                 0.0000
      6 ****         1.3464  -0.7662   2.0325 S.3            1 S1                 0.0000
      7 ****         0.8871  -0.4410   0.3637 C.2            1 S1                 0.0000
      8 ****         1.4290  -1.1508  -0.7038 N.pl3          1 S1                 0.0000
      9 ****         2.4296  -2.2115  -0.6298 C.3            1 S1                 0.0000
     10 ****         2.9200  -2.4902  -2.0485 C.3            1 S1                 0.0000
     11 ****         1.7014  -2.1479  -2.8834 C.3            1 S1                 0.0000
     12 ****         1.1054  -0.9707  -2.1158 C.3            1 S1                 0.0000
     13 ****        -0.0155   0.5364   0.2435 N.2            1 S1                 0.0000
     14 ****        -4.7331   2.4181   1.2935 H              1 S1                 0.0000
     15 ****        -3.6049   3.4453   0.6689 H              1 S1                 0.0000
     16 ****        -3.0744   0.9558   2.1266 H              1 S1                 0.0000
     17 ****        -2.9333   1.1739   0.3907 H              1 S1                 0.0000
     18 ****        -1.1647   2.9286   0.7637 H              1 S1                 0.0000
     19 ****        -1.3090   2.7144   2.4855 H              1 S1                 0.0000
     20 ****         0.1494   0.7201   3.5927 H              1 S1                 0.0000
     21 ****         3.2562  -1.9298   0.0232 H              1 S1                 0.0000
     22 ****         1.9603  -3.1010  -0.2079 H              1 S1                 0.0000
     23 ****         3.7421  -1.8179  -2.2983 H              1 S1                 0.0000
     24 ****         3.2631  -3.5158  -2.1873 H              1 S1                 0.0000
     25 ****         1.9434  -1.9028  -3.9177 H              1 S1                 0.0000
     26 ****         1.0031  -2.9860  -2.8848 H              1 S1                 0.0000
     27 ****         0.0277  -0.9042  -2.2680 H              1 S1                 0.0000
     28 ****         1.5476  -0.0329  -2.4535 H              1 S1                 0.0000
     29 ****        -3.7292   3.2512   2.3021 H              1 S1                 0.0000
     30 ****        -0.3858   0.8457  -0.6324 LP             1 S1                 0.0000
@<TRIPOS>BOND
    1    1    2 1     
    2    1   14 1     
    3    1   15 1     
    4    1   29 1     
    5    2    3 1     
    6    2   16 1     
    7    2   17 1     
    8    3    4 1     
    9    3   18 1     
   10    3   19 1     
   11    4   13 1     
   12    4    5 2     
   13    5    6 1     
   14    5   20 1     
   15    6    7 1     
   16    7    8 1     
   17    7   13 2     
   18    8   12 1     
   19    8    9 1     
   20    9   10 1     
   21    9   21 1     
   22    9   22 1     
   23   10   11 1     
   24   10   23 1     
   25   10   24 1     
   26   11   12 1     
   27   11   25 1     
   28   11   26 1     
   29   12   27 1     
   30   12   28 1     
   31   13   30 1     
@<TRIPOS>SUBSTRUCTURE
      1 S1             1
@<TRIPOS>SET
LONE_PAIRS      STATIC     ATOMS    <user>   **** ""
1 30
DONOR_HYDROGENS      STATIC     ATOMS    <user>   **** ""
3 14 15 29
ATOM$BLUE        STATIC     ATOMS    COLORGROUP SYSTEM
1 30
ATOM$RED        STATIC     ATOMS    COLORGROUP SYSTEM
3 14 15 29
