AV-unprocessed.smi:1605|AV-procd|sdf|6451|dock2
  -GOLD-   22720 7103D 1   1.00000     0.00000
 Structure written by MMmdl.
 51 53  0  0  0  0  0  0  0  0  2 V2000
  145.1969  131.8935  151.3693 C   0  0  0  0  0  0  0  0  0  0  0  0
  146.5722  132.1966  151.5485 O   0  0  0  0  0  0  0  0  0  0  0  0
  146.8766  132.8268  152.7855 C   0  0  2  0  0  0  0  0  0  0  0  0
  146.1793  134.1943  152.9042 C   0  0  0  0  0  0  0  0  0  0  0  0
  146.6324  134.9360  154.1724 C   0  0  0  0  0  0  0  0  0  0  0  0
  148.1102  135.1037  154.2011 N   0  3  1  0  0  0  0  0  0  0  0  0
  148.5809  135.9180  155.3503 C   0  0  0  0  0  0  0  0  0  0  0  0
  148.5923  137.4304  155.0351 C   0  0  2  0  0  0  0  0  0  0  0  0
  147.8704  137.6520  153.8406 O   0  0  0  0  0  0  0  0  0  0  0  0
  150.0079  138.0093  154.8470 C   0  0  0  0  0  0  0  0  0  0  0  0
  150.0735  139.4235  155.1674 N   0  0  0  0  0  0  0  0  0  0  0  0
  149.4962  140.4330  154.4876 C   0  0  0  0  0  0  0  0  0  0  0  0
  149.6732  141.6634  154.9590 N   0  0  0  0  0  0  0  0  0  0  0  0
  150.4644  141.4266  156.0699 C   0  0  0  0  0  0  0  0  0  0  0  0
  151.0076  142.3222  157.0165 C   0  0  0  0  0  0  0  0  0  0  0  0
  151.7957  141.8513  158.0909 C   0  0  0  0  0  0  0  0  0  0  0  0
  152.3632  142.8509  159.0833 C   0  0  0  0  0  0  0  0  0  0  0  0
  152.0480  140.4630  158.2321 C   0  0  0  0  0  0  0  0  0  0  0  0
  152.8897  139.9345  159.3800 C   0  0  0  0  0  0  0  0  0  0  0  0
  151.5138  139.5543  157.2945 C   0  0  0  0  0  0  0  0  0  0  0  0
  150.7334  140.0354  156.2282 C   0  0  0  0  0  0  0  0  0  0  0  0
  148.8080  133.7950  154.1141 C   0  0  0  0  0  0  0  0  0  0  0  0
  148.3976  133.0298  152.8450 C   0  0  0  0  0  0  0  0  0  0  0  0
  145.0609  131.3795  150.4179 H   0  0  0  0  0  0  0  0  0  0  0  0
  144.5811  132.7923  151.3485 H   0  0  0  0  0  0  0  0  0  0  0  0
  144.8311  131.2354  152.1582 H   0  0  0  0  0  0  0  0  0  0  0  0
  146.5799  132.1822  153.6153 H   0  0  0  0  0  0  0  0  0  0  0  0
  146.4046  134.8010  152.0260 H   0  0  0  0  0  0  0  0  0  0  0  0
  145.0965  134.0740  152.9284 H   0  0  0  0  0  0  0  0  0  0  0  0
  146.1375  135.9058  154.2091 H   0  0  0  0  0  0  0  0  0  0  0  0
  146.3107  134.3871  155.0590 H   0  0  0  0  0  0  0  0  0  0  0  0
  147.9479  135.6955  156.2097 H   0  0  0  0  0  0  0  0  0  0  0  0
  149.5901  135.6176  155.6370 H   0  0  0  0  0  0  0  0  0  0  0  0
  148.0985  137.9898  155.8293 H   0  0  0  0  0  0  0  0  0  0  0  0
  148.1993  137.0686  153.1732 H   0  0  0  0  0  0  0  0  0  0  0  0
  150.7281  137.4754  155.4682 H   0  0  0  0  0  0  0  0  0  0  0  0
  150.3343  137.8819  153.8136 H   0  0  0  0  0  0  0  0  0  0  0  0
  148.9081  140.2535  153.5994 H   0  0  0  0  0  0  0  0  0  0  0  0
  150.8140  143.3795  156.9097 H   0  0  0  0  0  0  0  0  0  0  0  0
  153.4488  142.7650  159.1359 H   0  0  0  0  0  0  0  0  0  0  0  0
  151.9523  142.6771  160.0781 H   0  0  0  0  0  0  0  0  0  0  0  0
  152.1246  143.8754  158.7964 H   0  0  0  0  0  0  0  0  0  0  0  0
  152.9452  138.8459  159.3648 H   0  0  0  0  0  0  0  0  0  0  0  0
  152.4634  140.2333  160.3378 H   0  0  0  0  0  0  0  0  0  0  0  0
  153.9064  140.3226  159.3172 H   0  0  0  0  0  0  0  0  0  0  0  0
  151.7002  138.4950  157.3908 H   0  0  0  0  0  0  0  0  0  0  0  0
  149.8870  133.9531  154.1001 H   0  0  0  0  0  0  0  0  0  0  0  0
  148.5846  133.2019  155.0024 H   0  0  0  0  0  0  0  0  0  0  0  0
  148.9032  132.0640  152.8155 H   0  0  0  0  0  0  0  0  0  0  0  0
  148.7313  133.5803  151.9641 H   0  0  0  0  0  0  0  0  0  0  0  0
  148.3678  135.6160  153.3689 H   0  0  0  0  0  0  0  0  0  0  0  0
  1  2  1  0  0  0  0
  1 24  1  0  0  0  0
  1 25  1  0  0  0  0
  1 26  1  0  0  0  0
  2  3  1  0  0  0  0
  3 23  1  0  0  0  0
  3  4  1  0  0  0  0
  3 27  1  0  0  0  0
  4  5  1  0  0  0  0
  4 28  1  0  0  0  0
  4 29  1  0  0  0  0
  5  6  1  0  0  0  0
  5 30  1  0  0  0  0
  5 31  1  0  0  0  0
  6  7  1  0  0  0  0
  6 22  1  0  0  0  0
  6 51  1  0  0  0  0
  7  8  1  0  0  0  0
  7 32  1  0  0  0  0
  7 33  1  0  0  0  0
  8  9  1  0  0  0  0
  8 10  1  0  0  0  0
  8 34  1  0  0  0  0
  9 35  1  0  0  0  0
 10 11  1  0  0  0  0
 10 36  1  0  0  0  0
 10 37  1  0  0  0  0
 11 21  1  0  0  0  0
 11 12  1  0  0  0  0
 12 13  2  0  0  0  0
 12 38  1  0  0  0  0
 13 14  1  0  0  0  0
 14 21  2  0  0  0  0
 14 15  1  0  0  0  0
 15 16  2  0  0  0  0
 15 39  1  0  0  0  0
 16 17  1  0  0  0  0
 16 18  1  0  0  0  0
 17 40  1  0  0  0  0
 17 41  1  0  0  0  0
 17 42  1  0  0  0  0
 18 19  1  0  0  0  0
 18 20  2  0  0  0  0
 19 43  1  0  0  0  0
 19 44  1  0  0  0  0
 19 45  1  0  0  0  0
 20 21  1  0  0  0  0
 20 46  1  0  0  0  0
 22 23  1  0  0  0  0
 22 47  1  0  0  0  0
 22 48  1  0  0  0  0
 23 49  1  0  0  0  0
 23 50  1  0  0  0  0
M  CHG  1   6   1
M  END
> <s_m_source_file>
AV-unprocessed.smi

> <i_m_source_file_index>
1605

> <i_lp_mmshare_version>
43012

> <i_f3d_flags>
0

> <s_epik_input>
W0NIM11PW0NIXTFbQ0gyXVtDSDJdTihbQ0gyXVtDSDJdMSlbQ0gyXVtDQEhdKFtPSF0pW0NIMl1uKFtjSF1uMiljKGMyMylbY0hdYyhbQ0gzXSljKFtjSF0zKVtDSDNd

> <s_epik_cmdline>
J2VwaWtfcHl0aG9uJywgJy1waCcsICc3LjAnLCAnLXRuJywgJzgnLCAnLW1hJywgJzIwMCcsICctbWV0YWxfYmluZGluZycsICctaW1hZScsICc8aW5maWxlLm1hZT4nLCAnLW9tYWUnLCAnPG91dGZpbGUubWFlPic=

> <r_epik_Ionization_Penalty>
0.110943

> <r_epik_Ionization_Penalty_Charging>
0.0229283

> <r_epik_Ionization_Penalty_Neutral>
0.0880146

> <r_epik_State_Penalty>
0.0947554

> <r_epik_Charging_Adjusted_Penalty>
0.117684

> <i_epik_Tot_Q>
1

> <i_epik_Tot_abs_Q>
1

> <r_epik_Metal_State_Penalty>
0.0192456

> <b_epik_Metal_Only>
0

> <s_lp_Force_Field>
OPLS_2005

> <r_lp_Energy>
22.9289

> <b_lp_Chiralities_Consistent>
1

> <s_lp_Variant>
AV-unprocessed.smi:1605-1

> <Gold.Version>
5.8.1

> <Gold.Id.Protein>
6NUR|6NUR_protein|mol2

> <Gold.PLP.Fitness>
48.6428

> <Gold.PLP.PLP>
-39.3613

> <Gold.PLP.part.hbond>
-3.1998

> <Gold.PLP.part.metal>
0.0000

> <Gold.PLP.part.buried>
-4.0609

> <Gold.PLP.part.nonpolar>
-33.1764

> <Gold.PLP.part.repulsive>
0.6999

> <Gold.PLP.ligand.clash>
0.0000

> <Gold.PLP.ligand.torsion>
1.4341

> <Gold.PLP.Chemscore.Hbond>
3.0000

> <Gold.PLP.Chemscore.CHOScore>
1.0000

> <Gold.PLP.Chemscore.Metal>
0.0000

> <Gold.Chemscore.Hbonds>
donor molecule, donor type, donor heavy atom, donor atom, acceptor molecule, acceptor atom, score
      L1  H     6    51       P1  7948  2.00
      L1  H     9    35       P1  7948  1.00
      L1  C    12    38       P1  7957  0.96

> <Gold.PLP.Chemscore.Internal.Correction>
0.1497

> <Gold.Rescore>
     Score         DG    S(hbond)    S(metal)    S(lipo)     H(rot)  DE(clash)    DE(int)     intcor
     16.55     -18.10       2.00        0.00      99.31       2.22       0.06       1.49       ----

> <Gold.Chemscore.Fitness>
16.5463

> <Gold.Chemscore.DG>
-18.0961

> <Gold.Chemscore.ZeroCoef>
-5.4800

> <Gold.Chemscore.Hbond>
1.9975

> <Gold.Chemscore.Metal>
0.0000

> <Gold.Chemscore.Lipo>
99.3145

> <Gold.Chemscore.Internal_Hbond>
0.0000

> <Gold.Chemscore.DEClash>
0.0567

> <Gold.Chemscore.DEInternal>
1.4930

> <Gold.Chemscore.Rot>
2.2169

> <Gold.Chemscore.Internal.Correction>
   9.000000E+99

> <Gold.Chemscore.Hbonds>
donor molecule, donor type, donor heavy atom, donor atom, acceptor molecule, acceptor atom, score
      L1  H     6    51       P1  7948  1.00
      L1  H     9    35       P1  7948  1.00

> <Gold.Chemscore.Hbond.Weighted>
-6.6716

> <Gold.Chemscore.Metal.Weighted>
-0.0000

> <Gold.Chemscore.Lipo.Weighted>
-11.6198

> <Gold.Chemscore.Internal_Hbond.Weighted>
0.0000

> <Gold.Chemscore.DEClash.Weighted>
0.0567

> <Gold.Chemscore.DEInternal.Weighted>
1.4930

> <Gold.Chemscore.Rot.Weighted>
5.6753

> <Gold.Chemscore.Internal.Correction.Weighted>
   9.000000E+99

> <Gold.Protein.RotatedTorsions>
[ 6907 6896 6895 6894 ] final   68.80 input  -60.11 | X-H torsion
[ 7974 7965 7964 7962 ] final  -63.06 input  175.53 | X-H torsion
[ 8008 7997 7996 7995 ] final  130.71 input   59.86 | X-H torsion
[ 10167 10162 10161 10158 ] final -164.85 input  -65.29 | X-H torsion
[ 10718 10713 10712 10709 ] final   -1.86 input   66.30 | X-H torsion
[ 10763 10752 10751 10750 ] final  -46.10 input  -60.55 | X-H torsion
[ 11005 11000 10999 10996 ] final   20.29 input  -57.11 | X-H torsion

> <Gold.Protein.ActiveResidues>
 VAL166  LYS551  ARG553  GLY616  TRP617  ASP618  TYR619  PRO620  LYS621  CYS622 
 ASP623  PHE694  ASN695  SER759  ASP760  ASP761  ALA762  ILE779  LEU786  VAL792 
 PHE793  MET794  SER795  GLU796  ALA797  LYS798  CYS799  TRP800  GLU811  SER814 

> <Gold.Protein.RotatedAtoms>
  152.4644  134.5109  159.9753 H   0  0  0  0  0  0  0  0  0  0  0  0  # atno 6907 bound_to 6896
  151.5150  133.3471  159.2899 H   0  0  0  0  0  0  0  0  0  0  0  0  # atno 6908 bound_to 6896
  150.8622  134.8006  159.7153 H   0  0  0  0  0  0  0  0  0  0  0  0  # atno 6909 bound_to 6896
  145.7837  140.8748  143.0317 H   0  0  0  0  0  0  0  0  0  0  0  0  # atno 7974 bound_to 7965
  156.2959  140.2589  156.2807 H   0  0  0  0  0  0  0  0  0  0  0  0  # atno 8008 bound_to 7997
  154.9605  140.0392  157.2206 H   0  0  0  0  0  0  0  0  0  0  0  0  # atno 8009 bound_to 7997
  154.7951  140.2818  155.5967 H   0  0  0  0  0  0  0  0  0  0  0  0  # atno 8010 bound_to 7997
  139.6222  144.0602  152.1943 H   0  0  0  0  0  0  0  0  0  0  0  0  # atno 10167 bound_to 10162
  156.7993  130.5387  149.5724 H   0  0  0  0  0  0  0  0  0  0  0  0  # atno 10718 bound_to 10713
  154.0395  135.6646  153.4788 H   0  0  0  0  0  0  0  0  0  0  0  0  # atno 10763 bound_to 10752
  153.0507  135.5086  154.7856 H   0  0  0  0  0  0  0  0  0  0  0  0  # atno 10764 bound_to 10752
  154.6827  135.3048  154.9556 H   0  0  0  0  0  0  0  0  0  0  0  0  # atno 10765 bound_to 10752
  140.4042  134.1686  155.7665 H   0  0  0  0  0  0  0  0  0  0  0  0  # atno 11005 bound_to 11000
  144.6792  140.0024  143.7484 LP  0  0  0  0  0  0  0  0  0  0  0  0  # atno 17320 bound_to 7965
  146.0048  139.3121  143.0906 LP  0  0  0  0  0  0  0  0  0  0  0  0  # atno 17321 bound_to 7965
  140.0246  144.6127  150.7538 LP  0  0  0  0  0  0  0  0  0  0  0  0  # atno 17342 bound_to 10162
  140.7389  143.2784  151.3671 LP  0  0  0  0  0  0  0  0  0  0  0  0  # atno 17343 bound_to 10162
  156.1111  130.6041  151.0048 LP  0  0  0  0  0  0  0  0  0  0  0  0  # atno 17370 bound_to 10713
  157.6562  131.0889  150.7942 LP  0  0  0  0  0  0  0  0  0  0  0  0  # atno 17371 bound_to 10713
  141.1845  133.8342  157.1137 LP  0  0  0  0  0  0  0  0  0  0  0  0  # atno 17394 bound_to 11000
  140.0314  134.9899  157.0787 LP  0  0  0  0  0  0  0  0  0  0  0  0  # atno 17395 bound_to 11000

$$$$
