AV-unprocessed.smi:3000|AV-procd|sdf|11429|dock2
  -GOLD-   2272016353D 1   1.00000     0.00000
 Structure written by MMmdl.
 44 45  0  0  0  0  0  0  0  0  1 V2000
  146.7607  142.8040  154.3212 C   0  0  0  0  0  0  0  0  0  0  0  0
  147.3006  141.5243  153.9144 N   0  0  0  0  0  0  0  0  0  0  0  0
  146.6168  140.3913  153.5212 C   0  0  0  0  0  0  0  0  0  0  0  0
  147.5717  139.4616  153.2376 C   0  0  0  0  0  0  0  0  0  0  0  0
  147.3082  138.1426  152.7912 N   0  0  0  0  0  0  0  0  0  0  0  0
  146.1100  137.5499  152.6668 C   0  0  0  0  0  0  0  0  0  0  0  0
  145.0319  138.0823  152.9278 O   0  0  0  0  0  0  0  0  0  0  0  0
  146.2428  136.2921  152.2136 N   0  0  0  0  0  0  0  0  0  0  0  0
  145.1985  135.2964  151.9263 C   0  0  1  0  0  0  0  0  0  0  0  0
  144.2252  135.1964  153.1289 C   0  0  0  0  0  0  0  0  0  0  0  0
  144.3915  135.7464  150.6727 C   0  0  0  0  0  0  0  0  0  0  0  0
  145.2269  136.2369  149.6432 O   0  0  0  0  0  0  0  0  0  0  0  0
  145.9167  133.9201  151.6881 C   0  0  0  0  0  0  0  0  0  0  0  0
  144.9689  132.8069  151.1634 C   0  0  0  0  0  0  0  0  0  0  0  0
  145.7117  131.4893  150.8901 C   0  0  0  0  0  0  0  0  0  0  0  0
  146.4496  130.9952  152.1403 C   0  0  0  0  0  0  0  0  0  0  0  0
  147.4083  132.0719  152.6626 C   0  0  0  0  0  0  0  0  0  0  0  0
  146.6705  133.3914  152.9389 C   0  0  0  0  0  0  0  0  0  0  0  0
  148.8205  140.1003  153.4815 C   0  0  0  0  0  0  0  0  0  0  0  0
  148.6440  141.3484  153.8894 N   0  0  0  0  0  0  0  0  0  0  0  0
  145.6813  142.7289  154.4557 H   0  0  0  0  0  0  0  0  0  0  0  0
  146.9722  143.5518  153.5564 H   0  0  0  0  0  0  0  0  0  0  0  0
  147.2132  143.1162  155.2631 H   0  0  0  0  0  0  0  0  0  0  0  0
  145.5385  140.3476  153.4782 H   0  0  0  0  0  0  0  0  0  0  0  0
  148.1162  137.5935  152.5380 H   0  0  0  0  0  0  0  0  0  0  0  0
  147.1860  135.9775  152.0397 H   0  0  0  0  0  0  0  0  0  0  0  0
  143.5631  134.3356  153.0311 H   0  0  0  0  0  0  0  0  0  0  0  0
  143.5876  136.0767  153.2111 H   0  0  0  0  0  0  0  0  0  0  0  0
  144.7514  135.1030  154.0784 H   0  0  0  0  0  0  0  0  0  0  0  0
  143.8161  134.9193  150.2572 H   0  0  0  0  0  0  0  0  0  0  0  0
  143.6631  136.5168  150.9255 H   0  0  0  0  0  0  0  0  0  0  0  0
  145.3956  135.5345  149.0340 H   0  0  0  0  0  0  0  0  0  0  0  0
  146.6653  134.0731  150.9094 H   0  0  0  0  0  0  0  0  0  0  0  0
  144.1680  132.6209  151.8799 H   0  0  0  0  0  0  0  0  0  0  0  0
  144.4870  133.1147  150.2366 H   0  0  0  0  0  0  0  0  0  0  0  0
  145.0072  130.7292  150.5512 H   0  0  0  0  0  0  0  0  0  0  0  0
  146.4243  131.6334  150.0768 H   0  0  0  0  0  0  0  0  0  0  0  0
  145.7279  130.7367  152.9163 H   0  0  0  0  0  0  0  0  0  0  0  0
  147.0013  130.0829  151.9120 H   0  0  0  0  0  0  0  0  0  0  0  0
  147.8967  131.7226  153.5728 H   0  0  0  0  0  0  0  0  0  0  0  0
  148.2009  132.2426  151.9329 H   0  0  0  0  0  0  0  0  0  0  0  0
  147.4058  134.1172  153.2831 H   0  0  0  0  0  0  0  0  0  0  0  0
  145.9744  133.2432  153.7652 H   0  0  0  0  0  0  0  0  0  0  0  0
  149.8267  139.7220  153.3810 H   0  0  0  0  0  0  0  0  0  0  0  0
  1  2  1  0  0  0  0
  1 21  1  0  0  0  0
  1 22  1  0  0  0  0
  1 23  1  0  0  0  0
  2 20  1  0  0  0  0
  2  3  1  0  0  0  0
  3  4  2  0  0  0  0
  3 24  1  0  0  0  0
  4  5  1  0  0  0  0
  4 19  1  0  0  0  0
  5  6  1  0  0  0  0
  5 25  1  0  0  0  0
  6  7  2  0  0  0  0
  6  8  1  0  0  0  0
  8  9  1  0  0  0  0
  8 26  1  0  0  0  0
  9 10  1  0  0  0  0
  9 11  1  0  0  0  0
  9 13  1  0  0  0  0
 10 27  1  0  0  0  0
 10 28  1  0  0  0  0
 10 29  1  0  0  0  0
 11 12  1  0  0  0  0
 11 30  1  0  0  0  0
 11 31  1  0  0  0  0
 12 32  1  0  0  0  0
 13 18  1  0  0  0  0
 13 14  1  0  0  0  0
 13 33  1  0  0  0  0
 14 15  1  0  0  0  0
 14 34  1  0  0  0  0
 14 35  1  0  0  0  0
 15 16  1  0  0  0  0
 15 36  1  0  0  0  0
 15 37  1  0  0  0  0
 16 17  1  0  0  0  0
 16 38  1  0  0  0  0
 16 39  1  0  0  0  0
 17 18  1  0  0  0  0
 17 40  1  0  0  0  0
 17 41  1  0  0  0  0
 18 42  1  0  0  0  0
 18 43  1  0  0  0  0
 19 20  2  0  0  0  0
 19 44  1  0  0  0  0
M  END
> <s_m_source_file>
AV-unprocessed.smi

> <i_m_source_file_index>
3000

> <i_lp_mmshare_version>
43012

> <i_f3d_flags>
0

> <s_epik_input>
W0NIM11uMVtjSF1jKFtjSF1uMSlbTkhdQyg9TylbTkhdW0NAQF0oW0NIM10pKFtDSDJdW09IXSlbQ0hdMltDSDJdW0NIMl1bQ0gyXVtDSDJdW0NIMl0y

> <s_epik_cmdline>
J2VwaWtfcHl0aG9uJywgJy1waCcsICc3LjAnLCAnLXRuJywgJzgnLCAnLW1hJywgJzIwMCcsICctbWV0YWxfYmluZGluZycsICctaW1hZScsICc8aW5maWxlLm1hZT4nLCAnLW9tYWUnLCAnPG91dGZpbGUubWFlPic=

> <r_lp_tautomer_probability>
1

> <r_epik_Ionization_Penalty>
0.000189471

> <r_epik_Ionization_Penalty_Charging>
0

> <r_epik_Ionization_Penalty_Neutral>
0.000189471

> <r_epik_State_Penalty>
-0

> <r_epik_Charging_Adjusted_Penalty>
0

> <i_epik_Tot_Q>
0

> <i_epik_Tot_abs_Q>
0

> <r_epik_Metal_State_Penalty>
-0

> <b_epik_Metal_Only>
0

> <s_lp_Force_Field>
OPLS_2005

> <r_lp_Energy>
20.4121

> <b_lp_Chiralities_Consistent>
1

> <s_lp_Variant>
AV-unprocessed.smi:3000-1

> <Gold.Version>
5.8.1

> <Gold.Id.Protein>
6NUR|6NUR_protein|mol2

> <Gold.PLP.Fitness>
43.0992

> <Gold.PLP.PLP>
-29.8535

> <Gold.PLP.part.hbond>
-4.9611

> <Gold.PLP.part.metal>
0.0000

> <Gold.PLP.part.buried>
4.2625

> <Gold.PLP.part.nonpolar>
-31.1740

> <Gold.PLP.part.repulsive>
3.2422

> <Gold.PLP.ligand.clash>
0.0000

> <Gold.PLP.ligand.torsion>
0.4196

> <Gold.PLP.Chemscore.Hbond>
3.5743

> <Gold.PLP.Chemscore.CHOScore>
1.1124

> <Gold.PLP.Chemscore.Metal>
0.0000

> <Gold.Chemscore.Hbonds>
donor molecule, donor type, donor heavy atom, donor atom, acceptor molecule, acceptor atom, score
      L1  H     5    25       P1  7948  1.00
      L1  H     8    26       P1  7948  1.00
      L1  H    12    32       P1  7921  1.00
      P1  H  8011  8017       L1    20  0.42
      L1  C     3    24       P1 10175  1.00
      L1  C    19    44       P1  7957  0.16

> <Gold.PLP.Chemscore.Internal.Correction>
0.0246

> <Gold.Rescore>
     Score         DG    S(hbond)    S(metal)    S(lipo)     H(rot)  DE(clash)    DE(int)     intcor
     13.76     -20.03       2.95        0.00      84.36       2.02       3.30       2.96       ----

> <Gold.Chemscore.Fitness>
13.7630

> <Gold.Chemscore.DG>
-20.0275

> <Gold.Chemscore.ZeroCoef>
-5.4800

> <Gold.Chemscore.Hbond>
2.9460

> <Gold.Chemscore.Metal>
0.0000

> <Gold.Chemscore.Lipo>
84.3580

> <Gold.Chemscore.Internal_Hbond>
0.0000

> <Gold.Chemscore.DEClash>
3.3008

> <Gold.Chemscore.DEInternal>
2.9637

> <Gold.Chemscore.Rot>
2.0165

> <Gold.Chemscore.Internal.Correction>
   9.000000E+99

> <Gold.Chemscore.Hbonds>
donor molecule, donor type, donor heavy atom, donor atom, acceptor molecule, acceptor atom, score
      L1  H     5    25       P1  7948  0.99
      L1  H     8    26       P1  7948  0.98
      L1  H    12    32       P1  7921  0.97
      P1  H  8011  8017       L1    20  0.10

> <Gold.Chemscore.Hbond.Weighted>
-9.8398

> <Gold.Chemscore.Metal.Weighted>
-0.0000

> <Gold.Chemscore.Lipo.Weighted>
-9.8699

> <Gold.Chemscore.Internal_Hbond.Weighted>
0.0000

> <Gold.Chemscore.DEClash.Weighted>
3.3008

> <Gold.Chemscore.DEInternal.Weighted>
2.9637

> <Gold.Chemscore.Rot.Weighted>
5.1622

> <Gold.Chemscore.Internal.Correction.Weighted>
   9.000000E+99

> <Gold.Protein.RotatedTorsions>
[ 6907 6896 6895 6894 ] final -137.28 input  -60.11 | X-H torsion
[ 7974 7965 7964 7962 ] final  -17.36 input  175.53 | X-H torsion
[ 8008 7997 7996 7995 ] final   33.41 input   59.86 | X-H torsion
[ 10167 10162 10161 10158 ] final -115.10 input  -65.29 | X-H torsion
[ 10718 10713 10712 10709 ] final   65.39 input   66.30 | X-H torsion
[ 10763 10752 10751 10750 ] final  108.03 input  -60.55 | X-H torsion
[ 11005 11000 10999 10996 ] final    6.50 input  -57.11 | X-H torsion

> <Gold.Protein.ActiveResidues>
 VAL166  LYS551  ARG553  GLY616  TRP617  ASP618  TYR619  PRO620  LYS621  CYS622 
 ASP623  PHE694  ASN695  SER759  ASP760  ASP761  ALA762  ILE779  LEU786  VAL792 
 PHE793  MET794  SER795  GLU796  ALA797  LYS798  CYS799  TRP800  GLU811  SER814 

> <Gold.Protein.RotatedAtoms>
  151.0205  133.5881  159.2671 H   0  0  0  0  0  0  0  0  0  0  0  0  # atno 6907 bound_to 6896
  151.2999  135.0765  159.9244 H   0  0  0  0  0  0  0  0  0  0  0  0  # atno 6908 bound_to 6896
  152.5322  133.9889  159.7895 H   0  0  0  0  0  0  0  0  0  0  0  0  # atno 6909 bound_to 6896
  146.1944  140.3768  142.8446 H   0  0  0  0  0  0  0  0  0  0  0  0  # atno 7974 bound_to 7965
  155.1381  140.3263  155.4458 H   0  0  0  0  0  0  0  0  0  0  0  0  # atno 8008 bound_to 7997
  156.2613  140.1998  156.6447 H   0  0  0  0  0  0  0  0  0  0  0  0  # atno 8009 bound_to 7997
  154.6562  140.0552  156.9998 H   0  0  0  0  0  0  0  0  0  0  0  0  # atno 8010 bound_to 7997
  140.0938  143.4675  152.1854 H   0  0  0  0  0  0  0  0  0  0  0  0  # atno 10167 bound_to 10162
  157.6102  130.9211  149.9970 H   0  0  0  0  0  0  0  0  0  0  0  0  # atno 10718 bound_to 10713
  153.4149  135.3825  155.2074 H   0  0  0  0  0  0  0  0  0  0  0  0  # atno 10763 bound_to 10752
  154.8740  135.3803  154.4455 H   0  0  0  0  0  0  0  0  0  0  0  0  # atno 10764 bound_to 10752
  153.4968  135.7088  153.5916 H   0  0  0  0  0  0  0  0  0  0  0  0  # atno 10765 bound_to 10752
  140.5588  134.0212  155.7964 H   0  0  0  0  0  0  0  0  0  0  0  0  # atno 11005 bound_to 11000
  144.8551  140.7058  143.6143 LP  0  0  0  0  0  0  0  0  0  0  0  0  # atno 17320 bound_to 7965
  145.3690  139.1663  143.4342 LP  0  0  0  0  0  0  0  0  0  0  0  0  # atno 17321 bound_to 7965
  139.5710  144.7462  151.3892 LP  0  0  0  0  0  0  0  0  0  0  0  0  # atno 17342 bound_to 10162
  140.7014  143.7621  150.7410 LP  0  0  0  0  0  0  0  0  0  0  0  0  # atno 17343 bound_to 10162
  156.1202  130.3646  149.9900 LP  0  0  0  0  0  0  0  0  0  0  0  0  # atno 17370 bound_to 10713
  156.7982  130.9281  151.3646 LP  0  0  0  0  0  0  0  0  0  0  0  0  # atno 17371 bound_to 10713
  141.1127  133.9590  157.2880 LP  0  0  0  0  0  0  0  0  0  0  0  0  # atno 17394 bound_to 11000
  139.9418  135.0190  156.8731 LP  0  0  0  0  0  0  0  0  0  0  0  0  # atno 17395 bound_to 11000

$$$$
