#       Name:                AV-unprocessed.smi:2545
#       Creating user name   scv26
#       Creation time:       Fri Mar 27 14:04:42 2020


#       File generated by GOLD software.
#

@<TRIPOS>MOLECULE
AV-unprocessed.smi:2545
    30    31     1
SMALL
NO_CHARGES


@<TRIPOS>ATOM
      1 ****        -1.8590   1.8476   0.0079 N.pl3          1 S1                 0.0000
      2 ****        -0.4638   1.8977   0.0069 C.ar           1 S1                 0.0000
      3 ****         0.1840   3.1519   0.0063 C.ar           1 S1                 0.0000
      4 ****         1.5923   3.2016   0.0050 C.ar           1 S1                 0.0000
      5 ****         2.3046   2.0550   0.0043 N.pl3          1 S1                 1.0000
      6 ****         1.7266   0.8346   0.0050 C.ar           1 S1                 0.0000
      7 ****         0.3163   0.7128   0.0064 C.ar           1 S1                 0.0000
      8 ****        -0.2999  -0.5494   0.0054 N.3            1 S1                 0.0000
      9 ****        -0.0722  -1.3083  -1.2179 C.3            1 S1                 0.0000
     10 ****        -0.8882  -2.6124  -1.1874 C.3            1 S1                 0.0000
     11 ****        -0.5575  -3.3536  -0.0162 O.3            1 S1                 0.0000
     12 ****        -0.8589  -2.6332   1.1756 C.3            1 S1                 0.0000
     13 ****        -0.0413  -1.3302   1.2089 C.3            1 S1                 0.0000
     14 ****        -2.3617   0.9716   0.0083 H              1 S1                 0.0000
     15 ****        -2.4118   2.6934   0.0099 H              1 S1                 0.0000
     16 ****        -0.3892   4.0678   0.0068 H              1 S1                 0.0000
     17 ****         2.1657   4.1173   0.0041 H              1 S1                 0.0000
     18 ****         2.4075  -0.0040   0.0035 H              1 S1                 0.0000
     19 ****        -0.3569  -0.7094  -2.0839 H              1 S1                 0.0000
     20 ****         0.9888  -1.5406  -1.3190 H              1 S1                 0.0000
     21 ****        -1.9590  -2.4028  -1.2079 H              1 S1                 0.0000
     22 ****        -0.6649  -3.2168  -2.0667 H              1 S1                 0.0000
     23 ****        -1.9287  -2.4237   1.2261 H              1 S1                 0.0000
     24 ****        -0.6145  -3.2531   2.0383 H              1 S1                 0.0000
     25 ****         1.0216  -1.5651   1.2790 H              1 S1                 0.0000
     26 ****        -0.3035  -0.7467   2.0923 H              1 S1                 0.0000
     27 ****         3.3235   2.1121   0.0029 H              1 S1                 0.0000
     28 ****        -1.2796  -0.3493   0.0219 LP             1 S1                 0.0000
     29 ****         0.4210  -3.5593  -0.0302 LP             1 S1                 0.0000
     30 ****        -1.0777  -4.2076  -0.0173 LP             1 S1                 0.0000
@<TRIPOS>BOND
    1    1    2 1     
    2    1   14 1     
    3    1   15 1     
    4    2    7 ar    
    5    2    3 ar    
    6    3    4 ar    
    7    3   16 1     
    8    4    5 ar    
    9    4   17 1     
   10    5    6 ar    
   11    5   27 1     
   12    6    7 ar    
   13    6   18 1     
   14    7    8 1     
   15    8   13 1     
   16    8    9 1     
   17    9   10 1     
   18    9   19 1     
   19    9   20 1     
   20   10   11 1     
   21   10   21 1     
   22   10   22 1     
   23   11   12 1     
   24   12   13 1     
   25   12   23 1     
   26   12   24 1     
   27   13   25 1     
   28   13   26 1     
   29    8   28 1     
   30   11   29 1     
   31   11   30 1     
@<TRIPOS>SUBSTRUCTURE
      1 S1             1
@<TRIPOS>SET
LONE_PAIRS      STATIC     ATOMS    <user>   **** ""
3 28 29 30
DONOR_HYDROGENS      STATIC     ATOMS    <user>   **** ""
3 14 15 27
ATOM$BLUE        STATIC     ATOMS    COLORGROUP SYSTEM
3 28 29 30
ATOM$RED        STATIC     ATOMS    COLORGROUP SYSTEM
3 14 15 27
