AV-unprocessed.smi:20|AV-procd|sdf|115|dock3
  -GOLD-   2262015283D 1   1.00000     0.00000
 Structure written by MMmdl.
 57 61  0  0  0  0  0  0  0  0  1 V2000
  142.6339  136.3121  153.2084 O   0  0  0  0  0  0  0  0  0  0  0  0
  143.3563  135.7434  152.3932 C   0  0  0  0  0  0  0  0  0  0  0  0
  143.7067  134.2665  152.4609 C   0  0  0  0  0  0  0  0  0  0  0  0
  144.8991  134.1379  151.4838 C   0  0  2  0  0  0  0  0  0  0  0  0
  144.8926  132.8129  150.6875 C   0  0  0  0  0  0  0  0  0  0  0  0
  145.2041  131.6113  151.5941 C   0  0  0  0  0  0  0  0  0  0  0  0
  146.5324  131.8137  152.3373 C   0  0  0  0  0  0  0  0  0  0  0  0
  146.5342  133.0877  153.0504 N   0  0  0  0  0  0  0  0  0  0  0  0
  147.4090  133.2691  154.0719 C   0  0  0  0  0  0  0  0  0  0  0  0
  148.7204  133.4111  153.7471 N   0  0  0  0  0  0  0  0  0  0  0  0
  149.6390  133.5970  154.6986 C   0  0  0  0  0  0  0  0  0  0  0  0
  149.4686  133.6650  156.0192 N   0  0  0  0  0  0  0  0  0  0  0  0
  148.1564  133.5140  156.3566 C   0  0  0  0  0  0  0  0  0  0  0  0
  147.0680  133.3207  155.4570 C   0  0  0  0  0  0  0  0  0  0  0  0
  145.8840  133.2081  156.1790 N   0  0  0  0  0  0  0  0  0  0  0  0
  146.2492  133.3307  157.4252 C   0  0  0  0  0  0  0  0  0  0  0  0
  147.6008  133.4938  157.6241 N   0  0  0  0  0  0  0  0  0  0  0  0
  148.2768  133.6500  158.8998 C   0  0  0  0  0  0  0  0  0  0  0  0
  147.3358  133.7763  160.1313 C   0  0  1  0  0  0  0  0  0  0  0  0
  147.2552  132.4059  160.8472 C   0  0  0  0  0  0  0  0  0  0  0  0
  146.6384  131.4319  160.0301 O   0  0  0  0  0  0  0  0  0  0  0  0
  147.7575  134.9105  161.1146 C   0  0  2  0  0  0  0  0  0  0  0  0
  146.9149  135.0188  162.3776 C   0  0  0  0  0  0  0  0  0  0  0  0
  147.2366  136.4233  162.8645 C   0  0  0  0  0  0  0  0  0  0  0  0
  147.3139  137.1941  161.6771 O   0  0  0  0  0  0  0  0  0  0  0  0
  147.6280  136.3469  160.5757 C   0  0  0  0  0  0  0  0  0  0  0  0
  146.2463  134.2727  152.2400 C   0  0  0  0  0  0  0  0  0  0  0  0
  144.7095  135.3591  150.5542 C   0  0  0  0  0  0  0  0  0  0  0  0
  143.9393  136.3062  151.3373 N   0  0  0  0  0  0  0  0  0  0  0  0
  143.9473  133.9577  153.4788 H   0  0  0  0  0  0  0  0  0  0  0  0
  142.8435  133.6907  152.1252 H   0  0  0  0  0  0  0  0  0  0  0  0
  143.9308  132.6669  150.1945 H   0  0  0  0  0  0  0  0  0  0  0  0
  145.6387  132.8625  149.8930 H   0  0  0  0  0  0  0  0  0  0  0  0
  144.3983  131.4754  152.3164 H   0  0  0  0  0  0  0  0  0  0  0  0
  145.2456  130.6965  151.0024 H   0  0  0  0  0  0  0  0  0  0  0  0
  146.6849  130.9898  153.0356 H   0  0  0  0  0  0  0  0  0  0  0  0
  147.3592  131.7991  151.6263 H   0  0  0  0  0  0  0  0  0  0  0  0
  150.6562  133.7048  154.3520 H   0  0  0  0  0  0  0  0  0  0  0  0
  145.5395  133.2882  158.2384 H   0  0  0  0  0  0  0  0  0  0  0  0
  148.9379  132.7902  159.0105 H   0  0  0  0  0  0  0  0  0  0  0  0
  148.9256  134.5249  158.8409 H   0  0  0  0  0  0  0  0  0  0  0  0
  146.3304  134.0074  159.7771 H   0  0  0  0  0  0  0  0  0  0  0  0
  148.2483  132.0597  161.1354 H   0  0  0  0  0  0  0  0  0  0  0  0
  146.6592  132.4637  161.7567 H   0  0  0  0  0  0  0  0  0  0  0  0
  146.2157  131.8693  159.3067 H   0  0  0  0  0  0  0  0  0  0  0  0
  148.7919  134.7479  161.4218 H   0  0  0  0  0  0  0  0  0  0  0  0
  145.8530  134.9411  162.1394 H   0  0  0  0  0  0  0  0  0  0  0  0
  147.1574  134.2625  163.1246 H   0  0  0  0  0  0  0  0  0  0  0  0
  146.4868  136.8161  163.5514 H   0  0  0  0  0  0  0  0  0  0  0  0
  148.2056  136.4429  163.3654 H   0  0  0  0  0  0  0  0  0  0  0  0
  148.5449  136.6904  160.0989 H   0  0  0  0  0  0  0  0  0  0  0  0
  146.8178  136.4284  159.8503 H   0  0  0  0  0  0  0  0  0  0  0  0
  147.0619  134.3905  151.5250 H   0  0  0  0  0  0  0  0  0  0  0  0
  146.2401  135.1791  152.8463 H   0  0  0  0  0  0  0  0  0  0  0  0
  145.6538  135.7932  150.2237 H   0  0  0  0  0  0  0  0  0  0  0  0
  144.1324  135.1008  149.6650 H   0  0  0  0  0  0  0  0  0  0  0  0
  143.8503  137.2808  151.0882 H   0  0  0  0  0  0  0  0  0  0  0  0
  1  2  2  0  0  0  0
  2 29  1  0  0  0  0
  2  3  1  0  0  0  0
  3  4  1  0  0  0  0
  3 30  1  0  0  0  0
  3 31  1  0  0  0  0
  4 27  1  0  0  0  0
  4  5  1  0  0  0  0
  4 28  1  0  0  0  0
  5  6  1  0  0  0  0
  5 32  1  0  0  0  0
  5 33  1  0  0  0  0
  6  7  1  0  0  0  0
  6 34  1  0  0  0  0
  6 35  1  0  0  0  0
  7  8  1  0  0  0  0
  7 36  1  0  0  0  0
  7 37  1  0  0  0  0
  8  9  1  0  0  0  0
  8 27  1  0  0  0  0
  9 14  1  0  0  0  0
  9 10  2  0  0  0  0
 10 11  1  0  0  0  0
 11 12  2  0  0  0  0
 11 38  1  0  0  0  0
 12 13  1  0  0  0  0
 13 17  1  0  0  0  0
 13 14  2  0  0  0  0
 14 15  1  0  0  0  0
 15 16  2  0  0  0  0
 16 17  1  0  0  0  0
 16 39  1  0  0  0  0
 17 18  1  0  0  0  0
 18 19  1  0  0  0  0
 18 40  1  0  0  0  0
 18 41  1  0  0  0  0
 19 20  1  0  0  0  0
 19 22  1  0  0  0  0
 19 42  1  0  0  0  0
 20 21  1  0  0  0  0
 20 43  1  0  0  0  0
 20 44  1  0  0  0  0
 21 45  1  0  0  0  0
 22 26  1  0  0  0  0
 22 23  1  0  0  0  0
 22 46  1  0  0  0  0
 23 24  1  0  0  0  0
 23 47  1  0  0  0  0
 23 48  1  0  0  0  0
 24 25  1  0  0  0  0
 24 49  1  0  0  0  0
 24 50  1  0  0  0  0
 25 26  1  0  0  0  0
 26 51  1  0  0  0  0
 26 52  1  0  0  0  0
 27 53  1  0  0  0  0
 27 54  1  0  0  0  0
 28 29  1  0  0  0  0
 28 55  1  0  0  0  0
 28 56  1  0  0  0  0
 29 57  1  0  0  0  0
M  END
> <s_m_source_file>
AV-unprocessed.smi

> <i_m_source_file_index>
20

> <i_lp_mmshare_version>
43012

> <i_f3d_flags>
0

> <s_epik_input>
W0NIMl0xW05IXUMoPU8pW0NIMl1bQ0BAXTEyW0NIMl1bQ0gyXVtDSDJdTihbQ0gyXTIpYyhuW2NIXW4zKWMoYzM0KW5bY0hdbjRbQ0gyXVtDQEhdKFtDSDJdW09IXSlbQ0BASF01W0NIMl1bQ0gyXU9bQ0gyXTU=

> <s_epik_cmdline>
J2VwaWtfcHl0aG9uJywgJy1waCcsICc3LjAnLCAnLXRuJywgJzgnLCAnLW1hJywgJzIwMCcsICctbWV0YWxfYmluZGluZycsICctaW1hZScsICc8aW5maWxlLm1hZT4nLCAnLW9tYWUnLCAnPG91dGZpbGUubWFlPic=

> <r_lp_tautomer_probability>
1

> <r_epik_Ionization_Penalty>
0.0019697

> <r_epik_Ionization_Penalty_Charging>
0

> <r_epik_Ionization_Penalty_Neutral>
0.0019697

> <r_epik_State_Penalty>
0.00113613

> <r_epik_Charging_Adjusted_Penalty>
0.00113613

> <i_epik_Tot_Q>
0

> <i_epik_Tot_abs_Q>
0

> <r_epik_Metal_State_Penalty>
-0

> <b_epik_Metal_Only>
0

> <s_lp_Force_Field>
OPLS_2005

> <r_lp_Energy>
60.5509

> <b_lp_Chiralities_Consistent>
1

> <s_lp_Variant>
AV-unprocessed.smi:20-3

> <Gold.Version>
5.8.1

> <Gold.Id.Protein>
6NUR|6NUR_protein|mol2

> <Gold.PLP.Fitness>
47.8012

> <Gold.PLP.PLP>
-43.3284

> <Gold.PLP.part.hbond>
-3.0000

> <Gold.PLP.part.metal>
0.0000

> <Gold.PLP.part.buried>
-7.5413

> <Gold.PLP.part.nonpolar>
-32.9042

> <Gold.PLP.part.repulsive>
0.4311

> <Gold.PLP.ligand.clash>
0.0000

> <Gold.PLP.ligand.torsion>
2.1076

> <Gold.PLP.Chemscore.Hbond>
2.7920

> <Gold.PLP.Chemscore.CHOScore>
0.0000

> <Gold.PLP.Chemscore.Metal>
0.0000

> <Gold.Chemscore.Hbonds>
donor molecule, donor type, donor heavy atom, donor atom, acceptor molecule, acceptor atom, score
      L1  H    29    57       P1 10171  0.99
      P1  H  6931  6943       L1    25  0.90
      P1  H  6934  6947       L1    25  0.86

> <Gold.PLP.Chemscore.Internal.Correction>
0.3119

> <Gold.Rescore>
     Score         DG    S(hbond)    S(metal)    S(lipo)     H(rot)  DE(clash)    DE(int)     intcor
     13.18     -16.07       1.97        0.00      87.51       2.43       0.09       2.81       ----

> <Gold.Chemscore.Fitness>
13.1794

> <Gold.Chemscore.DG>
-16.0736

> <Gold.Chemscore.ZeroCoef>
-5.4800

> <Gold.Chemscore.Hbond>
1.9694

> <Gold.Chemscore.Metal>
0.0000

> <Gold.Chemscore.Lipo>
87.5133

> <Gold.Chemscore.Internal_Hbond>
0.0000

> <Gold.Chemscore.DEClash>
0.0885

> <Gold.Chemscore.DEInternal>
2.8057

> <Gold.Chemscore.Rot>
2.4309

> <Gold.Chemscore.Internal.Correction>
   9.000000E+99

> <Gold.Chemscore.Hbonds>
donor molecule, donor type, donor heavy atom, donor atom, acceptor molecule, acceptor atom, score
      L1  H    29    57       P1 10171  0.93
      P1  H  6931  6943       L1    25  0.13
      P1  H  6934  6947       L1    25  0.50

> <Gold.Chemscore.Hbond.Weighted>
-6.5776

> <Gold.Chemscore.Metal.Weighted>
-0.0000

> <Gold.Chemscore.Lipo.Weighted>
-10.2391

> <Gold.Chemscore.Internal_Hbond.Weighted>
0.0000

> <Gold.Chemscore.DEClash.Weighted>
0.0885

> <Gold.Chemscore.DEInternal.Weighted>
2.8057

> <Gold.Chemscore.Rot.Weighted>
6.2231

> <Gold.Chemscore.Internal.Correction.Weighted>
   9.000000E+99

> <Gold.Protein.RotatedTorsions>
[ 6907 6896 6895 6894 ] final -100.01 input  -60.11 | X-H torsion
[ 7974 7965 7964 7962 ] final  -55.86 input  175.53 | X-H torsion
[ 8008 7997 7996 7995 ] final   75.70 input   59.86 | X-H torsion
[ 10167 10162 10161 10158 ] final -145.15 input  -65.29 | X-H torsion
[ 10718 10713 10712 10709 ] final  -52.35 input   66.30 | X-H torsion
[ 10763 10752 10751 10750 ] final   81.49 input  -60.55 | X-H torsion
[ 11005 11000 10999 10996 ] final -177.69 input  -57.11 | X-H torsion

> <Gold.Protein.ActiveResidues>
 VAL166  LYS551  ARG553  GLY616  TRP617  ASP618  TYR619  PRO620  LYS621  CYS622 
 ASP623  PHE694  ASN695  SER759  ASP760  ASP761  ALA762  ILE779  LEU786  VAL792 
 PHE793  MET794  SER795  GLU796  ALA797  LYS798  CYS799  TRP800  GLU811  SER814 

> <Gold.Protein.RotatedAtoms>
  150.7100  134.0953  159.3946 H   0  0  0  0  0  0  0  0  0  0  0  0  # atno 6907 bound_to 6896
  151.8939  135.0403  160.0509 H   0  0  0  0  0  0  0  0  0  0  0  0  # atno 6908 bound_to 6896
  152.2469  133.5146  159.5339 H   0  0  0  0  0  0  0  0  0  0  0  0  # atno 6909 bound_to 6896
  145.8693  140.8228  142.9896 H   0  0  0  0  0  0  0  0  0  0  0  0  # atno 7974 bound_to 7965
  155.8167  140.3471  155.5490 H   0  0  0  0  0  0  0  0  0  0  0  0  # atno 8008 bound_to 7997
  155.8384  140.0938  157.1769 H   0  0  0  0  0  0  0  0  0  0  0  0  # atno 8009 bound_to 7997
  154.4005  140.1399  156.3687 H   0  0  0  0  0  0  0  0  0  0  0  0  # atno 8010 bound_to 7997
  139.7832  143.8070  152.2641 H   0  0  0  0  0  0  0  0  0  0  0  0  # atno 10167 bound_to 10162
  156.1629  130.4149  149.9764 H   0  0  0  0  0  0  0  0  0  0  0  0  # atno 10718 bound_to 10713
  153.1121  135.4763  154.9053 H   0  0  0  0  0  0  0  0  0  0  0  0  # atno 10763 bound_to 10752
  154.7491  135.3101  154.8593 H   0  0  0  0  0  0  0  0  0  0  0  0  # atno 10764 bound_to 10752
  153.9179  135.6858  153.4802 H   0  0  0  0  0  0  0  0  0  0  0  0  # atno 10765 bound_to 10752
  140.4381  134.6456  157.4744 H   0  0  0  0  0  0  0  0  0  0  0  0  # atno 11005 bound_to 11000
  144.6726  140.1214  143.7449 LP  0  0  0  0  0  0  0  0  0  0  0  0  # atno 17320 bound_to 7965
  145.9156  139.2513  143.1412 LP  0  0  0  0  0  0  0  0  0  0  0  0  # atno 17321 bound_to 7965
  139.8140  144.7324  150.9660 LP  0  0  0  0  0  0  0  0  0  0  0  0  # atno 17342 bound_to 10162
  140.7819  143.4223  151.0822 LP  0  0  0  0  0  0  0  0  0  0  0  0  # atno 17343 bound_to 10162
  156.7588  130.9143  151.3640 LP  0  0  0  0  0  0  0  0  0  0  0  0  # atno 17370 bound_to 10713
  157.6746  130.9083  150.0121 LP  0  0  0  0  0  0  0  0  0  0  0  0  # atno 17371 bound_to 10713
  140.0088  134.6722  155.9413 LP  0  0  0  0  0  0  0  0  0  0  0  0  # atno 17394 bound_to 11000
  141.1717  133.6538  156.4676 LP  0  0  0  0  0  0  0  0  0  0  0  0  # atno 17395 bound_to 11000

$$$$
