AV-unprocessed.smi:1749|AV-procd|sdf|7045|dock4
  -GOLD-   22720 8263D 1   1.00000     0.00000
 Structure written by MMmdl.
 32 33  0  0  0  0  0  0  0  0  1 V2000
  153.8211  140.7080  159.7325 C   0  0  0  0  0  0  0  0  0  0  0  0
  152.7470  141.8048  159.7622 C   0  0  1  0  0  0  0  0  0  0  0  0
  153.3729  143.2003  159.9484 C   0  0  0  0  0  0  0  0  0  0  0  0
  152.3003  144.3004  159.9750 C   0  0  0  0  0  0  0  0  0  0  0  0
  151.4296  144.2599  158.7098 C   0  0  0  0  0  0  0  0  0  0  0  0
  150.7942  142.8717  158.5111 C   0  0  1  0  0  0  0  0  0  0  0  0
  150.0502  142.8478  157.2553 N   0  0  0  0  0  0  0  0  0  0  0  0
  149.5384  141.7617  156.6523 C   0  0  0  0  0  0  0  0  0  0  0  0
  149.6315  140.6296  157.1234 O   0  0  0  0  0  0  0  0  0  0  0  0
  148.9003  141.9717  155.4806 N   0  0  0  0  0  0  0  0  0  0  0  0
  148.2477  141.0801  154.5791 C   0  0  0  0  0  0  0  0  0  0  0  0
  148.6131  139.8050  154.3658 N   0  0  0  0  0  0  0  0  0  0  0  0
  147.7925  139.1725  153.4419 N   0  0  0  0  0  0  0  0  0  0  0  0
  146.8367  139.9913  152.9948 C   0  0  0  0  0  0  0  0  0  0  0  0
  146.8473  141.6155  153.6592 S   0  0  0  0  0  0  0  0  0  0  0  0
  151.8717  141.7704  158.4942 C   0  0  0  0  0  0  0  0  0  0  0  0
  154.5055  140.8462  158.8950 H   0  0  0  0  0  0  0  0  0  0  0  0
  153.3709  139.7197  159.6346 H   0  0  0  0  0  0  0  0  0  0  0  0
  154.4113  140.7114  160.6492 H   0  0  0  0  0  0  0  0  0  0  0  0
  152.1020  141.6088  160.6201 H   0  0  0  0  0  0  0  0  0  0  0  0
  153.9497  143.2307  160.8734 H   0  0  0  0  0  0  0  0  0  0  0  0
  154.0770  143.4003  159.1394 H   0  0  0  0  0  0  0  0  0  0  0  0
  151.6707  144.1762  160.8570 H   0  0  0  0  0  0  0  0  0  0  0  0
  152.7736  145.2781  160.0682 H   0  0  0  0  0  0  0  0  0  0  0  0
  150.6518  145.0220  158.7739 H   0  0  0  0  0  0  0  0  0  0  0  0
  152.0418  144.5147  157.8434 H   0  0  0  0  0  0  0  0  0  0  0  0
  150.1259  142.6821  159.3529 H   0  0  0  0  0  0  0  0  0  0  0  0
  149.9219  143.7374  156.7940 H   0  0  0  0  0  0  0  0  0  0  0  0
  148.8566  142.9418  155.2041 H   0  0  0  0  0  0  0  0  0  0  0  0
  146.1202  139.6365  152.2686 H   0  0  0  0  0  0  0  0  0  0  0  0
  152.5034  141.8886  157.6122 H   0  0  0  0  0  0  0  0  0  0  0  0
  151.3951  140.7935  158.4018 H   0  0  0  0  0  0  0  0  0  0  0  0
  1  2  1  0  0  0  0
  1 17  1  0  0  0  0
  1 18  1  0  0  0  0
  1 19  1  0  0  0  0
  2 16  1  0  0  0  0
  2  3  1  0  0  0  0
  2 20  1  0  0  0  0
  3  4  1  0  0  0  0
  3 21  1  0  0  0  0
  3 22  1  0  0  0  0
  4  5  1  0  0  0  0
  4 23  1  0  0  0  0
  4 24  1  0  0  0  0
  5  6  1  0  0  0  0
  5 25  1  0  0  0  0
  5 26  1  0  0  0  0
  6  7  1  0  0  0  0
  6 16  1  0  0  0  0
  6 27  1  0  0  0  0
  7  8  1  0  0  0  0
  7 28  1  0  0  0  0
  8  9  2  0  0  0  0
  8 10  1  0  0  0  0
 10 11  1  0  0  0  0
 10 29  1  0  0  0  0
 11 15  1  0  0  0  0
 11 12  2  0  0  0  0
 12 13  1  0  0  0  0
 13 14  2  0  0  0  0
 14 15  1  0  0  0  0
 14 30  1  0  0  0  0
 16 31  1  0  0  0  0
 16 32  1  0  0  0  0
M  END
> <s_m_source_file>
AV-unprocessed.smi

> <i_m_source_file_index>
1749

> <i_lp_mmshare_version>
43012

> <i_f3d_flags>
0

> <s_epik_input>
W0NIM11bQ0BASF0xW0NIMl1bQ0gyXVtDSDJdW0NASF0oW0NIMl0xKVtOSF1DKD1PKVtOSF1jMm5uW2NIXXMy

> <s_epik_cmdline>
J2VwaWtfcHl0aG9uJywgJy1waCcsICc3LjAnLCAnLXRuJywgJzgnLCAnLW1hJywgJzIwMCcsICctbWV0YWxfYmluZGluZycsICctaW1hZScsICc8aW5maWxlLm1hZT4nLCAnLW9tYWUnLCAnPG91dGZpbGUubWFlPic=

> <r_lp_tautomer_probability>
1

> <r_epik_Ionization_Penalty>
0.000318591

> <r_epik_Ionization_Penalty_Charging>
0

> <r_epik_Ionization_Penalty_Neutral>
0.000318591

> <r_epik_State_Penalty>
-0

> <r_epik_Charging_Adjusted_Penalty>
0

> <i_epik_Tot_Q>
0

> <i_epik_Tot_abs_Q>
0

> <r_epik_Metal_State_Penalty>
0.169791

> <b_epik_Metal_Only>
0

> <s_lp_Force_Field>
OPLS_2005

> <r_lp_Energy>
11.6735

> <b_lp_Chiralities_Consistent>
1

> <s_lp_Variant>
AV-unprocessed.smi:1749-2

> <Gold.Version>
5.8.1

> <Gold.Id.Protein>
6NUR|6NUR_protein|mol2

> <Gold.PLP.Fitness>
39.0055

> <Gold.PLP.PLP>
-31.5449

> <Gold.PLP.part.hbond>
-2.0000

> <Gold.PLP.part.metal>
0.0000

> <Gold.PLP.part.buried>
-4.7587

> <Gold.PLP.part.nonpolar>
-26.5129

> <Gold.PLP.part.repulsive>
0.7645

> <Gold.PLP.ligand.clash>
0.0000

> <Gold.PLP.ligand.torsion>
0.3452

> <Gold.PLP.Chemscore.Hbond>
1.9440

> <Gold.PLP.Chemscore.CHOScore>
0.7723

> <Gold.PLP.Chemscore.Metal>
0.0000

> <Gold.Chemscore.Hbonds>
donor molecule, donor type, donor heavy atom, donor atom, acceptor molecule, acceptor atom, score
      L1  H     7    28       P1  8028  0.94
      L1  H    10    29       P1  8028  1.00
      L1  C    14    30       P1 10175  0.68

> <Gold.PLP.Chemscore.Internal.Correction>
0.0021

> <Gold.Rescore>
     Score         DG    S(hbond)    S(metal)    S(lipo)     H(rot)  DE(clash)    DE(int)     intcor
     17.18     -19.65       1.92        0.00      88.25       1.00       0.01       2.47       ----

> <Gold.Chemscore.Fitness>
17.1794

> <Gold.Chemscore.DG>
-19.6539

> <Gold.Chemscore.ZeroCoef>
-5.4800

> <Gold.Chemscore.Hbond>
1.9189

> <Gold.Chemscore.Metal>
0.0000

> <Gold.Chemscore.Lipo>
88.2457

> <Gold.Chemscore.Internal_Hbond>
0.0000

> <Gold.Chemscore.DEClash>
0.0069

> <Gold.Chemscore.DEInternal>
2.4675

> <Gold.Chemscore.Rot>
1.0000

> <Gold.Chemscore.Internal.Correction>
   9.000000E+99

> <Gold.Chemscore.Hbonds>
donor molecule, donor type, donor heavy atom, donor atom, acceptor molecule, acceptor atom, score
      L1  H     7    28       P1  8028  0.91
      L1  H    10    29       P1  8028  0.95

> <Gold.Chemscore.Hbond.Weighted>
-6.4091

> <Gold.Chemscore.Metal.Weighted>
-0.0000

> <Gold.Chemscore.Lipo.Weighted>
-10.3247

> <Gold.Chemscore.Internal_Hbond.Weighted>
0.0000

> <Gold.Chemscore.DEClash.Weighted>
0.0069

> <Gold.Chemscore.DEInternal.Weighted>
2.4675

> <Gold.Chemscore.Rot.Weighted>
2.5600

> <Gold.Chemscore.Internal.Correction.Weighted>
   9.000000E+99

> <Gold.Protein.RotatedTorsions>
[ 6907 6896 6895 6894 ] final  -26.60 input  -60.11 | X-H torsion
[ 7974 7965 7964 7962 ] final   10.92 input  175.53 | X-H torsion
[ 8008 7997 7996 7995 ] final  -39.58 input   59.86 | X-H torsion
[ 10167 10162 10161 10158 ] final  -80.64 input  -65.29 | X-H torsion
[ 10718 10713 10712 10709 ] final -135.27 input   66.30 | X-H torsion
[ 10763 10752 10751 10750 ] final   99.68 input  -60.55 | X-H torsion
[ 11005 11000 10999 10996 ] final -132.79 input  -57.11 | X-H torsion

> <Gold.Protein.ActiveResidues>
 VAL166  LYS551  ARG553  GLY616  TRP617  ASP618  TYR619  PRO620  LYS621  CYS622 
 ASP623  PHE694  ASN695  SER759  ASP760  ASP761  ALA762  ILE779  LEU786  VAL792 
 PHE793  MET794  SER795  GLU796  ALA797  LYS798  CYS799  TRP800  GLU811  SER814 

> <Gold.Protein.RotatedAtoms>
  151.1587  135.0263  159.8700 H   0  0  0  0  0  0  0  0  0  0  0  0  # atno 6907 bound_to 6896
  152.5452  134.1304  159.8447 H   0  0  0  0  0  0  0  0  0  0  0  0  # atno 6908 bound_to 6896
  151.1397  133.4933  159.2630 H   0  0  0  0  0  0  0  0  0  0  0  0  # atno 6909 bound_to 6896
  146.2380  139.9563  142.8464 H   0  0  0  0  0  0  0  0  0  0  0  0  # atno 7974 bound_to 7965
  154.4021  140.1548  156.2886 H   0  0  0  0  0  0  0  0  0  0  0  0  # atno 8008 bound_to 7997
  155.8805  140.3444  155.5863 H   0  0  0  0  0  0  0  0  0  0  0  0  # atno 8009 bound_to 7997
  155.7672  140.0825  157.2116 H   0  0  0  0  0  0  0  0  0  0  0  0  # atno 8010 bound_to 7997
  140.4484  143.2491  151.8524 H   0  0  0  0  0  0  0  0  0  0  0  0  # atno 10167 bound_to 10162
  156.2644  130.7229  151.1174 H   0  0  0  0  0  0  0  0  0  0  0  0  # atno 10718 bound_to 10713
  153.3045  135.4105  155.1282 H   0  0  0  0  0  0  0  0  0  0  0  0  # atno 10763 bound_to 10752
  154.8559  135.3549  154.5807 H   0  0  0  0  0  0  0  0  0  0  0  0  # atno 10764 bound_to 10752
  153.6233  135.7063  153.5361 H   0  0  0  0  0  0  0  0  0  0  0  0  # atno 10765 bound_to 10752
  140.9138  134.1533  157.4368 H   0  0  0  0  0  0  0  0  0  0  0  0  # atno 11005 bound_to 11000
  145.1814  140.9768  143.4264 LP  0  0  0  0  0  0  0  0  0  0  0  0  # atno 17320 bound_to 7965
  144.9939  139.3663  143.6201 LP  0  0  0  0  0  0  0  0  0  0  0  0  # atno 17321 bound_to 7965
  139.4794  144.5148  151.8883 LP  0  0  0  0  0  0  0  0  0  0  0  0  # atno 17342 bound_to 10162
  140.4236  144.2211  150.5887 LP  0  0  0  0  0  0  0  0  0  0  0  0  # atno 17343 bound_to 10162
  157.7262  131.0648  150.5920 LP  0  0  0  0  0  0  0  0  0  0  0  0  # atno 17370 bound_to 10713
  156.6010  130.4354  149.5897 LP  0  0  0  0  0  0  0  0  0  0  0  0  # atno 17371 bound_to 10713
  139.8762  134.9946  156.5701 LP  0  0  0  0  0  0  0  0  0  0  0  0  # atno 17394 bound_to 11000
  140.8076  133.8455  155.8781 LP  0  0  0  0  0  0  0  0  0  0  0  0  # atno 17395 bound_to 11000

$$$$
