AV-unprocessed.smi:1451|AV-procd|sdf|5901|dock4
  -GOLD-   22720 5583D 1   1.00000     0.00000
 Structure written by MMmdl.
 47 48  0  0  0  0  0  0  0  0  2 V2000
  146.7168  133.3137  150.6692 C   0  0  0  0  0  0  0  0  0  0  0  0
  145.6704  133.4809  151.7851 C   0  0  2  0  0  0  0  0  0  0  0  0
  144.6284  134.5695  151.4692 C   0  0  0  0  0  0  0  0  0  0  0  0
  145.2279  135.9747  151.6202 C   0  0  0  0  0  0  0  0  0  0  0  0
  145.8798  136.1514  153.0005 C   0  0  0  0  0  0  0  0  0  0  0  0
  146.9049  135.1046  153.2478 N   0  3  1  0  0  0  0  0  0  0  0  0
  147.6569  135.3427  154.5059 C   0  0  0  0  0  0  0  0  0  0  0  0
  146.7751  135.1878  155.7560 C   0  0  0  0  0  0  0  0  0  0  0  0
  147.4962  135.6238  156.9443 N   0  0  0  0  0  0  0  0  0  0  0  0
  146.9151  135.9843  158.0975 C   0  0  0  0  0  0  0  0  0  0  0  0
  145.6965  135.9603  158.2737 O   0  0  0  0  0  0  0  0  0  0  0  0
  147.8603  136.4171  159.2267 C   0  0  0  0  0  0  0  0  0  0  0  0
  147.6918  135.6183  160.4521 N   0  0  0  0  0  0  0  0  0  0  0  0
  147.8282  134.2208  160.3353 C   0  0  0  0  0  0  0  0  0  0  0  0
  147.6809  133.3806  161.3777 C   0  0  0  0  0  0  0  0  0  0  0  0
  147.8844  131.8806  161.2309 C   0  0  0  0  0  0  0  0  0  0  0  0
  148.8234  131.4390  162.0682 F   0  0  0  0  0  0  0  0  0  0  0  0
  146.7488  131.2406  161.5055 F   0  0  0  0  0  0  0  0  0  0  0  0
  148.2496  131.5639  159.9879 F   0  0  0  0  0  0  0  0  0  0  0  0
  147.4021  133.9899  162.6635 C   0  0  0  0  0  0  0  0  0  0  0  0
  147.2756  135.3248  162.7940 C   0  0  0  0  0  0  0  0  0  0  0  0
  147.4147  136.2236  161.6460 C   0  0  0  0  0  0  0  0  0  0  0  0
  147.2900  137.4443  161.7497 O   0  0  0  0  0  0  0  0  0  0  0  0
  146.3209  133.7380  153.1602 C   0  0  0  0  0  0  0  0  0  0  0  0
  147.3242  134.2095  150.5410 H   0  0  0  0  0  0  0  0  0  0  0  0
  146.2389  133.0981  149.7132 H   0  0  0  0  0  0  0  0  0  0  0  0
  147.3934  132.4873  150.8891 H   0  0  0  0  0  0  0  0  0  0  0  0
  145.1371  132.5313  151.8486 H   0  0  0  0  0  0  0  0  0  0  0  0
  144.2240  134.4349  150.4654 H   0  0  0  0  0  0  0  0  0  0  0  0
  143.7851  134.4681  152.1539 H   0  0  0  0  0  0  0  0  0  0  0  0
  145.9668  136.1519  150.8382 H   0  0  0  0  0  0  0  0  0  0  0  0
  144.4498  136.7256  151.4794 H   0  0  0  0  0  0  0  0  0  0  0  0
  146.3385  137.1397  153.0510 H   0  0  0  0  0  0  0  0  0  0  0  0
  145.1218  136.1126  153.7846 H   0  0  0  0  0  0  0  0  0  0  0  0
  148.4719  134.6210  154.5791 H   0  0  0  0  0  0  0  0  0  0  0  0
  148.1209  136.3300  154.4775 H   0  0  0  0  0  0  0  0  0  0  0  0
  145.8600  135.7724  155.6569 H   0  0  0  0  0  0  0  0  0  0  0  0
  146.4792  134.1457  155.8843 H   0  0  0  0  0  0  0  0  0  0  0  0
  148.5037  135.6629  156.8865 H   0  0  0  0  0  0  0  0  0  0  0  0
  148.8836  136.3463  158.8559 H   0  0  0  0  0  0  0  0  0  0  0  0
  147.7109  137.4757  159.4491 H   0  0  0  0  0  0  0  0  0  0  0  0
  148.0565  133.8726  159.3384 H   0  0  0  0  0  0  0  0  0  0  0  0
  147.2871  133.3653  163.5370 H   0  0  0  0  0  0  0  0  0  0  0  0
  147.0648  135.7440  163.7669 H   0  0  0  0  0  0  0  0  0  0  0  0
  145.5745  133.6204  153.9475 H   0  0  0  0  0  0  0  0  0  0  0  0
  147.0806  132.9789  153.3423 H   0  0  0  0  0  0  0  0  0  0  0  0
  147.5746  135.1864  152.4961 H   0  0  0  0  0  0  0  0  0  0  0  0
  1  2  1  0  0  0  0
  1 25  1  0  0  0  0
  1 26  1  0  0  0  0
  1 27  1  0  0  0  0
  2 24  1  0  0  0  0
  2  3  1  0  0  0  0
  2 28  1  0  0  0  0
  3  4  1  0  0  0  0
  3 29  1  0  0  0  0
  3 30  1  0  0  0  0
  4  5  1  0  0  0  0
  4 31  1  0  0  0  0
  4 32  1  0  0  0  0
  5  6  1  0  0  0  0
  5 33  1  0  0  0  0
  5 34  1  0  0  0  0
  6  7  1  0  0  0  0
  6 24  1  0  0  0  0
  6 47  1  0  0  0  0
  7  8  1  0  0  0  0
  7 35  1  0  0  0  0
  7 36  1  0  0  0  0
  8  9  1  0  0  0  0
  8 37  1  0  0  0  0
  8 38  1  0  0  0  0
  9 10  1  0  0  0  0
  9 39  1  0  0  0  0
 10 11  2  0  0  0  0
 10 12  1  0  0  0  0
 12 13  1  0  0  0  0
 12 40  1  0  0  0  0
 12 41  1  0  0  0  0
 13 22  1  0  0  0  0
 13 14  1  0  0  0  0
 14 15  2  0  0  0  0
 14 42  1  0  0  0  0
 15 16  1  0  0  0  0
 15 20  1  0  0  0  0
 16 17  1  0  0  0  0
 16 18  1  0  0  0  0
 16 19  1  0  0  0  0
 20 21  2  0  0  0  0
 20 43  1  0  0  0  0
 21 22  1  0  0  0  0
 21 44  1  0  0  0  0
 22 23  2  0  0  0  0
 24 45  1  0  0  0  0
 24 46  1  0  0  0  0
M  CHG  1   6   1
M  END
> <s_m_source_file>
AV-unprocessed.smi

> <i_m_source_file_index>
1451

> <i_lp_mmshare_version>
43012

> <i_f3d_flags>
0

> <s_epik_input>
W0NIM11bQ0BASF0xW0NIMl1bQ0gyXVtDSDJdTihbQ0gyXTEpW0NIMl1bQ0gyXVtOSF1DKD1PKVtDSDJdbjJbY0hdYyhDKEYpKEYpRilbY0hdW2NIXWMyPU8=

> <s_epik_cmdline>
J2VwaWtfcHl0aG9uJywgJy1waCcsICc3LjAnLCAnLXRuJywgJzgnLCAnLW1hJywgJzIwMCcsICctbWV0YWxfYmluZGluZycsICctaW1hZScsICc8aW5maWxlLm1hZT4nLCAnLW9tYWUnLCAnPG91dGZpbGUubWFlPic=

> <r_lp_tautomer_probability>
1

> <r_epik_Ionization_Penalty>
0.00192452

> <r_epik_Ionization_Penalty_Charging>
0.00192444

> <r_epik_Ionization_Penalty_Neutral>
8.16761e-08

> <r_epik_State_Penalty>
0.00131115

> <r_epik_Charging_Adjusted_Penalty>
0.00323559

> <i_epik_Tot_Q>
1

> <i_epik_Tot_abs_Q>
1

> <r_epik_Metal_State_Penalty>
-0

> <b_epik_Metal_Only>
0

> <s_lp_Force_Field>
OPLS_2005

> <r_lp_Energy>
31.5843

> <b_lp_Chiralities_Consistent>
1

> <s_lp_Variant>
AV-unprocessed.smi:1451-3

> <Gold.Version>
5.8.1

> <Gold.Id.Protein>
6NUR|6NUR_protein|mol2

> <Gold.PLP.Fitness>
46.3371

> <Gold.PLP.PLP>
-37.9502

> <Gold.PLP.part.hbond>
-3.0000

> <Gold.PLP.part.metal>
0.0000

> <Gold.PLP.part.buried>
-2.7657

> <Gold.PLP.part.nonpolar>
-31.2446

> <Gold.PLP.part.repulsive>
0.0000

> <Gold.PLP.ligand.clash>
1.3565

> <Gold.PLP.ligand.torsion>
0.2672

> <Gold.PLP.Chemscore.Hbond>
3.3920

> <Gold.PLP.Chemscore.CHOScore>
0.0000

> <Gold.PLP.Chemscore.Metal>
0.0000

> <Gold.Chemscore.Hbonds>
donor molecule, donor type, donor heavy atom, donor atom, acceptor molecule, acceptor atom, score
      L1  H     6    47       P1  7948  1.79
      P1  H  6931  6943       L1    23  0.77
      P1  H  6934  6947       L1    23  0.78

> <Gold.PLP.Chemscore.Internal.Correction>
0.1017

> <Gold.Rescore>
     Score         DG    S(hbond)    S(metal)    S(lipo)     H(rot)  DE(clash)    DE(int)     intcor
     16.54     -16.88       2.51        0.00      71.31       2.08       0.04       0.30       ----

> <Gold.Chemscore.Fitness>
16.5416

> <Gold.Chemscore.DG>
-16.8804

> <Gold.Chemscore.ZeroCoef>
-5.4800

> <Gold.Chemscore.Hbond>
2.5067

> <Gold.Chemscore.Metal>
0.0000

> <Gold.Chemscore.Lipo>
71.3073

> <Gold.Chemscore.Internal_Hbond>
0.0000

> <Gold.Chemscore.DEClash>
0.0354

> <Gold.Chemscore.DEInternal>
0.3034

> <Gold.Chemscore.Rot>
2.0762

> <Gold.Chemscore.Internal.Correction>
   9.000000E+99

> <Gold.Chemscore.Hbonds>
donor molecule, donor type, donor heavy atom, donor atom, acceptor molecule, acceptor atom, score
      L1  H     6    47       P1  7948  0.88
      P1  H  6931  6943       L1    23  0.56
      P1  H  6934  6947       L1    23  0.78

> <Gold.Chemscore.Hbond.Weighted>
-8.3724

> <Gold.Chemscore.Metal.Weighted>
-0.0000

> <Gold.Chemscore.Lipo.Weighted>
-8.3430

> <Gold.Chemscore.Internal_Hbond.Weighted>
0.0000

> <Gold.Chemscore.DEClash.Weighted>
0.0354

> <Gold.Chemscore.DEInternal.Weighted>
0.3034

> <Gold.Chemscore.Rot.Weighted>
5.3150

> <Gold.Chemscore.Internal.Correction.Weighted>
   9.000000E+99

> <Gold.Protein.RotatedTorsions>
[ 6907 6896 6895 6894 ] final  -54.14 input  -60.11 | X-H torsion
[ 7974 7965 7964 7962 ] final   93.38 input  175.53 | X-H torsion
[ 8008 7997 7996 7995 ] final   -5.19 input   59.86 | X-H torsion
[ 10167 10162 10161 10158 ] final   38.53 input  -65.29 | X-H torsion
[ 10718 10713 10712 10709 ] final  -97.66 input   66.30 | X-H torsion
[ 10763 10752 10751 10750 ] final  160.48 input  -60.55 | X-H torsion
[ 11005 11000 10999 10996 ] final  164.73 input  -57.11 | X-H torsion

> <Gold.Protein.ActiveResidues>
 VAL166  LYS551  ARG553  GLY616  TRP617  ASP618  TYR619  PRO620  LYS621  CYS622 
 ASP623  PHE694  ASN695  SER759  ASP760  ASP761  ALA762  ILE779  LEU786  VAL792 
 PHE793  MET794  SER795  GLU796  ALA797  LYS798  CYS799  TRP800  GLU811  SER814 

> <Gold.Protein.RotatedAtoms>
  150.8364  134.7639  159.6895 H   0  0  0  0  0  0  0  0  0  0  0  0  # atno 6907 bound_to 6896
  152.4460  134.5491  159.9871 H   0  0  0  0  0  0  0  0  0  0  0  0  # atno 6908 bound_to 6896
  151.5640  133.3361  159.3012 H   0  0  0  0  0  0  0  0  0  0  0  0  # atno 6909 bound_to 6896
  145.4796  139.2279  143.2890 H   0  0  0  0  0  0  0  0  0  0  0  0  # atno 7974 bound_to 7965
  154.6065  140.2465  155.7724 H   0  0  0  0  0  0  0  0  0  0  0  0  # atno 8008 bound_to 7997
  156.2344  140.2955  156.0224 H   0  0  0  0  0  0  0  0  0  0  0  0  # atno 8009 bound_to 7997
  155.2124  140.0397  157.2926 H   0  0  0  0  0  0  0  0  0  0  0  0  # atno 8010 bound_to 7997
  140.3928  144.1830  150.6131 H   0  0  0  0  0  0  0  0  0  0  0  0  # atno 10167 bound_to 10162
  156.0089  130.5204  150.6407 H   0  0  0  0  0  0  0  0  0  0  0  0  # atno 10718 bound_to 10713
  154.2481  135.2772  155.2827 H   0  0  0  0  0  0  0  0  0  0  0  0  # atno 10763 bound_to 10752
  154.5488  135.5681  153.6907 H   0  0  0  0  0  0  0  0  0  0  0  0  # atno 10764 bound_to 10752
  152.9986  135.6269  154.2627 H   0  0  0  0  0  0  0  0  0  0  0  0  # atno 10765 bound_to 10752
  140.2489  134.7992  157.3483 H   0  0  0  0  0  0  0  0  0  0  0  0  # atno 11005 bound_to 11000
  146.2349  140.5582  142.8959 LP  0  0  0  0  0  0  0  0  0  0  0  0  # atno 17320 bound_to 7965
  144.7896  140.6006  143.6550 LP  0  0  0  0  0  0  0  0  0  0  0  0  # atno 17321 bound_to 7965
  140.4822  143.2375  151.8939 LP  0  0  0  0  0  0  0  0  0  0  0  0  # atno 17342 bound_to 10162
  139.4788  144.5257  151.8739 LP  0  0  0  0  0  0  0  0  0  0  0  0  # atno 17343 bound_to 10162
  157.4188  131.0834  151.1151 LP  0  0  0  0  0  0  0  0  0  0  0  0  # atno 17370 bound_to 10713
  157.1759  130.6288  149.5656 LP  0  0  0  0  0  0  0  0  0  0  0  0  # atno 17371 bound_to 10713
  140.1578  134.4767  155.7916 LP  0  0  0  0  0  0  0  0  0  0  0  0  # atno 17394 bound_to 11000
  141.2203  133.6888  156.7491 LP  0  0  0  0  0  0  0  0  0  0  0  0  # atno 17395 bound_to 11000

$$$$
