AV-unprocessed.smi:1554|AV-procd|sdf|6251|dock2
  -GOLD-   22720 6433D 1   1.00000     0.00000
 Structure written by MMmdl.
 48 50  0  0  0  0  0  0  0  0  2 V2000
  153.0343  141.8252  160.5026 C   0  0  0  0  0  0  0  0  0  0  0  0
  152.2811  141.6408  159.1970 C   0  0  0  0  0  0  0  0  0  0  0  0
  152.5200  140.4825  158.4235 C   0  0  0  0  0  0  0  0  0  0  0  0
  151.8421  140.2745  157.2024 C   0  0  0  0  0  0  0  0  0  0  0  0
  151.9189  139.2298  156.2971 N   0  0  0  0  0  0  0  0  0  0  0  0
  151.0523  139.6176  155.3658 C   0  0  0  0  0  0  0  0  0  0  0  0
  150.4241  140.7933  155.5598 N   0  0  0  0  0  0  0  0  0  0  0  0
  149.4500  141.4266  154.6890 C   0  0  0  0  0  0  0  0  0  0  0  0
  148.0021  141.1577  155.1416 C   0  0  1  0  0  0  0  0  0  0  0  0
  147.7260  141.9219  156.3002 O   0  0  0  0  0  0  0  0  0  0  0  0
  146.9773  141.5202  154.0489 C   0  0  0  0  0  0  0  0  0  0  0  0
  145.5739  141.3633  154.5104 N   0  3  2  0  0  0  0  0  0  0  0  0
  145.0204  142.5761  155.1626 C   0  0  0  0  0  0  0  0  0  0  0  0
  143.5541  142.3458  155.5629 C   0  0  0  0  0  0  0  0  0  0  0  0
  143.4636  141.2098  156.4138 O   0  0  0  0  0  0  0  0  0  0  0  0
  143.9090  140.0183  155.7748 C   0  0  2  0  0  0  0  0  0  0  0  0
  143.6886  138.8475  156.7393 C   0  0  0  0  0  0  0  0  0  0  0  0
  145.3912  140.1799  155.3842 C   0  0  0  0  0  0  0  0  0  0  0  0
  150.9130  141.2663  156.7723 C   0  0  0  0  0  0  0  0  0  0  0  0
  150.6649  142.4219  157.5339 C   0  0  0  0  0  0  0  0  0  0  0  0
  151.3492  142.6131  158.7523 C   0  0  0  0  0  0  0  0  0  0  0  0
  151.0734  143.8636  159.5685 C   0  0  0  0  0  0  0  0  0  0  0  0
  153.6856  140.9756  160.7105 H   0  0  0  0  0  0  0  0  0  0  0  0
  152.3386  141.9237  161.3360 H   0  0  0  0  0  0  0  0  0  0  0  0
  153.6547  142.7210  160.4614 H   0  0  0  0  0  0  0  0  0  0  0  0
  153.2286  139.7413  158.7629 H   0  0  0  0  0  0  0  0  0  0  0  0
  150.8667  139.0141  154.4890 H   0  0  0  0  0  0  0  0  0  0  0  0
  149.6513  142.4983  154.6550 H   0  0  0  0  0  0  0  0  0  0  0  0
  149.6057  141.0470  153.6783 H   0  0  0  0  0  0  0  0  0  0  0  0
  147.9140  140.1038  155.4028 H   0  0  0  0  0  0  0  0  0  0  0  0
  148.1220  142.7747  156.2028 H   0  0  0  0  0  0  0  0  0  0  0  0
  147.1506  142.5523  153.7394 H   0  0  0  0  0  0  0  0  0  0  0  0
  147.1316  140.9070  153.1597 H   0  0  0  0  0  0  0  0  0  0  0  0
  145.6125  142.8205  156.0460 H   0  0  0  0  0  0  0  0  0  0  0  0
  145.0769  143.4346  154.4944 H   0  0  0  0  0  0  0  0  0  0  0  0
  143.1704  143.2161  156.0955 H   0  0  0  0  0  0  0  0  0  0  0  0
  142.9255  142.2086  154.6814 H   0  0  0  0  0  0  0  0  0  0  0  0
  143.3096  139.8465  154.8786 H   0  0  0  0  0  0  0  0  0  0  0  0
  144.0093  137.9055  156.2940 H   0  0  0  0  0  0  0  0  0  0  0  0
  142.6340  138.7496  156.9982 H   0  0  0  0  0  0  0  0  0  0  0  0
  144.2463  138.9873  157.6657 H   0  0  0  0  0  0  0  0  0  0  0  0
  145.7316  139.2834  154.8641 H   0  0  0  0  0  0  0  0  0  0  0  0
  146.0096  140.2880  156.2771 H   0  0  0  0  0  0  0  0  0  0  0  0
  149.9535  143.1547  157.1829 H   0  0  0  0  0  0  0  0  0  0  0  0
  150.3111  144.4856  159.0983 H   0  0  0  0  0  0  0  0  0  0  0  0
  151.9792  144.4616  159.6689 H   0  0  0  0  0  0  0  0  0  0  0  0
  150.7193  143.6001  160.5653 H   0  0  0  0  0  0  0  0  0  0  0  0
  145.0199  141.1919  153.6827 H   0  0  0  0  0  0  0  0  0  0  0  0
  1  2  1  0  0  0  0
  1 23  1  0  0  0  0
  1 24  1  0  0  0  0
  1 25  1  0  0  0  0
  2 21  1  0  0  0  0
  2  3  2  0  0  0  0
  3  4  1  0  0  0  0
  3 26  1  0  0  0  0
  4 19  2  0  0  0  0
  4  5  1  0  0  0  0
  5  6  2  0  0  0  0
  6  7  1  0  0  0  0
  6 27  1  0  0  0  0
  7  8  1  0  0  0  0
  7 19  1  0  0  0  0
  8  9  1  0  0  0  0
  8 28  1  0  0  0  0
  8 29  1  0  0  0  0
  9 10  1  0  0  0  0
  9 11  1  0  0  0  0
  9 30  1  0  0  0  0
 10 31  1  0  0  0  0
 11 12  1  0  0  0  0
 11 32  1  0  0  0  0
 11 33  1  0  0  0  0
 12 18  1  0  0  0  0
 12 13  1  0  0  0  0
 12 48  1  0  0  0  0
 13 14  1  0  0  0  0
 13 34  1  0  0  0  0
 13 35  1  0  0  0  0
 14 15  1  0  0  0  0
 14 36  1  0  0  0  0
 14 37  1  0  0  0  0
 15 16  1  0  0  0  0
 16 17  1  0  0  0  0
 16 18  1  0  0  0  0
 16 38  1  0  0  0  0
 17 39  1  0  0  0  0
 17 40  1  0  0  0  0
 17 41  1  0  0  0  0
 18 42  1  0  0  0  0
 18 43  1  0  0  0  0
 19 20  1  0  0  0  0
 20 21  2  0  0  0  0
 20 44  1  0  0  0  0
 21 22  1  0  0  0  0
 22 45  1  0  0  0  0
 22 46  1  0  0  0  0
 22 47  1  0  0  0  0
M  CHG  1  12   1
M  END
> <s_m_source_file>
AV-unprocessed.smi

> <i_m_source_file_index>
1554

> <i_lp_mmshare_version>
43012

> <i_f3d_flags>
0

> <s_epik_input>
W0NIM11jKFtjSF0xKWMoW0NIM10pW2NIXWMoYzEyKW4oW2NIXW4yKVtDSDJdW0NASF0oW09IXSlbQ0gyXU4zW0NIMl1bQ0gyXU9bQ0BASF0oW0NIM10pW0NIMl0z

> <s_epik_cmdline>
J2VwaWtfcHl0aG9uJywgJy1waCcsICc3LjAnLCAnLXRuJywgJzgnLCAnLW1hJywgJzIwMCcsICctbWV0YWxfYmluZGluZycsICctaW1hZScsICc8aW5maWxlLm1hZT4nLCAnLW9tYWUnLCAnPG91dGZpbGUubWFlPic=

> <r_epik_Ionization_Penalty>
0.695251

> <r_epik_Ionization_Penalty_Charging>
0.608065

> <r_epik_Ionization_Penalty_Neutral>
0.0871863

> <r_epik_State_Penalty>
0.731955

> <r_epik_Charging_Adjusted_Penalty>
1.34002

> <i_epik_Tot_Q>
1

> <i_epik_Tot_abs_Q>
1

> <r_epik_Metal_State_Penalty>
0.652186

> <b_epik_Metal_Only>
0

> <s_lp_Force_Field>
OPLS_2005

> <r_lp_Energy>
20.6032

> <b_lp_Chiralities_Consistent>
1

> <s_lp_Variant>
AV-unprocessed.smi:1554-12

> <Gold.Version>
5.8.1

> <Gold.Id.Protein>
6NUR|6NUR_protein|mol2

> <Gold.PLP.Fitness>
48.2925

> <Gold.PLP.PLP>
-40.6962

> <Gold.PLP.part.hbond>
-2.0000

> <Gold.PLP.part.metal>
0.0000

> <Gold.PLP.part.buried>
-2.7722

> <Gold.PLP.part.nonpolar>
-36.9528

> <Gold.PLP.part.repulsive>
0.0726

> <Gold.PLP.ligand.clash>
0.0000

> <Gold.PLP.ligand.torsion>
0.7031

> <Gold.PLP.Chemscore.Hbond>
2.9825

> <Gold.PLP.Chemscore.CHOScore>
0.0000

> <Gold.PLP.Chemscore.Metal>
0.0000

> <Gold.Chemscore.Hbonds>
donor molecule, donor type, donor heavy atom, donor atom, acceptor molecule, acceptor atom, score
      L1  H    10    31       P1  8028  0.71
      L1  H    12    48       P1 10175  2.00

> <Gold.PLP.Chemscore.Internal.Correction>
0.0549

> <Gold.Rescore>
     Score         DG    S(hbond)    S(metal)    S(lipo)     H(rot)  DE(clash)    DE(int)     intcor
     17.78     -18.66       1.89        0.00     103.59       2.05       0.07       0.81       ----

> <Gold.Chemscore.Fitness>
17.7826

> <Gold.Chemscore.DG>
-18.6622

> <Gold.Chemscore.ZeroCoef>
-5.4800

> <Gold.Chemscore.Hbond>
1.8926

> <Gold.Chemscore.Metal>
0.0000

> <Gold.Chemscore.Lipo>
103.5948

> <Gold.Chemscore.Internal_Hbond>
0.0000

> <Gold.Chemscore.DEClash>
0.0707

> <Gold.Chemscore.DEInternal>
0.8090

> <Gold.Chemscore.Rot>
2.0546

> <Gold.Chemscore.Internal.Correction>
   9.000000E+99

> <Gold.Chemscore.Hbonds>
donor molecule, donor type, donor heavy atom, donor atom, acceptor molecule, acceptor atom, score
      L1  H    10    31       P1  8028  0.53
      L1  H    12    48       P1 10175  0.50

> <Gold.Chemscore.Hbond.Weighted>
-6.3213

> <Gold.Chemscore.Metal.Weighted>
-0.0000

> <Gold.Chemscore.Lipo.Weighted>
-12.1206

> <Gold.Chemscore.Internal_Hbond.Weighted>
0.0000

> <Gold.Chemscore.DEClash.Weighted>
0.0707

> <Gold.Chemscore.DEInternal.Weighted>
0.8090

> <Gold.Chemscore.Rot.Weighted>
5.2597

> <Gold.Chemscore.Internal.Correction.Weighted>
   9.000000E+99

> <Gold.Protein.RotatedTorsions>
[ 6907 6896 6895 6894 ] final  -98.55 input  -60.11 | X-H torsion
[ 7974 7965 7964 7962 ] final  -94.09 input  175.53 | X-H torsion
[ 8008 7997 7996 7995 ] final  -33.19 input   59.86 | X-H torsion
[ 10167 10162 10161 10158 ] final -105.19 input  -65.29 | X-H torsion
[ 10718 10713 10712 10709 ] final   16.91 input   66.30 | X-H torsion
[ 10763 10752 10751 10750 ] final   59.95 input  -60.55 | X-H torsion
[ 11005 11000 10999 10996 ] final   39.82 input  -57.11 | X-H torsion

> <Gold.Protein.ActiveResidues>
 VAL166  LYS551  ARG553  GLY616  TRP617  ASP618  TYR619  PRO620  LYS621  CYS622 
 ASP623  PHE694  ASN695  SER759  ASP760  ASP761  ALA762  ILE779  LEU786  VAL792 
 PHE793  MET794  SER795  GLU796  ALA797  LYS798  CYS799  TRP800  GLU811  SER814 

> <Gold.Protein.RotatedAtoms>
  150.7050  134.1177  159.4022 H   0  0  0  0  0  0  0  0  0  0  0  0  # atno 6907 bound_to 6896
  151.9163  135.0315  160.0528 H   0  0  0  0  0  0  0  0  0  0  0  0  # atno 6908 bound_to 6896
  152.2293  133.5010  159.5243 H   0  0  0  0  0  0  0  0  0  0  0  0  # atno 6909 bound_to 6896
  145.3779  140.9514  143.2410 H   0  0  0  0  0  0  0  0  0  0  0  0  # atno 7974 bound_to 7965
  154.4156  140.1717  156.1848 H   0  0  0  0  0  0  0  0  0  0  0  0  # atno 8008 bound_to 7997
  155.9652  140.3390  155.6502 H   0  0  0  0  0  0  0  0  0  0  0  0  # atno 8009 bound_to 7997
  155.6697  140.0710  157.2515 H   0  0  0  0  0  0  0  0  0  0  0  0  # atno 8010 bound_to 7997
  140.2011  143.3817  152.1128 H   0  0  0  0  0  0  0  0  0  0  0  0  # atno 10167 bound_to 10162
  157.0746  130.6362  149.5813 H   0  0  0  0  0  0  0  0  0  0  0  0  # atno 10718 bound_to 10713
  152.9908  135.5553  154.5795 H   0  0  0  0  0  0  0  0  0  0  0  0  # atno 10763 bound_to 10752
  154.5179  135.2806  155.1289 H   0  0  0  0  0  0  0  0  0  0  0  0  # atno 10764 bound_to 10752
  154.2654  135.6373  153.5343 H   0  0  0  0  0  0  0  0  0  0  0  0  # atno 10765 bound_to 10752
  140.1990  134.3893  155.8106 H   0  0  0  0  0  0  0  0  0  0  0  0  # atno 11005 bound_to 11000
  144.8529  139.5294  143.6848 LP  0  0  0  0  0  0  0  0  0  0  0  0  # atno 17320 bound_to 7965
  146.2856  139.6994  142.9198 LP  0  0  0  0  0  0  0  0  0  0  0  0  # atno 17321 bound_to 7965
  139.5217  144.7049  151.5384 LP  0  0  0  0  0  0  0  0  0  0  0  0  # atno 17342 bound_to 10162
  140.6389  143.8928  150.6673 LP  0  0  0  0  0  0  0  0  0  0  0  0  # atno 17343 bound_to 10162
  155.9941  130.5003  150.7405 LP  0  0  0  0  0  0  0  0  0  0  0  0  # atno 17370 bound_to 10713
  157.4850  131.0906  151.0493 LP  0  0  0  0  0  0  0  0  0  0  0  0  # atno 17371 bound_to 10713
  141.2227  133.7084  156.8226 LP  0  0  0  0  0  0  0  0  0  0  0  0  # atno 17394 bound_to 11000
  140.2075  134.8852  157.3238 LP  0  0  0  0  0  0  0  0  0  0  0  0  # atno 17395 bound_to 11000

$$$$
