AV-unprocessed.smi:2095|AV-procd|sdf|8557|dock3
  -GOLD-   2272011283D 1   1.00000     0.00000
 Structure written by MMmdl.
 42 43  0  0  0  0  0  0  0  0  2 V2000
  146.3508  133.8576  154.7946 C   0  0  0  0  0  0  0  0  0  0  0  0
  146.5258  134.6279  153.4783 C   0  0  1  0  0  0  0  0  0  0  0  0
  145.6814  134.0110  152.3495 C   0  0  0  0  0  0  0  0  0  0  0  0
  145.8532  134.8134  151.0528 C   0  0  0  0  0  0  0  0  0  0  0  0
  145.5316  136.2999  151.2763 C   0  0  0  0  0  0  0  0  0  0  0  0
  146.3681  136.8618  152.3695 N   0  3  1  0  0  0  0  0  0  0  0  0
  146.2883  138.3480  152.4738 C   0  0  2  0  0  0  0  0  0  0  0  0
  146.5270  139.0054  151.1006 C   0  0  0  0  0  0  0  0  0  0  0  0
  147.1997  138.9347  153.5828 C   0  0  0  0  0  0  0  0  0  0  0  0
  148.5744  138.4628  153.4665 N   0  0  0  0  0  0  0  0  0  0  0  0
  149.5276  138.6391  154.3941 C   0  0  0  0  0  0  0  0  0  0  0  0
  149.3217  139.1691  155.4856 O   0  0  0  0  0  0  0  0  0  0  0  0
  150.9342  138.1734  154.0206 C   0  0  0  0  0  0  0  0  0  0  0  0
  151.8522  138.4040  155.1196 N   0  0  0  0  0  0  0  0  0  0  0  0
  152.1879  139.5255  155.7603 C   0  0  0  0  0  0  0  0  0  0  0  0
  153.0985  139.2999  156.6949 N   0  0  0  0  0  0  0  0  0  0  0  0
  153.3173  137.9357  156.5994 N   0  0  0  0  0  0  0  0  0  0  0  0
  152.5810  137.3984  155.6659 N   0  0  0  0  0  0  0  0  0  0  0  0
  146.1776  136.1204  153.6466 C   0  0  0  0  0  0  0  0  0  0  0  0
  145.3156  133.8851  155.1362 H   0  0  0  0  0  0  0  0  0  0  0  0
  146.9729  134.2809  155.5839 H   0  0  0  0  0  0  0  0  0  0  0  0
  146.6349  132.8114  154.6780 H   0  0  0  0  0  0  0  0  0  0  0  0
  147.5768  134.5562  153.1935 H   0  0  0  0  0  0  0  0  0  0  0  0
  145.9711  132.9726  152.1842 H   0  0  0  0  0  0  0  0  0  0  0  0
  144.6288  133.9987  152.6357 H   0  0  0  0  0  0  0  0  0  0  0  0
  146.8773  134.7103  150.6915 H   0  0  0  0  0  0  0  0  0  0  0  0
  145.2083  134.4053  150.2738 H   0  0  0  0  0  0  0  0  0  0  0  0
  145.7115  136.8451  150.3491 H   0  0  0  0  0  0  0  0  0  0  0  0
  144.4743  136.4206  151.5154 H   0  0  0  0  0  0  0  0  0  0  0  0
  145.2545  138.5819  152.7318 H   0  0  0  0  0  0  0  0  0  0  0  0
  146.2775  140.0668  151.1214 H   0  0  0  0  0  0  0  0  0  0  0  0
  145.9052  138.5462  150.3317 H   0  0  0  0  0  0  0  0  0  0  0  0
  147.5664  138.9232  150.7837 H   0  0  0  0  0  0  0  0  0  0  0  0
  147.1901  140.0252  153.5670 H   0  0  0  0  0  0  0  0  0  0  0  0
  146.8440  138.6363  154.5690 H   0  0  0  0  0  0  0  0  0  0  0  0
  148.8333  138.0149  152.5989 H   0  0  0  0  0  0  0  0  0  0  0  0
  150.9267  137.1083  153.7847 H   0  0  0  0  0  0  0  0  0  0  0  0
  151.2881  138.7006  153.1331 H   0  0  0  0  0  0  0  0  0  0  0  0
  151.7759  140.4987  155.5373 H   0  0  0  0  0  0  0  0  0  0  0  0
  145.1445  136.2188  153.9828 H   0  0  0  0  0  0  0  0  0  0  0  0
  146.8082  136.5488  154.4251 H   0  0  0  0  0  0  0  0  0  0  0  0
  147.3198  136.6759  152.0870 H   0  0  0  0  0  0  0  0  0  0  0  0
  1  2  1  0  0  0  0
  1 20  1  0  0  0  0
  1 21  1  0  0  0  0
  1 22  1  0  0  0  0
  2 19  1  0  0  0  0
  2  3  1  0  0  0  0
  2 23  1  0  0  0  0
  3  4  1  0  0  0  0
  3 24  1  0  0  0  0
  3 25  1  0  0  0  0
  4  5  1  0  0  0  0
  4 26  1  0  0  0  0
  4 27  1  0  0  0  0
  5  6  1  0  0  0  0
  5 28  1  0  0  0  0
  5 29  1  0  0  0  0
  6  7  1  0  0  0  0
  6 19  1  0  0  0  0
  6 42  1  0  0  0  0
  7  8  1  0  0  0  0
  7  9  1  0  0  0  0
  7 30  1  0  0  0  0
  8 31  1  0  0  0  0
  8 32  1  0  0  0  0
  8 33  1  0  0  0  0
  9 10  1  0  0  0  0
  9 34  1  0  0  0  0
  9 35  1  0  0  0  0
 10 11  1  0  0  0  0
 10 36  1  0  0  0  0
 11 12  2  0  0  0  0
 11 13  1  0  0  0  0
 13 14  1  0  0  0  0
 13 37  1  0  0  0  0
 13 38  1  0  0  0  0
 14 18  1  0  0  0  0
 14 15  1  0  0  0  0
 15 16  2  0  0  0  0
 15 39  1  0  0  0  0
 16 17  1  0  0  0  0
 17 18  2  0  0  0  0
 19 40  1  0  0  0  0
 19 41  1  0  0  0  0
M  CHG  1   6   1
M  END
> <s_m_source_file>
AV-unprocessed.smi

> <i_m_source_file_index>
2095

> <i_lp_mmshare_version>
43012

> <i_f3d_flags>
0

> <s_epik_input>
W0NIM11bQ0BASF0xW0NIMl1bQ0gyXVtDSDJdTihbQ0gyXTEpW0NASF0oW0NIM10pW0NIMl1bTkhdQyg9TylbQ0gyXW4yW2NIXW5ubjI=

> <s_epik_cmdline>
J2VwaWtfcHl0aG9uJywgJy1waCcsICc3LjAnLCAnLXRuJywgJzgnLCAnLW1hJywgJzIwMCcsICctbWV0YWxfYmluZGluZycsICctaW1hZScsICc8aW5maWxlLm1hZT4nLCAnLW9tYWUnLCAnPG91dGZpbGUubWFlPic=

> <r_lp_tautomer_probability>
1

> <r_epik_Ionization_Penalty>
0.00268321

> <r_epik_Ionization_Penalty_Charging>
0.00267875

> <r_epik_Ionization_Penalty_Neutral>
4.46125e-06

> <r_epik_State_Penalty>
0.00186642

> <r_epik_Charging_Adjusted_Penalty>
0.00454517

> <i_epik_Tot_Q>
1

> <i_epik_Tot_abs_Q>
1

> <r_epik_Metal_State_Penalty>
-0

> <b_epik_Metal_Only>
0

> <s_lp_Force_Field>
OPLS_2005

> <r_lp_Energy>
21.2581

> <b_lp_Chiralities_Consistent>
1

> <s_lp_Variant>
AV-unprocessed.smi:2095-4

> <Gold.Version>
5.8.1

> <Gold.Id.Protein>
6NUR|6NUR_protein|mol2

> <Gold.PLP.Fitness>
44.3858

> <Gold.PLP.PLP>
-31.1738

> <Gold.PLP.part.hbond>
-5.2121

> <Gold.PLP.part.metal>
0.0000

> <Gold.PLP.part.buried>
-0.5079

> <Gold.PLP.part.nonpolar>
-26.1015

> <Gold.PLP.part.repulsive>
0.1441

> <Gold.PLP.ligand.clash>
0.0000

> <Gold.PLP.ligand.torsion>
0.1778

> <Gold.PLP.Chemscore.Hbond>
4.4821

> <Gold.PLP.Chemscore.CHOScore>
0.0000

> <Gold.PLP.Chemscore.Metal>
0.0000

> <Gold.Chemscore.Hbonds>
donor molecule, donor type, donor heavy atom, donor atom, acceptor molecule, acceptor atom, score
      L1  H     6    42       P1  7948  2.00
      L1  H    10    36       P1  7948  0.80
      P1  H  7997  8010       L1    16  0.94
      P1  H 10752 10765       L1    18  0.61

> <Gold.PLP.Chemscore.Internal.Correction>
0.1212

> <Gold.Rescore>
     Score         DG    S(hbond)    S(metal)    S(lipo)     H(rot)  DE(clash)    DE(int)     intcor
     14.74     -17.44       3.61        0.00      57.01       2.64       1.21       1.49       ----

> <Gold.Chemscore.Fitness>
14.7365

> <Gold.Chemscore.DG>
-17.4361

> <Gold.Chemscore.ZeroCoef>
-5.4800

> <Gold.Chemscore.Hbond>
3.6092

> <Gold.Chemscore.Metal>
0.0000

> <Gold.Chemscore.Lipo>
57.0074

> <Gold.Chemscore.Internal_Hbond>
0.0000

> <Gold.Chemscore.DEClash>
1.2120

> <Gold.Chemscore.DEInternal>
1.4876

> <Gold.Chemscore.Rot>
2.6439

> <Gold.Chemscore.Internal.Correction>
   9.000000E+99

> <Gold.Chemscore.Hbonds>
donor molecule, donor type, donor heavy atom, donor atom, acceptor molecule, acceptor atom, score
      L1  H     6    42       P1  7948  1.00
      L1  H    10    36       P1  7948  0.79
      P1  H  7997  8010       L1    16  0.55
      P1  H 10752 10765       L1    18  0.57

> <Gold.Chemscore.Hbond.Weighted>
-12.0547

> <Gold.Chemscore.Metal.Weighted>
-0.0000

> <Gold.Chemscore.Lipo.Weighted>
-6.6699

> <Gold.Chemscore.Internal_Hbond.Weighted>
0.0000

> <Gold.Chemscore.DEClash.Weighted>
1.2120

> <Gold.Chemscore.DEInternal.Weighted>
1.4876

> <Gold.Chemscore.Rot.Weighted>
6.7685

> <Gold.Chemscore.Internal.Correction.Weighted>
   9.000000E+99

> <Gold.Protein.RotatedTorsions>
[ 6907 6896 6895 6894 ] final  -95.11 input  -60.11 | X-H torsion
[ 7974 7965 7964 7962 ] final  -58.19 input  175.53 | X-H torsion
[ 8008 7997 7996 7995 ] final   73.59 input   59.86 | X-H torsion
[ 10167 10162 10161 10158 ] final   90.32 input  -65.29 | X-H torsion
[ 10718 10713 10712 10709 ] final -164.64 input   66.30 | X-H torsion
[ 10763 10752 10751 10750 ] final -159.66 input  -60.55 | X-H torsion
[ 11005 11000 10999 10996 ] final  169.63 input  -57.11 | X-H torsion

> <Gold.Protein.ActiveResidues>
 VAL166  LYS551  ARG553  GLY616  TRP617  ASP618  TYR619  PRO620  LYS621  CYS622 
 ASP623  PHE694  ASN695  SER759  ASP760  ASP761  ALA762  ILE779  LEU786  VAL792 
 PHE793  MET794  SER795  GLU796  ALA797  LYS798  CYS799  TRP800  GLU811  SER814 

> <Gold.Protein.RotatedAtoms>
  150.6956  134.1708  159.4211 H   0  0  0  0  0  0  0  0  0  0  0  0  # atno 6907 bound_to 6896
  151.9685  135.0086  160.0561 H   0  0  0  0  0  0  0  0  0  0  0  0  # atno 6908 bound_to 6896
  152.1862  133.4706  159.5021 H   0  0  0  0  0  0  0  0  0  0  0  0  # atno 6909 bound_to 6896
  145.8422  140.8409  143.0028 H   0  0  0  0  0  0  0  0  0  0  0  0  # atno 7974 bound_to 7965
  155.7860  140.3480  155.5323 H   0  0  0  0  0  0  0  0  0  0  0  0  # atno 8008 bound_to 7997
  155.8682  140.0982  157.1589 H   0  0  0  0  0  0  0  0  0  0  0  0  # atno 8009 bound_to 7997
  154.4016  140.1345  156.4032 H   0  0  0  0  0  0  0  0  0  0  0  0  # atno 8010 bound_to 7997
  139.8484  144.6606  150.9198 H   0  0  0  0  0  0  0  0  0  0  0  0  # atno 10167 bound_to 10162
  156.6420  130.8972  151.2998 H   0  0  0  0  0  0  0  0  0  0  0  0  # atno 10718 bound_to 10713
  154.7456  135.3079  154.8650 H   0  0  0  0  0  0  0  0  0  0  0  0  # atno 10763 bound_to 10752
  153.9452  135.6770  153.4748 H   0  0  0  0  0  0  0  0  0  0  0  0  # atno 10764 bound_to 10752
  153.1053  135.4892  154.8866 H   0  0  0  0  0  0  0  0  0  0  0  0  # atno 10765 bound_to 10752
  140.2998  134.7605  157.3906 H   0  0  0  0  0  0  0  0  0  0  0  0  # atno 11005 bound_to 11000
  144.6733  140.0830  143.7468 LP  0  0  0  0  0  0  0  0  0  0  0  0  # atno 17320 bound_to 7965
  145.9452  139.2696  143.1245 LP  0  0  0  0  0  0  0  0  0  0  0  0  # atno 17321 bound_to 7965
  140.7790  143.3849  151.1411 LP  0  0  0  0  0  0  0  0  0  0  0  0  # atno 17342 bound_to 10162
  139.7489  143.8809  152.3071 LP  0  0  0  0  0  0  0  0  0  0  0  0  # atno 17343 bound_to 10162
  157.7168  130.9507  150.1285 LP  0  0  0  0  0  0  0  0  0  0  0  0  # atno 17370 bound_to 10713
  156.2151  130.3669  149.8622 LP  0  0  0  0  0  0  0  0  0  0  0  0  # atno 17371 bound_to 10713
  140.1120  134.5333  155.8258 LP  0  0  0  0  0  0  0  0  0  0  0  0  # atno 17394 bound_to 11000
  141.2130  133.6727  156.6706 LP  0  0  0  0  0  0  0  0  0  0  0  0  # atno 17395 bound_to 11000

$$$$
