#       Name:                AV-unprocessed.smi:2083
#       Creating user name   scv26
#       Creation time:       Fri Mar 27 11:20:49 2020


#       File generated by GOLD software.
#

@<TRIPOS>MOLECULE
AV-unprocessed.smi:2083
    50    51     1
SMALL
NO_CHARGES


@<TRIPOS>ATOM
      1 ****        -6.5412   5.0643  -0.9080 C.3            1 S1                 0.0000
      2 ****        -5.1703   4.5426  -1.1735 C.2            1 S1                 0.0000
      3 ****        -4.2117   4.0000  -0.3655 C.2            1 S1                 0.0000
      4 ****        -3.1497   3.7152  -1.2668 C.2            1 S1                 0.0000
      5 ****        -1.9610   3.1814  -0.9460 N.pl3          1 S1                -1.0000
      6 ****        -1.8303   1.8436  -0.7979 C.2            1 S1                 0.0000
      7 ****        -2.7248   1.0017  -0.9043 O.2            1 S1                 0.0000
      8 ****        -0.5817   1.4563  -0.5077 N.am           1 S1                 0.0000
      9 ****        -0.1492   0.0784  -0.3076 C.3            1 S1                 0.0000
     10 ****         1.3928  -0.0497  -0.3102 C.3            1 S1                 0.0000
     11 ****         1.9719   0.4848  -1.6437 C.3            1 S1                 0.0000
     12 ****         1.7832  -1.4640   0.0031 N.4            1 S1                 1.0000
     13 ****         3.0806  -1.9286  -0.5692 C.3            1 S1                 0.0000
     14 ****         3.3126  -3.4247  -0.3005 C.3            1 S1                 0.0000
     15 ****         3.2445  -3.7393   1.1966 C.3            1 S1                 0.0000
     16 ****         1.9095  -3.2466   1.7738 C.3            1 S1                 0.0000
     17 ****         1.8144  -3.5287   3.2800 C.3            1 S1                 0.0000
     18 ****         1.7220  -1.7478   1.4663 C.3            1 S1                 0.0000
     19 ****        -3.4331   4.0681  -2.5091 N.2            1 S1                 0.0000
     20 ****        -4.7294   4.5943  -2.4590 O.3            1 S1                 0.0000
     21 ****        -6.5060   5.9048  -0.2148 H              1 S1                 0.0000
     22 ****        -7.1698   4.2895  -0.4691 H              1 S1                 0.0000
     23 ****        -7.0179   5.4049  -1.8275 H              1 S1                 0.0000
     24 ****        -4.2621   3.8303   0.6994 H              1 S1                 0.0000
     25 ****         0.1210   2.1770  -0.4298 H              1 S1                 0.0000
     26 ****        -0.5812  -0.2646   0.6316 H              1 S1                 0.0000
     27 ****        -0.5670  -0.5537  -1.0933 H              1 S1                 0.0000
     28 ****         1.7953   0.5884   0.4785 H              1 S1                 0.0000
     29 ****         1.6559   1.5095  -1.8391 H              1 S1                 0.0000
     30 ****         1.6474  -0.1196  -2.4915 H              1 S1                 0.0000
     31 ****         3.0616   0.5102  -1.6355 H              1 S1                 0.0000
     32 ****         3.0999  -1.7971  -1.6503 H              1 S1                 0.0000
     33 ****         3.8982  -1.3370  -0.1537 H              1 S1                 0.0000
     34 ****         2.5623  -4.0116  -0.8321 H              1 S1                 0.0000
     35 ****         4.2807  -3.7285  -0.6997 H              1 S1                 0.0000
     36 ****         3.3554  -4.8125   1.3559 H              1 S1                 0.0000
     37 ****         4.0768  -3.2584   1.7124 H              1 S1                 0.0000
     38 ****         1.1031  -3.7960   1.2853 H              1 S1                 0.0000
     39 ****         2.5935  -3.0030   3.8331 H              1 S1                 0.0000
     40 ****         1.9210  -4.5939   3.4874 H              1 S1                 0.0000
     41 ****         0.8509  -3.2110   3.6793 H              1 S1                 0.0000
     42 ****         2.4888  -1.1635   1.9780 H              1 S1                 0.0000
     43 ****         0.7663  -1.4268   1.8779 H              1 S1                 0.0000
     44 ****         1.0779  -2.0404  -0.4334 H              1 S1                 0.0000
     45 ****        -1.1677   3.7761  -0.8158 LP             1 S1                 0.0000
     46 ****        -3.6580   1.2884  -1.1210 LP             1 S1                 0.0000
     47 ****        -2.5171   0.0323  -0.7739 LP             1 S1                 0.0000
     48 ****        -2.8461   3.9783  -3.3137 LP             1 S1                 0.0000
     49 ****        -4.7200   5.5434  -2.7738 LP             1 S1                 0.0000
     50 ****        -5.3346   4.0550  -3.0445 LP             1 S1                 0.0000
@<TRIPOS>BOND
    1    1    2 1     
    2    1   21 1     
    3    1   22 1     
    4    1   23 1     
    5    2   20 1     
    6    2    3 2     
    7    3    4 1     
    8    3   24 1     
    9    4    5 1     
   10    4   19 2     
   11    5    6 1     
   12    6    7 2     
   13    6    8 am    
   14    8    9 1     
   15    8   25 1     
   16    9   10 1     
   17    9   26 1     
   18    9   27 1     
   19   10   11 1     
   20   10   12 1     
   21   10   28 1     
   22   11   29 1     
   23   11   30 1     
   24   11   31 1     
   25   12   18 1     
   26   12   13 1     
   27   12   44 1     
   28   13   14 1     
   29   13   32 1     
   30   13   33 1     
   31   14   15 1     
   32   14   34 1     
   33   14   35 1     
   34   15   16 1     
   35   15   36 1     
   36   15   37 1     
   37   16   17 1     
   38   16   18 1     
   39   16   38 1     
   40   17   39 1     
   41   17   40 1     
   42   17   41 1     
   43   18   42 1     
   44   18   43 1     
   45   19   20 1     
   46    5   45 1     
   47    7   46 1     
   48    7   47 1     
   49   19   48 1     
   50   20   49 1     
   51   20   50 1     
@<TRIPOS>SUBSTRUCTURE
      1 S1             1
@<TRIPOS>SET
LONE_PAIRS      STATIC     ATOMS    <user>   **** ""
6 45 46 47 48 49 50
DONOR_HYDROGENS      STATIC     ATOMS    <user>   **** ""
2 25 44
ATOM$BLUE        STATIC     ATOMS    COLORGROUP SYSTEM
6 45 46 47 48 49 50
ATOM$RED        STATIC     ATOMS    COLORGROUP SYSTEM
2 25 44
