#       Name:                AV-unprocessed.smi:3156
#       Creating user name   scv26
#       Creation time:       Fri Mar 27 17:45:23 2020


#       File generated by GOLD software.
#

@<TRIPOS>MOLECULE
AV-unprocessed.smi:3156
    44    45     1
SMALL
NO_CHARGES


@<TRIPOS>ATOM
      1 ****        -2.3336  -1.0631   2.2543 C.3            1 S1                 0.0000
      2 ****        -1.9044  -0.3633   0.9512 C.3            1 S1                 0.0000
      3 ****        -0.4262  -0.3007   0.8725 N.4            1 S1                 1.0000
      4 ****         0.2177   0.7512   1.6875 C.3            1 S1                 0.0000
      5 ****         1.6964   0.9242   1.3061 C.3            1 S1                 0.0000
      6 ****         1.8953   1.3918  -0.1519 C.3            1 S1                 0.0000
      7 ****         3.3879   1.4863  -0.4857 C.3            1 S1                 0.0000
      8 ****         4.0778   0.1624  -0.1397 C.3            1 S1                 0.0000
      9 ****         3.7795  -0.2335   1.3156 C.3            1 S1                 0.0000
     10 ****         2.3722  -0.3127   1.5239 O.3            1 S1                 0.0000
     11 ****        -2.4663  -1.0638  -0.3167 C.3            1 S1                 0.0000
     12 ****        -4.0044  -1.0463  -0.3882 C.3            1 S1                 0.0000
     13 ****        -1.9157  -0.4908  -1.5415 N.pl3          1 S1                 0.0000
     14 ****        -1.3167  -1.1499  -2.5956 C.2            1 S1                 0.0000
     15 ****        -0.9620  -0.2086  -3.5189 C.2            1 S1                 0.0000
     16 ****        -1.4049   1.0142  -2.9426 C.2            1 S1                 0.0000
     17 ****        -1.9779   0.8423  -1.7628 N.2            1 S1                 0.0000
     18 ****        -3.4161  -1.0566   2.3770 H              1 S1                 0.0000
     19 ****        -1.9194  -0.5660   3.1313 H              1 S1                 0.0000
     20 ****        -2.0018  -2.1017   2.2752 H              1 S1                 0.0000
     21 ****        -2.2874   0.6584   0.9688 H              1 S1                 0.0000
     22 ****        -0.0344  -1.2009   1.1100 H              1 S1                 0.0000
     23 ****        -0.3027   1.6987   1.5423 H              1 S1                 0.0000
     24 ****         0.1328   0.4981   2.7444 H              1 S1                 0.0000
     25 ****         2.1261   1.6717   1.9755 H              1 S1                 0.0000
     26 ****         1.4203   0.6933  -0.8419 H              1 S1                 0.0000
     27 ****         1.4154   2.3584  -0.3089 H              1 S1                 0.0000
     28 ****         3.5280   1.7254  -1.5404 H              1 S1                 0.0000
     29 ****         3.8424   2.2979   0.0839 H              1 S1                 0.0000
     30 ****         3.7249  -0.6218  -0.8105 H              1 S1                 0.0000
     31 ****         5.1538   0.2461  -0.2953 H              1 S1                 0.0000
     32 ****         4.2226  -1.2045   1.5374 H              1 S1                 0.0000
     33 ****         4.2202   0.4827   2.0109 H              1 S1                 0.0000
     34 ****        -2.1505  -2.1081  -0.2916 H              1 S1                 0.0000
     35 ****        -4.4548  -1.6094   0.4285 H              1 S1                 0.0000
     36 ****        -4.3564  -1.4981  -1.3162 H              1 S1                 0.0000
     37 ****        -4.3940  -0.0285  -0.3483 H              1 S1                 0.0000
     38 ****        -1.1902  -2.2228  -2.6003 H              1 S1                 0.0000
     39 ****        -0.4675  -0.3695  -4.4654 H              1 S1                 0.0000
     40 ****        -1.3287   2.0141  -3.3441 H              1 S1                 0.0000
     41 ****        -0.1967  -0.0985  -0.0903 H              1 S1                 0.0000
     42 ****         1.9967  -0.9939   0.8955 LP             1 S1                 0.0000
     43 ****         2.2072  -0.6022   2.4668 LP             1 S1                 0.0000
     44 ****        -2.3702   1.5428  -1.1665 LP             1 S1                 0.0000
@<TRIPOS>BOND
    1    1    2 1     
    2    1   18 1     
    3    1   19 1     
    4    1   20 1     
    5    2    3 1     
    6    2   11 1     
    7    2   21 1     
    8    3    4 1     
    9    3   22 1     
   10    3   41 1     
   11    4    5 1     
   12    4   23 1     
   13    4   24 1     
   14    5   10 1     
   15    5    6 1     
   16    5   25 1     
   17    6    7 1     
   18    6   26 1     
   19    6   27 1     
   20    7    8 1     
   21    7   28 1     
   22    7   29 1     
   23    8    9 1     
   24    8   30 1     
   25    8   31 1     
   26    9   10 1     
   27    9   32 1     
   28    9   33 1     
   29   11   12 1     
   30   11   13 1     
   31   11   34 1     
   32   12   35 1     
   33   12   36 1     
   34   12   37 1     
   35   13   17 1     
   36   13   14 1     
   37   14   15 2     
   38   14   38 1     
   39   15   16 1     
   40   15   39 1     
   41   16   17 2     
   42   16   40 1     
   43   10   42 1     
   44   10   43 1     
   45   17   44 1     
@<TRIPOS>SUBSTRUCTURE
      1 S1             1
@<TRIPOS>SET
LONE_PAIRS      STATIC     ATOMS    <user>   **** ""
3 42 43 44
DONOR_HYDROGENS      STATIC     ATOMS    <user>   **** ""
2 22 41
ATOM$BLUE        STATIC     ATOMS    COLORGROUP SYSTEM
3 42 43 44
ATOM$RED        STATIC     ATOMS    COLORGROUP SYSTEM
2 22 41
