AV-unprocessed.smi:1230|AV-procd|sdf|5154|dock1
  -GOLD-   22720 4223D 1   1.00000     0.00000
 Structure written by MMmdl.
 38 39  0  0  0  0  0  0  0  0  2 V2000
  152.5826  142.3711  161.9982 C   0  0  0  0  0  0  0  0  0  0  0  0
  152.6843  143.3823  160.8460 C   0  0  2  0  0  0  0  0  0  0  0  0
  151.5090  144.3807  160.8628 C   0  0  0  0  0  0  0  0  0  0  0  0
  151.6411  145.4240  159.7421 C   0  0  0  0  0  0  0  0  0  0  0  0
  151.7632  144.7509  158.3670 C   0  0  0  0  0  0  0  0  0  0  0  0
  152.9288  143.7475  158.3377 C   0  0  0  0  0  0  0  0  0  0  0  0
  152.8176  142.7017  159.4626 C   0  0  2  0  0  0  0  0  0  0  0  0
  151.6660  141.9084  159.2060 O   0  0  0  0  0  0  0  0  0  0  0  0
  151.8641  140.8559  158.2742 C   0  0  0  0  0  0  0  0  0  0  0  0
  150.4922  140.3916  157.7626 C   0  0  0  0  0  0  0  0  0  0  0  0
  150.6322  139.2457  156.8535 N   0  0  0  0  0  0  0  0  0  0  0  0
  150.1543  138.0025  157.3020 C   0  0  0  0  0  0  0  0  0  0  0  0
  150.2843  136.8867  156.5606 C   0  0  0  0  0  0  0  0  0  0  0  0
  149.8230  135.6112  157.0004 C   0  0  0  0  0  0  0  0  0  0  0  0
  149.4685  134.5772  157.3821 N   0  0  0  0  0  0  0  0  0  0  0  0
  150.9349  136.9849  155.2564 C   0  0  0  0  0  0  0  0  0  0  0  0
  151.0626  135.9818  154.5555 O   0  0  0  0  0  0  0  0  0  0  0  0
  151.3810  138.2168  154.8710 N   0  5  0  0  0  0  0  0  0  0  0  0
  151.2528  139.3433  155.6395 C   0  0  0  0  0  0  0  0  0  0  0  0
  151.6842  140.4383  155.2781 O   0  0  0  0  0  0  0  0  0  0  0  0
  151.6560  141.8002  161.9459 H   0  0  0  0  0  0  0  0  0  0  0  0
  152.6016  142.8752  162.9645 H   0  0  0  0  0  0  0  0  0  0  0  0
  153.4125  141.6643  161.9783 H   0  0  0  0  0  0  0  0  0  0  0  0
  153.5989  143.9536  161.0118 H   0  0  0  0  0  0  0  0  0  0  0  0
  150.5649  143.8448  160.7536 H   0  0  0  0  0  0  0  0  0  0  0  0
  151.4634  144.8870  161.8274 H   0  0  0  0  0  0  0  0  0  0  0  0
  150.7798  146.0925  159.7537 H   0  0  0  0  0  0  0  0  0  0  0  0
  152.5186  146.0461  159.9231 H   0  0  0  0  0  0  0  0  0  0  0  0
  150.8306  144.2384  158.1285 H   0  0  0  0  0  0  0  0  0  0  0  0
  151.9052  145.5068  157.5944 H   0  0  0  0  0  0  0  0  0  0  0  0
  152.9659  143.2487  157.3688 H   0  0  0  0  0  0  0  0  0  0  0  0
  153.8706  144.2880  158.4403 H   0  0  0  0  0  0  0  0  0  0  0  0
  153.7228  142.0912  159.4457 H   0  0  0  0  0  0  0  0  0  0  0  0
  152.4758  141.2175  157.4470 H   0  0  0  0  0  0  0  0  0  0  0  0
  152.3961  140.0201  158.7309 H   0  0  0  0  0  0  0  0  0  0  0  0
  149.8500  140.1330  158.6055 H   0  0  0  0  0  0  0  0  0  0  0  0
  149.9855  141.2175  157.2612 H   0  0  0  0  0  0  0  0  0  0  0  0
  149.6975  138.0117  158.2811 H   0  0  0  0  0  0  0  0  0  0  0  0
  1  2  1  0  0  0  0
  1 21  1  0  0  0  0
  1 22  1  0  0  0  0
  1 23  1  0  0  0  0
  2  7  1  0  0  0  0
  2  3  1  0  0  0  0
  2 24  1  0  0  0  0
  3  4  1  0  0  0  0
  3 25  1  0  0  0  0
  3 26  1  0  0  0  0
  4  5  1  0  0  0  0
  4 27  1  0  0  0  0
  4 28  1  0  0  0  0
  5  6  1  0  0  0  0
  5 29  1  0  0  0  0
  5 30  1  0  0  0  0
  6  7  1  0  0  0  0
  6 31  1  0  0  0  0
  6 32  1  0  0  0  0
  7  8  1  0  0  0  0
  7 33  1  0  0  0  0
  8  9  1  0  0  0  0
  9 10  1  0  0  0  0
  9 34  1  0  0  0  0
  9 35  1  0  0  0  0
 10 11  1  0  0  0  0
 10 36  1  0  0  0  0
 10 37  1  0  0  0  0
 11 19  1  0  0  0  0
 11 12  1  0  0  0  0
 12 13  2  0  0  0  0
 12 38  1  0  0  0  0
 13 14  1  0  0  0  0
 13 16  1  0  0  0  0
 14 15  3  0  0  0  0
 16 17  2  0  0  0  0
 16 18  1  0  0  0  0
 18 19  1  0  0  0  0
 19 20  2  0  0  0  0
M  CHG  1  18  -1
M  END
> <s_m_source_file>
AV-unprocessed.smi

> <i_m_source_file_index>
1230

> <i_lp_mmshare_version>
43012

> <i_f3d_flags>
0

> <s_epik_input>
W0NIM11bQ0BASF0xW0NIMl1bQ0gyXVtDSDJdW0NIMl1bQ0BIXTFPW0NIMl1bQ0gyXW4yW2NIXWMoQyNOKWMoPU8pW25IXWMyPU8=

> <s_epik_cmdline>
J2VwaWtfcHl0aG9uJywgJy1waCcsICc3LjAnLCAnLXRuJywgJzgnLCAnLW1hJywgJzIwMCcsICctbWV0YWxfYmluZGluZycsICctaW1hZScsICc8aW5maWxlLm1hZT4nLCAnLW9tYWUnLCAnPG91dGZpbGUubWFlPic=

> <r_epik_Ionization_Penalty>
0.400014

> <r_epik_Ionization_Penalty_Charging>
4.81474e-10

> <r_epik_Ionization_Penalty_Neutral>
0.400014

> <r_epik_State_Penalty>
0.399305

> <r_epik_Charging_Adjusted_Penalty>
0.399305

> <i_epik_Tot_Q>
-1

> <i_epik_Tot_abs_Q>
1

> <r_epik_Metal_State_Penalty>
0.00056968

> <b_epik_Metal_Only>
0

> <s_lp_Force_Field>
OPLS_2005

> <r_lp_Energy>
23.6977

> <b_lp_Chiralities_Consistent>
1

> <s_lp_Variant>
AV-unprocessed.smi:1230-3

> <Gold.Version>
5.8.1

> <Gold.Id.Protein>
6NUR|6NUR_protein|mol2

> <Gold.PLP.Fitness>
48.2114

> <Gold.PLP.PLP>
-40.5057

> <Gold.PLP.part.hbond>
-3.0000

> <Gold.PLP.part.metal>
0.0000

> <Gold.PLP.part.buried>
-6.8469

> <Gold.PLP.part.nonpolar>
-32.3079

> <Gold.PLP.part.repulsive>
0.2858

> <Gold.PLP.ligand.clash>
0.0000

> <Gold.PLP.ligand.torsion>
0.3737

> <Gold.PLP.Chemscore.Hbond>
2.8080

> <Gold.PLP.Chemscore.CHOScore>
0.0000

> <Gold.PLP.Chemscore.Metal>
0.0000

> <Gold.Chemscore.Hbonds>
donor molecule, donor type, donor heavy atom, donor atom, acceptor molecule, acceptor atom, score
      P1  H  6896  6909       L1    15  0.14
      P1  H  7989  7998       L1    20  0.82
      P1  H 10752 10765       L1    17  1.00

> <Gold.PLP.Chemscore.Internal.Correction>
0.0290

> <Gold.Rescore>
     Score         DG    S(hbond)    S(metal)    S(lipo)     H(rot)  DE(clash)    DE(int)     intcor
     20.40     -20.99       2.56        0.00     101.11       1.90       0.27       0.32       ----

> <Gold.Chemscore.Fitness>
20.3953

> <Gold.Chemscore.DG>
-20.9872

> <Gold.Chemscore.ZeroCoef>
-5.4800

> <Gold.Chemscore.Hbond>
2.5561

> <Gold.Chemscore.Metal>
0.0000

> <Gold.Chemscore.Lipo>
101.1089

> <Gold.Chemscore.Internal_Hbond>
0.0000

> <Gold.Chemscore.DEClash>
0.2681

> <Gold.Chemscore.DEInternal>
0.3238

> <Gold.Chemscore.Rot>
1.8984

> <Gold.Chemscore.Internal.Correction>
   9.000000E+99

> <Gold.Chemscore.Hbonds>
donor molecule, donor type, donor heavy atom, donor atom, acceptor molecule, acceptor atom, score
      P1  H  6896  6909       L1    15  0.12
      P1  H  7989  7998       L1    20  0.78
      P1  H 10752 10765       L1    17  0.60

> <Gold.Chemscore.Hbond.Weighted>
-8.5373

> <Gold.Chemscore.Metal.Weighted>
-0.0000

> <Gold.Chemscore.Lipo.Weighted>
-11.8297

> <Gold.Chemscore.Internal_Hbond.Weighted>
0.0000

> <Gold.Chemscore.DEClash.Weighted>
0.2681

> <Gold.Chemscore.DEInternal.Weighted>
0.3238

> <Gold.Chemscore.Rot.Weighted>
4.8598

> <Gold.Chemscore.Internal.Correction.Weighted>
   9.000000E+99

> <Gold.Protein.RotatedTorsions>
[ 6907 6896 6895 6894 ] final    8.75 input  -60.11 | X-H torsion
[ 7974 7965 7964 7962 ] final   -5.32 input  175.53 | X-H torsion
[ 8008 7997 7996 7995 ] final -100.06 input   59.86 | X-H torsion
[ 10167 10162 10161 10158 ] final -104.66 input  -65.29 | X-H torsion
[ 10718 10713 10712 10709 ] final   72.93 input   66.30 | X-H torsion
[ 10763 10752 10751 10750 ] final  174.25 input  -60.55 | X-H torsion
[ 11005 11000 10999 10996 ] final   86.80 input  -57.11 | X-H torsion

> <Gold.Protein.ActiveResidues>
 VAL166  LYS551  ARG553  GLY616  TRP617  ASP618  TYR619  PRO620  LYS621  CYS622 
 ASP623  PHE694  ASN695  SER759  ASP760  ASP761  ALA762  ILE779  LEU786  VAL792 
 PHE793  MET794  SER795  GLU796  ALA797  LYS798  CYS799  TRP800  GLU811  SER814 

> <Gold.Protein.RotatedAtoms>
  151.7111  135.0912  160.0267 H   0  0  0  0  0  0  0  0  0  0  0  0  # atno 6907 bound_to 6896
  152.3661  133.6354  159.6060 H   0  0  0  0  0  0  0  0  0  0  0  0  # atno 6908 bound_to 6896
  150.7639  133.9262  159.3454 H   0  0  0  0  0  0  0  0  0  0  0  0  # atno 6909 bound_to 6896
  146.2355  140.2003  142.8333 H   0  0  0  0  0  0  0  0  0  0  0  0  # atno 7974 bound_to 7965
  154.8233  140.0443  157.1426 H   0  0  0  0  0  0  0  0  0  0  0  0  # atno 8008 bound_to 7997
  154.9234  140.3030  155.5184 H   0  0  0  0  0  0  0  0  0  0  0  0  # atno 8009 bound_to 7997
  156.2982  140.2336  156.4287 H   0  0  0  0  0  0  0  0  0  0  0  0  # atno 8010 bound_to 7997
  140.2069  143.3776  152.1083 H   0  0  0  0  0  0  0  0  0  0  0  0  # atno 10167 bound_to 10162
  157.6524  130.9603  150.0998 H   0  0  0  0  0  0  0  0  0  0  0  0  # atno 10718 bound_to 10713
  154.4513  135.2765  155.1779 H   0  0  0  0  0  0  0  0  0  0  0  0  # atno 10763 bound_to 10752
  154.3604  135.6130  153.5691 H   0  0  0  0  0  0  0  0  0  0  0  0  # atno 10764 bound_to 10752
  152.9847  135.5833  154.4859 H   0  0  0  0  0  0  0  0  0  0  0  0  # atno 10765 bound_to 10752
  139.8935  134.8380  156.2771 H   0  0  0  0  0  0  0  0  0  0  0  0  # atno 11005 bound_to 11000
  144.9787  140.8439  143.5410 LP  0  0  0  0  0  0  0  0  0  0  0  0  # atno 17320 bound_to 7965
  145.1994  139.2260  143.5201 LP  0  0  0  0  0  0  0  0  0  0  0  0  # atno 17321 bound_to 7965
  139.5195  144.7020  151.5465 LP  0  0  0  0  0  0  0  0  0  0  0  0  # atno 17342 bound_to 10162
  140.6351  143.9000  150.6640 LP  0  0  0  0  0  0  0  0  0  0  0  0  # atno 17343 bound_to 10162
  156.1924  130.3655  149.8893 LP  0  0  0  0  0  0  0  0  0  0  0  0  # atno 17370 bound_to 10713
  156.6818  130.8861  151.3577 LP  0  0  0  0  0  0  0  0  0  0  0  0  # atno 17371 bound_to 10713
  141.0063  133.7122  156.1040 LP  0  0  0  0  0  0  0  0  0  0  0  0  # atno 17394 bound_to 11000
  140.7429  134.4130  157.5552 LP  0  0  0  0  0  0  0  0  0  0  0  0  # atno 17395 bound_to 11000

$$$$
