#       Name:                AV-unprocessed.smi:907
#       Creating user name   scv26
#       Creation time:       Fri Mar 27 02:00:09 2020


#       File generated by GOLD software.
#

@<TRIPOS>MOLECULE
AV-unprocessed.smi:907
    56    59     1
SMALL
NO_CHARGES


@<TRIPOS>ATOM
      1 ****         1.4941   0.9492  -1.7448 O.2            1 S1                 0.0000
      2 ****         1.0218  -0.1003  -1.3063 C.2            1 S1                 0.0000
      3 ****         1.7546  -1.2210  -1.1899 N.am           1 S1                 0.0000
      4 ****         3.1680  -1.3358  -1.5318 C.3            1 S1                 0.0000
      5 ****         3.3711  -1.5265  -3.0443 C.3            1 S1                 0.0000
      6 ****         4.8380  -1.6125  -3.4198 C.ar           1 S1                 0.0000
      7 ****         5.5104  -0.4905  -3.9494 C.ar           1 S1                 0.0000
      8 ****         6.8741  -0.6182  -4.2764 C.ar           1 S1                 0.0000
      9 ****         7.5098  -1.8560  -4.0607 C.ar           1 S1                 0.0000
     10 ****         6.7502  -2.9154  -3.5252 C.ar           1 S1                 0.0000
     11 ****         5.4420  -2.8037  -3.2083 N.ar           1 S1                 0.0000
     12 ****        -0.2836  -0.2376  -0.9644 N.am           1 S1                 0.0000
     13 ****        -0.8500  -1.2972  -0.1199 C.3            1 S1                 0.0000
     14 ****        -1.1529  -0.7146   1.2733 C.3            1 S1                 0.0000
     15 ****        -2.0522   0.4734   1.1950 N.4            1 S1                 1.0000
     16 ****        -2.3537   1.0517   2.5362 C.3            1 S1                 0.0000
     17 ****        -3.0953   0.0876   3.4947 C.3            1 S1                 0.0000
     18 ****        -4.2697   0.9408   4.0107 C.3            1 S1                 0.0000
     19 ****        -5.3320   1.0431   2.9030 C.3            1 S1                 0.0000
     20 ****        -4.6514   1.9613   1.8725 C.3            1 S1                 0.0000
     21 ****        -3.2942   2.2833   2.5360 C.3            1 S1                 0.0000
     22 ****        -3.6844   2.3480   4.0090 C.3            1 S1                 0.0000
     23 ****        -1.5628   1.4848   0.2140 C.3            1 S1                 0.0000
     24 ****        -1.2510   0.8459  -1.1510 C.3            1 S1                 0.0000
     25 ****         1.2993  -2.0549  -0.8485 H              1 S1                 0.0000
     26 ****         3.7089  -0.4547  -1.1823 H              1 S1                 0.0000
     27 ****         3.5808  -2.1872  -0.9899 H              1 S1                 0.0000
     28 ****         2.8659  -2.4338  -3.3786 H              1 S1                 0.0000
     29 ****         2.9146  -0.7027  -3.5945 H              1 S1                 0.0000
     30 ****         4.9958   0.4472  -4.1006 H              1 S1                 0.0000
     31 ****         7.4220   0.2181  -4.6844 H              1 S1                 0.0000
     32 ****         8.5545  -1.9903  -4.2989 H              1 S1                 0.0000
     33 ****         7.2057  -3.8781  -3.3469 H              1 S1                 0.0000
     34 ****        -1.7693  -1.6653  -0.5777 H              1 S1                 0.0000
     35 ****        -0.2068  -2.1713  -0.0183 H              1 S1                 0.0000
     36 ****        -1.5995  -1.4931   1.8905 H              1 S1                 0.0000
     37 ****        -0.2193  -0.4272   1.7598 H              1 S1                 0.0000
     38 ****        -1.4069   1.3469   2.9929 H              1 S1                 0.0000
     39 ****        -3.4593  -0.8177   3.0076 H              1 S1                 0.0000
     40 ****        -2.4403  -0.2160   4.3123 H              1 S1                 0.0000
     41 ****        -4.6691   0.6058   4.9684 H              1 S1                 0.0000
     42 ****        -5.5976   0.0708   2.4863 H              1 S1                 0.0000
     43 ****        -6.2451   1.5036   3.2828 H              1 S1                 0.0000
     44 ****        -4.5471   1.4854   0.8975 H              1 S1                 0.0000
     45 ****        -5.2360   2.8715   1.7325 H              1 S1                 0.0000
     46 ****        -2.8278   3.1954   2.1627 H              1 S1                 0.0000
     47 ****        -4.4208   3.1230   4.2299 H              1 S1                 0.0000
     48 ****        -2.8324   2.4633   4.6815 H              1 S1                 0.0000
     49 ****        -2.3080   2.2657   0.0663 H              1 S1                 0.0000
     50 ****        -0.6685   1.9692   0.6094 H              1 S1                 0.0000
     51 ****        -0.9003   1.6066  -1.8502 H              1 S1                 0.0000
     52 ****        -2.1634   0.4416  -1.5922 H              1 S1                 0.0000
     53 ****        -2.9310   0.1373   0.8278 H              1 S1                 0.0000
     54 ****         2.4524   0.9863  -2.0281 LP             1 S1                 0.0000
     55 ****         0.9193   1.7643  -1.8175 LP             1 S1                 0.0000
     56 ****         4.9357  -3.5781  -2.8289 LP             1 S1                 0.0000
@<TRIPOS>BOND
    1    1    2 2     
    2    2    3 am    
    3    2   12 am    
    4    3    4 1     
    5    3   25 1     
    6    4    5 1     
    7    4   26 1     
    8    4   27 1     
    9    5    6 1     
   10    5   28 1     
   11    5   29 1     
   12    6   11 ar    
   13    6    7 ar    
   14    7    8 ar    
   15    7   30 1     
   16    8    9 ar    
   17    8   31 1     
   18    9   10 ar    
   19    9   32 1     
   20   10   11 ar    
   21   10   33 1     
   22   12   24 1     
   23   12   13 1     
   24   13   14 1     
   25   13   34 1     
   26   13   35 1     
   27   14   15 1     
   28   14   36 1     
   29   14   37 1     
   30   15   16 1     
   31   15   23 1     
   32   15   53 1     
   33   16   21 1     
   34   16   17 1     
   35   16   38 1     
   36   17   18 1     
   37   17   39 1     
   38   17   40 1     
   39   18   22 1     
   40   18   19 1     
   41   18   41 1     
   42   19   20 1     
   43   19   42 1     
   44   19   43 1     
   45   20   21 1     
   46   20   44 1     
   47   20   45 1     
   48   21   22 1     
   49   21   46 1     
   50   22   47 1     
   51   22   48 1     
   52   23   24 1     
   53   23   49 1     
   54   23   50 1     
   55   24   51 1     
   56   24   52 1     
   57    1   54 1     
   58    1   55 1     
   59   11   56 1     
@<TRIPOS>SUBSTRUCTURE
      1 S1             1
@<TRIPOS>SET
LONE_PAIRS      STATIC     ATOMS    <user>   **** ""
3 54 55 56
DONOR_HYDROGENS      STATIC     ATOMS    <user>   **** ""
2 25 53
ATOM$BLUE        STATIC     ATOMS    COLORGROUP SYSTEM
3 54 55 56
ATOM$RED        STATIC     ATOMS    COLORGROUP SYSTEM
2 25 53
