AV-unprocessed.smi:1561|AV-procd|sdf|6283|dock8
  -GOLD-   22720 6483D 1   1.00000     0.00000
 Structure written by MMmdl.
 33 34  0  0  0  0  0  0  0  0  1 V2000
  153.9057  141.7975  160.8225 C   0  0  0  0  0  0  0  0  0  0  0  0
  152.6693  141.4816  159.9559 C   0  0  2  0  0  0  0  0  0  0  0  0
  152.8772  140.2613  159.0462 C   0  0  0  0  0  0  0  0  0  0  0  0
  154.0108  139.8964  158.7321 O   0  0  0  0  0  0  0  0  0  0  0  0
  151.7621  139.6524  158.6113 N   0  0  0  0  0  0  0  0  0  0  0  0
  151.7173  138.5446  157.6633 C   0  0  0  0  0  0  0  0  0  0  0  0
  150.8513  138.8882  156.4366 C   0  0  2  0  0  0  0  0  0  0  0  0
  150.9032  137.8423  155.3303 C   0  0  0  0  0  0  0  0  0  0  0  0
  150.8082  138.6548  154.0339 C   0  0  0  0  0  0  0  0  0  0  0  0
  150.6181  140.0042  154.4377 O   0  0  0  0  0  0  0  0  0  0  0  0
  151.2452  140.1666  155.6977 C   0  0  0  0  0  0  0  0  0  0  0  0
  152.2408  142.6268  159.1601 N   0  0  0  0  0  0  0  0  0  0  0  0
  152.7646  143.9040  159.1627 C   0  0  0  0  0  0  0  0  0  0  0  0
  152.0196  144.6563  158.3005 C   0  0  0  0  0  0  0  0  0  0  0  0
  151.0379  143.7463  157.8203 C   0  0  0  0  0  0  0  0  0  0  0  0
  151.1663  142.5375  158.3416 N   0  0  0  0  0  0  0  0  0  0  0  0
  154.1747  140.9451  161.4472 H   0  0  0  0  0  0  0  0  0  0  0  0
  153.7084  142.6390  161.4872 H   0  0  0  0  0  0  0  0  0  0  0  0
  154.7781  142.0515  160.2189 H   0  0  0  0  0  0  0  0  0  0  0  0
  151.8525  141.2427  160.6391 H   0  0  0  0  0  0  0  0  0  0  0  0
  150.8739  140.0159  158.9250 H   0  0  0  0  0  0  0  0  0  0  0  0
  152.7225  138.2512  157.3554 H   0  0  0  0  0  0  0  0  0  0  0  0
  151.2933  137.6823  158.1786 H   0  0  0  0  0  0  0  0  0  0  0  0
  149.8119  138.9924  156.7523 H   0  0  0  0  0  0  0  0  0  0  0  0
  151.8394  137.2828  155.3495 H   0  0  0  0  0  0  0  0  0  0  0  0
  150.0863  137.1261  155.4251 H   0  0  0  0  0  0  0  0  0  0  0  0
  151.7353  138.5765  153.4644 H   0  0  0  0  0  0  0  0  0  0  0  0
  149.9885  138.3252  153.3951 H   0  0  0  0  0  0  0  0  0  0  0  0
  150.9008  141.0703  156.2016 H   0  0  0  0  0  0  0  0  0  0  0  0
  152.3264  140.2344  155.5646 H   0  0  0  0  0  0  0  0  0  0  0  0
  153.6147  144.1696  159.7736 H   0  0  0  0  0  0  0  0  0  0  0  0
  152.1516  145.6996  158.0553 H   0  0  0  0  0  0  0  0  0  0  0  0
  150.2381  143.9280  157.1174 H   0  0  0  0  0  0  0  0  0  0  0  0
  1  2  1  0  0  0  0
  1 17  1  0  0  0  0
  1 18  1  0  0  0  0
  1 19  1  0  0  0  0
  2  3  1  0  0  0  0
  2 12  1  0  0  0  0
  2 20  1  0  0  0  0
  3  4  2  0  0  0  0
  3  5  1  0  0  0  0
  5  6  1  0  0  0  0
  5 21  1  0  0  0  0
  6  7  1  0  0  0  0
  6 22  1  0  0  0  0
  6 23  1  0  0  0  0
  7 11  1  0  0  0  0
  7  8  1  0  0  0  0
  7 24  1  0  0  0  0
  8  9  1  0  0  0  0
  8 25  1  0  0  0  0
  8 26  1  0  0  0  0
  9 10  1  0  0  0  0
  9 27  1  0  0  0  0
  9 28  1  0  0  0  0
 10 11  1  0  0  0  0
 11 29  1  0  0  0  0
 11 30  1  0  0  0  0
 12 16  1  0  0  0  0
 12 13  1  0  0  0  0
 13 14  2  0  0  0  0
 13 31  1  0  0  0  0
 14 15  1  0  0  0  0
 14 32  1  0  0  0  0
 15 16  2  0  0  0  0
 15 33  1  0  0  0  0
M  END
> <s_m_source_file>
AV-unprocessed.smi

> <i_m_source_file_index>
1561

> <i_lp_mmshare_version>
43012

> <i_f3d_flags>
0

> <s_epik_input>
bjFbY0hdW2NIXVtjSF1uMVtDQEhdKFtDSDNdKUMoPU8pW05IXVtDSDJdW0NAQEhdMltDSDJdW0NIMl1PW0NIMl0y

> <s_epik_cmdline>
J2VwaWtfcHl0aG9uJywgJy1waCcsICc3LjAnLCAnLXRuJywgJzgnLCAnLW1hJywgJzIwMCcsICctbWV0YWxfYmluZGluZycsICctaW1hZScsICc8aW5maWxlLm1hZT4nLCAnLW9tYWUnLCAnPG91dGZpbGUubWFlPic=

> <r_lp_tautomer_probability>
1

> <r_epik_Ionization_Penalty>
3.82077e-05

> <r_epik_Ionization_Penalty_Charging>
0

> <r_epik_Ionization_Penalty_Neutral>
3.82077e-05

> <r_epik_State_Penalty>
-0

> <r_epik_Charging_Adjusted_Penalty>
0

> <i_epik_Tot_Q>
0

> <i_epik_Tot_abs_Q>
0

> <r_epik_Metal_State_Penalty>
-0

> <b_epik_Metal_Only>
0

> <s_lp_Force_Field>
OPLS_2005

> <r_lp_Energy>
22.2594

> <b_lp_Chiralities_Consistent>
1

> <s_lp_Variant>
AV-unprocessed.smi:1561-1

> <Gold.Version>
5.8.1

> <Gold.Id.Protein>
6NUR|6NUR_protein|mol2

> <Gold.PLP.Fitness>
43.4183

> <Gold.PLP.PLP>
-35.5364

> <Gold.PLP.part.hbond>
-2.0000

> <Gold.PLP.part.metal>
0.0000

> <Gold.PLP.part.buried>
-4.5360

> <Gold.PLP.part.nonpolar>
-29.3774

> <Gold.PLP.part.repulsive>
0.2759

> <Gold.PLP.ligand.clash>
0.0000

> <Gold.PLP.ligand.torsion>
0.6151

> <Gold.PLP.Chemscore.Hbond>
2.0000

> <Gold.PLP.Chemscore.CHOScore>
1.0000

> <Gold.PLP.Chemscore.Metal>
0.0000

> <Gold.Chemscore.Hbonds>
donor molecule, donor type, donor heavy atom, donor atom, acceptor molecule, acceptor atom, score
      P1  H  7989  7998       L1    10  1.00
      P1  H  7997  8010       L1     4  1.00
      L1  C    15    33       P1  8028  1.00

> <Gold.PLP.Chemscore.Internal.Correction>
0.1121

> <Gold.Rescore>
     Score         DG    S(hbond)    S(metal)    S(lipo)     H(rot)  DE(clash)    DE(int)     intcor
     16.10     -17.91       1.86        0.00      88.28       1.61       0.10       1.71       ----

> <Gold.Chemscore.Fitness>
16.0981

> <Gold.Chemscore.DG>
-17.9096

> <Gold.Chemscore.ZeroCoef>
-5.4800

> <Gold.Chemscore.Hbond>
1.8625

> <Gold.Chemscore.Metal>
0.0000

> <Gold.Chemscore.Lipo>
88.2826

> <Gold.Chemscore.Internal_Hbond>
0.0000

> <Gold.Chemscore.DEClash>
0.1017

> <Gold.Chemscore.DEInternal>
1.7099

> <Gold.Chemscore.Rot>
1.6094

> <Gold.Chemscore.Internal.Correction>
   9.000000E+99

> <Gold.Chemscore.Hbonds>
donor molecule, donor type, donor heavy atom, donor atom, acceptor molecule, acceptor atom, score
      P1  H  7989  7998       L1    10  0.15
      P1  H  7997  8010       L1     4  0.99

> <Gold.Chemscore.Hbond.Weighted>
-6.2206

> <Gold.Chemscore.Metal.Weighted>
-0.0000

> <Gold.Chemscore.Lipo.Weighted>
-10.3291

> <Gold.Chemscore.Internal_Hbond.Weighted>
0.0000

> <Gold.Chemscore.DEClash.Weighted>
0.1017

> <Gold.Chemscore.DEInternal.Weighted>
1.7099

> <Gold.Chemscore.Rot.Weighted>
4.1201

> <Gold.Chemscore.Internal.Correction.Weighted>
   9.000000E+99

> <Gold.Protein.RotatedTorsions>
[ 6907 6896 6895 6894 ] final -100.14 input  -60.11 | X-H torsion
[ 7974 7965 7964 7962 ] final  -82.55 input  175.53 | X-H torsion
[ 8008 7997 7996 7995 ] final   16.10 input   59.86 | X-H torsion
[ 10167 10162 10161 10158 ] final   16.57 input  -65.29 | X-H torsion
[ 10718 10713 10712 10709 ] final   60.66 input   66.30 | X-H torsion
[ 10763 10752 10751 10750 ] final  -89.84 input  -60.55 | X-H torsion
[ 11005 11000 10999 10996 ] final   14.74 input  -57.11 | X-H torsion

> <Gold.Protein.ActiveResidues>
 VAL166  LYS551  ARG553  GLY616  TRP617  ASP618  TYR619  PRO620  LYS621  CYS622 
 ASP623  PHE694  ASN695  SER759  ASP760  ASP761  ALA762  ILE779  LEU786  VAL792 
 PHE793  MET794  SER795  GLU796  ALA797  LYS798  CYS799  TRP800  GLU811  SER814 

> <Gold.Protein.RotatedAtoms>
  150.7105  134.0933  159.3939 H   0  0  0  0  0  0  0  0  0  0  0  0  # atno 6907 bound_to 6896
  151.8918  135.0411  160.0508 H   0  0  0  0  0  0  0  0  0  0  0  0  # atno 6908 bound_to 6896
  152.2485  133.5159  159.5348 H   0  0  0  0  0  0  0  0  0  0  0  0  # atno 6909 bound_to 6896
  145.5318  140.9520  143.1599 H   0  0  0  0  0  0  0  0  0  0  0  0  # atno 7974 bound_to 7965
  154.8721  140.2960  155.5475 H   0  0  0  0  0  0  0  0  0  0  0  0  # atno 8008 bound_to 7997
  156.3021  140.2458  156.3645 H   0  0  0  0  0  0  0  0  0  0  0  0  # atno 8009 bound_to 7997
  154.8805  140.0398  157.1769 H   0  0  0  0  0  0  0  0  0  0  0  0  # atno 8010 bound_to 7997
  140.5788  143.9022  150.6772 H   0  0  0  0  0  0  0  0  0  0  0  0  # atno 10167 bound_to 10162
  157.5769  130.8951  149.9363 H   0  0  0  0  0  0  0  0  0  0  0  0  # atno 10718 bound_to 10713
  154.6595  135.5326  153.8001 H   0  0  0  0  0  0  0  0  0  0  0  0  # atno 10763 bound_to 10752
  153.0434  135.6502  154.0893 H   0  0  0  0  0  0  0  0  0  0  0  0  # atno 10764 bound_to 10752
  154.0803  135.2947  155.3271 H   0  0  0  0  0  0  0  0  0  0  0  0  # atno 10765 bound_to 10752
  140.4661  134.1078  155.7724 H   0  0  0  0  0  0  0  0  0  0  0  0  # atno 11005 bound_to 11000
  144.7622  139.6929  143.7229 LP  0  0  0  0  0  0  0  0  0  0  0  0  # atno 17320 bound_to 7965
  146.2039  139.5351  142.9725 LP  0  0  0  0  0  0  0  0  0  0  0  0  # atno 17321 bound_to 7965
  140.2515  143.3589  152.1401 LP  0  0  0  0  0  0  0  0  0  0  0  0  # atno 17342 bound_to 10162
  139.5157  144.6967  151.5609 LP  0  0  0  0  0  0  0  0  0  0  0  0  # atno 17343 bound_to 10162
  156.0814  130.3672  150.0573 LP  0  0  0  0  0  0  0  0  0  0  0  0  # atno 17370 bound_to 10713
  156.8718  130.9526  151.3608 LP  0  0  0  0  0  0  0  0  0  0  0  0  # atno 17371 bound_to 10713
  141.1598  133.8813  157.1878 LP  0  0  0  0  0  0  0  0  0  0  0  0  # atno 17394 bound_to 11000
  139.9914  135.0063  156.9984 LP  0  0  0  0  0  0  0  0  0  0  0  0  # atno 17395 bound_to 11000

$$$$
