AV-unprocessed.smi:1670|AV-procd|sdf|6696|dock6
  -GOLD-   22720 7433D 1   1.00000     0.00000
 Structure written by MMmdl.
 41 42  0  0  0  0  0  0  0  0  1 V2000
  150.7219  138.1247  155.0935 C   0  0  0  0  0  0  0  0  0  0  0  0
  150.0993  139.4120  154.5361 C   0  0  1  0  0  0  0  0  0  0  0  0
  148.6582  139.1700  154.0393 C   0  0  0  0  0  0  0  0  0  0  0  0
  147.8113  140.3411  154.1879 N   0  0  0  0  0  0  0  0  0  0  0  0
  147.8599  141.5279  153.4874 C   0  0  0  0  0  0  0  0  0  0  0  0
  146.8801  142.3359  153.9889 C   0  0  0  0  0  0  0  0  0  0  0  0
  146.2758  141.5437  155.0046 C   0  0  0  0  0  0  0  0  0  0  0  0
  146.8322  140.3488  155.1187 N   0  0  0  0  0  0  0  0  0  0  0  0
  150.1256  140.4426  155.5735 N   0  0  0  0  0  0  0  0  0  0  0  0
  151.1822  140.7504  156.3401 C   0  0  0  0  0  0  0  0  0  0  0  0
  152.2665  140.1689  156.2909 O   0  0  0  0  0  0  0  0  0  0  0  0
  150.9188  141.7796  157.1569 N   0  0  0  0  0  0  0  0  0  0  0  0
  151.8697  142.3767  158.0896 C   0  0  2  0  0  0  0  0  0  0  0  0
  152.2224  141.3838  159.2149 C   0  0  0  0  0  0  0  0  0  0  0  0
  153.1757  142.0144  160.2451 C   0  0  0  0  0  0  0  0  0  0  0  0
  152.6304  143.3376  160.8157 C   0  0  2  0  0  0  0  0  0  0  0  0
  151.5219  143.0838  161.6561 O   0  0  0  0  0  0  0  0  0  0  0  0
  152.2298  144.3163  159.6955 C   0  0  0  0  0  0  0  0  0  0  0  0
  151.2779  143.6728  158.6718 C   0  0  0  0  0  0  0  0  0  0  0  0
  150.7456  137.3408  154.3359 H   0  0  0  0  0  0  0  0  0  0  0  0
  150.1569  137.7460  155.9460 H   0  0  0  0  0  0  0  0  0  0  0  0
  151.7480  138.2945  155.4221 H   0  0  0  0  0  0  0  0  0  0  0  0
  150.7115  139.7236  153.6877 H   0  0  0  0  0  0  0  0  0  0  0  0
  148.6685  138.9011  152.9823 H   0  0  0  0  0  0  0  0  0  0  0  0
  148.2060  138.3291  154.5683 H   0  0  0  0  0  0  0  0  0  0  0  0
  148.5840  141.6984  152.7046 H   0  0  0  0  0  0  0  0  0  0  0  0
  146.6346  143.3408  153.6792 H   0  0  0  0  0  0  0  0  0  0  0  0
  145.4548  141.7996  155.6577 H   0  0  0  0  0  0  0  0  0  0  0  0
  149.2825  140.9843  155.6931 H   0  0  0  0  0  0  0  0  0  0  0  0
  149.9983  142.1923  157.1207 H   0  0  0  0  0  0  0  0  0  0  0  0
  152.7824  142.6367  157.5496 H   0  0  0  0  0  0  0  0  0  0  0  0
  151.3111  141.0536  159.7155 H   0  0  0  0  0  0  0  0  0  0  0  0
  152.6830  140.4887  158.7958 H   0  0  0  0  0  0  0  0  0  0  0  0
  153.3765  141.3079  161.0513 H   0  0  0  0  0  0  0  0  0  0  0  0
  154.1359  142.2050  159.7638 H   0  0  0  0  0  0  0  0  0  0  0  0
  153.3980  143.8019  161.4355 H   0  0  0  0  0  0  0  0  0  0  0  0
  151.3870  143.8367  162.2111 H   0  0  0  0  0  0  0  0  0  0  0  0
  151.7742  145.2118  160.1198 H   0  0  0  0  0  0  0  0  0  0  0  0
  153.1298  144.6506  159.1780 H   0  0  0  0  0  0  0  0  0  0  0  0
  151.0721  144.3823  157.8695 H   0  0  0  0  0  0  0  0  0  0  0  0
  150.3194  143.4616  159.1485 H   0  0  0  0  0  0  0  0  0  0  0  0
  1  2  1  0  0  0  0
  1 20  1  0  0  0  0
  1 21  1  0  0  0  0
  1 22  1  0  0  0  0
  2  3  1  0  0  0  0
  2  9  1  0  0  0  0
  2 23  1  0  0  0  0
  3  4  1  0  0  0  0
  3 24  1  0  0  0  0
  3 25  1  0  0  0  0
  4  8  1  0  0  0  0
  4  5  1  0  0  0  0
  5  6  2  0  0  0  0
  5 26  1  0  0  0  0
  6  7  1  0  0  0  0
  6 27  1  0  0  0  0
  7  8  2  0  0  0  0
  7 28  1  0  0  0  0
  9 10  1  0  0  0  0
  9 29  1  0  0  0  0
 10 11  2  0  0  0  0
 10 12  1  0  0  0  0
 12 13  1  0  0  0  0
 12 30  1  0  0  0  0
 13 19  1  0  0  0  0
 13 14  1  0  0  0  0
 13 31  1  0  0  0  0
 14 15  1  0  0  0  0
 14 32  1  0  0  0  0
 14 33  1  0  0  0  0
 15 16  1  0  0  0  0
 15 34  1  0  0  0  0
 15 35  1  0  0  0  0
 16 17  1  0  0  0  0
 16 18  1  0  0  0  0
 16 36  1  0  0  0  0
 17 37  1  0  0  0  0
 18 19  1  0  0  0  0
 18 38  1  0  0  0  0
 18 39  1  0  0  0  0
 19 40  1  0  0  0  0
 19 41  1  0  0  0  0
M  END
> <s_m_source_file>
AV-unprocessed.smi

> <i_m_source_file_index>
1670

> <i_lp_mmshare_version>
43012

> <i_f3d_flags>
0

> <s_epik_input>
bjFbY0hdW2NIXVtjSF1uMVtDSDJdW0NAQEhdKFtDSDNdKVtOSF1DKD1PKVtOSF1bQ0BASF0yW0NIMl1bQ0gyXVtDQEBIXShbT0hdKVtDSDJdW0NIMl0y

> <s_epik_cmdline>
J2VwaWtfcHl0aG9uJywgJy1waCcsICc3LjAnLCAnLXRuJywgJzgnLCAnLW1hJywgJzIwMCcsICctbWV0YWxfYmluZGluZycsICctaW1hZScsICc8aW5maWxlLm1hZT4nLCAnLW9tYWUnLCAnPG91dGZpbGUubWFlPic=

> <r_lp_tautomer_probability>
1

> <r_epik_Ionization_Penalty>
7.33369e-05

> <r_epik_Ionization_Penalty_Charging>
0

> <r_epik_Ionization_Penalty_Neutral>
7.33369e-05

> <r_epik_State_Penalty>
-0

> <r_epik_Charging_Adjusted_Penalty>
0

> <i_epik_Tot_Q>
0

> <i_epik_Tot_abs_Q>
0

> <r_epik_Metal_State_Penalty>
-0

> <b_epik_Metal_Only>
0

> <s_lp_Force_Field>
OPLS_2005

> <r_lp_Energy>
7.95732

> <b_lp_Chiralities_Consistent>
1

> <s_lp_Variant>
AV-unprocessed.smi:1670-4

> <Gold.Version>
5.8.1

> <Gold.Id.Protein>
6NUR|6NUR_protein|mol2

> <Gold.PLP.Fitness>
46.4985

> <Gold.PLP.PLP>
-40.0740

> <Gold.PLP.part.hbond>
-2.7789

> <Gold.PLP.part.metal>
0.0000

> <Gold.PLP.part.buried>
-4.7578

> <Gold.PLP.part.nonpolar>
-32.2768

> <Gold.PLP.part.repulsive>
0.1934

> <Gold.PLP.ligand.clash>
0.0000

> <Gold.PLP.ligand.torsion>
0.7068

> <Gold.PLP.Chemscore.Hbond>
1.6240

> <Gold.PLP.Chemscore.CHOScore>
0.9840

> <Gold.PLP.Chemscore.Metal>
0.0000

> <Gold.Chemscore.Hbonds>
donor molecule, donor type, donor heavy atom, donor atom, acceptor molecule, acceptor atom, score
      P1  H  6933  6945       L1    17  0.53
      P1  H  7997  8008       L1    11  0.91
      L1  C     5    26       P1  7957  0.98

> <Gold.PLP.Chemscore.Internal.Correction>
0.0141

> <Gold.Rescore>
     Score         DG    S(hbond)    S(metal)    S(lipo)     H(rot)  DE(clash)    DE(int)     intcor
     13.00     -15.08       0.96        0.00     103.18       2.22       0.17       1.91       ----

> <Gold.Chemscore.Fitness>
12.9994

> <Gold.Chemscore.DG>
-15.0784

> <Gold.Chemscore.ZeroCoef>
-5.4800

> <Gold.Chemscore.Hbond>
0.9627

> <Gold.Chemscore.Metal>
0.0000

> <Gold.Chemscore.Lipo>
103.1808

> <Gold.Chemscore.Internal_Hbond>
0.0000

> <Gold.Chemscore.DEClash>
0.1689

> <Gold.Chemscore.DEInternal>
1.9100

> <Gold.Chemscore.Rot>
2.2224

> <Gold.Chemscore.Internal.Correction>
   9.000000E+99

> <Gold.Chemscore.Hbonds>
donor molecule, donor type, donor heavy atom, donor atom, acceptor molecule, acceptor atom, score
      P1  H  6933  6945       L1    17  0.23
      P1  H  7997  8008       L1    11  0.86

> <Gold.Chemscore.Hbond.Weighted>
-3.2155

> <Gold.Chemscore.Metal.Weighted>
-0.0000

> <Gold.Chemscore.Lipo.Weighted>
-12.0722

> <Gold.Chemscore.Internal_Hbond.Weighted>
0.0000

> <Gold.Chemscore.DEClash.Weighted>
0.1689

> <Gold.Chemscore.DEInternal.Weighted>
1.9100

> <Gold.Chemscore.Rot.Weighted>
5.6893

> <Gold.Chemscore.Internal.Correction.Weighted>
   9.000000E+99

> <Gold.Protein.RotatedTorsions>
[ 6907 6896 6895 6894 ] final -173.77 input  -60.11 | X-H torsion
[ 7974 7965 7964 7962 ] final -161.24 input  175.53 | X-H torsion
[ 8008 7997 7996 7995 ] final  -39.22 input   59.86 | X-H torsion
[ 10167 10162 10161 10158 ] final  158.40 input  -65.29 | X-H torsion
[ 10718 10713 10712 10709 ] final -106.68 input   66.30 | X-H torsion
[ 10763 10752 10751 10750 ] final  108.98 input  -60.55 | X-H torsion
[ 11005 11000 10999 10996 ] final -103.11 input  -57.11 | X-H torsion

> <Gold.Protein.ActiveResidues>
 VAL166  LYS551  ARG553  GLY616  TRP617  ASP618  TYR619  PRO620  LYS621  CYS622 
 ASP623  PHE694  ASN695  SER759  ASP760  ASP761  ALA762  ILE779  LEU786  VAL792 
 PHE793  MET794  SER795  GLU796  ALA797  LYS798  CYS799  TRP800  GLU811  SER814 

> <Gold.Protein.RotatedAtoms>
  151.5616  133.3402  159.2971 H   0  0  0  0  0  0  0  0  0  0  0  0  # atno 6907 bound_to 6896
  150.8419  134.7717  159.6950 H   0  0  0  0  0  0  0  0  0  0  0  0  # atno 6908 bound_to 6896
  152.4485  134.5451  159.9902 H   0  0  0  0  0  0  0  0  0  0  0  0  # atno 6909 bound_to 6896
  144.7398  140.3426  143.6131 H   0  0  0  0  0  0  0  0  0  0  0  0  # atno 7974 bound_to 7965
  154.4026  140.1557  156.2828 H   0  0  0  0  0  0  0  0  0  0  0  0  # atno 8008 bound_to 7997
  155.8854  140.3441  155.5896 H   0  0  0  0  0  0  0  0  0  0  0  0  # atno 8009 bound_to 7997
  155.7619  140.0818  157.2141 H   0  0  0  0  0  0  0  0  0  0  0  0  # atno 8010 bound_to 7997
  139.4826  144.4828  151.8420 H   0  0  0  0  0  0  0  0  0  0  0  0  # atno 10167 bound_to 10162
  156.0401  130.5625  150.7715 H   0  0  0  0  0  0  0  0  0  0  0  0  # atno 10718 bound_to 10713
  153.4283  135.3795  155.2154 H   0  0  0  0  0  0  0  0  0  0  0  0  # atno 10763 bound_to 10752
  154.8748  135.3833  154.4300 H   0  0  0  0  0  0  0  0  0  0  0  0  # atno 10764 bound_to 10752
  153.4829  135.7088  153.5991 H   0  0  0  0  0  0  0  0  0  0  0  0  # atno 10765 bound_to 10752
  141.1160  133.8613  157.1444 H   0  0  0  0  0  0  0  0  0  0  0  0  # atno 11005 bound_to 11000
  145.7358  139.1749  143.2404 LP  0  0  0  0  0  0  0  0  0  0  0  0  # atno 17320 bound_to 7965
  146.1171  140.7355  142.9475 LP  0  0  0  0  0  0  0  0  0  0  0  0  # atno 17321 bound_to 7965
  140.4305  144.2122  150.5888 LP  0  0  0  0  0  0  0  0  0  0  0  0  # atno 17342 bound_to 10162
  140.4784  143.2388  151.8991 LP  0  0  0  0  0  0  0  0  0  0  0  0  # atno 17343 bound_to 10162
  157.5208  131.0931  151.0081 LP  0  0  0  0  0  0  0  0  0  0  0  0  # atno 17370 bound_to 10713
  157.0412  130.5750  149.5356 LP  0  0  0  0  0  0  0  0  0  0  0  0  # atno 17371 bound_to 10713
  140.0083  134.9999  157.0340 LP  0  0  0  0  0  0  0  0  0  0  0  0  # atno 17394 bound_to 11000
  140.4644  134.1451  155.7195 LP  0  0  0  0  0  0  0  0  0  0  0  0  # atno 17395 bound_to 11000

$$$$
