AV-unprocessed.smi:1669|AV-procd|sdf|6692|dock10
  -GOLD-   22720 7423D 1   1.00000     0.00000
 Structure written by MMmdl.
 49 51  0  0  0  0  0  0  0  0  3 V2000
  148.7254  135.7439  156.5186 C   0  0  0  0  0  0  0  0  0  0  0  0
  148.7354  135.9894  157.9799 N   0  3  2  0  0  0  0  0  0  0  0  0
  147.3773  136.2442  158.5260 C   0  0  0  0  0  0  0  0  0  0  0  0
  147.2826  135.8808  159.9966 C   0  0  0  0  0  0  0  0  0  0  0  0
  146.5885  134.7169  160.3897 C   0  0  0  0  0  0  0  0  0  0  0  0
  146.4957  134.3750  161.7530 C   0  0  0  0  0  0  0  0  0  0  0  0
  147.0977  135.1943  162.7273 C   0  0  0  0  0  0  0  0  0  0  0  0
  147.7933  136.3553  162.3385 C   0  0  0  0  0  0  0  0  0  0  0  0
  147.8872  136.6978  160.9755 C   0  0  0  0  0  0  0  0  0  0  0  0
  149.7211  137.0317  158.3645 C   0  0  0  0  0  0  0  0  0  0  0  0
  149.4841  138.3616  157.6215 C   0  0  1  0  0  0  0  0  0  0  0  0
  148.8288  139.2585  158.4969 O   0  0  0  0  0  0  0  0  0  0  0  0
  150.8077  138.9907  157.1429 C   0  0  0  0  0  0  0  0  0  0  0  0
  150.7013  140.4370  156.8944 N   0  0  0  0  0  0  0  0  0  0  0  0
  150.0330  141.1207  155.9203 C   0  0  0  0  0  0  0  0  0  0  0  0
  149.2106  140.5290  154.8194 C   0  0  0  0  0  0  0  0  0  0  0  0
  149.6709  140.8786  153.5311 O   0  0  0  0  0  0  0  0  0  0  0  0
  150.2538  142.4488  156.1401 N   0  3  0  0  0  0  0  0  0  0  0  0
  151.0627  142.6163  157.2643 C   0  0  0  0  0  0  0  0  0  0  0  0
  151.5504  143.7682  157.8736 C   0  0  0  0  0  0  0  0  0  0  0  0
  152.3533  143.5867  159.0188 C   0  0  0  0  0  0  0  0  0  0  0  0
  152.6432  142.2991  159.5157 C   0  0  0  0  0  0  0  0  0  0  0  0
  152.1438  141.1383  158.8885 C   0  0  0  0  0  0  0  0  0  0  0  0
  151.3516  141.3273  157.7564 C   0  0  0  0  0  0  0  0  0  0  0  0
  148.3938  136.6300  155.9758 H   0  0  0  0  0  0  0  0  0  0  0  0
  148.0645  134.9166  156.2608 H   0  0  0  0  0  0  0  0  0  0  0  0
  149.7228  135.4802  156.1650 H   0  0  0  0  0  0  0  0  0  0  0  0
  147.1153  137.2981  158.4332 H   0  0  0  0  0  0  0  0  0  0  0  0
  146.6320  135.6963  157.9471 H   0  0  0  0  0  0  0  0  0  0  0  0
  146.1236  134.0844  159.6474 H   0  0  0  0  0  0  0  0  0  0  0  0
  145.9632  133.4839  162.0519 H   0  0  0  0  0  0  0  0  0  0  0  0
  147.0261  134.9321  163.7729 H   0  0  0  0  0  0  0  0  0  0  0  0
  148.2554  136.9831  163.0863 H   0  0  0  0  0  0  0  0  0  0  0  0
  148.4227  137.5903  160.6859 H   0  0  0  0  0  0  0  0  0  0  0  0
  149.6665  137.2224  159.4378 H   0  0  0  0  0  0  0  0  0  0  0  0
  150.7288  136.6581  158.1758 H   0  0  0  0  0  0  0  0  0  0  0  0
  148.8363  138.2056  156.7597 H   0  0  0  0  0  0  0  0  0  0  0  0
  149.2234  140.1127  158.4031 H   0  0  0  0  0  0  0  0  0  0  0  0
  151.5908  138.8385  157.8869 H   0  0  0  0  0  0  0  0  0  0  0  0
  151.1585  138.5109  156.2282 H   0  0  0  0  0  0  0  0  0  0  0  0
  149.2147  139.4428  154.9103 H   0  0  0  0  0  0  0  0  0  0  0  0
  148.1777  140.8601  154.9281 H   0  0  0  0  0  0  0  0  0  0  0  0
  149.4929  140.1608  152.9422 H   0  0  0  0  0  0  0  0  0  0  0  0
  151.3283  144.7555  157.4953 H   0  0  0  0  0  0  0  0  0  0  0  0
  152.7533  144.4524  159.5269 H   0  0  0  0  0  0  0  0  0  0  0  0
  153.2603  142.2001  160.3972 H   0  0  0  0  0  0  0  0  0  0  0  0
  152.3711  140.1574  159.2786 H   0  0  0  0  0  0  0  0  0  0  0  0
  149.0650  135.1341  158.4048 H   0  0  0  0  0  0  0  0  0  0  0  0
  149.8723  143.1839  155.5582 H   0  0  0  0  0  0  0  0  0  0  0  0
  1  2  1  0  0  0  0
  1 25  1  0  0  0  0
  1 26  1  0  0  0  0
  1 27  1  0  0  0  0
  2  3  1  0  0  0  0
  2 10  1  0  0  0  0
  2 48  1  0  0  0  0
  3  4  1  0  0  0  0
  3 28  1  0  0  0  0
  3 29  1  0  0  0  0
  4  9  1  0  0  0  0
  4  5  2  0  0  0  0
  5  6  1  0  0  0  0
  5 30  1  0  0  0  0
  6  7  2  0  0  0  0
  6 31  1  0  0  0  0
  7  8  1  0  0  0  0
  7 32  1  0  0  0  0
  8  9  2  0  0  0  0
  8 33  1  0  0  0  0
  9 34  1  0  0  0  0
 10 11  1  0  0  0  0
 10 35  1  0  0  0  0
 10 36  1  0  0  0  0
 11 12  1  0  0  0  0
 11 13  1  0  0  0  0
 11 37  1  0  0  0  0
 12 38  1  0  0  0  0
 13 14  1  0  0  0  0
 13 39  1  0  0  0  0
 13 40  1  0  0  0  0
 14 24  1  0  0  0  0
 14 15  1  0  0  0  0
 15 16  1  0  0  0  0
 15 18  2  0  0  0  0
 16 17  1  0  0  0  0
 16 41  1  0  0  0  0
 16 42  1  0  0  0  0
 17 43  1  0  0  0  0
 18 19  1  0  0  0  0
 18 49  1  0  0  0  0
 19 24  2  0  0  0  0
 19 20  1  0  0  0  0
 20 21  2  0  0  0  0
 20 44  1  0  0  0  0
 21 22  1  0  0  0  0
 21 45  1  0  0  0  0
 22 23  2  0  0  0  0
 22 46  1  0  0  0  0
 23 24  1  0  0  0  0
 23 47  1  0  0  0  0
M  CHG  1   2   1
M  CHG  1  18   1
M  END
> <s_m_source_file>
AV-unprocessed.smi

> <i_m_source_file_index>
1669

> <i_lp_mmshare_version>
43012

> <i_f3d_flags>
0

> <s_epik_input>
W2NIXTFbY0hdW2NIXVtjSF1bY0hdYzFbQ0gyXU4oW0NIM10pW0NIMl1bQ0BIXShbT0hdKVtDSDJdbihjKG4yKVtDSDJdW09IXSljKGMyMylbY0hdW2NIXVtjSF1bY0hdMw==

> <s_epik_cmdline>
J2VwaWtfcHl0aG9uJywgJy1waCcsICc3LjAnLCAnLXRuJywgJzgnLCAnLW1hJywgJzIwMCcsICctbWV0YWxfYmluZGluZycsICctaW1hZScsICc8aW5maWxlLm1hZT4nLCAnLW9tYWUnLCAnPG91dGZpbGUubWFlPic=

> <r_epik_Ionization_Penalty>
1.57484

> <r_epik_Ionization_Penalty_Charging>
1.57398

> <r_epik_Ionization_Penalty_Neutral>
0.000858917

> <r_epik_State_Penalty>
1.64997

> <r_epik_Charging_Adjusted_Penalty>
3.22395

> <i_epik_Tot_Q>
2

> <i_epik_Tot_abs_Q>
2

> <r_epik_Metal_State_Penalty>
5.70481

> <b_epik_Metal_Only>
0

> <s_lp_Force_Field>
OPLS_2005

> <r_lp_Energy>
22.4556

> <b_lp_Chiralities_Consistent>
1

> <s_lp_Variant>
AV-unprocessed.smi:1669-10

> <Gold.Version>
5.8.1

> <Gold.Id.Protein>
6NUR|6NUR_protein|mol2

> <Gold.PLP.Fitness>
56.4109

> <Gold.PLP.PLP>
-47.0171

> <Gold.PLP.part.hbond>
-5.0000

> <Gold.PLP.part.metal>
0.0000

> <Gold.PLP.part.buried>
-4.2933

> <Gold.PLP.part.nonpolar>
-38.6286

> <Gold.PLP.part.repulsive>
0.1642

> <Gold.PLP.ligand.clash>
0.0000

> <Gold.PLP.ligand.torsion>
1.3209

> <Gold.PLP.Chemscore.Hbond>
3.8576

> <Gold.PLP.Chemscore.CHOScore>
0.0000

> <Gold.PLP.Chemscore.Metal>
0.0000

> <Gold.Chemscore.Hbonds>
donor molecule, donor type, donor heavy atom, donor atom, acceptor molecule, acceptor atom, score
      L1  H    17    43       P1  7957  0.62
      L1  H    18    49       P1  8028  1.70
      P1  H  7989  7998       L1    17  0.32
      P1  H  8011  8017       L1    17  1.00

> <Gold.PLP.Chemscore.Internal.Correction>
0.4628

> <Gold.Rescore>
     Score         DG    S(hbond)    S(metal)    S(lipo)     H(rot)  DE(clash)    DE(int)     intcor
     16.91     -18.20       2.11        0.00     119.96       3.27       0.07       1.22       ----

> <Gold.Chemscore.Fitness>
16.9121

> <Gold.Chemscore.DG>
-18.1983

> <Gold.Chemscore.ZeroCoef>
-5.4800

> <Gold.Chemscore.Hbond>
2.1135

> <Gold.Chemscore.Metal>
0.0000

> <Gold.Chemscore.Lipo>
119.9571

> <Gold.Chemscore.Internal_Hbond>
0.0000

> <Gold.Chemscore.DEClash>
0.0669

> <Gold.Chemscore.DEInternal>
1.2194

> <Gold.Chemscore.Rot>
3.2718

> <Gold.Chemscore.Internal.Correction>
   9.000000E+99

> <Gold.Chemscore.Hbonds>
donor molecule, donor type, donor heavy atom, donor atom, acceptor molecule, acceptor atom, score
      L1  H    17    43       P1  7957  0.62
      L1  H    18    49       P1  8028  0.83
      P1  H  7989  7998       L1    17  0.07
      P1  H  8011  8017       L1    17  0.38

> <Gold.Chemscore.Hbond.Weighted>
-7.0592

> <Gold.Chemscore.Metal.Weighted>
-0.0000

> <Gold.Chemscore.Lipo.Weighted>
-14.0350

> <Gold.Chemscore.Internal_Hbond.Weighted>
0.0000

> <Gold.Chemscore.DEClash.Weighted>
0.0669

> <Gold.Chemscore.DEInternal.Weighted>
1.2194

> <Gold.Chemscore.Rot.Weighted>
8.3759

> <Gold.Chemscore.Internal.Correction.Weighted>
   9.000000E+99

> <Gold.Protein.RotatedTorsions>
[ 6907 6896 6895 6894 ] final -124.51 input  -60.11 | X-H torsion
[ 7974 7965 7964 7962 ] final -148.07 input  175.53 | X-H torsion
[ 8008 7997 7996 7995 ] final   51.49 input   59.86 | X-H torsion
[ 10167 10162 10161 10158 ] final -124.49 input  -65.29 | X-H torsion
[ 10718 10713 10712 10709 ] final   70.68 input   66.30 | X-H torsion
[ 10763 10752 10751 10750 ] final   53.79 input  -60.55 | X-H torsion
[ 11005 11000 10999 10996 ] final   94.02 input  -57.11 | X-H torsion

> <Gold.Protein.ActiveResidues>
 VAL166  LYS551  ARG553  GLY616  TRP617  ASP618  TYR619  PRO620  LYS621  CYS622 
 ASP623  PHE694  ASN695  SER759  ASP760  ASP761  ALA762  ILE779  LEU786  VAL792 
 PHE793  MET794  SER795  GLU796  ALA797  LYS798  CYS799  TRP800  GLU811  SER814 

> <Gold.Protein.RotatedAtoms>
  150.8775  133.7418  159.2941 H   0  0  0  0  0  0  0  0  0  0  0  0  # atno 6907 bound_to 6896
  151.5010  135.1060  159.9838 H   0  0  0  0  0  0  0  0  0  0  0  0  # atno 6908 bound_to 6896
  152.4737  133.8044  159.7025 H   0  0  0  0  0  0  0  0  0  0  0  0  # atno 6909 bound_to 6896
  144.8052  140.5244  143.5680 H   0  0  0  0  0  0  0  0  0  0  0  0  # atno 7974 bound_to 7965
  155.4362  140.3452  155.4285 H   0  0  0  0  0  0  0  0  0  0  0  0  # atno 8008 bound_to 7997
  156.1307  140.1513  156.9100 H   0  0  0  0  0  0  0  0  0  0  0  0  # atno 8009 bound_to 7997
  154.4892  140.0846  156.7536 H   0  0  0  0  0  0  0  0  0  0  0  0  # atno 8010 bound_to 7997
  139.9922  143.5629  152.2337 H   0  0  0  0  0  0  0  0  0  0  0  0  # atno 10167 bound_to 10162
  157.6412  130.9489  150.0684 H   0  0  0  0  0  0  0  0  0  0  0  0  # atno 10718 bound_to 10713
  152.9798  135.5767  154.4799 H   0  0  0  0  0  0  0  0  0  0  0  0  # atno 10763 bound_to 10752
  154.4350  135.2774  155.1889 H   0  0  0  0  0  0  0  0  0  0  0  0  # atno 10764 bound_to 10752
  154.3581  135.6194  153.5730 H   0  0  0  0  0  0  0  0  0  0  0  0  # atno 10765 bound_to 10752
  139.8803  134.8822  156.3803 H   0  0  0  0  0  0  0  0  0  0  0  0  # atno 11005 bound_to 11000
  145.5455  139.1476  143.3423 LP  0  0  0  0  0  0  0  0  0  0  0  0  # atno 17320 bound_to 7965
  146.2342  140.5594  142.8962 LP  0  0  0  0  0  0  0  0  0  0  0  0  # atno 17321 bound_to 7965
  139.6332  144.7647  151.2493 LP  0  0  0  0  0  0  0  0  0  0  0  0  # atno 17342 bound_to 10162
  140.7450  143.6444  150.8305 LP  0  0  0  0  0  0  0  0  0  0  0  0  # atno 17343 bound_to 10162
  156.1695  130.3646  149.9185 LP  0  0  0  0  0  0  0  0  0  0  0  0  # atno 17370 bound_to 10713
  156.7163  130.8990  151.3614 LP  0  0  0  0  0  0  0  0  0  0  0  0  # atno 17371 bound_to 10713
  140.9403  133.7519  156.0138 LP  0  0  0  0  0  0  0  0  0  0  0  0  # atno 17394 bound_to 11000
  140.8227  134.3271  157.5376 LP  0  0  0  0  0  0  0  0  0  0  0  0  # atno 17395 bound_to 11000

$$$$
