AV-unprocessed.smi:2875|AV-procd|sdf|11040|dock8
  -GOLD-   2272015503D 1   1.00000     0.00000
 Structure written by MMmdl.
 40 40  0  0  0  0  0  0  0  0  1 V2000
  152.0356  144.2884  159.2831 C   0  0  0  0  0  0  0  0  0  0  0  0
  151.9068  142.7989  159.6167 C   0  0  0  0  0  0  0  0  0  0  0  0
  151.9541  141.9136  158.3603 C   0  0  0  0  0  0  0  0  0  0  0  0
  152.0721  140.5033  158.6748 N   0  0  0  0  0  0  0  0  0  0  0  0
  151.2452  139.5169  158.1291 C   0  0  0  0  0  0  0  0  0  0  0  0
  150.2663  139.9140  157.2297 N   0  0  0  0  0  0  0  0  0  0  0  0
  151.3812  138.1987  158.4646 C   0  0  0  0  0  0  0  0  0  0  0  0
  150.5731  137.2020  157.8839 N   0  0  0  0  0  0  0  0  0  0  0  0
  149.1638  137.1486  158.3069 C   0  0  0  0  0  0  0  0  0  0  0  0
  149.0038  136.5700  159.7222 C   0  0  0  0  0  0  0  0  0  0  0  0
  147.8835  137.1695  160.3506 O   0  0  0  0  0  0  0  0  0  0  0  0
  147.1622  136.2582  161.1598 C   0  0  0  0  0  0  0  0  0  0  0  0
  151.0741  136.2809  157.0197 C   0  0  0  0  0  0  0  0  0  0  0  0
  150.1303  135.2591  156.3744 C   0  0  0  0  0  0  0  0  0  0  0  0
  152.2645  136.2449  156.7070 O   0  0  0  0  0  0  0  0  0  0  0  0
  152.4389  137.7703  159.3917 C   0  0  0  0  0  0  0  0  0  0  0  0
  152.6568  136.6133  159.7494 O   0  0  0  0  0  0  0  0  0  0  0  0
  153.2455  138.7970  159.8756 N   0  0  0  0  0  0  0  0  0  0  0  0
  153.1200  140.1440  159.5561 C   0  0  0  0  0  0  0  0  0  0  0  0
  153.9110  140.9548  160.0395 O   0  0  0  0  0  0  0  0  0  0  0  0
  153.9902  138.5399  160.5070 H   0  0  0  0  0  0  0  0  0  0  0  0
  151.9927  144.8946  160.1881 H   0  0  0  0  0  0  0  0  0  0  0  0
  151.2299  144.6147  158.6250 H   0  0  0  0  0  0  0  0  0  0  0  0
  152.9824  144.4993  158.7853 H   0  0  0  0  0  0  0  0  0  0  0  0
  152.7084  142.5138  160.2992 H   0  0  0  0  0  0  0  0  0  0  0  0
  150.9720  142.6321  160.1528 H   0  0  0  0  0  0  0  0  0  0  0  0
  151.0748  142.0506  157.7285 H   0  0  0  0  0  0  0  0  0  0  0  0
  152.7992  142.1688  157.7215 H   0  0  0  0  0  0  0  0  0  0  0  0
  150.1447  140.8825  156.9694 H   0  0  0  0  0  0  0  0  0  0  0  0
  149.5910  139.2623  156.8565 H   0  0  0  0  0  0  0  0  0  0  0  0
  148.7281  138.1484  158.2667 H   0  0  0  0  0  0  0  0  0  0  0  0
  148.5754  136.5486  157.6114 H   0  0  0  0  0  0  0  0  0  0  0  0
  148.8925  135.4853  159.6891 H   0  0  0  0  0  0  0  0  0  0  0  0
  149.8996  136.7847  160.3063 H   0  0  0  0  0  0  0  0  0  0  0  0
  146.3134  136.7668  161.6166 H   0  0  0  0  0  0  0  0  0  0  0  0
  147.7882  135.8605  161.9595 H   0  0  0  0  0  0  0  0  0  0  0  0
  146.7767  135.4266  160.5685 H   0  0  0  0  0  0  0  0  0  0  0  0
  149.8091  134.5153  157.1033 H   0  0  0  0  0  0  0  0  0  0  0  0
  150.6347  134.7319  155.5638 H   0  0  0  0  0  0  0  0  0  0  0  0
  149.2488  135.7440  155.9536 H   0  0  0  0  0  0  0  0  0  0  0  0
  1  2  1  0  0  0  0
  1 22  1  0  0  0  0
  1 23  1  0  0  0  0
  1 24  1  0  0  0  0
  2  3  1  0  0  0  0
  2 25  1  0  0  0  0
  2 26  1  0  0  0  0
  3  4  1  0  0  0  0
  3 27  1  0  0  0  0
  3 28  1  0  0  0  0
  4 19  1  0  0  0  0
  4  5  1  0  0  0  0
  5  6  1  0  0  0  0
  5  7  2  0  0  0  0
  6 29  1  0  0  0  0
  6 30  1  0  0  0  0
  7  8  1  0  0  0  0
  7 16  1  0  0  0  0
  8  9  1  0  0  0  0
  8 13  1  0  0  0  0
  9 10  1  0  0  0  0
  9 31  1  0  0  0  0
  9 32  1  0  0  0  0
 10 11  1  0  0  0  0
 10 33  1  0  0  0  0
 10 34  1  0  0  0  0
 11 12  1  0  0  0  0
 12 35  1  0  0  0  0
 12 36  1  0  0  0  0
 12 37  1  0  0  0  0
 13 14  1  0  0  0  0
 13 15  2  0  0  0  0
 14 38  1  0  0  0  0
 14 39  1  0  0  0  0
 14 40  1  0  0  0  0
 16 17  2  0  0  0  0
 16 18  1  0  0  0  0
 18 21  1  0  0  0  0
 18 19  1  0  0  0  0
 19 20  2  0  0  0  0
M  END
> <s_m_source_file>
AV-unprocessed.smi

> <i_m_source_file_index>
2875

> <i_lp_mmshare_version>
43012

> <i_f3d_flags>
0

> <s_epik_input>
W0NIM11bQ0gyXVtDSDJdbjFjKFtOSDJdKWMoYyg9TylbbkhdYzE9TylOKEMoPU8pW0NIM10pW0NIMl1bQ0gyXU9bQ0gzXQ==

> <s_epik_cmdline>
J2VwaWtfcHl0aG9uJywgJy1waCcsICc3LjAnLCAnLXRuJywgJzgnLCAnLW1hJywgJzIwMCcsICctbWV0YWxfYmluZGluZycsICctaW1hZScsICc8aW5maWxlLm1hZT4nLCAnLW9tYWUnLCAnPG91dGZpbGUubWFlPic=

> <r_lp_tautomer_probability>
1

> <r_epik_Ionization_Penalty>
1.36284e-05

> <r_epik_Ionization_Penalty_Charging>
6.32507e-06

> <r_epik_Ionization_Penalty_Neutral>
7.30329e-06

> <r_epik_State_Penalty>
-0

> <r_epik_Charging_Adjusted_Penalty>
6.32507e-06

> <i_epik_Tot_Q>
0

> <i_epik_Tot_abs_Q>
0

> <r_epik_Metal_State_Penalty>
0.00594323

> <b_epik_Metal_Only>
0

> <s_epik_Chemistry_Notes>
This compound has an imine and may undergo hydrolysis.

> <s_lp_Force_Field>
OPLS_2005

> <r_lp_Energy>
24.7155

> <b_lp_Chiralities_Consistent>
1

> <s_lp_Variant>
AV-unprocessed.smi:2875-1

> <Gold.Version>
5.8.1

> <Gold.Id.Protein>
6NUR|6NUR_protein|mol2

> <Gold.PLP.Fitness>
40.6981

> <Gold.PLP.PLP>
-32.1274

> <Gold.PLP.part.hbond>
-4.0000

> <Gold.PLP.part.metal>
0.0000

> <Gold.PLP.part.buried>
-5.1619

> <Gold.PLP.part.nonpolar>
-23.3444

> <Gold.PLP.part.repulsive>
0.0963

> <Gold.PLP.ligand.clash>
0.0000

> <Gold.PLP.ligand.torsion>
2.0825

> <Gold.PLP.Chemscore.Hbond>
3.4743

> <Gold.PLP.Chemscore.CHOScore>
0.0000

> <Gold.PLP.Chemscore.Metal>
0.0000

> <Gold.Chemscore.Hbonds>
donor molecule, donor type, donor heavy atom, donor atom, acceptor molecule, acceptor atom, score
      P1  H  6896  6907       L1    17  1.00
      P1  H  6931  6943       L1    11  0.32
      P1  H  6934  6947       L1    11  0.76
      P1  H 10752 10765       L1    15  1.00

> <Gold.PLP.Chemscore.Internal.Correction>
2.3129

> <Gold.Rescore>
     Score         DG    S(hbond)    S(metal)    S(lipo)     H(rot)  DE(clash)    DE(int)     intcor
     13.65     -16.09       2.84        0.00      55.01       2.08       0.01       2.43       ----

> <Gold.Chemscore.Fitness>
13.6544

> <Gold.Chemscore.DG>
-16.0910

> <Gold.Chemscore.ZeroCoef>
-5.4800

> <Gold.Chemscore.Hbond>
2.8415

> <Gold.Chemscore.Metal>
0.0000

> <Gold.Chemscore.Lipo>
55.0076

> <Gold.Chemscore.Internal_Hbond>
0.0000

> <Gold.Chemscore.DEClash>
0.0081

> <Gold.Chemscore.DEInternal>
2.4286

> <Gold.Chemscore.Rot>
2.0763

> <Gold.Chemscore.Internal.Correction>
   9.000000E+99

> <Gold.Chemscore.Hbonds>
donor molecule, donor type, donor heavy atom, donor atom, acceptor molecule, acceptor atom, score
      P1  H  6896  6907       L1    17  1.00
      P1  H  6931  6943       L1    11  0.01
      P1  H  6934  6947       L1    11  0.36
      P1  H 10752 10765       L1    15  0.97

> <Gold.Chemscore.Hbond.Weighted>
-9.4905

> <Gold.Chemscore.Metal.Weighted>
-0.0000

> <Gold.Chemscore.Lipo.Weighted>
-6.4359

> <Gold.Chemscore.Internal_Hbond.Weighted>
0.0000

> <Gold.Chemscore.DEClash.Weighted>
0.0081

> <Gold.Chemscore.DEInternal.Weighted>
2.4286

> <Gold.Chemscore.Rot.Weighted>
5.3153

> <Gold.Chemscore.Internal.Correction.Weighted>
   9.000000E+99

> <Gold.Protein.RotatedTorsions>
[ 6907 6896 6895 6894 ] final   28.32 input  -60.11 | X-H torsion
[ 7974 7965 7964 7962 ] final  108.09 input  175.53 | X-H torsion
[ 8008 7997 7996 7995 ] final  -71.87 input   59.86 | X-H torsion
[ 10167 10162 10161 10158 ] final  -87.27 input  -65.29 | X-H torsion
[ 10718 10713 10712 10709 ] final  129.44 input   66.30 | X-H torsion
[ 10763 10752 10751 10750 ] final -138.05 input  -60.55 | X-H torsion
[ 11005 11000 10999 10996 ] final   87.32 input  -57.11 | X-H torsion

> <Gold.Protein.ActiveResidues>
 VAL166  LYS551  ARG553  GLY616  TRP617  ASP618  TYR619  PRO620  LYS621  CYS622 
 ASP623  PHE694  ASN695  SER759  ASP760  ASP761  ALA762  ILE779  LEU786  VAL792 
 PHE793  MET794  SER795  GLU796  ALA797  LYS798  CYS799  TRP800  GLU811  SER814 

> <Gold.Protein.RotatedAtoms>
  152.0152  134.9854  160.0568 H   0  0  0  0  0  0  0  0  0  0  0  0  # atno 6907 bound_to 6896
  152.1391  133.4448  159.4766 H   0  0  0  0  0  0  0  0  0  0  0  0  # atno 6908 bound_to 6896
  150.6863  134.2246  159.4453 H   0  0  0  0  0  0  0  0  0  0  0  0  # atno 6909 bound_to 6896
  145.2852  139.2619  143.3894 H   0  0  0  0  0  0  0  0  0  0  0  0  # atno 7974 bound_to 7965
  154.5121  140.0807  156.8011 H   0  0  0  0  0  0  0  0  0  0  0  0  # atno 8008 bound_to 7997
  155.3761  140.3425  155.4227 H   0  0  0  0  0  0  0  0  0  0  0  0  # atno 8009 bound_to 7997
  156.1586  140.1581  156.8638 H   0  0  0  0  0  0  0  0  0  0  0  0  # atno 8010 bound_to 7997
  140.3861  143.2726  151.9323 H   0  0  0  0  0  0  0  0  0  0  0  0  # atno 10167 bound_to 10162
  157.5154  131.1097  150.9233 H   0  0  0  0  0  0  0  0  0  0  0  0  # atno 10718 bound_to 10713
  154.8646  135.3623  154.5323 H   0  0  0  0  0  0  0  0  0  0  0  0  # atno 10763 bound_to 10752
  153.5948  135.7014  153.5413 H   0  0  0  0  0  0  0  0  0  0  0  0  # atno 10764 bound_to 10752
  153.3342  135.4116  155.1481 H   0  0  0  0  0  0  0  0  0  0  0  0  # atno 10765 bound_to 10752
  139.8922  134.8415  156.2844 H   0  0  0  0  0  0  0  0  0  0  0  0  # atno 11005 bound_to 11000
  146.3203  140.3330  142.8642 LP  0  0  0  0  0  0  0  0  0  0  0  0  # atno 17320 bound_to 7965
  144.9219  140.7877  143.5743 LP  0  0  0  0  0  0  0  0  0  0  0  0  # atno 17321 bound_to 7965
  139.4792  144.5772  151.7992 LP  0  0  0  0  0  0  0  0  0  0  0  0  # atno 17342 bound_to 10162
  140.4888  144.1341  150.5946 LP  0  0  0  0  0  0  0  0  0  0  0  0  # atno 17343 bound_to 10162
  156.9860  130.5545  149.5299 LP  0  0  0  0  0  0  0  0  0  0  0  0  # atno 17370 bound_to 10713
  156.0316  130.5407  150.8550 LP  0  0  0  0  0  0  0  0  0  0  0  0  # atno 17371 bound_to 10713
  141.0017  133.7147  156.0971 LP  0  0  0  0  0  0  0  0  0  0  0  0  # atno 17394 bound_to 11000
  140.7488  134.4068  157.5544 LP  0  0  0  0  0  0  0  0  0  0  0  0  # atno 17395 bound_to 11000

$$$$
