#       Name:                AV-unprocessed.smi:1796
#       Creating user name   scv26
#       Creation time:       Fri Mar 27 08:50:44 2020


#       File generated by GOLD software.
#

@<TRIPOS>MOLECULE
AV-unprocessed.smi:1796
    47    48     1
SMALL
NO_CHARGES


@<TRIPOS>ATOM
      1 ****        -4.7975  -1.4789  -0.6204 C.3            1 S1                 0.0000
      2 ****        -3.3010  -1.2327  -0.8258 C.2            1 S1                 0.0000
      3 ****        -2.6257  -2.1440  -1.3046 O.2            1 S1                 0.0000
      4 ****        -2.7724  -0.0354  -0.4754 N.am           1 S1                 0.0000
      5 ****        -3.5057   1.0608   0.1712 C.3            1 S1                 0.0000
      6 ****        -3.0258   1.1830   1.6282 C.3            1 S1                 0.0000
      7 ****        -1.5007   1.3921   1.6890 C.3            1 S1                 0.0000
      8 ****        -0.7434   0.3323   0.8536 C.3            1 S1                 0.0000
      9 ****         0.7592   0.6313   0.7891 C.2            1 S1                 0.0000
     10 ****         1.1566   1.7320   0.4050 O.2            1 S1                 0.0000
     11 ****         1.5827  -0.3702   1.1389 N.am           1 S1                 0.0000
     12 ****         3.0415  -0.3473   1.0396 C.3            1 S1                 0.0000
     13 ****         3.6397  -1.0234   2.2806 C.3            1 S1                 0.0000
     14 ****         3.5120  -1.0373  -0.2593 C.3            1 S1                 0.0000
     15 ****         3.0693  -0.3418  -1.4559 N.pl3          1 S1                 0.0000
     16 ****         3.5613   0.8266  -1.9984 C.2            1 S1                 0.0000
     17 ****         2.8154   1.1054  -3.1074 C.2            1 S1                 0.0000
     18 ****         1.8810   0.0338  -3.1646 C.2            1 S1                 0.0000
     19 ****         2.0388  -0.8338  -2.1783 N.2            1 S1                 0.0000
     20 ****        -1.3365   0.2553  -0.5716 C.3            1 S1                 0.0000
     21 ****        -5.0695  -1.3604   0.4288 H              1 S1                 0.0000
     22 ****        -5.0653  -2.4926  -0.9207 H              1 S1                 0.0000
     23 ****        -5.3882  -0.7868  -1.2210 H              1 S1                 0.0000
     24 ****        -3.3054   1.9897  -0.3648 H              1 S1                 0.0000
     25 ****        -4.5876   0.9397   0.1455 H              1 S1                 0.0000
     26 ****        -3.5352   2.0101   2.1230 H              1 S1                 0.0000
     27 ****        -3.2943   0.2795   2.1775 H              1 S1                 0.0000
     28 ****        -1.2738   2.3926   1.3170 H              1 S1                 0.0000
     29 ****        -1.1652   1.3668   2.7265 H              1 S1                 0.0000
     30 ****        -0.8817  -0.6388   1.3332 H              1 S1                 0.0000
     31 ****         1.1640  -1.2378   1.4417 H              1 S1                 0.0000
     32 ****         3.3969   0.6847   1.0343 H              1 S1                 0.0000
     33 ****         4.7295  -1.0027   2.2505 H              1 S1                 0.0000
     34 ****         3.3302  -2.0665   2.3544 H              1 S1                 0.0000
     35 ****         3.3270  -0.5164   3.1940 H              1 S1                 0.0000
     36 ****         4.6015  -1.0796  -0.2853 H              1 S1                 0.0000
     37 ****         3.1611  -2.0703  -0.2940 H              1 S1                 0.0000
     38 ****         4.3863   1.3599  -1.5494 H              1 S1                 0.0000
     39 ****         2.9193   1.9483  -3.7743 H              1 S1                 0.0000
     40 ****         1.0983  -0.1382  -3.8885 H              1 S1                 0.0000
     41 ****        -0.7999  -0.4888  -1.1629 H              1 S1                 0.0000
     42 ****        -1.1988   1.2014  -1.0981 H              1 S1                 0.0000
     43 ****        -3.0579  -3.0127  -1.5465 LP             1 S1                 0.0000
     44 ****        -1.6449  -2.0155  -1.4516 LP             1 S1                 0.0000
     45 ****         0.4986   2.4344   0.1338 LP             1 S1                 0.0000
     46 ****         2.1374   1.9232   0.3643 LP             1 S1                 0.0000
     47 ****         1.5133  -1.6670  -2.0061 LP             1 S1                 0.0000
@<TRIPOS>BOND
    1    1    2 1     
    2    1   21 1     
    3    1   22 1     
    4    1   23 1     
    5    2    3 2     
    6    2    4 am    
    7    4   20 1     
    8    4    5 1     
    9    5    6 1     
   10    5   24 1     
   11    5   25 1     
   12    6    7 1     
   13    6   26 1     
   14    6   27 1     
   15    7    8 1     
   16    7   28 1     
   17    7   29 1     
   18    8    9 1     
   19    8   20 1     
   20    8   30 1     
   21    9   10 2     
   22    9   11 am    
   23   11   12 1     
   24   11   31 1     
   25   12   13 1     
   26   12   14 1     
   27   12   32 1     
   28   13   33 1     
   29   13   34 1     
   30   13   35 1     
   31   14   15 1     
   32   14   36 1     
   33   14   37 1     
   34   15   19 1     
   35   15   16 1     
   36   16   17 2     
   37   16   38 1     
   38   17   18 1     
   39   17   39 1     
   40   18   19 2     
   41   18   40 1     
   42   20   41 1     
   43   20   42 1     
   44    3   43 1     
   45    3   44 1     
   46   10   45 1     
   47   10   46 1     
   48   19   47 1     
@<TRIPOS>SUBSTRUCTURE
      1 S1             1
@<TRIPOS>SET
LONE_PAIRS      STATIC     ATOMS    <user>   **** ""
5 43 44 45 46 47
DONOR_HYDROGENS      STATIC     ATOMS    <user>   **** ""
1 31
ATOM$BLUE        STATIC     ATOMS    COLORGROUP SYSTEM
5 43 44 45 46 47
ATOM$RED        STATIC     ATOMS    COLORGROUP SYSTEM
1 31
