AV-unprocessed.smi:109|AV-procd|sdf|1048|dock10
  -GOLD-   2262018 93D 1   1.00000     0.00000
 Structure written by MMmdl.
 58 61  0  0  0  0  0  0  0  0  1 V2000
  149.1961  142.1961  154.3096 O   0  0  0  0  0  0  0  0  0  0  0  0
  149.8157  141.4655  155.3459 C   0  0  0  0  0  0  0  0  0  0  0  0
  149.1313  141.7750  156.6890 C   0  0  0  0  0  0  0  0  0  0  0  0
  149.8668  141.1971  157.9234 C   0  0  1  0  0  0  0  0  0  0  0  0
  150.0579  139.7556  157.7454 N   0  0  0  0  0  0  0  0  0  0  0  0
  149.0174  138.9088  157.5792 C   0  0  0  0  0  0  0  0  0  0  0  0
  148.1958  138.9954  156.5007 N   0  0  0  0  0  0  0  0  0  0  0  0
  147.1800  138.1382  156.3609 C   0  0  0  0  0  0  0  0  0  0  0  0
  146.8163  137.1368  157.1656 N   0  0  0  0  0  0  0  0  0  0  0  0
  147.6392  137.0477  158.2505 C   0  0  0  0  0  0  0  0  0  0  0  0
  148.7512  137.8890  158.5284 C   0  0  0  0  0  0  0  0  0  0  0  0
  149.3550  137.4931  159.7146 N   0  0  0  0  0  0  0  0  0  0  0  0
  148.6418  136.4710  160.1058 C   0  0  0  0  0  0  0  0  0  0  0  0
  147.5895  136.1344  159.2807 N   0  0  0  0  0  0  0  0  0  0  0  0
  146.5919  135.0236  159.4187 C   0  0  2  0  0  0  0  0  0  0  0  0
  145.8764  135.2513  160.5954 O   0  0  0  0  0  0  0  0  0  0  0  0
  146.1140  134.2150  161.5449 C   0  0  2  0  0  0  0  0  0  0  0  0
  146.1988  134.8140  162.9584 C   0  0  0  0  0  0  0  0  0  0  0  0
  147.1325  135.8717  162.9959 O   0  0  0  0  0  0  0  0  0  0  0  0
  147.3854  133.5049  161.0649 C   0  0  1  0  0  0  0  0  0  0  0  0
  147.3657  132.1377  161.4234 O   0  0  0  0  0  0  0  0  0  0  0  0
  147.2857  133.6547  159.5562 C   0  0  2  0  0  0  0  0  0  0  0  0
  148.5676  133.5852  158.9566 O   0  0  0  0  0  0  0  0  0  0  0  0
  151.2412  141.8692  158.2052 C   0  0  0  0  0  0  0  0  0  0  0  0
  151.8605  141.3304  159.5205 C   0  0  0  0  0  0  0  0  0  0  0  0
  153.2197  141.9724  159.8394 C   0  0  0  0  0  0  0  0  0  0  0  0
  153.1069  143.4998  159.9101 C   0  0  0  0  0  0  0  0  0  0  0  0
  152.5227  144.0569  158.6068 C   0  0  0  0  0  0  0  0  0  0  0  0
  151.1643  143.4150  158.2796 C   0  0  0  0  0  0  0  0  0  0  0  0
  145.9527  135.1108  158.5393 H   0  0  0  0  0  0  0  0  0  0  0  0
  145.2591  133.5393  161.4739 H   0  0  0  0  0  0  0  0  0  0  0  0
  148.2776  133.9997  161.4521 H   0  0  0  0  0  0  0  0  0  0  0  0
  146.6230  132.8999  159.1297 H   0  0  0  0  0  0  0  0  0  0  0  0
  148.9556  143.0472  154.6427 H   0  0  0  0  0  0  0  0  0  0  0  0
  149.7491  140.4017  155.1170 H   0  0  0  0  0  0  0  0  0  0  0  0
  150.8728  141.7302  155.3695 H   0  0  0  0  0  0  0  0  0  0  0  0
  149.0119  142.8536  156.8025 H   0  0  0  0  0  0  0  0  0  0  0  0
  148.1271  141.3582  156.6316 H   0  0  0  0  0  0  0  0  0  0  0  0
  149.2429  141.3992  158.7935 H   0  0  0  0  0  0  0  0  0  0  0  0
  151.0157  139.4629  157.6153 H   0  0  0  0  0  0  0  0  0  0  0  0
  146.5739  138.2734  155.4771 H   0  0  0  0  0  0  0  0  0  0  0  0
  148.8723  135.9317  161.0116 H   0  0  0  0  0  0  0  0  0  0  0  0
  145.2274  135.1729  163.2977 H   0  0  0  0  0  0  0  0  0  0  0  0
  146.5255  134.0523  163.6667 H   0  0  0  0  0  0  0  0  0  0  0  0
  146.7385  136.6351  162.6018 H   0  0  0  0  0  0  0  0  0  0  0  0
  147.8807  132.0288  162.2083 H   0  0  0  0  0  0  0  0  0  0  0  0
  148.6528  132.7467  158.5288 H   0  0  0  0  0  0  0  0  0  0  0  0
  151.9156  141.6132  157.3863 H   0  0  0  0  0  0  0  0  0  0  0  0
  151.1732  141.5111  160.3482 H   0  0  0  0  0  0  0  0  0  0  0  0
  151.9958  140.2499  159.4694 H   0  0  0  0  0  0  0  0  0  0  0  0
  153.5999  141.5848  160.7848 H   0  0  0  0  0  0  0  0  0  0  0  0
  153.9456  141.6921  159.0750 H   0  0  0  0  0  0  0  0  0  0  0  0
  152.4711  143.7841  160.7497 H   0  0  0  0  0  0  0  0  0  0  0  0
  154.0867  143.9395  160.0990 H   0  0  0  0  0  0  0  0  0  0  0  0
  152.4123  145.1391  158.6831 H   0  0  0  0  0  0  0  0  0  0  0  0
  153.2191  143.8753  157.7872 H   0  0  0  0  0  0  0  0  0  0  0  0
  150.8281  143.8322  157.3319 H   0  0  0  0  0  0  0  0  0  0  0  0
  150.4303  143.7119  159.0299 H   0  0  0  0  0  0  0  0  0  0  0  0
  1  2  1  0  0  0  0
  1 34  1  0  0  0  0
  2  3  1  0  0  0  0
  2 35  1  0  0  0  0
  2 36  1  0  0  0  0
  3  4  1  0  0  0  0
  3 37  1  0  0  0  0
  3 38  1  0  0  0  0
  4  5  1  0  0  0  0
  4 24  1  0  0  0  0
  4 39  1  0  0  0  0
  5  6  1  0  0  0  0
  5 40  1  0  0  0  0
  6 11  1  0  0  0  0
  6  7  2  0  0  0  0
  7  8  1  0  0  0  0
  8  9  2  0  0  0  0
  8 41  1  0  0  0  0
  9 10  1  0  0  0  0
 10 14  1  0  0  0  0
 10 11  2  0  0  0  0
 11 12  1  0  0  0  0
 12 13  2  0  0  0  0
 13 14  1  0  0  0  0
 13 42  1  0  0  0  0
 14 15  1  0  0  0  0
 15 30  1  0  0  0  0
 15 22  1  0  0  0  0
 15 16  1  0  0  0  0
 16 17  1  0  0  0  0
 17 31  1  0  0  0  0
 17 18  1  0  0  0  0
 17 20  1  0  0  0  0
 18 19  1  0  0  0  0
 18 43  1  0  0  0  0
 18 44  1  0  0  0  0
 19 45  1  0  0  0  0
 20 32  1  0  0  0  0
 20 21  1  0  0  0  0
 20 22  1  0  0  0  0
 21 46  1  0  0  0  0
 22 33  1  0  0  0  0
 22 23  1  0  0  0  0
 23 47  1  0  0  0  0
 24 29  1  0  0  0  0
 24 25  1  0  0  0  0
 24 48  1  0  0  0  0
 25 26  1  0  0  0  0
 25 49  1  0  0  0  0
 25 50  1  0  0  0  0
 26 27  1  0  0  0  0
 26 51  1  0  0  0  0
 26 52  1  0  0  0  0
 27 28  1  0  0  0  0
 27 53  1  0  0  0  0
 27 54  1  0  0  0  0
 28 29  1  0  0  0  0
 28 55  1  0  0  0  0
 28 56  1  0  0  0  0
 29 57  1  0  0  0  0
 29 58  1  0  0  0  0
M  END
> <s_m_source_file>
AV-unprocessed.smi

> <i_m_source_file_index>
109

> <i_lp_mmshare_version>
43012

> <i_f3d_flags>
0

> <s_epik_input>
W0NIMl0xW0NIMl1bQ0gyXVtDSDJdW0NIMl1bQ0hdMVtDQEhdKFtDSDJdW0NIMl1bT0hdKVtOSF1jKG5bY0hdbjIpYyhjMjMpbltjSF1uM1tDQEBIXTRPW0NASF0oW0NIMl1bT0hdKVtDQEBIXShbT0hdKVtDQEhdNFtPSF0=

> <s_epik_cmdline>
J2VwaWtfcHl0aG9uJywgJy1waCcsICc3LjAnLCAnLXRuJywgJzgnLCAnLW1hJywgJzIwMCcsICctbWV0YWxfYmluZGluZycsICctaW1hZScsICc8aW5maWxlLm1hZT4nLCAnLW9tYWUnLCAnPG91dGZpbGUubWFlPic=

> <r_lp_tautomer_probability>
1

> <r_epik_Ionization_Penalty>
0.000793976

> <r_epik_Ionization_Penalty_Charging>
0

> <r_epik_Ionization_Penalty_Neutral>
0.000793976

> <r_epik_State_Penalty>
-0

> <r_epik_Charging_Adjusted_Penalty>
0

> <i_epik_Tot_Q>
0

> <i_epik_Tot_abs_Q>
0

> <r_epik_Metal_State_Penalty>
-0

> <b_epik_Metal_Only>
0

> <s_epik_Chemistry_Notes>
This compound contains an acetal/aminal-like group ( X-CH(R)-Y where X, Y are N, S, or O) that may be acid/base labile, releasing an aldehyde.

> <s_lp_Force_Field>
OPLS_2005

> <r_lp_Energy>
53.2153

> <b_lp_Chiralities_Consistent>
1

> <s_lp_Variant>
AV-unprocessed.smi:109-18

> <Gold.Version>
5.8.1

> <Gold.Id.Protein>
6NUR|6NUR_protein|mol2

> <Gold.PLP.Fitness>
49.0399

> <Gold.PLP.PLP>
-43.4386

> <Gold.PLP.part.hbond>
-4.2460

> <Gold.PLP.part.metal>
0.0000

> <Gold.PLP.part.buried>
-4.9716

> <Gold.PLP.part.nonpolar>
-34.2647

> <Gold.PLP.part.repulsive>
0.0907

> <Gold.PLP.ligand.clash>
0.0000

> <Gold.PLP.ligand.torsion>
0.7349

> <Gold.PLP.Chemscore.Hbond>
2.3016

> <Gold.PLP.Chemscore.CHOScore>
0.0000

> <Gold.PLP.Chemscore.Metal>
0.0000

> <Gold.Chemscore.Hbonds>
donor molecule, donor type, donor heavy atom, donor atom, acceptor molecule, acceptor atom, score
      L1  H     1    34       P1  8028  1.00
      P1  H  6896  6907       L1    23  0.45
      P1  H  6931  6943       L1    12  0.02
      P1  H  8011  8017       L1     1  0.25

> <Gold.PLP.Chemscore.Internal.Correction>
0.1663

> <Gold.Rescore>
     Score         DG    S(hbond)    S(metal)    S(lipo)     H(rot)  DE(clash)    DE(int)     intcor
      8.86     -10.78       2.08        0.00     105.45       5.47       0.03       1.89       ----

> <Gold.Chemscore.Fitness>
8.8609

> <Gold.Chemscore.DG>
-10.7808

> <Gold.Chemscore.ZeroCoef>
-5.4800

> <Gold.Chemscore.Hbond>
2.0827

> <Gold.Chemscore.Metal>
0.0000

> <Gold.Chemscore.Lipo>
105.4541

> <Gold.Chemscore.Internal_Hbond>
0.0000

> <Gold.Chemscore.DEClash>
0.0292

> <Gold.Chemscore.DEInternal>
1.8907

> <Gold.Chemscore.Rot>
5.4662

> <Gold.Chemscore.Internal.Correction>
   9.000000E+99

> <Gold.Chemscore.Hbonds>
donor molecule, donor type, donor heavy atom, donor atom, acceptor molecule, acceptor atom, score
      L1  H     1    34       P1  8028  0.99
      P1  H  6896  6907       L1    23  0.06
      P1  H  8011  8017       L1     1  0.15

> <Gold.Chemscore.Hbond.Weighted>
-6.9561

> <Gold.Chemscore.Metal.Weighted>
-0.0000

> <Gold.Chemscore.Lipo.Weighted>
-12.3381

> <Gold.Chemscore.Internal_Hbond.Weighted>
0.0000

> <Gold.Chemscore.DEClash.Weighted>
0.0292

> <Gold.Chemscore.DEInternal.Weighted>
1.8907

> <Gold.Chemscore.Rot.Weighted>
13.9935

> <Gold.Chemscore.Internal.Correction.Weighted>
   9.000000E+99

> <Gold.Protein.RotatedTorsions>
[ 6907 6896 6895 6894 ] final -114.55 input  -60.11 | X-H torsion
[ 7974 7965 7964 7962 ] final  -25.49 input  175.53 | X-H torsion
[ 8008 7997 7996 7995 ] final -131.29 input   59.86 | X-H torsion
[ 10167 10162 10161 10158 ] final   27.08 input  -65.29 | X-H torsion
[ 10718 10713 10712 10709 ] final   10.09 input   66.30 | X-H torsion
[ 10763 10752 10751 10750 ] final  114.09 input  -60.55 | X-H torsion
[ 11005 11000 10999 10996 ] final   33.54 input  -57.11 | X-H torsion

> <Gold.Protein.ActiveResidues>
 VAL166  LYS551  ARG553  GLY616  TRP617  ASP618  TYR619  PRO620  LYS621  CYS622 
 ASP623  PHE694  ASN695  SER759  ASP760  ASP761  ALA762  ILE779  LEU786  VAL792 
 PHE793  MET794  SER795  GLU796  ALA797  LYS798  CYS799  TRP800  GLU811  SER814 

> <Gold.Protein.RotatedAtoms>
  150.7910  133.8785  159.3278 H   0  0  0  0  0  0  0  0  0  0  0  0  # atno 6907 bound_to 6896
  151.6623  135.0986  160.0191 H   0  0  0  0  0  0  0  0  0  0  0  0  # atno 6908 bound_to 6896
  152.3984  133.6742  159.6331 H   0  0  0  0  0  0  0  0  0  0  0  0  # atno 6909 bound_to 6896
  146.1487  140.4893  142.8620 H   0  0  0  0  0  0  0  0  0  0  0  0  # atno 7974 bound_to 7965
  155.3099  140.0457  157.3034 H   0  0  0  0  0  0  0  0  0  0  0  0  # atno 8008 bound_to 7997
  154.5439  140.2296  155.8562 H   0  0  0  0  0  0  0  0  0  0  0  0  # atno 8009 bound_to 7997
  156.1906  140.3051  155.9331 H   0  0  0  0  0  0  0  0  0  0  0  0  # atno 8010 bound_to 7997
  140.4968  144.0378  150.6317 H   0  0  0  0  0  0  0  0  0  0  0  0  # atno 10167 bound_to 10162
  156.9759  130.5987  149.5672 H   0  0  0  0  0  0  0  0  0  0  0  0  # atno 10718 bound_to 10713
  153.5022  135.3636  155.2545 H   0  0  0  0  0  0  0  0  0  0  0  0  # atno 10763 bound_to 10752
  154.8747  135.4002  154.3465 H   0  0  0  0  0  0  0  0  0  0  0  0  # atno 10764 bound_to 10752
  153.4103  135.7077  153.6430 H   0  0  0  0  0  0  0  0  0  0  0  0  # atno 10765 bound_to 10752
  140.2620  134.3181  155.7854 H   0  0  0  0  0  0  0  0  0  0  0  0  # atno 11005 bound_to 11000
  144.7878  140.5971  143.6562 LP  0  0  0  0  0  0  0  0  0  0  0  0  # atno 17320 bound_to 7965
  145.4875  139.1491  143.3728 LP  0  0  0  0  0  0  0  0  0  0  0  0  # atno 17321 bound_to 7965
  140.3663  143.2879  152.0328 LP  0  0  0  0  0  0  0  0  0  0  0  0  # atno 17342 bound_to 10162
  139.4863  144.6264  151.7155 LP  0  0  0  0  0  0  0  0  0  0  0  0  # atno 17343 bound_to 10162
  156.0264  130.5357  150.8417 LP  0  0  0  0  0  0  0  0  0  0  0  0  # atno 17370 bound_to 10713
  157.5560  131.0945  150.9628 LP  0  0  0  0  0  0  0  0  0  0  0  0  # atno 17371 bound_to 10713
  141.2189  133.7415  156.9202 LP  0  0  0  0  0  0  0  0  0  0  0  0  # atno 17394 bound_to 11000
  140.1455  134.9265  157.2524 LP  0  0  0  0  0  0  0  0  0  0  0  0  # atno 17395 bound_to 11000

$$$$
