AV-unprocessed.smi:2807|AV-procd|sdf|10823|dock9
  -GOLD-   2272015263D 1   1.00000     0.00000
 Structure written by MMmdl.
 31 32  0  0  0  0  0  0  0  0  2 V2000
  152.4561  140.2302  156.8775 O   0  0  0  0  0  0  0  0  0  0  0  0
  152.0912  140.0427  158.0443 C   0  0  0  0  0  0  0  0  0  0  0  0
  151.2305  140.7663  158.8163 N   0  5  0  0  0  0  0  0  0  0  0  0
  151.1300  142.2242  158.7841 C   0  0  1  0  0  0  0  0  0  0  0  0
  152.2604  142.8878  159.5817 C   0  0  0  0  0  0  0  0  0  0  0  0
  152.4320  144.2858  158.9672 C   0  0  0  0  0  0  0  0  0  0  0  0
  151.7508  144.2429  157.5891 C   0  0  0  0  0  0  0  0  0  0  0  0
  151.3453  142.7781  157.3701 C   0  0  2  0  0  0  0  0  0  0  0  0
  150.1826  142.6731  156.5739 O   0  0  0  0  0  0  0  0  0  0  0  0
  152.6310  138.8067  158.7946 C   0  0  0  0  0  0  0  0  0  0  0  0
  151.6008  138.0516  159.1842 F   0  0  0  0  0  0  0  0  0  0  0  0
  153.3769  138.0702  157.9642 F   0  0  0  0  0  0  0  0  0  0  0  0
  153.4222  139.2264  160.0333 C   0  0  0  0  0  0  0  0  0  0  0  0
  153.9513  138.2522  160.9106 C   0  0  0  0  0  0  0  0  0  0  0  0
  154.6520  138.6803  162.0540 C   0  0  0  0  0  0  0  0  0  0  0  0
  154.8026  140.0615  162.2796 C   0  0  0  0  0  0  0  0  0  0  0  0
  154.2438  140.9563  161.3459 C   0  0  0  0  0  0  0  0  0  0  0  0
  153.5712  140.5562  160.2465 N   0  0  0  0  0  0  0  0  0  0  0  0
  150.1733  142.5902  159.1631 H   0  0  0  0  0  0  0  0  0  0  0  0
  152.0452  142.9275  160.6500 H   0  0  0  0  0  0  0  0  0  0  0  0
  153.1900  142.3288  159.4571 H   0  0  0  0  0  0  0  0  0  0  0  0
  151.9652  145.0474  159.5940 H   0  0  0  0  0  0  0  0  0  0  0  0
  153.4887  144.5429  158.8825 H   0  0  0  0  0  0  0  0  0  0  0  0
  150.8756  144.8965  157.5970 H   0  0  0  0  0  0  0  0  0  0  0  0
  152.4081  144.5996  156.7950 H   0  0  0  0  0  0  0  0  0  0  0  0
  152.1656  142.2521  156.8779 H   0  0  0  0  0  0  0  0  0  0  0  0
  149.8619  143.5461  156.4084 H   0  0  0  0  0  0  0  0  0  0  0  0
  153.8105  137.1992  160.7154 H   0  0  0  0  0  0  0  0  0  0  0  0
  155.0633  137.9617  162.7472 H   0  0  0  0  0  0  0  0  0  0  0  0
  155.3315  140.4267  163.1472 H   0  0  0  0  0  0  0  0  0  0  0  0
  154.3400  142.0227  161.4861 H   0  0  0  0  0  0  0  0  0  0  0  0
  1  2  2  0  0  0  0
  2  3  1  0  0  0  0
  2 10  1  0  0  0  0
  3  4  1  0  0  0  0
  4  8  1  0  0  0  0
  4  5  1  0  0  0  0
  4 19  1  0  0  0  0
  5  6  1  0  0  0  0
  5 20  1  0  0  0  0
  5 21  1  0  0  0  0
  6  7  1  0  0  0  0
  6 22  1  0  0  0  0
  6 23  1  0  0  0  0
  7  8  1  0  0  0  0
  7 24  1  0  0  0  0
  7 25  1  0  0  0  0
  8  9  1  0  0  0  0
  8 26  1  0  0  0  0
  9 27  1  0  0  0  0
 10 11  1  0  0  0  0
 10 12  1  0  0  0  0
 10 13  1  0  0  0  0
 13 18  1  0  0  0  0
 13 14  2  0  0  0  0
 14 15  1  0  0  0  0
 14 28  1  0  0  0  0
 15 16  2  0  0  0  0
 15 29  1  0  0  0  0
 16 17  1  0  0  0  0
 16 30  1  0  0  0  0
 17 18  2  0  0  0  0
 17 31  1  0  0  0  0
M  CHG  1   3  -1
M  END
> <s_m_source_file>
AV-unprocessed.smi

> <i_m_source_file_index>
2807

> <i_lp_mmshare_version>
43012

> <i_f3d_flags>
0

> <s_epik_input>
bjFbY0hdW2NIXVtjSF1bY0hdYzFDKEYpKEYpQyg9TylbTkhdW0NAQEhdMltDSDJdW0NIMl1bQ0gyXVtDQEhdMltPSF0=

> <s_epik_cmdline>
J2VwaWtfcHl0aG9uJywgJy1waCcsICc3LjAnLCAnLXRuJywgJzgnLCAnLW1hJywgJzIwMCcsICctbWV0YWxfYmluZGluZycsICctaW1hZScsICc8aW5maWxlLm1hZT4nLCAnLW9tYWUnLCAnPG91dGZpbGUubWFlPic=

> <r_lp_tautomer_probability>
1

> <r_epik_Ionization_Penalty>
5.72231

> <r_epik_Ionization_Penalty_Charging>
5.72231

> <r_epik_Ionization_Penalty_Neutral>
5.49816e-06

> <r_epik_State_Penalty>
5.72227

> <r_epik_Charging_Adjusted_Penalty>
11.4446

> <i_epik_Tot_Q>
-1

> <i_epik_Tot_abs_Q>
1

> <r_epik_Metal_State_Penalty>
1.70075

> <b_epik_Metal_Only>
1

> <s_lp_Force_Field>
OPLS_2005

> <r_lp_Energy>
34.2298

> <b_lp_Chiralities_Consistent>
1

> <s_lp_Variant>
AV-unprocessed.smi:2807-8

> <Gold.Version>
5.8.1

> <Gold.Id.Protein>
6NUR|6NUR_protein|mol2

> <Gold.PLP.Fitness>
40.3106

> <Gold.PLP.PLP>
-35.4932

> <Gold.PLP.part.hbond>
-2.0000

> <Gold.PLP.part.metal>
0.0000

> <Gold.PLP.part.buried>
-3.8663

> <Gold.PLP.part.nonpolar>
-29.7217

> <Gold.PLP.part.repulsive>
0.0000

> <Gold.PLP.ligand.clash>
0.0000

> <Gold.PLP.ligand.torsion>
0.6111

> <Gold.PLP.Chemscore.Hbond>
2.0000

> <Gold.PLP.Chemscore.CHOScore>
0.0000

> <Gold.PLP.Chemscore.Metal>
0.0000

> <Gold.Chemscore.Hbonds>
donor molecule, donor type, donor heavy atom, donor atom, acceptor molecule, acceptor atom, score
      L1  H     9    27       P1  8028  1.00
      P1  H  7997  8010       L1     1  1.00

> <Gold.PLP.Chemscore.Internal.Correction>
0.0396

> <Gold.Rescore>
     Score         DG    S(hbond)    S(metal)    S(lipo)     H(rot)  DE(clash)    DE(int)     intcor
     15.27     -18.32       1.96        0.00      97.46       2.00       0.05       3.00       ----

> <Gold.Chemscore.Fitness>
15.2673

> <Gold.Chemscore.DG>
-18.3170

> <Gold.Chemscore.ZeroCoef>
-5.4800

> <Gold.Chemscore.Hbond>
1.9596

> <Gold.Chemscore.Metal>
0.0000

> <Gold.Chemscore.Lipo>
97.4603

> <Gold.Chemscore.Internal_Hbond>
0.0000

> <Gold.Chemscore.DEClash>
0.0528

> <Gold.Chemscore.DEInternal>
2.9970

> <Gold.Chemscore.Rot>
1.9964

> <Gold.Chemscore.Internal.Correction>
   9.000000E+99

> <Gold.Chemscore.Hbonds>
donor molecule, donor type, donor heavy atom, donor atom, acceptor molecule, acceptor atom, score
      L1  H     9    27       P1  8028  0.98
      P1  H  7997  8010       L1     1  0.92

> <Gold.Chemscore.Hbond.Weighted>
-6.5450

> <Gold.Chemscore.Metal.Weighted>
-0.0000

> <Gold.Chemscore.Lipo.Weighted>
-11.4029

> <Gold.Chemscore.Internal_Hbond.Weighted>
0.0000

> <Gold.Chemscore.DEClash.Weighted>
0.0528

> <Gold.Chemscore.DEInternal.Weighted>
2.9970

> <Gold.Chemscore.Rot.Weighted>
5.1108

> <Gold.Chemscore.Internal.Correction.Weighted>
   9.000000E+99

> <Gold.Protein.RotatedTorsions>
[ 6907 6896 6895 6894 ] final  136.05 input  -60.11 | X-H torsion
[ 7974 7965 7964 7962 ] final  -63.05 input  175.53 | X-H torsion
[ 8008 7997 7996 7995 ] final   70.00 input   59.86 | X-H torsion
[ 10167 10162 10161 10158 ] final   -3.33 input  -65.29 | X-H torsion
[ 10718 10713 10712 10709 ] final  -59.46 input   66.30 | X-H torsion
[ 10763 10752 10751 10750 ] final  -90.86 input  -60.55 | X-H torsion
[ 11005 11000 10999 10996 ] final   21.84 input  -57.11 | X-H torsion

> <Gold.Protein.ActiveResidues>
 VAL166  LYS551  ARG553  GLY616  TRP617  ASP618  TYR619  PRO620  LYS621  CYS622 
 ASP623  PHE694  ASN695  SER759  ASP760  ASP761  ALA762  ILE779  LEU786  VAL792 
 PHE793  MET794  SER795  GLU796  ALA797  LYS798  CYS799  TRP800  GLU811  SER814 

> <Gold.Protein.RotatedAtoms>
  152.2936  133.5586  159.5573 H   0  0  0  0  0  0  0  0  0  0  0  0  # atno 6907 bound_to 6896
  150.7246  134.0392  159.3769 H   0  0  0  0  0  0  0  0  0  0  0  0  # atno 6908 bound_to 6896
  151.8297  135.0626  160.0486 H   0  0  0  0  0  0  0  0  0  0  0  0  # atno 6909 bound_to 6896
  145.7837  140.8748  143.0317 H   0  0  0  0  0  0  0  0  0  0  0  0  # atno 7974 bound_to 7965
  155.7322  140.3491  155.5065 H   0  0  0  0  0  0  0  0  0  0  0  0  # atno 8008 bound_to 7997
  155.9172  140.1061  157.1256 H   0  0  0  0  0  0  0  0  0  0  0  0  # atno 8009 bound_to 7997
  154.4064  140.1256  156.4619 H   0  0  0  0  0  0  0  0  0  0  0  0  # atno 8010 bound_to 7997
  140.6886  143.6552  150.8315 H   0  0  0  0  0  0  0  0  0  0  0  0  # atno 10167 bound_to 10162
  156.1060  130.4180  150.0718 H   0  0  0  0  0  0  0  0  0  0  0  0  # atno 10718 bound_to 10713
  154.6701  135.5289  153.8127 H   0  0  0  0  0  0  0  0  0  0  0  0  # atno 10763 bound_to 10752
  153.0496  135.6527  154.0738 H   0  0  0  0  0  0  0  0  0  0  0  0  # atno 10764 bound_to 10752
  154.0638  135.2959  155.3300 H   0  0  0  0  0  0  0  0  0  0  0  0  # atno 10765 bound_to 10752
  140.3871  134.1858  155.7663 H   0  0  0  0  0  0  0  0  0  0  0  0  # atno 11005 bound_to 11000
  144.6792  140.0026  143.7484 LP  0  0  0  0  0  0  0  0  0  0  0  0  # atno 17320 bound_to 7965
  146.0047  139.3120  143.0906 LP  0  0  0  0  0  0  0  0  0  0  0  0  # atno 17321 bound_to 7965
  140.0262  143.5491  152.2779 LP  0  0  0  0  0  0  0  0  0  0  0  0  # atno 17342 bound_to 10162
  139.6267  144.7638  151.2624 LP  0  0  0  0  0  0  0  0  0  0  0  0  # atno 17343 bound_to 10162
  156.8693  130.9518  151.3611 LP  0  0  0  0  0  0  0  0  0  0  0  0  # atno 17370 bound_to 10713
  157.6237  130.8675  149.9152 LP  0  0  0  0  0  0  0  0  0  0  0  0  # atno 17371 bound_to 10713
  141.1904  133.8219  157.0921 LP  0  0  0  0  0  0  0  0  0  0  0  0  # atno 17394 bound_to 11000
  140.0434  134.9842  157.1005 LP  0  0  0  0  0  0  0  0  0  0  0  0  # atno 17395 bound_to 11000

$$$$
