AV-unprocessed.smi:236|AV-procd|sdf|1809|dock3
  -GOLD-   2262020393D 1   1.00000     0.00000
 Structure written by MMmdl.
 58 62  0  0  0  0  0  0  0  0  1 V2000
  146.7633  129.8658  152.6049 C   0  0  0  0  0  0  0  0  0  0  0  0
  146.1771  131.2793  152.7376 C   0  0  2  0  0  0  0  0  0  0  0  0
  146.1290  131.9275  151.4689 O   0  0  0  0  0  0  0  0  0  0  0  0
  146.3784  133.3225  151.6182 C   0  0  0  0  0  0  0  0  0  0  0  0
  146.4073  133.5776  153.1220 C   0  0  0  0  0  0  0  0  0  0  0  0
  146.9212  132.2524  153.6719 C   0  0  1  0  0  0  0  0  0  0  0  0
  146.4659  132.1000  155.0035 O   0  0  0  0  0  0  0  0  0  0  0  0
  148.4673  132.1105  153.6343 C   0  0  0  0  0  0  0  0  0  0  0  0
  149.1649  133.0636  154.4830 N   0  0  0  0  0  0  0  0  0  0  0  0
  148.9500  134.4215  154.5525 C   0  0  0  0  0  0  0  0  0  0  0  0
  149.7150  135.0635  155.3925 N   0  0  0  0  0  0  0  0  0  0  0  0
  150.5097  134.0717  155.9554 C   0  0  0  0  0  0  0  0  0  0  0  0
  151.5509  134.0574  156.9268 C   0  0  0  0  0  0  0  0  0  0  0  0
  152.0308  135.1449  157.5656 N   0  0  0  0  0  0  0  0  0  0  0  0
  153.4851  135.2105  157.5724 C   0  0  0  0  0  0  0  0  0  0  0  0
  153.9494  136.3679  158.4712 C   0  0  0  0  0  0  0  0  0  0  0  0
  153.3354  137.5795  158.0414 O   0  0  0  0  0  0  0  0  0  0  0  0
  151.9123  137.5321  158.1311 C   0  0  1  0  0  0  0  0  0  0  0  0
  151.3616  138.9028  157.7195 C   0  0  0  0  0  0  0  0  0  0  0  0
  152.1538  139.9171  158.3146 O   0  0  0  0  0  0  0  0  0  0  0  0
  151.7579  140.2084  159.6434 C   0  0  0  0  0  0  0  0  0  0  0  0
  152.5805  141.3685  160.1624 C   0  0  0  0  0  0  0  0  0  0  0  0
  153.0978  141.3776  161.5832 C   0  0  0  0  0  0  0  0  0  0  0  0
  151.9934  142.3208  161.1796 C   0  0  0  0  0  0  0  0  0  0  0  0
  151.4051  136.4109  157.2039 C   0  0  0  0  0  0  0  0  0  0  0  0
  152.1294  132.8679  157.2225 N   0  0  0  0  0  0  0  0  0  0  0  0
  151.7098  131.7523  156.6178 C   0  0  0  0  0  0  0  0  0  0  0  0
  150.7505  131.6095  155.7009 N   0  0  0  0  0  0  0  0  0  0  0  0
  150.1742  132.8074  155.3946 C   0  0  0  0  0  0  0  0  0  0  0  0
  146.8338  129.3774  153.5769 H   0  0  0  0  0  0  0  0  0  0  0  0
  147.7581  129.8802  152.1598 H   0  0  0  0  0  0  0  0  0  0  0  0
  146.1316  129.2460  151.9683 H   0  0  0  0  0  0  0  0  0  0  0  0
  145.1410  131.1946  153.0713 H   0  0  0  0  0  0  0  0  0  0  0  0
  147.3447  133.5549  151.1699 H   0  0  0  0  0  0  0  0  0  0  0  0
  145.6195  133.9193  151.1124 H   0  0  0  0  0  0  0  0  0  0  0  0
  146.9976  134.4503  153.3986 H   0  0  0  0  0  0  0  0  0  0  0  0
  145.3876  133.7579  153.4674 H   0  0  0  0  0  0  0  0  0  0  0  0
  146.9096  131.3602  155.3890 H   0  0  0  0  0  0  0  0  0  0  0  0
  148.7662  131.1073  153.9411 H   0  0  0  0  0  0  0  0  0  0  0  0
  148.8334  132.2356  152.6146 H   0  0  0  0  0  0  0  0  0  0  0  0
  148.2076  134.9256  153.9509 H   0  0  0  0  0  0  0  0  0  0  0  0
  153.9016  134.2682  157.9309 H   0  0  0  0  0  0  0  0  0  0  0  0
  153.8489  135.3585  156.5545 H   0  0  0  0  0  0  0  0  0  0  0  0
  153.7018  136.1734  159.5161 H   0  0  0  0  0  0  0  0  0  0  0  0
  155.0323  136.4781  158.4147 H   0  0  0  0  0  0  0  0  0  0  0  0
  151.6115  137.3185  159.1585 H   0  0  0  0  0  0  0  0  0  0  0  0
  151.3537  139.0001  156.6325 H   0  0  0  0  0  0  0  0  0  0  0  0
  150.3324  139.0081  158.0666 H   0  0  0  0  0  0  0  0  0  0  0  0
  150.7028  140.4841  159.6709 H   0  0  0  0  0  0  0  0  0  0  0  0
  151.8955  139.3381  160.2872 H   0  0  0  0  0  0  0  0  0  0  0  0
  153.2242  141.8221  159.4108 H   0  0  0  0  0  0  0  0  0  0  0  0
  152.8336  140.5388  162.2240 H   0  0  0  0  0  0  0  0  0  0  0  0
  154.0847  141.8025  161.7547 H   0  0  0  0  0  0  0  0  0  0  0  0
  152.2422  143.3756  161.0818 H   0  0  0  0  0  0  0  0  0  0  0  0
  150.9934  142.1106  161.5543 H   0  0  0  0  0  0  0  0  0  0  0  0
  151.6374  136.6625  156.1692 H   0  0  0  0  0  0  0  0  0  0  0  0
  150.3207  136.3194  157.2807 H   0  0  0  0  0  0  0  0  0  0  0  0
  152.2166  130.8441  156.9092 H   0  0  0  0  0  0  0  0  0  0  0  0
  1  2  1  0  0  0  0
  1 30  1  0  0  0  0
  1 31  1  0  0  0  0
  1 32  1  0  0  0  0
  2  6  1  0  0  0  0
  2  3  1  0  0  0  0
  2 33  1  0  0  0  0
  3  4  1  0  0  0  0
  4  5  1  0  0  0  0
  4 34  1  0  0  0  0
  4 35  1  0  0  0  0
  5  6  1  0  0  0  0
  5 36  1  0  0  0  0
  5 37  1  0  0  0  0
  6  7  1  0  0  0  0
  6  8  1  0  0  0  0
  7 38  1  0  0  0  0
  8  9  1  0  0  0  0
  8 39  1  0  0  0  0
  8 40  1  0  0  0  0
  9 29  1  0  0  0  0
  9 10  1  0  0  0  0
 10 11  2  0  0  0  0
 10 41  1  0  0  0  0
 11 12  1  0  0  0  0
 12 29  2  0  0  0  0
 12 13  1  0  0  0  0
 13 14  1  0  0  0  0
 13 26  2  0  0  0  0
 14 25  1  0  0  0  0
 14 15  1  0  0  0  0
 15 16  1  0  0  0  0
 15 42  1  0  0  0  0
 15 43  1  0  0  0  0
 16 17  1  0  0  0  0
 16 44  1  0  0  0  0
 16 45  1  0  0  0  0
 17 18  1  0  0  0  0
 18 19  1  0  0  0  0
 18 25  1  0  0  0  0
 18 46  1  0  0  0  0
 19 20  1  0  0  0  0
 19 47  1  0  0  0  0
 19 48  1  0  0  0  0
 20 21  1  0  0  0  0
 21 22  1  0  0  0  0
 21 49  1  0  0  0  0
 21 50  1  0  0  0  0
 22 24  1  0  0  0  0
 22 23  1  0  0  0  0
 22 51  1  0  0  0  0
 23 24  1  0  0  0  0
 23 52  1  0  0  0  0
 23 53  1  0  0  0  0
 24 54  1  0  0  0  0
 24 55  1  0  0  0  0
 25 56  1  0  0  0  0
 25 57  1  0  0  0  0
 26 27  1  0  0  0  0
 27 28  2  0  0  0  0
 27 58  1  0  0  0  0
 28 29  1  0  0  0  0
M  END
> <s_m_source_file>
AV-unprocessed.smi

> <i_m_source_file_index>
236

> <i_lp_mmshare_version>
43012

> <i_f3d_flags>
0

> <s_epik_input>
W0NIMl0xW0NIMl1PW0NAQEhdKFtDSDNdKVtDQEBdMShbT0hdKVtDSDJdbihbY0hdbjIpYyhjMjMpbltjSF1uYzNONFtDSDJdW0NIMl1PW0NASF0oW0NIMl00KVtDSDJdT1tDSDJdW0NIXTVbQ0gyXVtDSDJdNQ==

> <s_epik_cmdline>
J2VwaWtfcHl0aG9uJywgJy1waCcsICc3LjAnLCAnLXRuJywgJzgnLCAnLW1hJywgJzIwMCcsICctbWV0YWxfYmluZGluZycsICctaW1hZScsICc8aW5maWxlLm1hZT4nLCAnLW9tYWUnLCAnPG91dGZpbGUubWFlPic=

> <r_lp_tautomer_probability>
1

> <r_epik_Ionization_Penalty>
7.21838e-05

> <r_epik_Ionization_Penalty_Charging>
0

> <r_epik_Ionization_Penalty_Neutral>
7.21838e-05

> <r_epik_State_Penalty>
-0

> <r_epik_Charging_Adjusted_Penalty>
0

> <i_epik_Tot_Q>
0

> <i_epik_Tot_abs_Q>
0

> <r_epik_Metal_State_Penalty>
-0

> <b_epik_Metal_Only>
0

> <s_lp_Force_Field>
OPLS_2005

> <r_lp_Energy>
49.116

> <b_lp_Chiralities_Consistent>
1

> <s_lp_Variant>
AV-unprocessed.smi:236-1

> <Gold.Version>
5.8.1

> <Gold.Id.Protein>
6NUR|6NUR_protein|mol2

> <Gold.PLP.Fitness>
45.6236

> <Gold.PLP.PLP>
-40.8803

> <Gold.PLP.part.hbond>
-2.7705

> <Gold.PLP.part.metal>
0.0000

> <Gold.PLP.part.buried>
-2.9388

> <Gold.PLP.part.nonpolar>
-35.9955

> <Gold.PLP.part.repulsive>
0.5515

> <Gold.PLP.ligand.clash>
0.0000

> <Gold.PLP.ligand.torsion>
1.0357

> <Gold.PLP.Chemscore.Hbond>
1.0000

> <Gold.PLP.Chemscore.CHOScore>
1.0000

> <Gold.PLP.Chemscore.Metal>
0.0000

> <Gold.Chemscore.Hbonds>
donor molecule, donor type, donor heavy atom, donor atom, acceptor molecule, acceptor atom, score
      L1  C    10    41       P1  7948  0.73

> <Gold.PLP.Chemscore.Internal.Correction>
0.8147

> <Gold.Rescore>
     Score         DG    S(hbond)    S(metal)    S(lipo)     H(rot)  DE(clash)    DE(int)     intcor
      9.85     -12.44       0.97        0.00      94.39       2.87       0.17       2.42       ----

> <Gold.Chemscore.Fitness>
9.8471

> <Gold.Chemscore.DG>
-12.4421

> <Gold.Chemscore.ZeroCoef>
-5.4800

> <Gold.Chemscore.Hbond>
0.9745

> <Gold.Chemscore.Metal>
0.0000

> <Gold.Chemscore.Lipo>
94.3858

> <Gold.Chemscore.Internal_Hbond>
0.0000

> <Gold.Chemscore.DEClash>
0.1732

> <Gold.Chemscore.DEInternal>
2.4218

> <Gold.Chemscore.Rot>
2.8655

> <Gold.Chemscore.Internal.Correction>
   9.000000E+99

> <Gold.Chemscore.Hbond.Weighted>
-3.2547

> <Gold.Chemscore.Metal.Weighted>
-0.0000

> <Gold.Chemscore.Lipo.Weighted>
-11.0431

> <Gold.Chemscore.Internal_Hbond.Weighted>
0.0000

> <Gold.Chemscore.DEClash.Weighted>
0.1732

> <Gold.Chemscore.DEInternal.Weighted>
2.4218

> <Gold.Chemscore.Rot.Weighted>
7.3358

> <Gold.Chemscore.Internal.Correction.Weighted>
   9.000000E+99

> <Gold.Protein.RotatedTorsions>
[ 6907 6896 6895 6894 ] final  118.68 input  -60.11 | X-H torsion
[ 7974 7965 7964 7962 ] final  -41.53 input  175.53 | X-H torsion
[ 8008 7997 7996 7995 ] final  178.28 input   59.86 | X-H torsion
[ 10167 10162 10161 10158 ] final   47.95 input  -65.29 | X-H torsion
[ 10718 10713 10712 10709 ] final  146.95 input   66.30 | X-H torsion
[ 10763 10752 10751 10750 ] final  -35.71 input  -60.55 | X-H torsion
[ 11005 11000 10999 10996 ] final    1.48 input  -57.11 | X-H torsion

> <Gold.Protein.ActiveResidues>
 VAL166  LYS551  ARG553  GLY616  TRP617  ASP618  TYR619  PRO620  LYS621  CYS622 
 ASP623  PHE694  ASN695  SER759  ASP760  ASP761  ALA762  ILE779  LEU786  VAL792 
 PHE793  MET794  SER795  GLU796  ALA797  LYS798  CYS799  TRP800  GLU811  SER814 

> <Gold.Protein.RotatedAtoms>
  152.4526  133.7659  159.6771 H   0  0  0  0  0  0  0  0  0  0  0  0  # atno 6907 bound_to 6896
  150.8442  133.7878  159.3055 H   0  0  0  0  0  0  0  0  0  0  0  0  # atno 6908 bound_to 6896
  151.5493  135.1070  159.9997 H   0  0  0  0  0  0  0  0  0  0  0  0  # atno 6909 bound_to 6896
  146.0202  140.6859  142.9182 H   0  0  0  0  0  0  0  0  0  0  0  0  # atno 7974 bound_to 7965
  156.0563  140.1337  156.9992 H   0  0  0  0  0  0  0  0  0  0  0  0  # atno 8008 bound_to 7997
  154.4459  140.1000  156.6522 H   0  0  0  0  0  0  0  0  0  0  0  0  # atno 8009 bound_to 7997
  155.5446  140.3461  155.4456 H   0  0  0  0  0  0  0  0  0  0  0  0  # atno 8010 bound_to 7997
  140.2983  144.2964  150.6224 H   0  0  0  0  0  0  0  0  0  0  0  0  # atno 10167 bound_to 10162
  157.3269  131.0914  151.1195 H   0  0  0  0  0  0  0  0  0  0  0  0  # atno 10718 bound_to 10713
  153.8677  135.6834  153.4777 H   0  0  0  0  0  0  0  0  0  0  0  0  # atno 10763 bound_to 10752
  153.1305  135.4700  154.9339 H   0  0  0  0  0  0  0  0  0  0  0  0  # atno 10764 bound_to 10752
  154.7729  135.3244  154.8103 H   0  0  0  0  0  0  0  0  0  0  0  0  # atno 10765 bound_to 10752
  140.6149  133.9714  155.8196 H   0  0  0  0  0  0  0  0  0  0  0  0  # atno 11005 bound_to 11000
  144.6987  140.3552  143.7174 LP  0  0  0  0  0  0  0  0  0  0  0  0  # atno 17320 bound_to 7965
  145.7205  139.1708  143.2487 LP  0  0  0  0  0  0  0  0  0  0  0  0  # atno 17321 bound_to 7965
  140.5673  143.2185  151.7661 LP  0  0  0  0  0  0  0  0  0  0  0  0  # atno 17342 bound_to 10162
  139.4921  144.4266  151.9919 LP  0  0  0  0  0  0  0  0  0  0  0  0  # atno 17343 bound_to 10162
  157.2458  130.6591  149.5909 LP  0  0  0  0  0  0  0  0  0  0  0  0  # atno 17370 bound_to 10713
  155.9691  130.4554  150.5886 LP  0  0  0  0  0  0  0  0  0  0  0  0  # atno 17371 bound_to 10713
  141.0782  134.0102  157.3425 LP  0  0  0  0  0  0  0  0  0  0  0  0  # atno 17394 bound_to 11000
  139.9177  135.0198  156.7944 LP  0  0  0  0  0  0  0  0  0  0  0  0  # atno 17395 bound_to 11000

$$$$
