AV-unprocessed.smi:285|AV-procd|sdf|2166|dock10
  -GOLD-   2262021523D 1   1.00000     0.00000
 Structure written by MMmdl.
 31 33  0  0  0  0  0  0  0  0  1 V2000
  150.6556  145.1813  160.4034 N   0  0  0  0  0  0  0  0  0  0  0  0
  151.4946  144.1596  160.6235 C   0  0  0  0  0  0  0  0  0  0  0  0
  152.1437  144.1050  161.8100 N   0  0  0  0  0  0  0  0  0  0  0  0
  152.9867  143.0963  162.0543 C   0  0  0  0  0  0  0  0  0  0  0  0
  153.3111  142.0687  161.2652 N   0  0  0  0  0  0  0  0  0  0  0  0
  152.6549  142.1224  160.0691 C   0  0  0  0  0  0  0  0  0  0  0  0
  151.7328  143.1353  159.6727 C   0  0  0  0  0  0  0  0  0  0  0  0
  151.2586  142.8789  158.3924 N   0  0  0  0  0  0  0  0  0  0  0  0
  151.8759  141.7756  158.0738 C   0  0  0  0  0  0  0  0  0  0  0  0
  151.5912  140.9711  156.3708 Br  0  0  0  0  0  0  0  0  0  0  0  0
  152.7327  141.2402  159.0092 N   0  0  0  0  0  0  0  0  0  0  0  0
  153.5596  139.9978  158.9242 C   0  0  1  0  0  0  0  0  0  0  0  0
  153.2324  139.0295  160.0471 C   0  0  0  0  0  0  0  0  0  0  0  0
  153.7596  137.7527  159.4299 C   0  0  1  0  0  0  0  0  0  0  0  0
  153.2192  136.6092  160.0624 O   0  0  0  0  0  0  0  0  0  0  0  0
  153.4079  137.9146  157.9320 C   0  0  1  0  0  0  0  0  0  0  0  0
  152.0854  137.2552  157.4904 C   0  0  0  0  0  0  0  0  0  0  0  0
  152.3564  136.1092  156.7120 O   0  0  0  0  0  0  0  0  0  0  0  0
  153.2603  139.3273  157.7428 O   0  0  0  0  0  0  0  0  0  0  0  0
  150.1592  145.2445  159.5261 H   0  0  0  0  0  0  0  0  0  0  0  0
  150.5185  145.8834  161.1160 H   0  0  0  0  0  0  0  0  0  0  0  0
  153.4703  143.1144  163.0198 H   0  0  0  0  0  0  0  0  0  0  0  0
  154.6011  140.3193  158.9184 H   0  0  0  0  0  0  0  0  0  0  0  0
  153.7239  139.3142  160.9778 H   0  0  0  0  0  0  0  0  0  0  0  0
  152.1529  138.9827  160.1989 H   0  0  0  0  0  0  0  0  0  0  0  0
  154.8448  137.7287  159.5416 H   0  0  0  0  0  0  0  0  0  0  0  0
  153.6440  136.4989  160.8995 H   0  0  0  0  0  0  0  0  0  0  0  0
  154.2334  137.5370  157.3270 H   0  0  0  0  0  0  0  0  0  0  0  0
  151.5121  136.9128  158.3516 H   0  0  0  0  0  0  0  0  0  0  0  0
  151.4531  137.9500  156.9386 H   0  0  0  0  0  0  0  0  0  0  0  0
  152.0220  135.3518  157.1671 H   0  0  0  0  0  0  0  0  0  0  0  0
  1  2  1  0  0  0  0
  1 20  1  0  0  0  0
  1 21  1  0  0  0  0
  2  7  1  0  0  0  0
  2  3  2  0  0  0  0
  3  4  1  0  0  0  0
  4  5  2  0  0  0  0
  4 22  1  0  0  0  0
  5  6  1  0  0  0  0
  6 11  1  0  0  0  0
  6  7  2  0  0  0  0
  7  8  1  0  0  0  0
  8  9  2  0  0  0  0
  9 10  1  0  0  0  0
  9 11  1  0  0  0  0
 11 12  1  0  0  0  0
 12 19  1  0  0  0  0
 12 13  1  0  0  0  0
 12 23  1  0  0  0  0
 13 14  1  0  0  0  0
 13 24  1  0  0  0  0
 13 25  1  0  0  0  0
 14 15  1  0  0  0  0
 14 16  1  0  0  0  0
 14 26  1  0  0  0  0
 15 27  1  0  0  0  0
 16 17  1  0  0  0  0
 16 19  1  0  0  0  0
 16 28  1  0  0  0  0
 17 18  1  0  0  0  0
 17 29  1  0  0  0  0
 17 30  1  0  0  0  0
 18 31  1  0  0  0  0
M  END
> <s_m_source_file>
AV-unprocessed.smi

> <i_m_source_file_index>
285

> <i_lp_mmshare_version>
43012

> <i_f3d_flags>
0

> <s_epik_input>
bjFbY0hdbmMoW05IMl0pYyhjMTIpbmMoQnIpbjJbQ0BASF0zW0NIMl1bQ0BASF0oW09IXSlbQ0BIXShPMylbQ0gyXVtPSF0=

> <s_epik_cmdline>
J2VwaWtfcHl0aG9uJywgJy1waCcsICc3LjAnLCAnLXRuJywgJzgnLCAnLW1hJywgJzIwMCcsICctbWV0YWxfYmluZGluZycsICctaW1hZScsICc8aW5maWxlLm1hZT4nLCAnLW9tYWUnLCAnPG91dGZpbGUubWFlPic=

> <r_lp_tautomer_probability>
1

> <r_epik_Ionization_Penalty>
0.000103242

> <r_epik_Ionization_Penalty_Charging>
0

> <r_epik_Ionization_Penalty_Neutral>
0.000103242

> <r_epik_State_Penalty>
-0

> <r_epik_Charging_Adjusted_Penalty>
0

> <i_epik_Tot_Q>
0

> <i_epik_Tot_abs_Q>
0

> <r_epik_Metal_State_Penalty>
-0

> <b_epik_Metal_Only>
0

> <s_epik_Chemistry_Notes>
This compound contains an acetal/aminal-like group ( X-CH(R)-Y where X, Y are N, S, or O) that may be acid/base labile, releasing an aldehyde.

> <s_lp_Force_Field>
OPLS_2005

> <r_lp_Energy>
35.0354

> <b_lp_Chiralities_Consistent>
1

> <s_lp_Variant>
AV-unprocessed.smi:285-2

> <Gold.Version>
5.8.1

> <Gold.Id.Protein>
6NUR|6NUR_protein|mol2

> <Gold.PLP.Fitness>
41.3040

> <Gold.PLP.PLP>
-33.6593

> <Gold.PLP.part.hbond>
-5.5940

> <Gold.PLP.part.metal>
0.0000

> <Gold.PLP.part.buried>
-4.0810

> <Gold.PLP.part.nonpolar>
-22.6743

> <Gold.PLP.part.repulsive>
0.2077

> <Gold.PLP.ligand.clash>
0.0000

> <Gold.PLP.ligand.torsion>
0.6849

> <Gold.PLP.Chemscore.Hbond>
3.0000

> <Gold.PLP.Chemscore.CHOScore>
0.0000

> <Gold.PLP.Chemscore.Metal>
0.0000

> <Gold.Chemscore.Hbonds>
donor molecule, donor type, donor heavy atom, donor atom, acceptor molecule, acceptor atom, score
      P1  H  6896  6909       L1    15  0.95
      P1  H  7997  8009       L1    19  0.75
      P1  H 10752 10763       L1    18  1.00

> <Gold.PLP.Chemscore.Internal.Correction>
0.0145

> <Gold.Rescore>
     Score         DG    S(hbond)    S(metal)    S(lipo)     H(rot)  DE(clash)    DE(int)     intcor
      5.70      -7.93       1.92        0.00      33.05       3.06       0.00       2.23       ----

> <Gold.Chemscore.Fitness>
5.6989

> <Gold.Chemscore.DG>
-7.9333

> <Gold.Chemscore.ZeroCoef>
-5.4800

> <Gold.Chemscore.Hbond>
1.9227

> <Gold.Chemscore.Metal>
0.0000

> <Gold.Chemscore.Lipo>
33.0487

> <Gold.Chemscore.Internal_Hbond>
0.0000

> <Gold.Chemscore.DEClash>
0.0009

> <Gold.Chemscore.DEInternal>
2.2335

> <Gold.Chemscore.Rot>
3.0607

> <Gold.Chemscore.Internal.Correction>
   9.000000E+99

> <Gold.Chemscore.Hbonds>
donor molecule, donor type, donor heavy atom, donor atom, acceptor molecule, acceptor atom, score
      P1  H  6896  6909       L1    15  0.21
      P1  H  7997  8009       L1    19  0.08
      P1  H 10752 10763       L1    18  0.59

> <Gold.Chemscore.Hbond.Weighted>
-6.4220

> <Gold.Chemscore.Metal.Weighted>
-0.0000

> <Gold.Chemscore.Lipo.Weighted>
-3.8667

> <Gold.Chemscore.Internal_Hbond.Weighted>
0.0000

> <Gold.Chemscore.DEClash.Weighted>
0.0009

> <Gold.Chemscore.DEInternal.Weighted>
2.2335

> <Gold.Chemscore.Rot.Weighted>
7.8354

> <Gold.Chemscore.Internal.Correction.Weighted>
   9.000000E+99

> <Gold.Protein.RotatedTorsions>
[ 6907 6896 6895 6894 ] final  151.29 input  -60.11 | X-H torsion
[ 7974 7965 7964 7962 ] final   18.79 input  175.53 | X-H torsion
[ 8008 7997 7996 7995 ] final  168.00 input   59.86 | X-H torsion
[ 10167 10162 10161 10158 ] final   13.76 input  -65.29 | X-H torsion
[ 10718 10713 10712 10709 ] final -124.74 input   66.30 | X-H torsion
[ 10763 10752 10751 10750 ] final   88.61 input  -60.55 | X-H torsion
[ 11005 11000 10999 10996 ] final  -49.97 input  -57.11 | X-H torsion

> <Gold.Protein.ActiveResidues>
 VAL166  LYS551  ARG553  GLY616  TRP617  ASP618  TYR619  PRO620  LYS621  CYS622 
 ASP623  PHE694  ASN695  SER759  ASP760  ASP761  ALA762  ILE779  LEU786  VAL792 
 PHE793  MET794  SER795  GLU796  ALA797  LYS798  CYS799  TRP800  GLU811  SER814 

> <Gold.Protein.RotatedAtoms>
  152.1026  133.4258  159.4593 H   0  0  0  0  0  0  0  0  0  0  0  0  # atno 6907 bound_to 6896
  150.6864  134.2742  159.4610 H   0  0  0  0  0  0  0  0  0  0  0  0  # atno 6908 bound_to 6896
  152.0604  134.9597  160.0625 H   0  0  0  0  0  0  0  0  0  0  0  0  # atno 6909 bound_to 6896
  146.2172  139.8406  142.8642 H   0  0  0  0  0  0  0  0  0  0  0  0  # atno 7974 bound_to 7965
  156.1585  140.1602  156.8652 H   0  0  0  0  0  0  0  0  0  0  0  0  # atno 8008 bound_to 7997
  154.5138  140.0794  156.8077 H   0  0  0  0  0  0  0  0  0  0  0  0  # atno 8009 bound_to 7997
  155.3755  140.3402  155.4247 H   0  0  0  0  0  0  0  0  0  0  0  0  # atno 8010 bound_to 7997
  140.5981  143.8660  150.6938 H   0  0  0  0  0  0  0  0  0  0  0  0  # atno 10167 bound_to 10162
  156.1614  130.6604  151.0055 H   0  0  0  0  0  0  0  0  0  0  0  0  # atno 10718 bound_to 10713
  153.1786  135.4500  154.9998 H   0  0  0  0  0  0  0  0  0  0  0  0  # atno 10763 bound_to 10752
  154.8015  135.3257  154.7541 H   0  0  0  0  0  0  0  0  0  0  0  0  # atno 10764 bound_to 10752
  153.8008  135.6962  153.4911 H   0  0  0  0  0  0  0  0  0  0  0  0  # atno 10765 bound_to 10752
  141.0789  133.6658  156.3663 H   0  0  0  0  0  0  0  0  0  0  0  0  # atno 11005 bound_to 11000
  145.2903  141.0165  143.3667 LP  0  0  0  0  0  0  0  0  0  0  0  0  # atno 17320 bound_to 7965
  144.9082  139.4561  143.6599 LP  0  0  0  0  0  0  0  0  0  0  0  0  # atno 17321 bound_to 7965
  140.2199  143.3817  152.1651 LP  0  0  0  0  0  0  0  0  0  0  0  0  # atno 17342 bound_to 10162
  139.5272  144.7116  151.5186 LP  0  0  0  0  0  0  0  0  0  0  0  0  # atno 17343 bound_to 10162
  157.6735  131.0856  150.7553 LP  0  0  0  0  0  0  0  0  0  0  0  0  # atno 17370 bound_to 10713
  156.7615  130.4800  149.5436 LP  0  0  0  0  0  0  0  0  0  0  0  0  # atno 17371 bound_to 10713
  140.5511  134.6026  157.5408 LP  0  0  0  0  0  0  0  0  0  0  0  0  # atno 17394 bound_to 11000
  139.9602  134.7465  156.0253 LP  0  0  0  0  0  0  0  0  0  0  0  0  # atno 17395 bound_to 11000

$$$$
