AV-unprocessed.smi:972|AV-procd|sdf|4298|dock8
  -GOLD-   22720 2203D 1   1.00000     0.00000
 Structure written by MMmdl.
 50 52  0  0  0  0  0  0  0  0  1 V2000
  145.6838  128.9831  152.0250 C   0  0  0  0  0  0  0  0  0  0  0  0
  146.9685  128.9534  152.8863 C   0  0  0  0  0  0  0  0  0  0  0  0
  146.5989  128.1853  154.1771 C   0  0  0  0  0  0  0  0  0  0  0  0
  148.0754  128.1948  152.1312 C   0  0  0  0  0  0  0  0  0  0  0  0
  147.4533  130.3771  153.2107 C   0  0  0  0  0  0  0  0  0  0  0  0
  146.8286  131.3900  152.5956 N   0  0  0  0  0  0  0  0  0  0  0  0
  147.3280  132.6313  152.7689 C   0  0  0  0  0  0  0  0  0  0  0  0
  148.4894  132.8701  153.5301 C   0  0  0  0  0  0  0  0  0  0  0  0
  148.9508  134.2060  153.6757 N   0  0  0  0  0  0  0  0  0  0  0  0
  149.6912  134.7350  154.6646 C   0  0  0  0  0  0  0  0  0  0  0  0
  150.1202  134.1195  155.6399 O   0  0  0  0  0  0  0  0  0  0  0  0
  149.9238  136.0368  154.4447 N   0  0  0  0  0  0  0  0  0  0  0  0
  150.7067  136.9233  155.3013 C   0  0  0  0  0  0  0  0  0  0  0  0
  149.9552  137.1869  156.6158 C   0  0  0  0  0  0  0  0  0  0  0  0
  150.6796  138.2476  157.4636 C   0  0  0  0  0  0  0  0  0  0  0  0
  150.8145  139.4930  156.7074 N   0  0  0  0  0  0  0  0  0  0  0  0
  151.4612  140.4866  157.5486 C   0  0  0  0  0  0  0  0  0  0  0  0
  150.5736  141.3793  158.3857 C   0  0  0  0  0  0  0  0  0  0  0  0
  151.2817  141.9408  157.1762 C   0  0  0  0  0  0  0  0  0  0  0  0
  151.6421  139.2679  155.5221 C   0  0  0  0  0  0  0  0  0  0  0  0
  150.9599  138.2580  154.5832 C   0  0  0  0  0  0  0  0  0  0  0  0
  149.0892  131.7269  154.1105 C   0  0  0  0  0  0  0  0  0  0  0  0
  148.5771  130.4907  153.9307 N   0  0  0  0  0  0  0  0  0  0  0  0
  145.3108  127.9764  151.8337 H   0  0  0  0  0  0  0  0  0  0  0  0
  145.8545  129.4446  151.0516 H   0  0  0  0  0  0  0  0  0  0  0  0
  144.8864  129.5391  152.5197 H   0  0  0  0  0  0  0  0  0  0  0  0
  145.8352  128.7143  154.7487 H   0  0  0  0  0  0  0  0  0  0  0  0
  147.4607  128.0428  154.8301 H   0  0  0  0  0  0  0  0  0  0  0  0
  146.2089  127.1923  153.9510 H   0  0  0  0  0  0  0  0  0  0  0  0
  147.7661  127.1781  151.8869 H   0  0  0  0  0  0  0  0  0  0  0  0
  148.9866  128.1277  152.7266 H   0  0  0  0  0  0  0  0  0  0  0  0
  148.3302  128.6951  151.1961 H   0  0  0  0  0  0  0  0  0  0  0  0
  146.7987  133.4392  152.2854 H   0  0  0  0  0  0  0  0  0  0  0  0
  148.7257  134.8257  152.9110 H   0  0  0  0  0  0  0  0  0  0  0  0
  149.5301  136.4505  153.6123 H   0  0  0  0  0  0  0  0  0  0  0  0
  151.6732  136.4766  155.5420 H   0  0  0  0  0  0  0  0  0  0  0  0
  148.9394  137.5257  156.4053 H   0  0  0  0  0  0  0  0  0  0  0  0
  149.8610  136.2610  157.1842 H   0  0  0  0  0  0  0  0  0  0  0  0
  150.1102  138.4347  158.3746 H   0  0  0  0  0  0  0  0  0  0  0  0
  151.6619  137.8828  157.7690 H   0  0  0  0  0  0  0  0  0  0  0  0
  152.4230  140.2398  157.9957 H   0  0  0  0  0  0  0  0  0  0  0  0
  149.4964  141.2395  158.3155 H   0  0  0  0  0  0  0  0  0  0  0  0
  150.9420  141.6742  159.3661 H   0  0  0  0  0  0  0  0  0  0  0  0
  152.1225  142.6092  157.3498 H   0  0  0  0  0  0  0  0  0  0  0  0
  150.6743  142.1733  156.3034 H   0  0  0  0  0  0  0  0  0  0  0  0
  151.7883  140.2116  154.9953 H   0  0  0  0  0  0  0  0  0  0  0  0
  152.6301  138.9076  155.8140 H   0  0  0  0  0  0  0  0  0  0  0  0
  151.5808  138.0961  153.7015 H   0  0  0  0  0  0  0  0  0  0  0  0
  150.0176  138.6769  154.2259 H   0  0  0  0  0  0  0  0  0  0  0  0
  149.9705  131.7766  154.7302 H   0  0  0  0  0  0  0  0  0  0  0  0
  1  2  1  0  0  0  0
  1 24  1  0  0  0  0
  1 25  1  0  0  0  0
  1 26  1  0  0  0  0
  2  3  1  0  0  0  0
  2  4  1  0  0  0  0
  2  5  1  0  0  0  0
  3 27  1  0  0  0  0
  3 28  1  0  0  0  0
  3 29  1  0  0  0  0
  4 30  1  0  0  0  0
  4 31  1  0  0  0  0
  4 32  1  0  0  0  0
  5 23  1  0  0  0  0
  5  6  2  0  0  0  0
  6  7  1  0  0  0  0
  7  8  2  0  0  0  0
  7 33  1  0  0  0  0
  8  9  1  0  0  0  0
  8 22  1  0  0  0  0
  9 10  1  0  0  0  0
  9 34  1  0  0  0  0
 10 11  2  0  0  0  0
 10 12  1  0  0  0  0
 12 13  1  0  0  0  0
 12 35  1  0  0  0  0
 13 21  1  0  0  0  0
 13 14  1  0  0  0  0
 13 36  1  0  0  0  0
 14 15  1  0  0  0  0
 14 37  1  0  0  0  0
 14 38  1  0  0  0  0
 15 16  1  0  0  0  0
 15 39  1  0  0  0  0
 15 40  1  0  0  0  0
 16 17  1  0  0  0  0
 16 20  1  0  0  0  0
 17 19  1  0  0  0  0
 17 18  1  0  0  0  0
 17 41  1  0  0  0  0
 18 19  1  0  0  0  0
 18 42  1  0  0  0  0
 18 43  1  0  0  0  0
 19 44  1  0  0  0  0
 19 45  1  0  0  0  0
 20 21  1  0  0  0  0
 20 46  1  0  0  0  0
 20 47  1  0  0  0  0
 21 48  1  0  0  0  0
 21 49  1  0  0  0  0
 22 23  2  0  0  0  0
 22 50  1  0  0  0  0
M  END
> <s_m_source_file>
AV-unprocessed.smi

> <i_m_source_file_index>
972

> <i_lp_mmshare_version>
43012

> <i_f3d_flags>
0

> <s_epik_input>
W0NIM11DKFtDSDNdKShbQ0gzXSljMW5bY0hdYyhbY0hdbjEpW05IXUMoPU8pW05IXVtDSF0yW0NIMl1bQ0gyXU4oW0NIMl1bQ0gyXTIpW0NIXTNbQ0gyXVtDSDJdMw==

> <s_epik_cmdline>
J2VwaWtfcHl0aG9uJywgJy1waCcsICc3LjAnLCAnLXRuJywgJzgnLCAnLW1hJywgJzIwMCcsICctbWV0YWxfYmluZGluZycsICctaW1hZScsICc8aW5maWxlLm1hZT4nLCAnLW9tYWUnLCAnPG91dGZpbGUubWFlPic=

> <r_lp_tautomer_probability>
1

> <r_epik_Ionization_Penalty>
0.990889

> <r_epik_Ionization_Penalty_Charging>
0

> <r_epik_Ionization_Penalty_Neutral>
0.990889

> <r_epik_State_Penalty>
1.03856

> <r_epik_Charging_Adjusted_Penalty>
1.03856

> <i_epik_Tot_Q>
0

> <i_epik_Tot_abs_Q>
0

> <r_epik_Metal_State_Penalty>
1.03856

> <b_epik_Metal_Only>
0

> <s_lp_Force_Field>
OPLS_2005

> <r_lp_Energy>
19.7386

> <b_lp_Chiralities_Consistent>
1

> <s_lp_Variant>
AV-unprocessed.smi:972-3

> <Gold.Version>
5.8.1

> <Gold.Id.Protein>
6NUR|6NUR_protein|mol2

> <Gold.PLP.Fitness>
42.8455

> <Gold.PLP.PLP>
-37.5075

> <Gold.PLP.part.hbond>
-2.4518

> <Gold.PLP.part.metal>
0.0000

> <Gold.PLP.part.buried>
-4.3510

> <Gold.PLP.part.nonpolar>
-30.6456

> <Gold.PLP.part.repulsive>
0.2995

> <Gold.PLP.ligand.clash>
0.0000

> <Gold.PLP.ligand.torsion>
0.9007

> <Gold.PLP.Chemscore.Hbond>
1.9440

> <Gold.PLP.Chemscore.CHOScore>
0.0000

> <Gold.PLP.Chemscore.Metal>
0.0000

> <Gold.Chemscore.Hbonds>
donor molecule, donor type, donor heavy atom, donor atom, acceptor molecule, acceptor atom, score
      L1  H     9    34       P1  7948  0.95
      L1  H    12    35       P1  7948  0.94

> <Gold.PLP.Chemscore.Internal.Correction>
1.3075

> <Gold.Rescore>
     Score         DG    S(hbond)    S(metal)    S(lipo)     H(rot)  DE(clash)    DE(int)     intcor
     15.21     -17.15       1.45        0.00      86.71       1.30       0.10       1.84       ----

> <Gold.Chemscore.Fitness>
15.2141

> <Gold.Chemscore.DG>
-17.1534

> <Gold.Chemscore.ZeroCoef>
-5.4800

> <Gold.Chemscore.Hbond>
1.4502

> <Gold.Chemscore.Metal>
0.0000

> <Gold.Chemscore.Lipo>
86.7089

> <Gold.Chemscore.Internal_Hbond>
0.0000

> <Gold.Chemscore.DEClash>
0.1019

> <Gold.Chemscore.DEInternal>
1.8374

> <Gold.Chemscore.Rot>
1.2951

> <Gold.Chemscore.Internal.Correction>
   9.000000E+99

> <Gold.Chemscore.Hbonds>
donor molecule, donor type, donor heavy atom, donor atom, acceptor molecule, acceptor atom, score
      L1  H     9    34       P1  7948  0.21
      L1  H    12    35       P1  7948  0.65

> <Gold.Chemscore.Hbond.Weighted>
-4.8438

> <Gold.Chemscore.Metal.Weighted>
-0.0000

> <Gold.Chemscore.Lipo.Weighted>
-10.1449

> <Gold.Chemscore.Internal_Hbond.Weighted>
0.0000

> <Gold.Chemscore.DEClash.Weighted>
0.1019

> <Gold.Chemscore.DEInternal.Weighted>
1.8374

> <Gold.Chemscore.Rot.Weighted>
3.3154

> <Gold.Chemscore.Internal.Correction.Weighted>
   9.000000E+99

> <Gold.Protein.RotatedTorsions>
[ 6907 6896 6895 6894 ] final  147.81 input  -60.11 | X-H torsion
[ 7974 7965 7964 7962 ] final   -3.43 input  175.53 | X-H torsion
[ 8008 7997 7996 7995 ] final  -18.87 input   59.86 | X-H torsion
[ 10167 10162 10161 10158 ] final   64.70 input  -65.29 | X-H torsion
[ 10718 10713 10712 10709 ] final  113.12 input   66.30 | X-H torsion
[ 10763 10752 10751 10750 ] final  -49.51 input  -60.55 | X-H torsion
[ 11005 11000 10999 10996 ] final  143.31 input  -57.11 | X-H torsion

> <Gold.Protein.ActiveResidues>
 VAL166  LYS551  ARG553  GLY616  TRP617  ASP618  TYR619  PRO620  LYS621  CYS622 
 ASP623  PHE694  ASN695  SER759  ASP760  ASP761  ALA762  ILE779  LEU786  VAL792 
 PHE793  MET794  SER795  GLU796  ALA797  LYS798  CYS799  TRP800  GLU811  SER814 

> <Gold.Protein.RotatedAtoms>
  152.1498  133.4515  159.4807 H   0  0  0  0  0  0  0  0  0  0  0  0  # atno 6907 bound_to 6896
  150.6894  134.2203  159.4403 H   0  0  0  0  0  0  0  0  0  0  0  0  # atno 6908 bound_to 6896
  152.0099  134.9881  160.0618 H   0  0  0  0  0  0  0  0  0  0  0  0  # atno 6909 bound_to 6896
  146.2389  140.1719  142.8332 H   0  0  0  0  0  0  0  0  0  0  0  0  # atno 7974 bound_to 7965
  154.4876  140.2104  155.9621 H   0  0  0  0  0  0  0  0  0  0  0  0  # atno 8008 bound_to 7997
  156.1258  140.3205  155.8244 H   0  0  0  0  0  0  0  0  0  0  0  0  # atno 8009 bound_to 7997
  155.4386  140.0508  157.3003 H   0  0  0  0  0  0  0  0  0  0  0  0  # atno 8010 bound_to 7997
  140.1193  144.4746  150.6930 H   0  0  0  0  0  0  0  0  0  0  0  0  # atno 10167 bound_to 10162
  157.6356  131.0978  150.6994 H   0  0  0  0  0  0  0  0  0  0  0  0  # atno 10718 bound_to 10713
  154.0952  135.6571  153.4859 H   0  0  0  0  0  0  0  0  0  0  0  0  # atno 10763 bound_to 10752
  153.0307  135.5212  154.7341 H   0  0  0  0  0  0  0  0  0  0  0  0  # atno 10764 bound_to 10752
  154.6476  135.2997  154.9995 H   0  0  0  0  0  0  0  0  0  0  0  0  # atno 10765 bound_to 10752
  140.0544  134.9238  157.1074 H   0  0  0  0  0  0  0  0  0  0  0  0  # atno 11005 bound_to 11000
  145.0004  140.8627  143.5285 LP  0  0  0  0  0  0  0  0  0  0  0  0  # atno 17320 bound_to 7965
  145.1738  139.2389  143.5328 LP  0  0  0  0  0  0  0  0  0  0  0  0  # atno 17321 bound_to 7965
  140.6881  143.2361  151.5205 LP  0  0  0  0  0  0  0  0  0  0  0  0  # atno 17342 bound_to 10162
  139.5577  144.2234  152.1640 LP  0  0  0  0  0  0  0  0  0  0  0  0  # atno 17343 bound_to 10162
  156.7326  130.4714  149.5496 LP  0  0  0  0  0  0  0  0  0  0  0  0  # atno 17370 bound_to 10713
  156.1592  130.6362  151.0697 LP  0  0  0  0  0  0  0  0  0  0  0  0  # atno 17371 bound_to 10713
  140.3867  134.2228  155.7168 LP  0  0  0  0  0  0  0  0  0  0  0  0  # atno 17394 bound_to 11000
  141.1945  133.8127  157.0754 LP  0  0  0  0  0  0  0  0  0  0  0  0  # atno 17395 bound_to 11000

$$$$
