AV-unprocessed.smi:1971|AV-procd|sdf|7970|dock3
  -GOLD-   2272010143D 1   1.00000     0.00000
 Structure written by MMmdl.
 43 44  0  0  0  0  0  0  0  0  3 V2000
  150.2654  141.3340  156.0860 C   0  0  0  0  0  0  0  0  0  0  0  0
  151.0710  140.0547  155.8171 C   0  0  0  0  0  0  0  0  0  0  0  0
  150.8370  139.5317  154.4690 N   0  0  0  0  0  0  0  0  0  0  0  0
  151.7399  138.4310  154.1328 C   0  0  0  0  0  0  0  0  0  0  0  0
  151.4153  137.1443  154.9213 C   0  0  0  0  0  0  0  0  0  0  0  0
  150.0127  136.7072  154.6825 N   0  3  0  0  0  0  0  0  0  0  0  0
  149.6234  135.4303  155.3648 C   0  0  2  0  0  0  0  0  0  0  0  0
  148.8219  135.6619  156.6647 C   0  0  0  0  0  0  0  0  0  0  0  0
  150.8529  134.5280  155.6530 C   0  0  0  0  0  0  0  0  0  0  0  0
  150.5407  133.1026  155.5672 N   0  0  0  0  0  0  0  0  0  0  0  0
  150.2104  132.2984  156.5861 C   0  0  0  0  0  0  0  0  0  0  0  0
  150.0825  132.7609  157.7216 O   0  0  0  0  0  0  0  0  0  0  0  0
  150.0650  131.0046  156.2237 N   0  5  0  0  0  0  0  0  0  0  0  0
  151.0457  130.3834  155.5483 C   0  0  0  0  0  0  0  0  0  0  0  0
  152.3426  130.6547  155.7323 N   0  0  0  0  0  0  0  0  0  0  0  0
  153.1892  129.8885  154.9289 C   0  0  0  0  0  0  0  0  0  0  0  0
  152.5212  129.0073  154.1204 C   0  0  0  0  0  0  0  0  0  0  0  0
  150.7987  129.1127  154.3468 S   0  0  0  0  0  0  0  0  0  0  0  0
  149.0844  137.8300  154.9867 C   0  0  0  0  0  0  0  0  0  0  0  0
  149.4641  139.0987  154.1963 C   0  0  0  0  0  0  0  0  0  0  0  0
  150.5579  141.7735  157.0398 H   0  0  0  0  0  0  0  0  0  0  0  0
  149.1943  141.1409  156.1371 H   0  0  0  0  0  0  0  0  0  0  0  0
  150.4397  142.0820  155.3120 H   0  0  0  0  0  0  0  0  0  0  0  0
  152.1298  140.2994  155.9094 H   0  0  0  0  0  0  0  0  0  0  0  0
  150.8600  139.3096  156.5829 H   0  0  0  0  0  0  0  0  0  0  0  0
  151.6632  138.2312  153.0629 H   0  0  0  0  0  0  0  0  0  0  0  0
  152.7717  138.7348  154.3124 H   0  0  0  0  0  0  0  0  0  0  0  0
  152.1144  136.3820  154.5806 H   0  0  0  0  0  0  0  0  0  0  0  0
  151.5902  137.2785  155.9895 H   0  0  0  0  0  0  0  0  0  0  0  0
  148.9633  134.8814  154.6912 H   0  0  0  0  0  0  0  0  0  0  0  0
  148.6681  134.7265  157.2035 H   0  0  0  0  0  0  0  0  0  0  0  0
  147.8290  136.0644  156.4641 H   0  0  0  0  0  0  0  0  0  0  0  0
  149.3349  136.3485  157.3384 H   0  0  0  0  0  0  0  0  0  0  0  0
  151.6900  134.7835  155.0016 H   0  0  0  0  0  0  0  0  0  0  0  0
  151.2194  134.7151  156.6621 H   0  0  0  0  0  0  0  0  0  0  0  0
  150.6067  132.6765  154.6542 H   0  0  0  0  0  0  0  0  0  0  0  0
  154.2566  130.0366  154.9982 H   0  0  0  0  0  0  0  0  0  0  0  0
  152.9340  128.3059  153.4112 H   0  0  0  0  0  0  0  0  0  0  0  0
  148.0656  137.5633  154.7100 H   0  0  0  0  0  0  0  0  0  0  0  0
  149.0694  138.0246  156.0595 H   0  0  0  0  0  0  0  0  0  0  0  0
  148.7609  139.9029  154.4094 H   0  0  0  0  0  0  0  0  0  0  0  0
  149.3704  138.8985  153.1279 H   0  0  0  0  0  0  0  0  0  0  0  0
  149.9387  136.5291  153.6904 H   0  0  0  0  0  0  0  0  0  0  0  0
  1  2  1  0  0  0  0
  1 21  1  0  0  0  0
  1 22  1  0  0  0  0
  1 23  1  0  0  0  0
  2  3  1  0  0  0  0
  2 24  1  0  0  0  0
  2 25  1  0  0  0  0
  3 20  1  0  0  0  0
  3  4  1  0  0  0  0
  4  5  1  0  0  0  0
  4 26  1  0  0  0  0
  4 27  1  0  0  0  0
  5  6  1  0  0  0  0
  5 28  1  0  0  0  0
  5 29  1  0  0  0  0
  6  7  1  0  0  0  0
  6 19  1  0  0  0  0
  6 43  1  0  0  0  0
  7  8  1  0  0  0  0
  7  9  1  0  0  0  0
  7 30  1  0  0  0  0
  8 31  1  0  0  0  0
  8 32  1  0  0  0  0
  8 33  1  0  0  0  0
  9 10  1  0  0  0  0
  9 34  1  0  0  0  0
  9 35  1  0  0  0  0
 10 11  1  0  0  0  0
 10 36  1  0  0  0  0
 11 12  2  0  0  0  0
 11 13  1  0  0  0  0
 13 14  1  0  0  0  0
 14 18  1  0  0  0  0
 14 15  2  0  0  0  0
 15 16  1  0  0  0  0
 16 17  2  0  0  0  0
 16 37  1  0  0  0  0
 17 18  1  0  0  0  0
 17 38  1  0  0  0  0
 19 20  1  0  0  0  0
 19 39  1  0  0  0  0
 19 40  1  0  0  0  0
 20 41  1  0  0  0  0
 20 42  1  0  0  0  0
M  CHG  1   6   1
M  CHG  1  13  -1
M  END
> <s_m_source_file>
AV-unprocessed.smi

> <i_m_source_file_index>
1971

> <i_lp_mmshare_version>
43012

> <i_f3d_flags>
0

> <s_epik_input>
W0NIM11bQ0gyXU4xW0NIMl1bQ0gyXU4oW0NIMl1bQ0gyXTEpW0NASF0oW0NIM10pW0NIMl1bTkhdQyg9TylbTkhdYzJuW2NIXVtjSF1zMg==

> <s_epik_cmdline>
J2VwaWtfcHl0aG9uJywgJy1waCcsICc3LjAnLCAnLXRuJywgJzgnLCAnLW1hJywgJzIwMCcsICctbWV0YWxfYmluZGluZycsICctaW1hZScsICc8aW5maWxlLm1hZT4nLCAnLW9tYWUnLCAnPG91dGZpbGUubWFlPic=

> <r_epik_Ionization_Penalty>
6.3441

> <r_epik_Ionization_Penalty_Charging>
5.51153

> <r_epik_Ionization_Penalty_Neutral>
0.832567

> <r_epik_State_Penalty>
6.33945

> <r_epik_Charging_Adjusted_Penalty>
11.851

> <i_epik_Tot_Q>
0

> <i_epik_Tot_abs_Q>
2

> <r_epik_Metal_State_Penalty>
2.34542

> <b_epik_Metal_Only>
1

> <s_lp_Force_Field>
OPLS_2005

> <r_lp_Energy>
17.5564

> <b_lp_Chiralities_Consistent>
1

> <s_lp_Variant>
AV-unprocessed.smi:1971-9

> <Gold.Version>
5.8.1

> <Gold.Id.Protein>
6NUR|6NUR_protein|mol2

> <Gold.PLP.Fitness>
38.8508

> <Gold.PLP.PLP>
-28.2807

> <Gold.PLP.part.hbond>
-3.0000

> <Gold.PLP.part.metal>
0.0000

> <Gold.PLP.part.buried>
-2.4442

> <Gold.PLP.part.nonpolar>
-24.1736

> <Gold.PLP.part.repulsive>
0.2224

> <Gold.PLP.ligand.clash>
0.0000

> <Gold.PLP.ligand.torsion>
2.1841

> <Gold.PLP.Chemscore.Hbond>
3.9325

> <Gold.PLP.Chemscore.CHOScore>
1.0000

> <Gold.PLP.Chemscore.Metal>
0.0000

> <Gold.Chemscore.Hbonds>
donor molecule, donor type, donor heavy atom, donor atom, acceptor molecule, acceptor atom, score
      L1  H     6    43       P1  7948  1.85
      P1  H  6896  6907       L1    12  1.00
      P1  H  7989  7998       L1     3  0.95
      L1  C    17    38       P1 10737  0.61

> <Gold.PLP.Chemscore.Internal.Correction>
0.1408

> <Gold.Rescore>
     Score         DG    S(hbond)    S(metal)    S(lipo)     H(rot)  DE(clash)    DE(int)     intcor
     12.44     -14.83       1.90        0.00      63.85       1.75       0.15       2.24       ----

> <Gold.Chemscore.Fitness>
12.4395

> <Gold.Chemscore.DG>
-14.8299

> <Gold.Chemscore.ZeroCoef>
-5.4800

> <Gold.Chemscore.Hbond>
1.9045

> <Gold.Chemscore.Metal>
0.0000

> <Gold.Chemscore.Lipo>
63.8488

> <Gold.Chemscore.Internal_Hbond>
0.0000

> <Gold.Chemscore.DEClash>
0.1538

> <Gold.Chemscore.DEInternal>
2.2366

> <Gold.Chemscore.Rot>
1.7505

> <Gold.Chemscore.Internal.Correction>
   9.000000E+99

> <Gold.Chemscore.Hbonds>
donor molecule, donor type, donor heavy atom, donor atom, acceptor molecule, acceptor atom, score
      L1  H     6    43       P1  7948  0.22
      P1  H  6896  6907       L1    12  1.00
      P1  H  7989  7998       L1     3  0.05

> <Gold.Chemscore.Hbond.Weighted>
-6.3609

> <Gold.Chemscore.Metal.Weighted>
-0.0000

> <Gold.Chemscore.Lipo.Weighted>
-7.4703

> <Gold.Chemscore.Internal_Hbond.Weighted>
0.0000

> <Gold.Chemscore.DEClash.Weighted>
0.1538

> <Gold.Chemscore.DEInternal.Weighted>
2.2366

> <Gold.Chemscore.Rot.Weighted>
4.4813

> <Gold.Chemscore.Internal.Correction.Weighted>
   9.000000E+99

> <Gold.Protein.RotatedTorsions>
[ 6907 6896 6895 6894 ] final -143.35 input  -60.11 | X-H torsion
[ 7974 7965 7964 7962 ] final  -66.09 input  175.53 | X-H torsion
[ 8008 7997 7996 7995 ] final  -18.31 input   59.86 | X-H torsion
[ 10167 10162 10161 10158 ] final -170.73 input  -65.29 | X-H torsion
[ 10718 10713 10712 10709 ] final  -92.32 input   66.30 | X-H torsion
[ 10763 10752 10751 10750 ] final    3.19 input  -60.55 | X-H torsion
[ 11005 11000 10999 10996 ] final  -62.92 input  -57.11 | X-H torsion

> <Gold.Protein.ActiveResidues>
 VAL166  LYS551  ARG553  GLY616  TRP617  ASP618  TYR619  PRO620  LYS621  CYS622 
 ASP623  PHE694  ASN695  SER759  ASP760  ASP761  ALA762  ILE779  LEU786  VAL792 
 PHE793  MET794  SER795  GLU796  ALA797  LYS798  CYS799  TRP800  GLU811  SER814 

> <Gold.Protein.RotatedAtoms>
  151.0992  133.5256  159.2610 H   0  0  0  0  0  0  0  0  0  0  0  0  # atno 6907 bound_to 6896
  151.2093  135.0474  159.8914 H   0  0  0  0  0  0  0  0  0  0  0  0  # atno 6908 bound_to 6896
  152.5441  134.0810  159.8289 H   0  0  0  0  0  0  0  0  0  0  0  0  # atno 6909 bound_to 6896
  145.7461  140.8931  143.0504 H   0  0  0  0  0  0  0  0  0  0  0  0  # atno 7974 bound_to 7965
  154.4915  140.2119  155.9538 H   0  0  0  0  0  0  0  0  0  0  0  0  # atno 8008 bound_to 7997
  156.1312  140.3196  155.8320 H   0  0  0  0  0  0  0  0  0  0  0  0  # atno 8009 bound_to 7997
  155.4293  140.0502  157.3010 H   0  0  0  0  0  0  0  0  0  0  0  0  # atno 8010 bound_to 7997
  139.5844  144.1350  152.1557 H   0  0  0  0  0  0  0  0  0  0  0  0  # atno 10167 bound_to 10162
  156.0001  130.4983  150.5608 H   0  0  0  0  0  0  0  0  0  0  0  0  # atno 10718 bound_to 10713
  153.2864  135.6945  153.7335 H   0  0  0  0  0  0  0  0  0  0  0  0  # atno 10763 bound_to 10752
  153.6303  135.3411  155.3040 H   0  0  0  0  0  0  0  0  0  0  0  0  # atno 10764 bound_to 10752
  154.8511  135.4407  154.1933 H   0  0  0  0  0  0  0  0  0  0  0  0  # atno 10765 bound_to 10752
  141.1376  133.6645  156.5601 H   0  0  0  0  0  0  0  0  0  0  0  0  # atno 11005 bound_to 11000
  144.6860  139.9527  143.7478 LP  0  0  0  0  0  0  0  0  0  0  0  0  # atno 17320 bound_to 7965
  146.0402  139.3414  143.0702 LP  0  0  0  0  0  0  0  0  0  0  0  0  # atno 17321 bound_to 7965
  140.0911  144.5620  150.7054 LP  0  0  0  0  0  0  0  0  0  0  0  0  # atno 17342 bound_to 10162
  140.7118  143.2511  151.4557 LP  0  0  0  0  0  0  0  0  0  0  0  0  # atno 17343 bound_to 10162
  157.3518  131.0735  151.1707 LP  0  0  0  0  0  0  0  0  0  0  0  0  # atno 17370 bound_to 10713
  157.2521  130.6619  149.5936 LP  0  0  0  0  0  0  0  0  0  0  0  0  # atno 17371 bound_to 10713
  140.3995  134.7369  157.4771 LP  0  0  0  0  0  0  0  0  0  0  0  0  # atno 17394 bound_to 11000
  140.0506  134.6135  155.8866 LP  0  0  0  0  0  0  0  0  0  0  0  0  # atno 17395 bound_to 11000

$$$$
