AV-unprocessed.smi:634|AV-procd|sdf|3137|dock5
  -GOLD-   22720 0 63D 1   1.00000     0.00000
 Structure written by MMmdl.
 32 33  0  0  0  0  0  0  0  0  2 V2000
  145.5723  134.6503  162.9428 C   0  0  0  0  0  0  0  0  0  0  0  0
  146.4420  135.2886  161.9150 C   0  0  0  0  0  0  0  0  0  0  0  0
  147.0029  134.8307  160.7562 C   0  0  0  0  0  0  0  0  0  0  0  0
  147.7118  135.9628  160.2729 C   0  0  0  0  0  0  0  0  0  0  0  0
  148.4511  135.8913  159.0628 N   0  0  0  0  0  0  0  0  0  0  0  0
  149.3678  136.7508  158.5831 C   0  0  0  0  0  0  0  0  0  0  0  0
  149.6440  137.7819  159.2050 O   0  0  0  0  0  0  0  0  0  0  0  0
  149.8960  136.3303  157.3991 N   0  5  0  0  0  0  0  0  0  0  0  0
  150.9201  136.9998  156.5757 C   0  0  1  0  0  0  0  0  0  0  0  0
  152.2885  136.4853  157.0695 C   0  0  0  0  0  0  0  0  0  0  0  0
  150.7578  136.6727  155.0662 C   0  0  0  0  0  0  0  0  0  0  0  0
  151.5981  137.6574  154.2370 C   0  0  0  0  0  0  0  0  0  0  0  0
  151.6395  139.2213  155.1957 S   0  0  0  0  0  0  0  0  0  0  0  0
  153.0409  139.5736  155.4740 O   0  0  0  0  0  0  0  0  0  0  0  0
  150.7276  140.1989  154.5815 O   0  0  0  0  0  0  0  0  0  0  0  0
  150.8595  138.5393  156.7131 C   0  0  0  0  0  0  0  0  0  0  0  0
  147.5906  137.0179  161.0655 N   0  0  0  0  0  0  0  0  0  0  0  0
  146.7767  136.5911  162.1215 O   0  0  0  0  0  0  0  0  0  0  0  0
  145.5512  133.5675  162.8173 H   0  0  0  0  0  0  0  0  0  0  0  0
  144.5502  135.0208  162.8663 H   0  0  0  0  0  0  0  0  0  0  0  0
  145.9373  134.8663  163.9471 H   0  0  0  0  0  0  0  0  0  0  0  0
  146.9207  133.8436  160.3259 H   0  0  0  0  0  0  0  0  0  0  0  0
  148.2767  135.0776  158.4919 H   0  0  0  0  0  0  0  0  0  0  0  0
  153.1176  136.9405  156.5280 H   0  0  0  0  0  0  0  0  0  0  0  0
  152.3750  135.4049  156.9462 H   0  0  0  0  0  0  0  0  0  0  0  0
  152.4367  136.7055  158.1276 H   0  0  0  0  0  0  0  0  0  0  0  0
  151.0199  135.6384  154.8401 H   0  0  0  0  0  0  0  0  0  0  0  0
  149.7198  136.7980  154.7596 H   0  0  0  0  0  0  0  0  0  0  0  0
  152.6224  137.3036  154.1150 H   0  0  0  0  0  0  0  0  0  0  0  0
  151.1767  137.8370  153.2479 H   0  0  0  0  0  0  0  0  0  0  0  0
  149.8371  138.9148  156.7370 H   0  0  0  0  0  0  0  0  0  0  0  0
  151.3728  138.9141  157.5987 H   0  0  0  0  0  0  0  0  0  0  0  0
  1  2  1  0  0  0  0
  1 19  1  0  0  0  0
  1 20  1  0  0  0  0
  1 21  1  0  0  0  0
  2 18  1  0  0  0  0
  2  3  2  0  0  0  0
  3  4  1  0  0  0  0
  3 22  1  0  0  0  0
  4  5  1  0  0  0  0
  4 17  2  0  0  0  0
  5  6  1  0  0  0  0
  5 23  1  0  0  0  0
  6  7  2  0  0  0  0
  6  8  1  0  0  0  0
  8  9  1  0  0  0  0
  9 16  1  0  0  0  0
  9 10  1  0  0  0  0
  9 11  1  0  0  0  0
 10 24  1  0  0  0  0
 10 25  1  0  0  0  0
 10 26  1  0  0  0  0
 11 12  1  0  0  0  0
 11 27  1  0  0  0  0
 11 28  1  0  0  0  0
 12 13  1  0  0  0  0
 12 29  1  0  0  0  0
 12 30  1  0  0  0  0
 13 14  2  0  0  0  0
 13 15  2  0  0  0  0
 13 16  1  0  0  0  0
 16 31  1  0  0  0  0
 16 32  1  0  0  0  0
 17 18  1  0  0  0  0
M  CHG  1   8  -1
M  END
> <s_m_source_file>
AV-unprocessed.smi

> <i_m_source_file_index>
634

> <i_lp_mmshare_version>
43012

> <i_f3d_flags>
0

> <s_epik_input>
W0NIM11jMVtjSF1jKG5vMSlbTkhdQyg9TylbTkhdW0NAQF0yKFtDSDNdKVtDSDJdW0NIMl1TKD1PKSg9TylbQ0gyXTI=

> <s_epik_cmdline>
J2VwaWtfcHl0aG9uJywgJy1waCcsICc3LjAnLCAnLXRuJywgJzgnLCAnLW1hJywgJzIwMCcsICctbWV0YWxfYmluZGluZycsICctaW1hZScsICc8aW5maWxlLm1hZT4nLCAnLW9tYWUnLCAnPG91dGZpbGUubWFlPic=

> <r_lp_tautomer_probability>
1

> <r_epik_Ionization_Penalty>
6.62388

> <r_epik_Ionization_Penalty_Charging>
6.62387

> <r_epik_Ionization_Penalty_Neutral>
5.45748e-06

> <r_epik_State_Penalty>
6.65157

> <r_epik_Charging_Adjusted_Penalty>
13.2754

> <i_epik_Tot_Q>
-1

> <i_epik_Tot_abs_Q>
1

> <r_epik_Metal_State_Penalty>
2.59195

> <b_epik_Metal_Only>
1

> <s_lp_Force_Field>
OPLS_2005

> <r_lp_Energy>
8.12985

> <b_lp_Chiralities_Consistent>
1

> <s_lp_Variant>
AV-unprocessed.smi:634-5

> <Gold.Version>
5.8.1

> <Gold.Id.Protein>
6NUR|6NUR_protein|mol2

> <Gold.PLP.Fitness>
35.3727

> <Gold.PLP.PLP>
-24.9346

> <Gold.PLP.part.hbond>
-4.8382

> <Gold.PLP.part.metal>
0.0000

> <Gold.PLP.part.buried>
-3.4774

> <Gold.PLP.part.nonpolar>
-17.8288

> <Gold.PLP.part.repulsive>
0.2075

> <Gold.PLP.ligand.clash>
0.0000

> <Gold.PLP.ligand.torsion>
0.6035

> <Gold.PLP.Chemscore.Hbond>
3.8802

> <Gold.PLP.Chemscore.CHOScore>
0.0000

> <Gold.PLP.Chemscore.Metal>
0.0000

> <Gold.Chemscore.Hbonds>
donor molecule, donor type, donor heavy atom, donor atom, acceptor molecule, acceptor atom, score
      P1  H  6931  6943       L1    17  0.86
      P1  H  6934  6947       L1    17  0.92
      P1  H  7989  7998       L1    15  1.00
      P1  H  7997  8008       L1    14  1.00

> <Gold.PLP.Chemscore.Internal.Correction>
0.0048

> <Gold.Rescore>
     Score         DG    S(hbond)    S(metal)    S(lipo)     H(rot)  DE(clash)    DE(int)     intcor
     16.13     -19.45       3.37        0.00      45.22       1.00       0.15       3.18       ----

> <Gold.Chemscore.Fitness>
16.1261

> <Gold.Chemscore.DG>
-19.4525

> <Gold.Chemscore.ZeroCoef>
-5.4800

> <Gold.Chemscore.Hbond>
3.3658

> <Gold.Chemscore.Metal>
0.0000

> <Gold.Chemscore.Lipo>
45.2192

> <Gold.Chemscore.Internal_Hbond>
0.0000

> <Gold.Chemscore.DEClash>
0.1474

> <Gold.Chemscore.DEInternal>
3.1790

> <Gold.Chemscore.Rot>
1.0000

> <Gold.Chemscore.Internal.Correction>
   9.000000E+99

> <Gold.Chemscore.Hbonds>
donor molecule, donor type, donor heavy atom, donor atom, acceptor molecule, acceptor atom, score
      P1  H  6931  6943       L1    17  0.44
      P1  H  6934  6947       L1    17  0.33
      P1  H  7989  7998       L1    15  0.38
      P1  H  7997  8008       L1    14  0.98

> <Gold.Chemscore.Hbond.Weighted>
-11.2419

> <Gold.Chemscore.Metal.Weighted>
-0.0000

> <Gold.Chemscore.Lipo.Weighted>
-5.2907

> <Gold.Chemscore.Internal_Hbond.Weighted>
0.0000

> <Gold.Chemscore.DEClash.Weighted>
0.1474

> <Gold.Chemscore.DEInternal.Weighted>
3.1790

> <Gold.Chemscore.Rot.Weighted>
2.5600

> <Gold.Chemscore.Internal.Correction.Weighted>
   9.000000E+99

> <Gold.Protein.RotatedTorsions>
[ 6907 6896 6895 6894 ] final  -32.55 input  -60.11 | X-H torsion
[ 7974 7965 7964 7962 ] final -172.01 input  175.53 | X-H torsion
[ 8008 7997 7996 7995 ] final  -17.23 input   59.86 | X-H torsion
[ 10167 10162 10161 10158 ] final  -15.63 input  -65.29 | X-H torsion
[ 10718 10713 10712 10709 ] final -178.40 input   66.30 | X-H torsion
[ 10763 10752 10751 10750 ] final  -61.73 input  -60.55 | X-H torsion
[ 11005 11000 10999 10996 ] final   -5.04 input  -57.11 | X-H torsion

> <Gold.Protein.ActiveResidues>
 VAL166  LYS551  ARG553  GLY616  TRP617  ASP618  TYR619  PRO620  LYS621  CYS622 
 ASP623  PHE694  ASN695  SER759  ASP760  ASP761  ALA762  ILE779  LEU786  VAL792 
 PHE793  MET794  SER795  GLU796  ALA797  LYS798  CYS799  TRP800  GLU811  SER814 

> <Gold.Protein.RotatedAtoms>
  151.0773  134.9836  159.8338 H   0  0  0  0  0  0  0  0  0  0  0  0  # atno 6907 bound_to 6896
  152.5415  134.2225  159.8803 H   0  0  0  0  0  0  0  0  0  0  0  0  # atno 6908 bound_to 6896
  151.2253  133.4436  159.2635 H   0  0  0  0  0  0  0  0  0  0  0  0  # atno 6909 bound_to 6896
  144.7151  140.1837  143.6355 H   0  0  0  0  0  0  0  0  0  0  0  0  # atno 7974 bound_to 7965
  154.4993  140.2148  155.9380 H   0  0  0  0  0  0  0  0  0  0  0  0  # atno 8008 bound_to 7997
  156.1413  140.3179  155.8467 H   0  0  0  0  0  0  0  0  0  0  0  0  # atno 8009 bound_to 7997
  155.4115  140.0491  157.3022 H   0  0  0  0  0  0  0  0  0  0  0  0  # atno 8010 bound_to 7997
  140.7221  143.5198  150.9647 H   0  0  0  0  0  0  0  0  0  0  0  0  # atno 10167 bound_to 10162
  156.8437  130.9695  151.3098 H   0  0  0  0  0  0  0  0  0  0  0  0  # atno 10718 bound_to 10713
  154.2890  135.6257  153.5377 H   0  0  0  0  0  0  0  0  0  0  0  0  # atno 10763 bound_to 10752
  152.9855  135.5651  154.5411 H   0  0  0  0  0  0  0  0  0  0  0  0  # atno 10764 bound_to 10752
  154.5018  135.2872  155.1391 H   0  0  0  0  0  0  0  0  0  0  0  0  # atno 10765 bound_to 10752
  140.6868  133.9106  155.8591 H   0  0  0  0  0  0  0  0  0  0  0  0  # atno 11005 bound_to 11000
  145.8833  139.2335  143.1592 LP  0  0  0  0  0  0  0  0  0  0  0  0  # atno 17320 bound_to 7965
  145.9974  140.8550  143.0036 LP  0  0  0  0  0  0  0  0  0  0  0  0  # atno 17321 bound_to 7965
  139.8915  143.6947  152.3144 LP  0  0  0  0  0  0  0  0  0  0  0  0  # atno 17342 bound_to 10162
  139.7265  144.7592  151.0871 LP  0  0  0  0  0  0  0  0  0  0  0  0  # atno 17343 bound_to 10162
  157.6341  130.8753  149.9328 LP  0  0  0  0  0  0  0  0  0  0  0  0  # atno 17370 bound_to 10713
  156.0866  130.3667  150.0475 LP  0  0  0  0  0  0  0  0  0  0  0  0  # atno 17371 bound_to 10713
  141.0273  134.0805  157.4053 LP  0  0  0  0  0  0  0  0  0  0  0  0  # atno 17394 bound_to 11000
  139.8935  135.0131  156.6903 LP  0  0  0  0  0  0  0  0  0  0  0  0  # atno 17395 bound_to 11000

$$$$
