AV-unprocessed.smi:1997|AV-procd|sdf|8088|dock4
  -GOLD-   2272010303D 1   1.00000     0.00000
 Structure written by MMmdl.
 36 38  0  0  0  0  0  0  0  0  2 V2000
  151.2983  140.3421  155.4153 O   0  0  0  0  0  0  0  0  0  0  0  0
  151.5262  139.6327  156.3981 C   0  0  0  0  0  0  0  0  0  0  0  0
  151.4810  138.2815  156.4390 N   0  5  0  0  0  0  0  0  0  0  0  0
  150.7982  137.6612  157.4153 C   0  0  0  0  0  0  0  0  0  0  0  0
  151.1489  136.4551  157.8836 N   0  0  0  0  0  0  0  0  0  0  0  0
  150.3147  136.0002  158.8947 N   0  0  0  0  0  0  0  0  0  0  0  0
  149.3471  136.8744  159.1810 C   0  0  0  0  0  0  0  0  0  0  0  0
  148.3203  136.6161  160.2323 C   0  0  0  0  0  0  0  0  0  0  0  0
  147.5235  135.3316  160.2356 C   0  0  0  0  0  0  0  0  0  0  0  0
  146.8408  136.6367  159.9149 C   0  0  0  0  0  0  0  0  0  0  0  0
  149.3895  138.3468  158.2241 S   0  0  0  0  0  0  0  0  0  0  0  0
  151.8543  140.1973  157.5704 N   0  0  0  0  0  0  0  0  0  0  0  0
  151.9638  141.6324  157.8427 C   0  0  2  0  0  0  0  0  0  0  0  0
  152.1564  141.8168  159.3693 C   0  0  0  0  0  0  0  0  0  0  0  0
  151.8959  143.2330  159.9303 C   0  0  0  0  0  0  0  0  0  0  0  0
  152.5003  144.3880  159.1057 C   0  0  0  0  0  0  0  0  0  0  0  0
  152.0067  144.5319  157.6424 C   0  0  0  0  0  0  0  0  0  0  0  0
  150.8113  143.7536  157.3180 N   0  0  0  0  0  0  0  0  0  0  0  0
  150.7167  142.4140  157.3705 C   0  0  0  0  0  0  0  0  0  0  0  0
  149.6695  141.8351  157.0837 O   0  0  0  0  0  0  0  0  0  0  0  0
  148.6412  137.0200  161.1904 H   0  0  0  0  0  0  0  0  0  0  0  0
  147.6858  134.6350  159.4154 H   0  0  0  0  0  0  0  0  0  0  0  0
  147.3121  134.8757  161.2004 H   0  0  0  0  0  0  0  0  0  0  0  0
  146.1725  137.0527  160.6659 H   0  0  0  0  0  0  0  0  0  0  0  0
  146.5379  136.7982  158.8822 H   0  0  0  0  0  0  0  0  0  0  0  0
  152.0267  139.5757  158.3465 H   0  0  0  0  0  0  0  0  0  0  0  0
  152.8451  142.0082  157.3215 H   0  0  0  0  0  0  0  0  0  0  0  0
  151.5130  141.1210  159.9106 H   0  0  0  0  0  0  0  0  0  0  0  0
  153.1770  141.5237  159.6186 H   0  0  0  0  0  0  0  0  0  0  0  0
  150.8217  143.3923  160.0354 H   0  0  0  0  0  0  0  0  0  0  0  0
  152.2864  143.2803  160.9472 H   0  0  0  0  0  0  0  0  0  0  0  0
  152.2813  145.3182  159.6310 H   0  0  0  0  0  0  0  0  0  0  0  0
  153.5875  144.3046  159.1085 H   0  0  0  0  0  0  0  0  0  0  0  0
  151.7954  145.5804  157.4314 H   0  0  0  0  0  0  0  0  0  0  0  0
  152.8033  144.2541  156.9509 H   0  0  0  0  0  0  0  0  0  0  0  0
  149.9958  144.2700  157.0220 H   0  0  0  0  0  0  0  0  0  0  0  0
  1  2  2  0  0  0  0
  2  3  1  0  0  0  0
  2 12  1  0  0  0  0
  3  4  1  0  0  0  0
  4 11  1  0  0  0  0
  4  5  2  0  0  0  0
  5  6  1  0  0  0  0
  6  7  2  0  0  0  0
  7  8  1  0  0  0  0
  7 11  1  0  0  0  0
  8 10  1  0  0  0  0
  8  9  1  0  0  0  0
  8 21  1  0  0  0  0
  9 10  1  0  0  0  0
  9 22  1  0  0  0  0
  9 23  1  0  0  0  0
 10 24  1  0  0  0  0
 10 25  1  0  0  0  0
 12 13  1  0  0  0  0
 12 26  1  0  0  0  0
 13 19  1  0  0  0  0
 13 14  1  0  0  0  0
 13 27  1  0  0  0  0
 14 15  1  0  0  0  0
 14 28  1  0  0  0  0
 14 29  1  0  0  0  0
 15 16  1  0  0  0  0
 15 30  1  0  0  0  0
 15 31  1  0  0  0  0
 16 17  1  0  0  0  0
 16 32  1  0  0  0  0
 16 33  1  0  0  0  0
 17 18  1  0  0  0  0
 17 34  1  0  0  0  0
 17 35  1  0  0  0  0
 18 19  1  0  0  0  0
 18 36  1  0  0  0  0
 19 20  2  0  0  0  0
M  CHG  1   3  -1
M  END
> <s_m_source_file>
AV-unprocessed.smi

> <i_m_source_file_index>
1997

> <i_lp_mmshare_version>
43012

> <i_f3d_flags>
0

> <s_epik_input>
W0NIMl0xW0NIMl1bQ0hdMWMoczIpbm5jMltOSF1DKD1PKVtOSF1bQ0BASF0zW0NIMl1bQ0gyXVtDSDJdW0NIMl1bTkhdQzM9Tw==

> <s_epik_cmdline>
J2VwaWtfcHl0aG9uJywgJy1waCcsICc3LjAnLCAnLXRuJywgJzgnLCAnLW1hJywgJzIwMCcsICctbWV0YWxfYmluZGluZycsICctaW1hZScsICc8aW5maWxlLm1hZT4nLCAnLW9tYWUnLCAnPG91dGZpbGUubWFlPic=

> <r_lp_tautomer_probability>
1

> <r_epik_Ionization_Penalty>
4.47229

> <r_epik_Ionization_Penalty_Charging>
4.32584

> <r_epik_Ionization_Penalty_Neutral>
0.146443

> <r_epik_State_Penalty>
4.32544

> <r_epik_Charging_Adjusted_Penalty>
8.65129

> <i_epik_Tot_Q>
-1

> <i_epik_Tot_abs_Q>
1

> <r_epik_Metal_State_Penalty>
0.738743

> <b_epik_Metal_Only>
1

> <s_lp_Force_Field>
OPLS_2005

> <r_lp_Energy>
12.6103

> <b_lp_Chiralities_Consistent>
1

> <s_lp_Variant>
AV-unprocessed.smi:1997-3

> <Gold.Version>
5.8.1

> <Gold.Id.Protein>
6NUR|6NUR_protein|mol2

> <Gold.PLP.Fitness>
40.3076

> <Gold.PLP.PLP>
-32.8222

> <Gold.PLP.part.hbond>
-3.5791

> <Gold.PLP.part.metal>
0.0000

> <Gold.PLP.part.buried>
-6.2820

> <Gold.PLP.part.nonpolar>
-23.4841

> <Gold.PLP.part.repulsive>
0.2152

> <Gold.PLP.ligand.clash>
0.0000

> <Gold.PLP.ligand.torsion>
0.7646

> <Gold.PLP.Chemscore.Hbond>
2.9520

> <Gold.PLP.Chemscore.CHOScore>
0.0000

> <Gold.PLP.Chemscore.Metal>
0.0000

> <Gold.Chemscore.Hbonds>
donor molecule, donor type, donor heavy atom, donor atom, acceptor molecule, acceptor atom, score
      L1  H    18    36       P1  8028  0.98
      P1  H  6896  6907       L1     6  0.93
      P1  H  7989  7998       L1     1  0.96

> <Gold.PLP.Chemscore.Internal.Correction>
0.1587

> <Gold.Rescore>
     Score         DG    S(hbond)    S(metal)    S(lipo)     H(rot)  DE(clash)    DE(int)     intcor
     16.71     -17.58       1.85        0.00      78.53       1.27       0.12       0.74       ----

> <Gold.Chemscore.Fitness>
16.7146

> <Gold.Chemscore.DG>
-17.5782

> <Gold.Chemscore.ZeroCoef>
-5.4800

> <Gold.Chemscore.Hbond>
1.8476

> <Gold.Chemscore.Metal>
0.0000

> <Gold.Chemscore.Lipo>
78.5320

> <Gold.Chemscore.Internal_Hbond>
0.0000

> <Gold.Chemscore.DEClash>
0.1214

> <Gold.Chemscore.DEInternal>
0.7422

> <Gold.Chemscore.Rot>
1.2738

> <Gold.Chemscore.Internal.Correction>
   9.000000E+99

> <Gold.Chemscore.Hbonds>
donor molecule, donor type, donor heavy atom, donor atom, acceptor molecule, acceptor atom, score
      L1  H    18    36       P1  8028  0.72
      P1  H  6896  6907       L1     6  0.79
      P1  H  7989  7998       L1     1  0.88

> <Gold.Chemscore.Hbond.Weighted>
-6.1709

> <Gold.Chemscore.Metal.Weighted>
-0.0000

> <Gold.Chemscore.Lipo.Weighted>
-9.1882

> <Gold.Chemscore.Internal_Hbond.Weighted>
0.0000

> <Gold.Chemscore.DEClash.Weighted>
0.1214

> <Gold.Chemscore.DEInternal.Weighted>
0.7422

> <Gold.Chemscore.Rot.Weighted>
3.2610

> <Gold.Chemscore.Internal.Correction.Weighted>
   9.000000E+99

> <Gold.Protein.RotatedTorsions>
[ 6907 6896 6895 6894 ] final  -56.47 input  -60.11 | X-H torsion
[ 7974 7965 7964 7962 ] final    3.63 input  175.53 | X-H torsion
[ 8008 7997 7996 7995 ] final -174.32 input   59.86 | X-H torsion
[ 10167 10162 10161 10158 ] final  123.10 input  -65.29 | X-H torsion
[ 10718 10713 10712 10709 ] final -139.90 input   66.30 | X-H torsion
[ 10763 10752 10751 10750 ] final -163.82 input  -60.55 | X-H torsion
[ 11005 11000 10999 10996 ] final -139.57 input  -57.11 | X-H torsion

> <Gold.Protein.ActiveResidues>
 VAL166  LYS551  ARG553  GLY616  TRP617  ASP618  TYR619  PRO620  LYS621  CYS622 
 ASP623  PHE694  ASN695  SER759  ASP760  ASP761  ALA762  ILE779  LEU786  VAL792 
 PHE793  MET794  SER795  GLU796  ALA797  LYS798  CYS799  TRP800  GLU811  SER814 

> <Gold.Protein.RotatedAtoms>
  150.8165  134.7350  159.6734 H   0  0  0  0  0  0  0  0  0  0  0  0  # atno 6907 bound_to 6896
  152.4283  134.5822  159.9961 H   0  0  0  0  0  0  0  0  0  0  0  0  # atno 6908 bound_to 6896
  151.6017  133.3318  159.3085 H   0  0  0  0  0  0  0  0  0  0  0  0  # atno 6909 bound_to 6896
  146.2445  140.0656  142.8365 H   0  0  0  0  0  0  0  0  0  0  0  0  # atno 7974 bound_to 7965
  155.9686  140.1158  157.0832 H   0  0  0  0  0  0  0  0  0  0  0  0  # atno 8008 bound_to 7997
  154.4150  140.1168  156.5343 H   0  0  0  0  0  0  0  0  0  0  0  0  # atno 8009 bound_to 7997
  155.6626  140.3473  155.4790 H   0  0  0  0  0  0  0  0  0  0  0  0  # atno 8010 bound_to 7997
  139.5819  144.6990  151.3506 H   0  0  0  0  0  0  0  0  0  0  0  0  # atno 10167 bound_to 10162
  156.3161  130.7508  151.1595 H   0  0  0  0  0  0  0  0  0  0  0  0  # atno 10718 bound_to 10713
  154.7086  135.3002  154.9231 H   0  0  0  0  0  0  0  0  0  0  0  0  # atno 10763 bound_to 10752
  154.0140  135.6691  153.4771 H   0  0  0  0  0  0  0  0  0  0  0  0  # atno 10764 bound_to 10752
  153.0737  135.5046  154.8272 H   0  0  0  0  0  0  0  0  0  0  0  0  # atno 10765 bound_to 10752
  140.8507  134.2289  157.4762 H   0  0  0  0  0  0  0  0  0  0  0  0  # atno 11005 bound_to 11000
  145.0862  140.9254  143.4796 LP  0  0  0  0  0  0  0  0  0  0  0  0  # atno 17320 bound_to 7965
  145.0819  139.2954  143.5779 LP  0  0  0  0  0  0  0  0  0  0  0  0  # atno 17321 bound_to 7965
  140.7096  143.7424  150.7543 LP  0  0  0  0  0  0  0  0  0  0  0  0  # atno 17342 bound_to 10162
  140.0959  143.4833  152.2453 LP  0  0  0  0  0  0  0  0  0  0  0  0  # atno 17343 bound_to 10162
  157.7402  131.0520  150.5184 LP  0  0  0  0  0  0  0  0  0  0  0  0  # atno 17370 bound_to 10713
  156.5330  130.4189  149.6192 LP  0  0  0  0  0  0  0  0  0  0  0  0  # atno 17371 bound_to 10713
  139.8704  134.9682  156.4622 LP  0  0  0  0  0  0  0  0  0  0  0  0  # atno 17394 bound_to 11000
  140.8793  133.7930  155.9449 LP  0  0  0  0  0  0  0  0  0  0  0  0  # atno 17395 bound_to 11000

$$$$
