AV-unprocessed.smi:442|AV-procd|sdf|2584|dock9
  -GOLD-   2262022573D 1   1.00000     0.00000
 Structure written by MMmdl.
 37 37  0  0  0  0  0  0  0  0  3 V2000
  152.6351  142.9139  161.4014 C   0  0  0  0  0  0  0  0  0  0  0  0
  152.2285  143.2101  159.9508 C   0  0  0  0  0  0  0  0  0  0  0  0
  150.7976  143.7642  159.8002 C   0  0  1  0  0  0  0  0  0  0  0  0
  150.7227  145.2451  160.1965 C   0  0  0  0  0  0  0  0  0  0  0  0
  150.3285  143.6217  158.4241 N   0  0  0  0  0  0  0  0  0  0  0  0
  150.2727  142.4815  157.7132 C   0  0  0  0  0  0  0  0  0  0  0  0
  150.6439  141.3965  158.1585 O   0  0  0  0  0  0  0  0  0  0  0  0
  149.7260  142.5484  156.2763 C   0  0  0  0  0  0  0  0  0  0  0  0
  149.8136  141.2847  155.5174 N   0  0  0  0  0  0  0  0  0  0  0  0
  151.0967  140.7247  155.3835 C   0  0  0  0  0  0  0  0  0  0  0  0
  151.3139  139.5818  154.7098 C   0  0  0  0  0  0  0  0  0  0  0  0
  152.6462  139.0320  154.5763 N   0  3  0  0  0  0  0  0  0  0  0  0
  152.7818  137.9390  154.0362 O   0  0  0  0  0  0  0  0  0  0  0  0
  153.6008  139.6733  155.0051 O   0  5  0  0  0  0  0  0  0  0  0  0
  150.1720  138.9210  154.1123 C   0  0  0  0  0  0  0  0  0  0  0  0
  148.9251  139.4465  154.2223 C   0  0  0  0  0  0  0  0  0  0  0  0
  147.7308  138.8078  153.6247 C   0  0  0  0  0  0  0  0  0  0  0  0
  147.7374  138.7691  152.2865 N   0  0  0  0  0  0  0  0  0  0  0  0
  146.7696  138.3284  154.2257 O   0  0  0  0  0  0  0  0  0  0  0  0
  148.6967  140.7170  154.9633 C   0  0  0  0  0  0  0  0  0  0  0  0
  147.6010  141.2687  155.0944 O   0  0  0  0  0  0  0  0  0  0  0  0
  153.6726  142.5837  161.4517 H   0  0  0  0  0  0  0  0  0  0  0  0
  152.0198  142.1276  161.8388 H   0  0  0  0  0  0  0  0  0  0  0  0
  152.5387  143.8023  162.0258 H   0  0  0  0  0  0  0  0  0  0  0  0
  152.9343  143.9312  159.5371 H   0  0  0  0  0  0  0  0  0  0  0  0
  152.3387  142.3038  159.3539 H   0  0  0  0  0  0  0  0  0  0  0  0
  150.1429  143.2143  160.4784 H   0  0  0  0  0  0  0  0  0  0  0  0
  151.0439  145.3928  161.2279 H   0  0  0  0  0  0  0  0  0  0  0  0
  149.7028  145.6222  160.1130 H   0  0  0  0  0  0  0  0  0  0  0  0
  151.3582  145.8605  159.5585 H   0  0  0  0  0  0  0  0  0  0  0  0
  150.0046  144.4653  157.9743 H   0  0  0  0  0  0  0  0  0  0  0  0
  148.6886  142.8817  156.3294 H   0  0  0  0  0  0  0  0  0  0  0  0
  150.2433  143.3503  155.7467 H   0  0  0  0  0  0  0  0  0  0  0  0
  151.8844  141.2939  155.8560 H   0  0  0  0  0  0  0  0  0  0  0  0
  150.3443  137.9996  153.5767 H   0  0  0  0  0  0  0  0  0  0  0  0
  146.9656  138.3528  151.7866 H   0  0  0  0  0  0  0  0  0  0  0  0
  148.5195  139.1591  151.7805 H   0  0  0  0  0  0  0  0  0  0  0  0
  1  2  1  0  0  0  0
  1 22  1  0  0  0  0
  1 23  1  0  0  0  0
  1 24  1  0  0  0  0
  2  3  1  0  0  0  0
  2 25  1  0  0  0  0
  2 26  1  0  0  0  0
  3  4  1  0  0  0  0
  3  5  1  0  0  0  0
  3 27  1  0  0  0  0
  4 28  1  0  0  0  0
  4 29  1  0  0  0  0
  4 30  1  0  0  0  0
  5  6  1  0  0  0  0
  5 31  1  0  0  0  0
  6  7  2  0  0  0  0
  6  8  1  0  0  0  0
  8  9  1  0  0  0  0
  8 32  1  0  0  0  0
  8 33  1  0  0  0  0
  9 20  1  0  0  0  0
  9 10  1  0  0  0  0
 10 11  2  0  0  0  0
 10 34  1  0  0  0  0
 11 12  1  0  0  0  0
 11 15  1  0  0  0  0
 12 13  2  0  0  0  0
 12 14  1  0  0  0  0
 15 16  2  0  0  0  0
 15 35  1  0  0  0  0
 16 17  1  0  0  0  0
 16 20  1  0  0  0  0
 17 18  1  0  0  0  0
 17 19  2  0  0  0  0
 18 36  1  0  0  0  0
 18 37  1  0  0  0  0
 20 21  2  0  0  0  0
M  CHG  1  12   1
M  CHG  1  14  -1
M  END
> <s_m_source_file>
AV-unprocessed.smi

> <i_m_source_file_index>
442

> <i_lp_mmshare_version>
43012

> <i_f3d_flags>
0

> <s_epik_input>
W0NIM11bQ0gyXVtDQEhdKFtDSDNdKVtOSF1DKD1PKVtDSDJdbjFbY0hdYyhbTitdKD1PKVtPLV0pW2NIXWMoYzE9TylDKD1PKVtOSDJd

> <s_epik_cmdline>
J2VwaWtfcHl0aG9uJywgJy1waCcsICc3LjAnLCAnLXRuJywgJzgnLCAnLW1hJywgJzIwMCcsICctbWV0YWxfYmluZGluZycsICctaW1hZScsICc8aW5maWxlLm1hZT4nLCAnLW9tYWUnLCAnPG91dGZpbGUubWFlPic=

> <r_lp_tautomer_probability>
1

> <r_epik_Ionization_Penalty>
2.86914e-06

> <r_epik_Ionization_Penalty_Charging>
2.2828e-12

> <r_epik_Ionization_Penalty_Neutral>
2.86914e-06

> <r_epik_State_Penalty>
-0

> <r_epik_Charging_Adjusted_Penalty>
2.2828e-12

> <i_epik_Tot_Q>
0

> <i_epik_Tot_abs_Q>
2

> <r_epik_Metal_State_Penalty>
-0

> <b_epik_Metal_Only>
0

> <s_lp_Force_Field>
OPLS_2005

> <r_lp_Energy>
22.4314

> <b_lp_Chiralities_Consistent>
1

> <s_lp_Variant>
AV-unprocessed.smi:442-2

> <Gold.Version>
5.8.1

> <Gold.Id.Protein>
6NUR|6NUR_protein|mol2

> <Gold.PLP.Fitness>
49.2691

> <Gold.PLP.PLP>
-43.5607

> <Gold.PLP.part.hbond>
-3.5835

> <Gold.PLP.part.metal>
0.0000

> <Gold.PLP.part.buried>
-1.2966

> <Gold.PLP.part.nonpolar>
-39.3513

> <Gold.PLP.part.repulsive>
0.5176

> <Gold.PLP.ligand.clash>
0.0000

> <Gold.PLP.ligand.torsion>
1.4512

> <Gold.PLP.Chemscore.Hbond>
2.8560

> <Gold.PLP.Chemscore.CHOScore>
0.0000

> <Gold.PLP.Chemscore.Metal>
0.0000

> <Gold.Chemscore.Hbonds>
donor molecule, donor type, donor heavy atom, donor atom, acceptor molecule, acceptor atom, score
      L1  H    18    37       P1  7957  0.93
      P1  H  7997  8010       L1    14  0.54
      P1  H 10752 10765       L1    13  0.22

> <Gold.PLP.Chemscore.Internal.Correction>
0.0429

> <Gold.Rescore>
     Score         DG    S(hbond)    S(metal)    S(lipo)     H(rot)  DE(clash)    DE(int)     intcor
     14.55     -19.04       2.84        0.00      79.20       2.03       1.80       2.68       ----

> <Gold.Chemscore.Fitness>
14.5548

> <Gold.Chemscore.DG>
-19.0405

> <Gold.Chemscore.ZeroCoef>
-5.4800

> <Gold.Chemscore.Hbond>
2.8447

> <Gold.Chemscore.Metal>
0.0000

> <Gold.Chemscore.Lipo>
79.1976

> <Gold.Chemscore.Internal_Hbond>
0.0000

> <Gold.Chemscore.DEClash>
1.8020

> <Gold.Chemscore.DEInternal>
2.6836

> <Gold.Chemscore.Rot>
2.0340

> <Gold.Chemscore.Internal.Correction>
   9.000000E+99

> <Gold.Chemscore.Hbonds>
donor molecule, donor type, donor heavy atom, donor atom, acceptor molecule, acceptor atom, score
      L1  H    18    37       P1  7957  0.85
      P1  H  7997  8010       L1    14  0.54
      P1  H 10752 10765       L1    13  0.22

> <Gold.Chemscore.Hbond.Weighted>
-9.5014

> <Gold.Chemscore.Metal.Weighted>
-0.0000

> <Gold.Chemscore.Lipo.Weighted>
-9.2661

> <Gold.Chemscore.Internal_Hbond.Weighted>
0.0000

> <Gold.Chemscore.DEClash.Weighted>
1.8020

> <Gold.Chemscore.DEInternal.Weighted>
2.6836

> <Gold.Chemscore.Rot.Weighted>
5.2071

> <Gold.Chemscore.Internal.Correction.Weighted>
   9.000000E+99

> <Gold.Protein.RotatedTorsions>
[ 6907 6896 6895 6894 ] final  -77.93 input  -60.11 | X-H torsion
[ 7974 7965 7964 7962 ] final  159.07 input  175.53 | X-H torsion
[ 8008 7997 7996 7995 ] final  100.52 input   59.86 | X-H torsion
[ 10167 10162 10161 10158 ] final  -12.01 input  -65.29 | X-H torsion
[ 10718 10713 10712 10709 ] final  134.74 input   66.30 | X-H torsion
[ 10763 10752 10751 10750 ] final  157.32 input  -60.55 | X-H torsion
[ 11005 11000 10999 10996 ] final -121.71 input  -57.11 | X-H torsion

> <Gold.Protein.ActiveResidues>
 VAL166  LYS551  ARG553  GLY616  TRP617  ASP618  TYR619  PRO620  LYS621  CYS622 
 ASP623  PHE694  ASN695  SER759  ASP760  ASP761  ALA762  ILE779  LEU786  VAL792 
 PHE793  MET794  SER795  GLU796  ALA797  LYS798  CYS799  TRP800  GLU811  SER814 

> <Gold.Protein.RotatedAtoms>
  150.6986  134.4349  159.5265 H   0  0  0  0  0  0  0  0  0  0  0  0  # atno 6907 bound_to 6896
  152.2069  134.8534  160.0511 H   0  0  0  0  0  0  0  0  0  0  0  0  # atno 6908 bound_to 6896
  151.9434  133.3609  159.4010 H   0  0  0  0  0  0  0  0  0  0  0  0  # atno 6909 bound_to 6896
  144.7810  139.7566  143.6259 H   0  0  0  0  0  0  0  0  0  0  0  0  # atno 7974 bound_to 7965
  156.1211  140.3212  155.8210 H   0  0  0  0  0  0  0  0  0  0  0  0  # atno 8008 bound_to 7997
  155.4503  140.0532  157.3019 H   0  0  0  0  0  0  0  0  0  0  0  0  # atno 8009 bound_to 7997
  154.4828  140.2060  155.9737 H   0  0  0  0  0  0  0  0  0  0  0  0  # atno 8010 bound_to 7997
  140.7151  143.5578  150.9229 H   0  0  0  0  0  0  0  0  0  0  0  0  # atno 10167 bound_to 10162
  157.4642  131.1075  150.9882 H   0  0  0  0  0  0  0  0  0  0  0  0  # atno 10718 bound_to 10713
  154.1984  135.2791  155.2999 H   0  0  0  0  0  0  0  0  0  0  0  0  # atno 10763 bound_to 10752
  154.5874  135.5570  153.7248 H   0  0  0  0  0  0  0  0  0  0  0  0  # atno 10764 bound_to 10752
  153.0094  135.6360  154.2122 H   0  0  0  0  0  0  0  0  0  0  0  0  # atno 10765 bound_to 10752
  141.0050  134.0348  157.3489 H   0  0  0  0  0  0  0  0  0  0  0  0  # atno 11005 bound_to 11000
  146.2018  139.5318  142.9738 LP  0  0  0  0  0  0  0  0  0  0  0  0  # atno 17320 bound_to 7965
  145.6050  141.0349  143.1998 LP  0  0  0  0  0  0  0  0  0  0  0  0  # atno 17321 bound_to 7965
  139.9304  143.6500  152.3077 LP  0  0  0  0  0  0  0  0  0  0  0  0  # atno 17342 bound_to 10162
  139.6949  144.7642  151.1374 LP  0  0  0  0  0  0  0  0  0  0  0  0  # atno 17343 bound_to 10162
  157.0669  130.5848  149.5395 LP  0  0  0  0  0  0  0  0  0  0  0  0  # atno 17370 bound_to 10713
  156.0043  130.5127  150.7773 LP  0  0  0  0  0  0  0  0  0  0  0  0  # atno 17371 bound_to 10713
  139.9058  135.0179  156.7480 LP  0  0  0  0  0  0  0  0  0  0  0  0  # atno 17394 bound_to 11000
  140.6828  133.9459  155.7920 LP  0  0  0  0  0  0  0  0  0  0  0  0  # atno 17395 bound_to 11000

$$$$
