AV-unprocessed.smi:1005|AV-procd|sdf|4374|dock9
  -GOLD-   22720 2283D 1   1.00000     0.00000
 Structure written by MMmdl.
 57 59  0  0  0  0  0  0  0  0  3 V2000
  152.3464  144.1978  161.2284 C   0  0  0  0  0  0  0  0  0  0  0  0
  152.1442  143.2957  160.0226 C   0  0  0  0  0  0  0  0  0  0  0  0
  151.1920  143.6745  159.0490 C   0  0  0  0  0  0  0  0  0  0  0  0
  151.0308  142.8297  157.9573 C   0  0  0  0  0  0  0  0  0  0  0  0
  150.1913  142.9197  156.8445 N   0  3  0  0  0  0  0  0  0  0  0  0
  150.3929  141.8431  156.0346 C   0  0  0  0  0  0  0  0  0  0  0  0
  151.3482  141.0675  156.6154 N   0  0  0  0  0  0  0  0  0  0  0  0
  151.9430  139.8026  156.1651 C   0  0  0  0  0  0  0  0  0  0  0  0
  150.9188  138.8736  155.4857 C   0  0  2  0  0  0  0  0  0  0  0  0
  150.5549  139.4291  154.2370 O   0  0  0  0  0  0  0  0  0  0  0  0
  149.6483  138.7082  156.3430 C   0  0  0  0  0  0  0  0  0  0  0  0
  149.7676  137.7938  157.4808 N   0  0  0  0  0  0  0  0  0  0  0  0
  150.7984  138.2053  158.4318 C   0  0  0  0  0  0  0  0  0  0  0  0
  150.8766  137.2553  159.6378 C   0  0  0  0  0  0  0  0  0  0  0  0
  149.5983  137.1659  160.2581 O   0  0  0  0  0  0  0  0  0  0  0  0
  148.5786  136.6967  159.3795 C   0  0  1  0  0  0  0  0  0  0  0  0
  147.2664  136.6098  160.1881 C   0  0  0  0  0  0  0  0  0  0  0  0
  147.3607  135.7356  161.3861 N   0  3  0  0  0  0  0  0  0  0  0  0
  148.0737  136.3567  162.5252 C   0  0  0  0  0  0  0  0  0  0  0  0
  147.9206  134.4062  161.0545 C   0  0  0  0  0  0  0  0  0  0  0  0
  148.4968  137.6780  158.1881 C   0  0  0  0  0  0  0  0  0  0  0  0
  151.7759  141.6434  157.8155 C   0  0  0  0  0  0  0  0  0  0  0  0
  152.7182  141.2550  158.7643 C   0  0  0  0  0  0  0  0  0  0  0  0
  152.8984  142.1017  159.8812 C   0  0  0  0  0  0  0  0  0  0  0  0
  153.9209  141.7054  160.9325 C   0  0  0  0  0  0  0  0  0  0  0  0
  151.6756  145.0571  161.2007 H   0  0  0  0  0  0  0  0  0  0  0  0
  153.3689  144.5746  161.2568 H   0  0  0  0  0  0  0  0  0  0  0  0
  152.1514  143.6534  162.1527 H   0  0  0  0  0  0  0  0  0  0  0  0
  150.6156  144.5826  159.1492 H   0  0  0  0  0  0  0  0  0  0  0  0
  149.8903  141.6430  155.0990 H   0  0  0  0  0  0  0  0  0  0  0  0
  152.7698  140.0329  155.4922 H   0  0  0  0  0  0  0  0  0  0  0  0
  152.3814  139.3157  157.0376 H   0  0  0  0  0  0  0  0  0  0  0  0
  151.3926  137.9093  155.3084 H   0  0  0  0  0  0  0  0  0  0  0  0
  149.7824  138.9819  153.9256 H   0  0  0  0  0  0  0  0  0  0  0  0
  149.3346  139.6875  156.7082 H   0  0  0  0  0  0  0  0  0  0  0  0
  148.8439  138.3674  155.6891 H   0  0  0  0  0  0  0  0  0  0  0  0
  151.7758  138.2305  157.9523 H   0  0  0  0  0  0  0  0  0  0  0  0
  150.5953  139.2179  158.7837 H   0  0  0  0  0  0  0  0  0  0  0  0
  151.2096  136.2636  159.3278 H   0  0  0  0  0  0  0  0  0  0  0  0
  151.6004  137.6236  160.3649 H   0  0  0  0  0  0  0  0  0  0  0  0
  148.8643  135.7012  159.0337 H   0  0  0  0  0  0  0  0  0  0  0  0
  147.0256  137.6126  160.5450 H   0  0  0  0  0  0  0  0  0  0  0  0
  146.4294  136.3101  159.5551 H   0  0  0  0  0  0  0  0  0  0  0  0
  149.0764  136.6740  162.2361 H   0  0  0  0  0  0  0  0  0  0  0  0
  148.1655  135.6529  163.3531 H   0  0  0  0  0  0  0  0  0  0  0  0
  147.5290  137.2205  162.9043 H   0  0  0  0  0  0  0  0  0  0  0  0
  148.9465  134.4938  160.6940 H   0  0  0  0  0  0  0  0  0  0  0  0
  147.3270  133.9160  160.2821 H   0  0  0  0  0  0  0  0  0  0  0  0
  147.9198  133.7553  161.9295 H   0  0  0  0  0  0  0  0  0  0  0  0
  148.1891  138.6604  158.5502 H   0  0  0  0  0  0  0  0  0  0  0  0
  147.7241  137.3551  157.4922 H   0  0  0  0  0  0  0  0  0  0  0  0
  153.2917  140.3463  158.6551 H   0  0  0  0  0  0  0  0  0  0  0  0
  154.4442  140.7896  160.6557 H   0  0  0  0  0  0  0  0  0  0  0  0
  153.4343  141.5341  161.8928 H   0  0  0  0  0  0  0  0  0  0  0  0
  154.6682  142.4891  161.0570 H   0  0  0  0  0  0  0  0  0  0  0  0
  146.4139  135.5679  161.6957 H   0  0  0  0  0  0  0  0  0  0  0  0
  149.5310  143.6607  156.6475 H   0  0  0  0  0  0  0  0  0  0  0  0
  1  2  1  0  0  0  0
  1 26  1  0  0  0  0
  1 27  1  0  0  0  0
  1 28  1  0  0  0  0
  2 24  1  0  0  0  0
  2  3  2  0  0  0  0
  3  4  1  0  0  0  0
  3 29  1  0  0  0  0
  4 22  2  0  0  0  0
  4  5  1  0  0  0  0
  5  6  2  0  0  0  0
  5 57  1  0  0  0  0
  6  7  1  0  0  0  0
  6 30  1  0  0  0  0
  7  8  1  0  0  0  0
  7 22  1  0  0  0  0
  8  9  1  0  0  0  0
  8 31  1  0  0  0  0
  8 32  1  0  0  0  0
  9 10  1  0  0  0  0
  9 11  1  0  0  0  0
  9 33  1  0  0  0  0
 10 34  1  0  0  0  0
 11 12  1  0  0  0  0
 11 35  1  0  0  0  0
 11 36  1  0  0  0  0
 12 21  1  0  0  0  0
 12 13  1  0  0  0  0
 13 14  1  0  0  0  0
 13 37  1  0  0  0  0
 13 38  1  0  0  0  0
 14 15  1  0  0  0  0
 14 39  1  0  0  0  0
 14 40  1  0  0  0  0
 15 16  1  0  0  0  0
 16 17  1  0  0  0  0
 16 21  1  0  0  0  0
 16 41  1  0  0  0  0
 17 18  1  0  0  0  0
 17 42  1  0  0  0  0
 17 43  1  0  0  0  0
 18 19  1  0  0  0  0
 18 20  1  0  0  0  0
 18 56  1  0  0  0  0
 19 44  1  0  0  0  0
 19 45  1  0  0  0  0
 19 46  1  0  0  0  0
 20 47  1  0  0  0  0
 20 48  1  0  0  0  0
 20 49  1  0  0  0  0
 21 50  1  0  0  0  0
 21 51  1  0  0  0  0
 22 23  1  0  0  0  0
 23 24  2  0  0  0  0
 23 52  1  0  0  0  0
 24 25  1  0  0  0  0
 25 53  1  0  0  0  0
 25 54  1  0  0  0  0
 25 55  1  0  0  0  0
M  CHG  1   5   1
M  CHG  1  18   1
M  END
> <s_m_source_file>
AV-unprocessed.smi

> <i_m_source_file_index>
1005

> <i_lp_mmshare_version>
43012

> <i_f3d_flags>
0

> <s_epik_input>
W0NIM11jKFtjSF0xKWMoW0NIM10pW2NIXWMoYzEyKW4oW2NIXW4yKVtDSDJdW0NASF0oW09IXSlbQ0gyXU4zW0NIMl1bQ0gyXU9bQ0BIXShbQ0gyXTMpW0NIMl1OKFtDSDNdKVtDSDNd

> <s_epik_cmdline>
J2VwaWtfcHl0aG9uJywgJy1waCcsICc3LjAnLCAnLXRuJywgJzgnLCAnLW1hJywgJzIwMCcsICctbWV0YWxfYmluZGluZycsICctaW1hZScsICc8aW5maWxlLm1hZT4nLCAnLW9tYWUnLCAnPG91dGZpbGUubWFlPic=

> <r_epik_Ionization_Penalty>
1.3281

> <r_epik_Ionization_Penalty_Charging>
1.21988

> <r_epik_Ionization_Penalty_Neutral>
0.10822

> <r_epik_State_Penalty>
1.32886

> <r_epik_Charging_Adjusted_Penalty>
2.54875

> <i_epik_Tot_Q>
2

> <i_epik_Tot_abs_Q>
2

> <r_epik_Metal_State_Penalty>
5.33912

> <b_epik_Metal_Only>
0

> <s_lp_Force_Field>
OPLS_2005

> <r_lp_Energy>
44.7977

> <b_lp_Chiralities_Consistent>
1

> <s_lp_Variant>
AV-unprocessed.smi:1005-13

> <Gold.Version>
5.8.1

> <Gold.Id.Protein>
6NUR|6NUR_protein|mol2

> <Gold.PLP.Fitness>
56.7792

> <Gold.PLP.PLP>
-47.7588

> <Gold.PLP.part.hbond>
-3.2330

> <Gold.PLP.part.metal>
0.0000

> <Gold.PLP.part.buried>
-6.5179

> <Gold.PLP.part.nonpolar>
-39.6561

> <Gold.PLP.part.repulsive>
0.1090

> <Gold.PLP.ligand.clash>
0.0050

> <Gold.PLP.ligand.torsion>
0.6202

> <Gold.PLP.Chemscore.Hbond>
3.4077

> <Gold.PLP.Chemscore.CHOScore>
0.0000

> <Gold.PLP.Chemscore.Metal>
0.0000

> <Gold.Chemscore.Hbonds>
donor molecule, donor type, donor heavy atom, donor atom, acceptor molecule, acceptor atom, score
      L1  H     5    57       P1  8028  2.00
      P1  H  6931  6943       L1    15  0.38
      P1  H  7989  7998       L1    10  1.00

> <Gold.PLP.Chemscore.Internal.Correction>
0.0427

> <Gold.Rescore>
     Score         DG    S(hbond)    S(metal)    S(lipo)     H(rot)  DE(clash)    DE(int)     intcor
     18.36     -22.52       2.38        0.00     132.28       2.49       0.06       4.10       ----

> <Gold.Chemscore.Fitness>
18.3567

> <Gold.Chemscore.DG>
-22.5153

> <Gold.Chemscore.ZeroCoef>
-5.4800

> <Gold.Chemscore.Hbond>
2.3750

> <Gold.Chemscore.Metal>
0.0000

> <Gold.Chemscore.Lipo>
132.2769

> <Gold.Chemscore.Internal_Hbond>
0.0000

> <Gold.Chemscore.DEClash>
0.0550

> <Gold.Chemscore.DEInternal>
4.1036

> <Gold.Chemscore.Rot>
2.4897

> <Gold.Chemscore.Internal.Correction>
   9.000000E+99

> <Gold.Chemscore.Hbonds>
donor molecule, donor type, donor heavy atom, donor atom, acceptor molecule, acceptor atom, score
      L1  H     5    57       P1  8028  0.93
      P1  H  6931  6943       L1    15  0.35
      P1  H  7989  7998       L1    10  0.97

> <Gold.Chemscore.Hbond.Weighted>
-7.9326

> <Gold.Chemscore.Metal.Weighted>
-0.0000

> <Gold.Chemscore.Lipo.Weighted>
-15.4764

> <Gold.Chemscore.Internal_Hbond.Weighted>
0.0000

> <Gold.Chemscore.DEClash.Weighted>
0.0550

> <Gold.Chemscore.DEInternal.Weighted>
4.1036

> <Gold.Chemscore.Rot.Weighted>
6.3737

> <Gold.Chemscore.Internal.Correction.Weighted>
   9.000000E+99

> <Gold.Protein.RotatedTorsions>
[ 6907 6896 6895 6894 ] final   74.86 input  -60.11 | X-H torsion
[ 7974 7965 7964 7962 ] final   94.43 input  175.53 | X-H torsion
[ 8008 7997 7996 7995 ] final -154.88 input   59.86 | X-H torsion
[ 10167 10162 10161 10158 ] final  -78.29 input  -65.29 | X-H torsion
[ 10718 10713 10712 10709 ] final  133.93 input   66.30 | X-H torsion
[ 10763 10752 10751 10750 ] final  -99.68 input  -60.55 | X-H torsion
[ 11005 11000 10999 10996 ] final -117.27 input  -57.11 | X-H torsion

> <Gold.Protein.ActiveResidues>
 VAL166  LYS551  ARG553  GLY616  TRP617  ASP618  TYR619  PRO620  LYS621  CYS622 
 ASP623  PHE694  ASN695  SER759  ASP760  ASP761  ALA762  ILE779  LEU786  VAL792 
 PHE793  MET794  SER795  GLU796  ALA797  LYS798  CYS799  TRP800  GLU811  SER814 

> <Gold.Protein.RotatedAtoms>
  152.4997  134.4207  159.9479 H   0  0  0  0  0  0  0  0  0  0  0  0  # atno 6907 bound_to 6896
  151.4180  133.3701  159.2760 H   0  0  0  0  0  0  0  0  0  0  0  0  # atno 6908 bound_to 6896
  150.9243  134.8682  159.7569 H   0  0  0  0  0  0  0  0  0  0  0  0  # atno 6909 bound_to 6896
  145.4657  139.2284  143.2963 H   0  0  0  0  0  0  0  0  0  0  0  0  # atno 7974 bound_to 7965
  155.6932  140.0758  157.2440 H   0  0  0  0  0  0  0  0  0  0  0  0  # atno 8008 bound_to 7997
  154.4085  140.1661  156.2162 H   0  0  0  0  0  0  0  0  0  0  0  0  # atno 8009 bound_to 7997
  155.9434  140.3383  155.6349 H   0  0  0  0  0  0  0  0  0  0  0  0  # atno 8010 bound_to 7997
  140.4695  143.2430  151.8226 H   0  0  0  0  0  0  0  0  0  0  0  0  # atno 10167 bound_to 10162
  157.4724  131.1081  150.9786 H   0  0  0  0  0  0  0  0  0  0  0  0  # atno 10718 bound_to 10713
  154.7517  135.4963  153.9302 H   0  0  0  0  0  0  0  0  0  0  0  0  # atno 10763 bound_to 10752
  153.1151  135.6718  153.9440 H   0  0  0  0  0  0  0  0  0  0  0  0  # atno 10764 bound_to 10752
  153.9188  135.3090  155.3427 H   0  0  0  0  0  0  0  0  0  0  0  0  # atno 10765 bound_to 10752
  141.0366  133.9900  157.3060 H   0  0  0  0  0  0  0  0  0  0  0  0  # atno 11005 bound_to 11000
  146.2426  140.5430  142.8927 LP  0  0  0  0  0  0  0  0  0  0  0  0  # atno 17320 bound_to 7965
  144.7976  140.6152  143.6500 LP  0  0  0  0  0  0  0  0  0  0  0  0  # atno 17321 bound_to 7965
  139.4816  144.4909  151.9186 LP  0  0  0  0  0  0  0  0  0  0  0  0  # atno 17342 bound_to 10162
  140.3994  144.2513  150.5894 LP  0  0  0  0  0  0  0  0  0  0  0  0  # atno 17343 bound_to 10162
  157.0546  130.5801  149.5376 LP  0  0  0  0  0  0  0  0  0  0  0  0  # atno 17370 bound_to 10713
  156.0080  130.5169  150.7894 LP  0  0  0  0  0  0  0  0  0  0  0  0  # atno 17371 bound_to 10713
  139.9245  135.0201  156.8185 LP  0  0  0  0  0  0  0  0  0  0  0  0  # atno 17394 bound_to 11000
  140.6310  133.9905  155.7662 LP  0  0  0  0  0  0  0  0  0  0  0  0  # atno 17395 bound_to 11000

$$$$
