#       Name:                AV-unprocessed.smi:1564
#       Creating user name   scv26
#       Creation time:       Fri Mar 27 06:49:25 2020


#       File generated by GOLD software.
#

@<TRIPOS>MOLECULE
AV-unprocessed.smi:1564
    48    49     1
SMALL
NO_CHARGES


@<TRIPOS>ATOM
      1 ****        -7.2351   3.7626  -1.2941 C.3            1 S1                 0.0000
      2 ****        -5.8969   4.2435  -1.2271 O.3            1 S1                 0.0000
      3 ****        -4.8693   3.3226  -1.2223 C.ar           1 S1                 0.0000
      4 ****        -3.5433   3.7918  -1.1405 C.ar           1 S1                 0.0000
      5 ****        -2.4890   2.8585  -1.1331 C.ar           1 S1                 0.0000
      6 ****        -2.7965   1.4785  -1.2006 C.ar           1 S1                 0.0000
      7 ****        -1.8249   0.4414  -1.2208 N.am           1 S1                 0.0000
      8 ****        -0.5525   0.4795  -0.7897 C.2            1 S1                 0.0000
      9 ****        -0.0102   1.4437  -0.2503 O.2            1 S1                 0.0000
     10 ****         0.0679  -0.6902  -0.9995 N.am           1 S1                 0.0000
     11 ****         1.4548  -0.9710  -0.6431 C.3            1 S1                 0.0000
     12 ****         1.9920  -2.2743  -1.2134 C.3            1 S1                 0.0000
     13 ****         3.2194  -2.5046  -0.3307 C.3            1 S1                 0.0000
     14 ****         2.8499  -2.0278   1.0263 N.4            1 S1                 1.0000
     15 ****         3.9652  -1.4704   1.8444 C.3            1 S1                 0.0000
     16 ****         5.1878  -2.4100   1.8641 C.3            1 S1                 0.0000
     17 ****         3.5124  -1.2086   3.2943 C.3            1 S1                 0.0000
     18 ****         1.6665  -1.1433   0.8664 C.3            1 S1                 0.0000
     19 ****        -4.1555   1.1138  -1.2955 C.ar           1 S1                 0.0000
     20 ****        -5.1707   2.0029  -1.3014 N.ar           1 S1                 0.0000
     21 ****        -7.9227   4.6081  -1.2863 H              1 S1                 0.0000
     22 ****        -7.4756   3.1329  -0.4362 H              1 S1                 0.0000
     23 ****        -7.4131   3.2008  -2.2122 H              1 S1                 0.0000
     24 ****        -3.3374   4.8508  -1.0881 H              1 S1                 0.0000
     25 ****        -1.4734   3.2197  -1.0910 H              1 S1                 0.0000
     26 ****        -2.1537  -0.4501  -1.5621 H              1 S1                 0.0000
     27 ****        -0.4512  -1.4328  -1.4454 H              1 S1                 0.0000
     28 ****         2.0873  -0.1557  -1.0016 H              1 S1                 0.0000
     29 ****         1.2712  -3.0822  -1.0782 H              1 S1                 0.0000
     30 ****         2.2394  -2.2074  -2.2735 H              1 S1                 0.0000
     31 ****         3.5351  -3.5481  -0.3192 H              1 S1                 0.0000
     32 ****         4.0447  -1.9063  -0.7208 H              1 S1                 0.0000
     33 ****         4.2728  -0.5228   1.3988 H              1 S1                 0.0000
     34 ****         5.9719  -2.0149   2.5109 H              1 S1                 0.0000
     35 ****         5.6319  -2.5338   0.8766 H              1 S1                 0.0000
     36 ****         4.9219  -3.3994   2.2383 H              1 S1                 0.0000
     37 ****         4.3362  -0.8228   3.8955 H              1 S1                 0.0000
     38 ****         3.1611  -2.1255   3.7691 H              1 S1                 0.0000
     39 ****         2.7094  -0.4752   3.3568 H              1 S1                 0.0000
     40 ****         1.7864  -0.1711   1.3447 H              1 S1                 0.0000
     41 ****         0.8109  -1.6368   1.3294 H              1 S1                 0.0000
     42 ****        -4.4403   0.0738  -1.3637 H              1 S1                 0.0000
     43 ****         2.5157  -2.8415   1.5227 H              1 S1                 0.0000
     44 ****        -5.8171   4.7803  -0.3871 LP             1 S1                 0.0000
     45 ****        -5.7567   4.8393  -2.0179 LP             1 S1                 0.0000
     46 ****        -0.5247   2.2883  -0.1019 LP             1 S1                 0.0000
     47 ****         0.9449   1.3826   0.0397 LP             1 S1                 0.0000
     48 ****        -6.1206   1.6965  -1.3625 LP             1 S1                 0.0000
@<TRIPOS>BOND
    1    1    2 1     
    2    1   21 1     
    3    1   22 1     
    4    1   23 1     
    5    2    3 1     
    6    3   20 ar    
    7    3    4 ar    
    8    4    5 ar    
    9    4   24 1     
   10    5    6 ar    
   11    5   25 1     
   12    6    7 1     
   13    6   19 ar    
   14    7    8 am    
   15    7   26 1     
   16    8    9 2     
   17    8   10 am    
   18   10   11 1     
   19   10   27 1     
   20   11   18 1     
   21   11   12 1     
   22   11   28 1     
   23   12   13 1     
   24   12   29 1     
   25   12   30 1     
   26   13   14 1     
   27   13   31 1     
   28   13   32 1     
   29   14   15 1     
   30   14   18 1     
   31   14   43 1     
   32   15   16 1     
   33   15   17 1     
   34   15   33 1     
   35   16   34 1     
   36   16   35 1     
   37   16   36 1     
   38   17   37 1     
   39   17   38 1     
   40   17   39 1     
   41   18   40 1     
   42   18   41 1     
   43   19   20 ar    
   44   19   42 1     
   45    2   44 1     
   46    2   45 1     
   47    9   46 1     
   48    9   47 1     
   49   20   48 1     
@<TRIPOS>SUBSTRUCTURE
      1 S1             1
@<TRIPOS>SET
LONE_PAIRS      STATIC     ATOMS    <user>   **** ""
5 44 45 46 47 48
DONOR_HYDROGENS      STATIC     ATOMS    <user>   **** ""
3 26 27 43
ATOM$BLUE        STATIC     ATOMS    COLORGROUP SYSTEM
5 44 45 46 47 48
ATOM$RED        STATIC     ATOMS    COLORGROUP SYSTEM
3 26 27 43
