#       Name:                AV-unprocessed.smi:1573
#       Creating user name   scv26
#       Creation time:       Fri Mar 27 06:54:42 2020


#       File generated by GOLD software.
#

@<TRIPOS>MOLECULE
AV-unprocessed.smi:1573
    46    46     1
SMALL
NO_CHARGES


@<TRIPOS>ATOM
      1 ****        -4.0037   3.6916  -1.4417 C.3            1 S1                 0.0000
      2 ****        -4.6573   2.3046  -1.3758 C.3            1 S1                 0.0000
      3 ****        -3.8000   1.3415  -0.6957 N.am           1 S1                 0.0000
      4 ****        -2.7665   0.6964  -1.2582 C.2            1 S1                 0.0000
      5 ****        -2.4421   0.8409  -2.4383 O.2            1 S1                 0.0000
      6 ****        -1.9915  -0.2680  -0.3462 C.3            1 S1                 0.0000
      7 ****        -2.4305  -1.7026  -0.6832 C.3            1 S1                 0.0000
      8 ****        -0.5560  -0.1673  -0.5981 N.am           1 S1                 0.0000
      9 ****         0.2637   0.7587  -0.0748 C.2            1 S1                 0.0000
     10 ****        -0.1125   1.6418   0.6958 O.2            1 S1                 0.0000
     11 ****         1.7336   0.6736  -0.4845 C.3            1 S1                 0.0000
     12 ****         2.4074  -0.4470   0.2666 C.2            1 S1                 0.0000
     13 ****         2.5592  -1.8041  -0.1462 C.2            1 S1                 0.0000
     14 ****         2.0848  -2.4499  -1.4169 C.3            1 S1                 0.0000
     15 ****         3.1974  -2.5361   0.7517 N.2            1 S1                 0.0000
     16 ****         3.4754  -1.6828   1.7576 N.pl3          1 S1                 0.0000
     17 ****         4.1849  -2.1668   2.9258 C.3            1 S1                 0.0000
     18 ****         3.0072  -0.4097   1.4971 C.2            1 S1                 0.0000
     19 ****         3.1832   0.7171   2.4632 C.3            1 S1                 0.0000
     20 ****        -4.6693   4.4107  -1.9197 H              1 S1                 0.0000
     21 ****        -3.0764   3.6677  -2.0150 H              1 S1                 0.0000
     22 ****        -3.7717   4.0656  -0.4439 H              1 S1                 0.0000
     23 ****        -5.5984   2.3677  -0.8290 H              1 S1                 0.0000
     24 ****        -4.9038   1.9519  -2.3786 H              1 S1                 0.0000
     25 ****        -3.9974   1.1622   0.2783 H              1 S1                 0.0000
     26 ****        -2.2043  -0.0554   0.7035 H              1 S1                 0.0000
     27 ****        -3.4989  -1.8408  -0.5120 H              1 S1                 0.0000
     28 ****        -1.9063  -2.4257  -0.0573 H              1 S1                 0.0000
     29 ****        -2.2236  -1.9583  -1.7239 H              1 S1                 0.0000
     30 ****        -0.1570  -0.8494  -1.2265 H              1 S1                 0.0000
     31 ****         1.7931   0.5267  -1.5633 H              1 S1                 0.0000
     32 ****         2.2158   1.6318  -0.2876 H              1 S1                 0.0000
     33 ****         1.0155  -2.6566  -1.3718 H              1 S1                 0.0000
     34 ****         2.5977  -3.3937  -1.6055 H              1 S1                 0.0000
     35 ****         2.2623  -1.8031  -2.2760 H              1 S1                 0.0000
     36 ****         5.0599  -1.5427   3.1086 H              1 S1                 0.0000
     37 ****         4.5125  -3.1969   2.7788 H              1 S1                 0.0000
     38 ****         3.5285  -2.1253   3.7954 H              1 S1                 0.0000
     39 ****         2.6329   1.6019   2.1433 H              1 S1                 0.0000
     40 ****         4.2349   0.9896   2.5519 H              1 S1                 0.0000
     41 ****         2.8192   0.4412   3.4532 H              1 S1                 0.0000
     42 ****        -2.9585   1.4636  -3.0262 LP             1 S1                 0.0000
     43 ****        -1.6625   0.3354  -2.8081 LP             1 S1                 0.0000
     44 ****        -1.0747   1.6956   0.9630 LP             1 S1                 0.0000
     45 ****         0.5440   2.3053   1.0545 LP             1 S1                 0.0000
     46 ****         3.4238  -3.5086   0.6965 LP             1 S1                 0.0000
@<TRIPOS>BOND
    1    1    2 1     
    2    1   20 1     
    3    1   21 1     
    4    1   22 1     
    5    2    3 1     
    6    2   23 1     
    7    2   24 1     
    8    3    4 am    
    9    3   25 1     
   10    4    5 2     
   11    4    6 1     
   12    6    7 1     
   13    6    8 1     
   14    6   26 1     
   15    7   27 1     
   16    7   28 1     
   17    7   29 1     
   18    8    9 am    
   19    8   30 1     
   20    9   10 2     
   21    9   11 1     
   22   11   12 1     
   23   11   31 1     
   24   11   32 1     
   25   12   18 2     
   26   12   13 1     
   27   13   14 1     
   28   13   15 2     
   29   14   33 1     
   30   14   34 1     
   31   14   35 1     
   32   15   16 1     
   33   16   17 1     
   34   16   18 1     
   35   17   36 1     
   36   17   37 1     
   37   17   38 1     
   38   18   19 1     
   39   19   39 1     
   40   19   40 1     
   41   19   41 1     
   42    5   42 1     
   43    5   43 1     
   44   10   44 1     
   45   10   45 1     
   46   15   46 1     
@<TRIPOS>SUBSTRUCTURE
      1 S1             1
@<TRIPOS>SET
LONE_PAIRS      STATIC     ATOMS    <user>   **** ""
5 42 43 44 45 46
DONOR_HYDROGENS      STATIC     ATOMS    <user>   **** ""
2 25 30
ATOM$BLUE        STATIC     ATOMS    COLORGROUP SYSTEM
5 42 43 44 45 46
ATOM$RED        STATIC     ATOMS    COLORGROUP SYSTEM
2 25 30
