AV-unprocessed.smi:3136|AV-procd|sdf|11948|dock9
  -GOLD-   2272017343D 1   1.00000     0.00000
 Structure written by MMmdl.
 40 40  0  0  0  0  0  0  0  0  2 V2000
  149.5187  139.7620  155.4903 C   0  0  0  0  0  0  0  0  0  0  0  0
  149.9655  138.9543  154.2645 C   0  0  0  0  0  0  0  0  0  0  0  0
  148.8366  138.6089  153.4080 N   0  0  0  0  0  0  0  0  0  0  0  0
  147.8068  139.4202  153.1221 C   0  0  0  0  0  0  0  0  0  0  0  0
  147.7075  140.5653  153.5639 O   0  0  0  0  0  0  0  0  0  0  0  0
  146.7316  138.8365  152.1991 C   0  0  0  0  0  0  0  0  0  0  0  0
  145.7942  137.8372  152.9001 C   0  0  0  0  0  0  0  0  0  0  0  0
  146.2627  136.4490  152.7042 N   0  3  0  0  0  0  0  0  0  0  0  0
  145.4314  135.6187  151.8015 C   0  0  2  0  0  0  0  0  0  0  0  0
  143.9439  136.0073  151.9394 C   0  0  0  0  0  0  0  0  0  0  0  0
  145.6889  134.1145  152.0878 C   0  0  2  0  0  0  0  0  0  0  0  0
  147.1894  133.7848  152.2125 C   0  0  0  0  0  0  0  0  0  0  0  0
  145.0714  133.2477  151.0916 N   0  0  0  0  0  0  0  0  0  0  0  0
  145.6692  132.2754  150.3161 C   0  0  0  0  0  0  0  0  0  0  0  0
  144.6981  131.7260  149.5290 C   0  0  0  0  0  0  0  0  0  0  0  0
  143.5226  132.4388  149.8944 C   0  0  0  0  0  0  0  0  0  0  0  0
  143.7487  133.3489  150.8277 N   0  0  0  0  0  0  0  0  0  0  0  0
  150.3657  139.9750  156.1427 H   0  0  0  0  0  0  0  0  0  0  0  0
  148.7790  139.2147  156.0756 H   0  0  0  0  0  0  0  0  0  0  0  0
  149.0785  140.7163  155.1993 H   0  0  0  0  0  0  0  0  0  0  0  0
  150.7170  139.5066  153.6982 H   0  0  0  0  0  0  0  0  0  0  0  0
  150.4408  138.0283  154.5888 H   0  0  0  0  0  0  0  0  0  0  0  0
  148.8403  137.6833  153.0043 H   0  0  0  0  0  0  0  0  0  0  0  0
  146.1480  139.6603  151.7855 H   0  0  0  0  0  0  0  0  0  0  0  0
  147.2289  138.3492  151.3593 H   0  0  0  0  0  0  0  0  0  0  0  0
  145.7441  138.0613  153.9657 H   0  0  0  0  0  0  0  0  0  0  0  0
  144.7828  137.9298  152.5011 H   0  0  0  0  0  0  0  0  0  0  0  0
  147.1866  136.5028  152.2994 H   0  0  0  0  0  0  0  0  0  0  0  0
  145.7414  135.8202  150.7748 H   0  0  0  0  0  0  0  0  0  0  0  0
  143.3144  135.4577  151.2396 H   0  0  0  0  0  0  0  0  0  0  0  0
  143.7796  137.0645  151.7343 H   0  0  0  0  0  0  0  0  0  0  0  0
  143.5754  135.8040  152.9456 H   0  0  0  0  0  0  0  0  0  0  0  0
  145.2196  133.8711  153.0427 H   0  0  0  0  0  0  0  0  0  0  0  0
  147.6522  134.3218  153.0404 H   0  0  0  0  0  0  0  0  0  0  0  0
  147.7336  134.0454  151.3041 H   0  0  0  0  0  0  0  0  0  0  0  0
  147.3411  132.7203  152.3944 H   0  0  0  0  0  0  0  0  0  0  0  0
  146.7243  132.0556  150.3875 H   0  0  0  0  0  0  0  0  0  0  0  0
  144.8103  130.9361  148.8012 H   0  0  0  0  0  0  0  0  0  0  0  0
  142.5192  132.3228  149.5117 H   0  0  0  0  0  0  0  0  0  0  0  0
  146.3328  135.9879  153.6002 H   0  0  0  0  0  0  0  0  0  0  0  0
  1  2  1  0  0  0  0
  1 18  1  0  0  0  0
  1 19  1  0  0  0  0
  1 20  1  0  0  0  0
  2  3  1  0  0  0  0
  2 21  1  0  0  0  0
  2 22  1  0  0  0  0
  3  4  1  0  0  0  0
  3 23  1  0  0  0  0
  4  5  2  0  0  0  0
  4  6  1  0  0  0  0
  6  7  1  0  0  0  0
  6 24  1  0  0  0  0
  6 25  1  0  0  0  0
  7  8  1  0  0  0  0
  7 26  1  0  0  0  0
  7 27  1  0  0  0  0
  8  9  1  0  0  0  0
  8 28  1  0  0  0  0
  8 40  1  0  0  0  0
  9 10  1  0  0  0  0
  9 11  1  0  0  0  0
  9 29  1  0  0  0  0
 10 30  1  0  0  0  0
 10 31  1  0  0  0  0
 10 32  1  0  0  0  0
 11 12  1  0  0  0  0
 11 13  1  0  0  0  0
 11 33  1  0  0  0  0
 12 34  1  0  0  0  0
 12 35  1  0  0  0  0
 12 36  1  0  0  0  0
 13 17  1  0  0  0  0
 13 14  1  0  0  0  0
 14 15  2  0  0  0  0
 14 37  1  0  0  0  0
 15 16  1  0  0  0  0
 15 38  1  0  0  0  0
 16 17  2  0  0  0  0
 16 39  1  0  0  0  0
M  CHG  1   8   1
M  END
> <s_m_source_file>
AV-unprocessed.smi

> <i_m_source_file_index>
3136

> <i_lp_mmshare_version>
43012

> <i_f3d_flags>
0

> <s_epik_input>
W0NIM11bQ0gyXVtOSF1DKD1PKVtDSDJdW0NIMl1bTkhdW0NASF0oW0NIM10pW0NASF0oW0NIM10pbjFbY0hdW2NIXVtjSF1uMQ==

> <s_epik_cmdline>
J2VwaWtfcHl0aG9uJywgJy1waCcsICc3LjAnLCAnLXRuJywgJzgnLCAnLW1hJywgJzIwMCcsICctbWV0YWxfYmluZGluZycsICctaW1hZScsICc8aW5maWxlLm1hZT4nLCAnLW9tYWUnLCAnPG91dGZpbGUubWFlPic=

> <r_lp_tautomer_probability>
1

> <r_epik_Ionization_Penalty>
0.00463447

> <r_epik_Ionization_Penalty_Charging>
0.00462393

> <r_epik_Ionization_Penalty_Neutral>
1.05394e-05

> <r_epik_State_Penalty>
-0

> <r_epik_Charging_Adjusted_Penalty>
0.00462393

> <i_epik_Tot_Q>
1

> <i_epik_Tot_abs_Q>
1

> <r_epik_Metal_State_Penalty>
-0

> <b_epik_Metal_Only>
0

> <s_lp_Force_Field>
OPLS_2005

> <r_lp_Energy>
10.4266

> <b_lp_Chiralities_Consistent>
1

> <s_lp_Variant>
AV-unprocessed.smi:3136-1

> <Gold.Version>
5.8.1

> <Gold.Id.Protein>
6NUR|6NUR_protein|mol2

> <Gold.PLP.Fitness>
42.3150

> <Gold.PLP.PLP>
-28.1096

> <Gold.PLP.part.hbond>
-3.0000

> <Gold.PLP.part.metal>
0.0000

> <Gold.PLP.part.buried>
2.1968

> <Gold.PLP.part.nonpolar>
-28.4512

> <Gold.PLP.part.repulsive>
0.9762

> <Gold.PLP.ligand.clash>
0.0000

> <Gold.PLP.ligand.torsion>
1.3186

> <Gold.PLP.Chemscore.Hbond>
3.0000

> <Gold.PLP.Chemscore.CHOScore>
2.5559

> <Gold.PLP.Chemscore.Metal>
0.0000

> <Gold.Chemscore.Hbonds>
donor molecule, donor type, donor heavy atom, donor atom, acceptor molecule, acceptor atom, score
      L1  H     3    23       P1  7948  1.00
      L1  H     8    28       P1  7948  2.00
      L1  C    14    37       P1 10747  0.96
      L1  C    16    39       P1 10186  0.66
      L1  C    16    39       P1 10952  0.83

> <Gold.PLP.Chemscore.Internal.Correction>
0.1749

> <Gold.Rescore>
     Score         DG    S(hbond)    S(metal)    S(lipo)     H(rot)  DE(clash)    DE(int)     intcor
     10.65     -14.98       1.92        0.00      77.13       2.32       0.40       3.93       ----

> <Gold.Chemscore.Fitness>
10.6460

> <Gold.Chemscore.DG>
-14.9754

> <Gold.Chemscore.ZeroCoef>
-5.4800

> <Gold.Chemscore.Hbond>
1.9162

> <Gold.Chemscore.Metal>
0.0000

> <Gold.Chemscore.Lipo>
77.1269

> <Gold.Chemscore.Internal_Hbond>
0.0000

> <Gold.Chemscore.DEClash>
0.3973

> <Gold.Chemscore.DEInternal>
3.9321

> <Gold.Chemscore.Rot>
2.3159

> <Gold.Chemscore.Internal.Correction>
   9.000000E+99

> <Gold.Chemscore.Hbonds>
donor molecule, donor type, donor heavy atom, donor atom, acceptor molecule, acceptor atom, score
      L1  H     3    23       P1  7948  1.00
      L1  H     8    28       P1  7948  1.00

> <Gold.Chemscore.Hbond.Weighted>
-6.4002

> <Gold.Chemscore.Metal.Weighted>
-0.0000

> <Gold.Chemscore.Lipo.Weighted>
-9.0239

> <Gold.Chemscore.Internal_Hbond.Weighted>
0.0000

> <Gold.Chemscore.DEClash.Weighted>
0.3973

> <Gold.Chemscore.DEInternal.Weighted>
3.9321

> <Gold.Chemscore.Rot.Weighted>
5.9286

> <Gold.Chemscore.Internal.Correction.Weighted>
   9.000000E+99

> <Gold.Protein.RotatedTorsions>
[ 6907 6896 6895 6894 ] final    7.80 input  -60.11 | X-H torsion
[ 7974 7965 7964 7962 ] final  161.13 input  175.53 | X-H torsion
[ 8008 7997 7996 7995 ] final  116.05 input   59.86 | X-H torsion
[ 10167 10162 10161 10158 ] final -178.53 input  -65.29 | X-H torsion
[ 10718 10713 10712 10709 ] final  -89.65 input   66.30 | X-H torsion
[ 10763 10752 10751 10750 ] final -111.10 input  -60.55 | X-H torsion
[ 11005 11000 10999 10996 ] final -130.69 input  -57.11 | X-H torsion

> <Gold.Protein.ActiveResidues>
 VAL166  LYS551  ARG553  GLY616  TRP617  ASP618  TYR619  PRO620  LYS621  CYS622 
 ASP623  PHE694  ASN695  SER759  ASP760  ASP761  ALA762  ILE779  LEU786  VAL792 
 PHE793  MET794  SER795  GLU796  ALA797  LYS798  CYS799  TRP800  GLU811  SER814 

> <Gold.Protein.RotatedAtoms>
  151.6958  135.0939  160.0241 H   0  0  0  0  0  0  0  0  0  0  0  0  # atno 6907 bound_to 6896
  152.3751  133.6466  159.6125 H   0  0  0  0  0  0  0  0  0  0  0  0  # atno 6908 bound_to 6896
  150.7703  133.9123  159.3414 H   0  0  0  0  0  0  0  0  0  0  0  0  # atno 6909 bound_to 6896
  144.7701  139.7855  143.6300 H   0  0  0  0  0  0  0  0  0  0  0  0  # atno 7974 bound_to 7965
  156.2417  140.2925  156.0464 H   0  0  0  0  0  0  0  0  0  0  0  0  # atno 8008 bound_to 7997
  155.1930  140.0407  157.2921 H   0  0  0  0  0  0  0  0  0  0  0  0  # atno 8009 bound_to 7997
  154.6181  140.2469  155.7590 H   0  0  0  0  0  0  0  0  0  0  0  0  # atno 8010 bound_to 7997
  139.5428  144.2316  152.0929 H   0  0  0  0  0  0  0  0  0  0  0  0  # atno 10167 bound_to 10162
  155.9985  130.4880  150.5203 H   0  0  0  0  0  0  0  0  0  0  0  0  # atno 10718 bound_to 10713
  154.8283  135.4540  154.0987 H   0  0  0  0  0  0  0  0  0  0  0  0  # atno 10763 bound_to 10752
  153.2283  135.6902  153.7926 H   0  0  0  0  0  0  0  0  0  0  0  0  # atno 10764 bound_to 10752
  153.7318  135.3326  155.3264 H   0  0  0  0  0  0  0  0  0  0  0  0  # atno 10765 bound_to 10752
  140.9323  134.1302  157.4223 H   0  0  0  0  0  0  0  0  0  0  0  0  # atno 11005 bound_to 11000
  146.1841  139.5047  142.9847 LP  0  0  0  0  0  0  0  0  0  0  0  0  # atno 17320 bound_to 7965
  145.6349  141.0296  143.1843 LP  0  0  0  0  0  0  0  0  0  0  0  0  # atno 17321 bound_to 7965
  140.1798  144.4856  150.6534 LP  0  0  0  0  0  0  0  0  0  0  0  0  # atno 17342 bound_to 10162
  140.6665  143.2270  151.5730 LP  0  0  0  0  0  0  0  0  0  0  0  0  # atno 17343 bound_to 10162
  157.3165  131.0673  151.1963 LP  0  0  0  0  0  0  0  0  0  0  0  0  # atno 17370 bound_to 10713
  157.2891  130.6787  149.6105 LP  0  0  0  0  0  0  0  0  0  0  0  0  # atno 17371 bound_to 10713
  139.8799  135.0009  156.6038 LP  0  0  0  0  0  0  0  0  0  0  0  0  # atno 17394 bound_to 11000
  140.7845  133.8632  155.8595 LP  0  0  0  0  0  0  0  0  0  0  0  0  # atno 17395 bound_to 11000

$$$$
