AV-unprocessed.smi:2618|AV-procd|sdf|10220|dock3
  -GOLD-   2272014223D 1   1.00000     0.00000
 Structure written by MMmdl.
 38 39  0  0  0  0  0  0  0  0  2 V2000
  146.2653  143.2456  154.1523 C   0  0  0  0  0  0  0  0  0  0  0  0
  146.9116  142.0041  153.9337 O   0  0  0  0  0  0  0  0  0  0  0  0
  147.8007  141.6631  154.9846 C   0  0  0  0  0  0  0  0  0  0  0  0
  149.2122  141.4994  154.4043 C   0  0  0  0  0  0  0  0  0  0  0  0
  150.1894  141.0218  155.4428 C   0  0  0  0  0  0  0  0  0  0  0  0
  150.7167  141.8012  156.3126 N   0  0  0  0  0  0  0  0  0  0  0  0
  151.5483  141.1348  157.1146 N   0  0  0  0  0  0  0  0  0  0  0  0
  152.1603  141.7527  158.2198 C   0  0  0  0  0  0  0  0  0  0  0  0
  153.1616  141.0674  158.7940 N   0  0  0  0  0  0  0  0  0  0  0  0
  153.7699  141.6184  159.8657 C   0  0  0  0  0  0  0  0  0  0  0  0
  154.8960  140.8216  160.4886 C   0  0  0  0  0  0  0  0  0  0  0  0
  153.3793  142.8706  160.3806 C   0  0  0  0  0  0  0  0  0  0  0  0
  152.3153  143.5077  159.7112 C   0  0  0  0  0  0  0  0  0  0  0  0
  151.7928  144.8570  160.1544 C   0  0  0  0  0  0  0  0  0  0  0  0
  151.7098  142.9471  158.6436 N   0  0  0  0  0  0  0  0  0  0  0  0
  151.5998  139.6993  156.7639 C   0  0  1  0  0  0  0  0  0  0  0  0
  152.7981  139.3480  156.3540 O   0  5  0  0  0  0  0  0  0  0  0  0
  151.1515  138.7864  157.9393 C   0  0  0  0  0  0  0  0  0  0  0  0
  152.0503  138.8327  158.9247 F   0  0  0  0  0  0  0  0  0  0  0  0
  149.9798  139.1975  158.4290 F   0  0  0  0  0  0  0  0  0  0  0  0
  151.0230  137.5141  157.5583 F   0  0  0  0  0  0  0  0  0  0  0  0
  150.6377  139.6083  155.5709 C   0  0  0  0  0  0  0  0  0  0  0  0
  145.5963  143.4619  153.3195 H   0  0  0  0  0  0  0  0  0  0  0  0
  146.9880  144.0594  154.2234 H   0  0  0  0  0  0  0  0  0  0  0  0
  145.6694  143.2248  155.0657 H   0  0  0  0  0  0  0  0  0  0  0  0
  147.7886  142.4462  155.7444 H   0  0  0  0  0  0  0  0  0  0  0  0
  147.4754  140.7356  155.4592 H   0  0  0  0  0  0  0  0  0  0  0  0
  149.1788  140.7915  153.5750 H   0  0  0  0  0  0  0  0  0  0  0  0
  149.5577  142.4457  153.9880 H   0  0  0  0  0  0  0  0  0  0  0  0
  155.3027  141.3310  161.3625 H   0  0  0  0  0  0  0  0  0  0  0  0
  155.7027  140.6809  159.7689 H   0  0  0  0  0  0  0  0  0  0  0  0
  154.5377  139.8406  160.8017 H   0  0  0  0  0  0  0  0  0  0  0  0
  153.8649  143.3151  161.2368 H   0  0  0  0  0  0  0  0  0  0  0  0
  152.3716  145.2484  160.9914 H   0  0  0  0  0  0  0  0  0  0  0  0
  150.7515  144.7750  160.4668 H   0  0  0  0  0  0  0  0  0  0  0  0
  151.8511  145.5735  159.3346 H   0  0  0  0  0  0  0  0  0  0  0  0
  149.7860  138.9580  155.7714 H   0  0  0  0  0  0  0  0  0  0  0  0
  151.1105  139.2658  154.6481 H   0  0  0  0  0  0  0  0  0  0  0  0
  1  2  1  0  0  0  0
  1 23  1  0  0  0  0
  1 24  1  0  0  0  0
  1 25  1  0  0  0  0
  2  3  1  0  0  0  0
  3  4  1  0  0  0  0
  3 26  1  0  0  0  0
  3 27  1  0  0  0  0
  4  5  1  0  0  0  0
  4 28  1  0  0  0  0
  4 29  1  0  0  0  0
  5 22  1  0  0  0  0
  5  6  2  0  0  0  0
  6  7  1  0  0  0  0
  7  8  1  0  0  0  0
  7 16  1  0  0  0  0
  8 15  1  0  0  0  0
  8  9  2  0  0  0  0
  9 10  1  0  0  0  0
 10 11  1  0  0  0  0
 10 12  2  0  0  0  0
 11 30  1  0  0  0  0
 11 31  1  0  0  0  0
 11 32  1  0  0  0  0
 12 13  1  0  0  0  0
 12 33  1  0  0  0  0
 13 14  1  0  0  0  0
 13 15  2  0  0  0  0
 14 34  1  0  0  0  0
 14 35  1  0  0  0  0
 14 36  1  0  0  0  0
 16 17  1  0  0  0  0
 16 18  1  0  0  0  0
 16 22  1  0  0  0  0
 18 19  1  0  0  0  0
 18 20  1  0  0  0  0
 18 21  1  0  0  0  0
 22 37  1  0  0  0  0
 22 38  1  0  0  0  0
M  CHG  1  17  -1
M  END
> <s_m_source_file>
AV-unprocessed.smi

> <i_m_source_file_index>
2618

> <i_lp_mmshare_version>
43012

> <i_f3d_flags>
0

> <s_epik_input>
W0NIM11PW0NIMl1bQ0gyXUMoW0NIMl0xKT1OTihbQ0BAXTEoW09IXSlDKEYpKEYpRiljMm5jKFtDSDNdKVtjSF1jKG4yKVtDSDNd

> <s_epik_cmdline>
J2VwaWtfcHl0aG9uJywgJy1waCcsICc3LjAnLCAnLXRuJywgJzgnLCAnLW1hJywgJzIwMCcsICctbWV0YWxfYmluZGluZycsICctaW1hZScsICc8aW5maWxlLm1hZT4nLCAnLW9tYWUnLCAnPG91dGZpbGUubWFlPic=

> <r_lp_tautomer_probability>
1

> <r_epik_Ionization_Penalty>
1.35617

> <r_epik_Ionization_Penalty_Charging>
1.35566

> <r_epik_Ionization_Penalty_Neutral>
0.000506926

> <r_epik_State_Penalty>
1.43411

> <r_epik_Charging_Adjusted_Penalty>
2.78977

> <i_epik_Tot_Q>
-1

> <i_epik_Tot_abs_Q>
1

> <r_epik_Metal_State_Penalty>
1.43499

> <b_epik_Metal_Only>
0

> <s_epik_Chemistry_Notes>
This compound has an imine and may undergo hydrolysis.

> <s_lp_Force_Field>
OPLS_2005

> <r_lp_Energy>
21.2733

> <b_lp_Chiralities_Consistent>
1

> <s_lp_Variant>
AV-unprocessed.smi:2618-3

> <Gold.Version>
5.8.1

> <Gold.Id.Protein>
6NUR|6NUR_protein|mol2

> <Gold.PLP.Fitness>
48.0584

> <Gold.PLP.PLP>
-43.4991

> <Gold.PLP.part.hbond>
-1.0000

> <Gold.PLP.part.metal>
0.0000

> <Gold.PLP.part.buried>
-5.8645

> <Gold.PLP.part.nonpolar>
-36.6597

> <Gold.PLP.part.repulsive>
0.2891

> <Gold.PLP.ligand.clash>
0.0342

> <Gold.PLP.ligand.torsion>
0.8599

> <Gold.PLP.Chemscore.Hbond>
2.0000

> <Gold.PLP.Chemscore.CHOScore>
0.0000

> <Gold.PLP.Chemscore.Metal>
0.0000

> <Gold.Chemscore.Hbonds>
donor molecule, donor type, donor heavy atom, donor atom, acceptor molecule, acceptor atom, score
      P1  H  7997  8010       L1    17  2.00

> <Gold.PLP.Chemscore.Internal.Correction>
0.3134

> <Gold.Rescore>
     Score         DG    S(hbond)    S(metal)    S(lipo)     H(rot)  DE(clash)    DE(int)     intcor
     10.65     -15.49       1.00        0.00      89.25       1.47       0.30       4.54       ----

> <Gold.Chemscore.Fitness>
10.6489

> <Gold.Chemscore.DG>
-15.4882

> <Gold.Chemscore.ZeroCoef>
-5.4800

> <Gold.Chemscore.Hbond>
1.0000

> <Gold.Chemscore.Metal>
0.0000

> <Gold.Chemscore.Lipo>
89.2494

> <Gold.Chemscore.Internal_Hbond>
0.0000

> <Gold.Chemscore.DEClash>
0.2994

> <Gold.Chemscore.DEInternal>
4.5399

> <Gold.Chemscore.Rot>
1.4742

> <Gold.Chemscore.Internal.Correction>
   9.000000E+99

> <Gold.Chemscore.Hbonds>
donor molecule, donor type, donor heavy atom, donor atom, acceptor molecule, acceptor atom, score
      P1  H  7997  8010       L1    17  1.00

> <Gold.Chemscore.Hbond.Weighted>
-3.3400

> <Gold.Chemscore.Metal.Weighted>
-0.0000

> <Gold.Chemscore.Lipo.Weighted>
-10.4422

> <Gold.Chemscore.Internal_Hbond.Weighted>
0.0000

> <Gold.Chemscore.DEClash.Weighted>
0.2994

> <Gold.Chemscore.DEInternal.Weighted>
4.5399

> <Gold.Chemscore.Rot.Weighted>
3.7740

> <Gold.Chemscore.Internal.Correction.Weighted>
   9.000000E+99

> <Gold.Protein.RotatedTorsions>
[ 6907 6896 6895 6894 ] final -133.16 input  -60.11 | X-H torsion
[ 7974 7965 7964 7962 ] final  173.13 input  175.53 | X-H torsion
[ 8008 7997 7996 7995 ] final   72.19 input   59.86 | X-H torsion
[ 10167 10162 10161 10158 ] final  -95.87 input  -65.29 | X-H torsion
[ 10718 10713 10712 10709 ] final   55.30 input   66.30 | X-H torsion
[ 10763 10752 10751 10750 ] final   69.98 input  -60.55 | X-H torsion
[ 11005 11000 10999 10996 ] final   24.34 input  -57.11 | X-H torsion

> <Gold.Protein.ActiveResidues>
 VAL166  LYS551  ARG553  GLY616  TRP617  ASP618  TYR619  PRO620  LYS621  CYS622 
 ASP623  PHE694  ASN695  SER759  ASP760  ASP761  ALA762  ILE779  LEU786  VAL792 
 PHE793  MET794  SER795  GLU796  ALA797  LYS798  CYS799  TRP800  GLU811  SER814 

> <Gold.Protein.RotatedAtoms>
  150.9708  133.6346  159.2738 H   0  0  0  0  0  0  0  0  0  0  0  0  # atno 6907 bound_to 6896
  151.3636  135.0908  159.9452 H   0  0  0  0  0  0  0  0  0  0  0  0  # atno 6908 bound_to 6896
  152.5182  133.9276  159.7619 H   0  0  0  0  0  0  0  0  0  0  0  0  # atno 6909 bound_to 6896
  144.7251  139.9602  143.6434 H   0  0  0  0  0  0  0  0  0  0  0  0  # atno 7974 bound_to 7965
  155.7652  140.3485  155.5218 H   0  0  0  0  0  0  0  0  0  0  0  0  # atno 8008 bound_to 7997
  155.8875  140.1012  157.1463 H   0  0  0  0  0  0  0  0  0  0  0  0  # atno 8009 bound_to 7997
  154.4030  140.1310  156.4261 H   0  0  0  0  0  0  0  0  0  0  0  0  # atno 8010 bound_to 7997
  140.2997  143.3170  152.0261 H   0  0  0  0  0  0  0  0  0  0  0  0  # atno 10167 bound_to 10162
  157.5333  130.8645  149.8718 H   0  0  0  0  0  0  0  0  0  0  0  0  # atno 10718 bound_to 10713
  153.0316  135.5191  154.7371 H   0  0  0  0  0  0  0  0  0  0  0  0  # atno 10763 bound_to 10752
  154.6381  135.2909  155.0138 H   0  0  0  0  0  0  0  0  0  0  0  0  # atno 10764 bound_to 10752
  154.1066  135.6628  153.4930 H   0  0  0  0  0  0  0  0  0  0  0  0  # atno 10765 bound_to 10752
  140.3598  134.2138  155.7673 H   0  0  0  0  0  0  0  0  0  0  0  0  # atno 11005 bound_to 11000
  146.0643  139.3635  143.0562 LP  0  0  0  0  0  0  0  0  0  0  0  0  # atno 17320 bound_to 7965
  145.8051  140.9752  143.0978 LP  0  0  0  0  0  0  0  0  0  0  0  0  # atno 17321 bound_to 7965
  139.4918  144.6465  151.6767 LP  0  0  0  0  0  0  0  0  0  0  0  0  # atno 17342 bound_to 10162
  140.5662  144.0186  150.6193 LP  0  0  0  0  0  0  0  0  0  0  0  0  # atno 17343 bound_to 10162
  156.0439  130.3732  150.1366 LP  0  0  0  0  0  0  0  0  0  0  0  0  # atno 17370 bound_to 10713
  156.9550  130.9787  151.3490 LP  0  0  0  0  0  0  0  0  0  0  0  0  # atno 17371 bound_to 10713
  141.1987  133.8028  157.0568 LP  0  0  0  0  0  0  0  0  0  0  0  0  # atno 17394 bound_to 11000
  140.0636  134.9741  157.1347 LP  0  0  0  0  0  0  0  0  0  0  0  0  # atno 17395 bound_to 11000

$$$$
