AV-unprocessed.smi:235|AV-procd|sdf|1805|dock6
  -GOLD-   2262020383D 1   1.00000     0.00000
 Structure written by MMmdl.
 54 58  0  0  0  0  0  0  0  0  1 V2000
  146.8315  134.6050  155.5582 O   0  0  0  0  0  0  0  0  0  0  0  0
  147.6122  135.0862  154.7358 C   0  0  0  0  0  0  0  0  0  0  0  0
  147.2340  135.9339  153.7680 N   0  0  0  0  0  0  0  0  0  0  0  0
  145.9026  136.3943  153.5504 C   0  0  0  0  0  0  0  0  0  0  0  0
  145.2985  136.1559  152.1840 C   0  0  0  0  0  0  0  0  0  0  0  0
  145.6973  137.5478  152.5946 C   0  0  0  0  0  0  0  0  0  0  0  0
  149.1088  134.7494  154.7930 C   0  0  2  0  0  0  0  0  0  0  0  0
  149.3875  133.2425  154.6149 C   0  0  0  0  0  0  0  0  0  0  0  0
  150.5747  132.9713  155.5297 C   0  0  0  0  0  0  0  0  0  0  0  0
  150.2972  133.9126  156.6949 C   0  0  0  0  0  0  0  0  0  0  0  0
  149.6746  135.0948  156.1035 N   0  0  0  0  0  0  0  0  0  0  0  0
  150.3678  136.2618  156.1030 C   0  0  0  0  0  0  0  0  0  0  0  0
  150.5863  136.9273  154.9374 N   0  0  0  0  0  0  0  0  0  0  0  0
  151.2113  138.1086  154.9445 C   0  0  0  0  0  0  0  0  0  0  0  0
  151.6782  138.7999  155.9862 N   0  0  0  0  0  0  0  0  0  0  0  0
  151.4582  138.1365  157.1572 C   0  0  0  0  0  0  0  0  0  0  0  0
  150.8243  136.8713  157.3035 C   0  0  0  0  0  0  0  0  0  0  0  0
  150.7890  136.5120  158.6454 N   0  0  0  0  0  0  0  0  0  0  0  0
  151.3489  137.5171  159.2604 C   0  0  0  0  0  0  0  0  0  0  0  0
  151.7672  138.5426  158.4431 N   0  0  0  0  0  0  0  0  0  0  0  0
  152.3908  139.7855  158.8562 C   0  0  0  0  0  0  0  0  0  0  0  0
  151.5572  141.0298  158.4808 C   0  0  2  0  0  0  0  0  0  0  0  0
  151.5725  141.1335  157.0713 O   0  0  0  0  0  0  0  0  0  0  0  0
  152.0710  142.3552  159.0882 C   0  0  1  0  0  0  0  0  0  0  0  0
  151.1632  143.5617  158.8256 C   0  0  0  0  0  0  0  0  0  0  0  0
  151.4308  144.4956  159.9972 C   0  0  0  0  0  0  0  0  0  0  0  0
  152.2462  143.6448  160.9706 C   0  0  0  0  0  0  0  0  0  0  0  0
  152.0763  142.3145  160.5085 O   0  0  0  0  0  0  0  0  0  0  0  0
  147.9457  136.2881  153.1456 H   0  0  0  0  0  0  0  0  0  0  0  0
  145.2118  136.3293  154.3901 H   0  0  0  0  0  0  0  0  0  0  0  0
  145.9110  135.6605  151.4331 H   0  0  0  0  0  0  0  0  0  0  0  0
  144.2346  135.9321  152.1377 H   0  0  0  0  0  0  0  0  0  0  0  0
  144.9008  138.2524  152.8249 H   0  0  0  0  0  0  0  0  0  0  0  0
  146.5816  137.9818  152.1322 H   0  0  0  0  0  0  0  0  0  0  0  0
  149.6375  135.2901  154.0033 H   0  0  0  0  0  0  0  0  0  0  0  0
  148.5417  132.6342  154.9402 H   0  0  0  0  0  0  0  0  0  0  0  0
  149.5994  132.9800  153.5780 H   0  0  0  0  0  0  0  0  0  0  0  0
  150.6524  131.9271  155.8333 H   0  0  0  0  0  0  0  0  0  0  0  0
  151.5035  133.2540  155.0322 H   0  0  0  0  0  0  0  0  0  0  0  0
  149.5732  133.4623  157.3751 H   0  0  0  0  0  0  0  0  0  0  0  0
  151.1942  134.1157  157.2813 H   0  0  0  0  0  0  0  0  0  0  0  0
  151.3475  138.5701  153.9776 H   0  0  0  0  0  0  0  0  0  0  0  0
  151.4571  137.5443  160.3350 H   0  0  0  0  0  0  0  0  0  0  0  0
  152.5517  139.7496  159.9347 H   0  0  0  0  0  0  0  0  0  0  0  0
  153.3777  139.8367  158.3941 H   0  0  0  0  0  0  0  0  0  0  0  0
  150.5208  140.8772  158.7842 H   0  0  0  0  0  0  0  0  0  0  0  0
  150.8002  140.7078  156.7312 H   0  0  0  0  0  0  0  0  0  0  0  0
  153.0824  142.5682  158.7365 H   0  0  0  0  0  0  0  0  0  0  0  0
  151.3612  144.0287  157.8603 H   0  0  0  0  0  0  0  0  0  0  0  0
  150.1160  143.2564  158.8392 H   0  0  0  0  0  0  0  0  0  0  0  0
  151.9883  145.3822  159.6931 H   0  0  0  0  0  0  0  0  0  0  0  0
  150.4930  144.8247  160.4463 H   0  0  0  0  0  0  0  0  0  0  0  0
  153.3021  143.9123  160.9178 H   0  0  0  0  0  0  0  0  0  0  0  0
  151.9174  143.7512  162.0045 H   0  0  0  0  0  0  0  0  0  0  0  0
  1  2  2  0  0  0  0
  2  3  1  0  0  0  0
  2  7  1  0  0  0  0
  3  4  1  0  0  0  0
  3 29  1  0  0  0  0
  4  6  1  0  0  0  0
  4  5  1  0  0  0  0
  4 30  1  0  0  0  0
  5  6  1  0  0  0  0
  5 31  1  0  0  0  0
  5 32  1  0  0  0  0
  6 33  1  0  0  0  0
  6 34  1  0  0  0  0
  7 11  1  0  0  0  0
  7  8  1  0  0  0  0
  7 35  1  0  0  0  0
  8  9  1  0  0  0  0
  8 36  1  0  0  0  0
  8 37  1  0  0  0  0
  9 10  1  0  0  0  0
  9 38  1  0  0  0  0
  9 39  1  0  0  0  0
 10 11  1  0  0  0  0
 10 40  1  0  0  0  0
 10 41  1  0  0  0  0
 11 12  1  0  0  0  0
 12 17  1  0  0  0  0
 12 13  2  0  0  0  0
 13 14  1  0  0  0  0
 14 15  2  0  0  0  0
 14 42  1  0  0  0  0
 15 16  1  0  0  0  0
 16 20  1  0  0  0  0
 16 17  2  0  0  0  0
 17 18  1  0  0  0  0
 18 19  2  0  0  0  0
 19 20  1  0  0  0  0
 19 43  1  0  0  0  0
 20 21  1  0  0  0  0
 21 22  1  0  0  0  0
 21 44  1  0  0  0  0
 21 45  1  0  0  0  0
 22 23  1  0  0  0  0
 22 24  1  0  0  0  0
 22 46  1  0  0  0  0
 23 47  1  0  0  0  0
 24 28  1  0  0  0  0
 24 25  1  0  0  0  0
 24 48  1  0  0  0  0
 25 26  1  0  0  0  0
 25 49  1  0  0  0  0
 25 50  1  0  0  0  0
 26 27  1  0  0  0  0
 26 51  1  0  0  0  0
 26 52  1  0  0  0  0
 27 28  1  0  0  0  0
 27 53  1  0  0  0  0
 27 54  1  0  0  0  0
M  END
> <s_m_source_file>
AV-unprocessed.smi

> <i_m_source_file_index>
235

> <i_lp_mmshare_version>
43012

> <i_f3d_flags>
0

> <s_epik_input>
W0NIMl0xW0NIMl1bQ0hdMVtOSF1DKD1PKVtDQEBIXTJbQ0gyXVtDSDJdW0NIMl1OMmMobltjSF1uMyljKGMzNCluW2NIXW40W0NIMl1bQ0BIXShbT0hdKVtDQEBIXTVbQ0gyXVtDSDJdW0NIMl1PNQ==

> <s_epik_cmdline>
J2VwaWtfcHl0aG9uJywgJy1waCcsICc3LjAnLCAnLXRuJywgJzgnLCAnLW1hJywgJzIwMCcsICctbWV0YWxfYmluZGluZycsICctaW1hZScsICc8aW5maWxlLm1hZT4nLCAnLW9tYWUnLCAnPG91dGZpbGUubWFlPic=

> <r_lp_tautomer_probability>
1

> <r_epik_Ionization_Penalty>
0.000526714

> <r_epik_Ionization_Penalty_Charging>
0

> <r_epik_Ionization_Penalty_Neutral>
0.000526714

> <r_epik_State_Penalty>
0.000272704

> <r_epik_Charging_Adjusted_Penalty>
0.000272704

> <i_epik_Tot_Q>
0

> <i_epik_Tot_abs_Q>
0

> <r_epik_Metal_State_Penalty>
-0

> <b_epik_Metal_Only>
0

> <s_lp_Force_Field>
OPLS_2005

> <r_lp_Energy>
59.397

> <b_lp_Chiralities_Consistent>
1

> <s_lp_Variant>
AV-unprocessed.smi:235-5

> <Gold.Version>
5.8.1

> <Gold.Id.Protein>
6NUR|6NUR_protein|mol2

> <Gold.PLP.Fitness>
45.1488

> <Gold.PLP.PLP>
-39.4962

> <Gold.PLP.part.hbond>
-2.1995

> <Gold.PLP.part.metal>
0.0000

> <Gold.PLP.part.buried>
-6.6580

> <Gold.PLP.part.nonpolar>
-31.6654

> <Gold.PLP.part.repulsive>
0.2405

> <Gold.PLP.ligand.clash>
0.0000

> <Gold.PLP.ligand.torsion>
0.2046

> <Gold.PLP.Chemscore.Hbond>
1.9193

> <Gold.PLP.Chemscore.CHOScore>
0.0000

> <Gold.PLP.Chemscore.Metal>
0.0000

> <Gold.Chemscore.Hbonds>
donor molecule, donor type, donor heavy atom, donor atom, acceptor molecule, acceptor atom, score
      L1  H     3    29       P1  7948  1.00
      P1  H  6896  6907       L1    18  0.82

> <Gold.PLP.Chemscore.Internal.Correction>
0.3041

> <Gold.Rescore>
     Score         DG    S(hbond)    S(metal)    S(lipo)     H(rot)  DE(clash)    DE(int)     intcor
     13.71     -14.69       1.78        0.00      93.34       3.00       0.02       0.96       ----

> <Gold.Chemscore.Fitness>
13.7088

> <Gold.Chemscore.DG>
-14.6853

> <Gold.Chemscore.ZeroCoef>
-5.4800

> <Gold.Chemscore.Hbond>
1.7848

> <Gold.Chemscore.Metal>
0.0000

> <Gold.Chemscore.Lipo>
93.3430

> <Gold.Chemscore.Internal_Hbond>
0.0000

> <Gold.Chemscore.DEClash>
0.0174

> <Gold.Chemscore.DEInternal>
0.9590

> <Gold.Chemscore.Rot>
2.9989

> <Gold.Chemscore.Internal.Correction>
   9.000000E+99

> <Gold.Chemscore.Hbonds>
donor molecule, donor type, donor heavy atom, donor atom, acceptor molecule, acceptor atom, score
      L1  H     3    29       P1  7948  0.98
      P1  H  6896  6907       L1    18  0.65

> <Gold.Chemscore.Hbond.Weighted>
-5.9613

> <Gold.Chemscore.Metal.Weighted>
-0.0000

> <Gold.Chemscore.Lipo.Weighted>
-10.9211

> <Gold.Chemscore.Internal_Hbond.Weighted>
0.0000

> <Gold.Chemscore.DEClash.Weighted>
0.0174

> <Gold.Chemscore.DEInternal.Weighted>
0.9590

> <Gold.Chemscore.Rot.Weighted>
7.6772

> <Gold.Chemscore.Internal.Correction.Weighted>
   9.000000E+99

> <Gold.Protein.RotatedTorsions>
[ 6907 6896 6895 6894 ] final  -48.22 input  -60.11 | X-H torsion
[ 7974 7965 7964 7962 ] final  -95.70 input  175.53 | X-H torsion
[ 8008 7997 7996 7995 ] final  150.48 input   59.86 | X-H torsion
[ 10167 10162 10161 10158 ] final  -88.97 input  -65.29 | X-H torsion
[ 10718 10713 10712 10709 ] final  125.10 input   66.30 | X-H torsion
[ 10763 10752 10751 10750 ] final -170.05 input  -60.55 | X-H torsion
[ 11005 11000 10999 10996 ] final   -1.00 input  -57.11 | X-H torsion

> <Gold.Protein.ActiveResidues>
 VAL166  LYS551  ARG553  GLY616  TRP617  ASP618  TYR619  PRO620  LYS621  CYS622 
 ASP623  PHE694  ASN695  SER759  ASP760  ASP761  ALA762  ILE779  LEU786  VAL792 
 PHE793  MET794  SER795  GLU796  ALA797  LYS798  CYS799  TRP800  GLU811  SER814 

> <Gold.Protein.RotatedAtoms>
  150.8928  134.8333  159.7304 H   0  0  0  0  0  0  0  0  0  0  0  0  # atno 6907 bound_to 6896
  152.4847  134.4622  159.9619 H   0  0  0  0  0  0  0  0  0  0  0  0  # atno 6908 bound_to 6896
  151.4683  133.3536  159.2855 H   0  0  0  0  0  0  0  0  0  0  0  0  # atno 6909 bound_to 6896
  145.3566  140.9485  143.2524 H   0  0  0  0  0  0  0  0  0  0  0  0  # atno 7974 bound_to 7965
  156.2714  140.2074  156.6024 H   0  0  0  0  0  0  0  0  0  0  0  0  # atno 8008 bound_to 7997
  154.6896  140.0531  157.0374 H   0  0  0  0  0  0  0  0  0  0  0  0  # atno 8009 bound_to 7997
  155.0885  140.3194  155.4583 H   0  0  0  0  0  0  0  0  0  0  0  0  # atno 8010 bound_to 7997
  140.3694  143.2802  151.9518 H   0  0  0  0  0  0  0  0  0  0  0  0  # atno 10167 bound_to 10162
  157.5531  131.1093  150.8668 H   0  0  0  0  0  0  0  0  0  0  0  0  # atno 10718 bound_to 10713
  154.6457  135.2904  155.0049 H   0  0  0  0  0  0  0  0  0  0  0  0  # atno 10763 bound_to 10752
  154.1160  135.6555  153.4898 H   0  0  0  0  0  0  0  0  0  0  0  0  # atno 10764 bound_to 10752
  153.0349  135.5276  154.7342 H   0  0  0  0  0  0  0  0  0  0  0  0  # atno 10765 bound_to 10752
  140.6425  133.9477  155.8334 H   0  0  0  0  0  0  0  0  0  0  0  0  # atno 11005 bound_to 11000
  144.8677  139.5083  143.6782 LP  0  0  0  0  0  0  0  0  0  0  0  0  # atno 17320 bound_to 7965
  146.2945  139.7237  142.9137 LP  0  0  0  0  0  0  0  0  0  0  0  0  # atno 17321 bound_to 7965
  139.4805  144.5920  151.7754 LP  0  0  0  0  0  0  0  0  0  0  0  0  # atno 17342 bound_to 10162
  140.5048  144.1114  150.5980 LP  0  0  0  0  0  0  0  0  0  0  0  0  # atno 17343 bound_to 10162
  156.9188  130.5307  149.5279 LP  0  0  0  0  0  0  0  0  0  0  0  0  # atno 17370 bound_to 10713
  156.0594  130.5649  150.9161 LP  0  0  0  0  0  0  0  0  0  0  0  0  # atno 17371 bound_to 10713
  141.0596  134.0365  157.3676 LP  0  0  0  0  0  0  0  0  0  0  0  0  # atno 17394 bound_to 11000
  139.9075  135.0183  156.7550 LP  0  0  0  0  0  0  0  0  0  0  0  0  # atno 17395 bound_to 11000

$$$$
