AV-unprocessed.smi:54|AV-procd|sdf|558|dock10
  -GOLD-   2262016463D 1   1.00000     0.00000
 Structure written by MMmdl.
 43 45  0  0  0  0  0  0  0  0  2 V2000
  152.9857  143.7410  159.3801 C   0  0  0  0  0  0  0  0  0  0  0  0
  152.5166  142.6218  160.3242 C   0  0  0  0  0  0  0  0  0  0  0  0
  153.1498  142.7670  161.7181 C   0  0  0  0  0  0  0  0  0  0  0  0
  152.8253  141.2419  159.7252 C   0  0  0  0  0  0  0  0  0  0  0  0
  153.5840  140.4828  160.3318 O   0  0  0  0  0  0  0  0  0  0  0  0
  152.2234  140.9798  158.5432 N   0  0  0  0  0  0  0  0  0  0  0  0
  152.3058  139.8402  157.7326 C   0  0  0  0  0  0  0  0  0  0  0  0
  151.2681  139.6998  156.9434 N   0  0  0  0  0  0  0  0  0  0  0  0
  151.3511  138.5699  156.1518 C   0  0  0  0  0  0  0  0  0  0  0  0
  152.3548  137.6418  156.1179 C   0  0  0  0  0  0  0  0  0  0  0  0
  152.0934  136.6455  155.1853 N   0  0  0  0  0  0  0  0  0  0  0  0
  150.9171  137.0280  154.6904 C   0  0  0  0  0  0  0  0  0  0  0  0
  150.4020  138.1560  155.2239 N   0  0  0  0  0  0  0  0  0  0  0  0
  149.1180  138.8518  154.8838 C   0  0  1  0  0  0  0  0  0  0  0  0
  148.2491  138.7376  155.9718 O   0  0  0  0  0  0  0  0  0  0  0  0
  148.3517  139.9021  156.7843 C   0  0  2  0  0  0  0  0  0  0  0  0
  147.1532  140.0240  157.7414 C   0  0  0  0  0  0  0  0  0  0  0  0
  147.1524  138.9443  158.6505 O   0  0  0  0  0  0  0  0  0  0  0  0
  148.4772  141.0077  155.7293 C   0  0  2  0  0  0  0  0  0  0  0  0
  147.2002  141.3529  155.2166 O   0  0  0  0  0  0  0  0  0  0  0  0
  149.3770  140.3569  154.6781 C   0  0  2  0  0  0  0  0  0  0  0  0
  149.0946  140.7988  153.3634 O   0  0  0  0  0  0  0  0  0  0  0  0
  153.4953  137.8567  157.0389 C   0  0  0  0  0  0  0  0  0  0  0  0
  154.4219  137.0484  157.0440 O   0  0  0  0  0  0  0  0  0  0  0  0
  153.4108  138.9703  157.8266 N   0  5  0  0  0  0  0  0  0  0  0  0
  148.7379  138.3228  154.0089 H   0  0  0  0  0  0  0  0  0  0  0  0
  149.2823  139.8652  157.3540 H   0  0  0  0  0  0  0  0  0  0  0  0
  148.9316  141.9092  156.1413 H   0  0  0  0  0  0  0  0  0  0  0  0
  150.4199  140.5828  154.9082 H   0  0  0  0  0  0  0  0  0  0  0  0
  152.5419  143.6356  158.3894 H   0  0  0  0  0  0  0  0  0  0  0  0
  154.0701  143.7384  159.2613 H   0  0  0  0  0  0  0  0  0  0  0  0
  152.6984  144.7200  159.7642 H   0  0  0  0  0  0  0  0  0  0  0  0
  151.4352  142.7139  160.4391 H   0  0  0  0  0  0  0  0  0  0  0  0
  152.8262  141.9676  162.3858 H   0  0  0  0  0  0  0  0  0  0  0  0
  152.8639  143.7131  162.1784 H   0  0  0  0  0  0  0  0  0  0  0  0
  154.2392  142.7404  161.6697 H   0  0  0  0  0  0  0  0  0  0  0  0
  151.6646  141.7377  158.1810 H   0  0  0  0  0  0  0  0  0  0  0  0
  150.4175  136.4650  153.9160 H   0  0  0  0  0  0  0  0  0  0  0  0
  147.2298  140.9428  158.3236 H   0  0  0  0  0  0  0  0  0  0  0  0
  146.2085  140.0593  157.1980 H   0  0  0  0  0  0  0  0  0  0  0  0
  147.2238  139.2928  159.5260 H   0  0  0  0  0  0  0  0  0  0  0  0
  146.5866  141.3640  155.9355 H   0  0  0  0  0  0  0  0  0  0  0  0
  149.1265  140.0507  152.7864 H   0  0  0  0  0  0  0  0  0  0  0  0
  1  2  1  0  0  0  0
  1 30  1  0  0  0  0
  1 31  1  0  0  0  0
  1 32  1  0  0  0  0
  2  3  1  0  0  0  0
  2  4  1  0  0  0  0
  2 33  1  0  0  0  0
  3 34  1  0  0  0  0
  3 35  1  0  0  0  0
  3 36  1  0  0  0  0
  4  5  2  0  0  0  0
  4  6  1  0  0  0  0
  6 37  1  0  0  0  0
  6  7  1  0  0  0  0
  7 25  1  0  0  0  0
  7  8  2  0  0  0  0
  8  9  1  0  0  0  0
  9 13  1  0  0  0  0
  9 10  2  0  0  0  0
 10 11  1  0  0  0  0
 10 23  1  0  0  0  0
 11 12  2  0  0  0  0
 12 13  1  0  0  0  0
 12 38  1  0  0  0  0
 13 14  1  0  0  0  0
 14 26  1  0  0  0  0
 14 21  1  0  0  0  0
 14 15  1  0  0  0  0
 15 16  1  0  0  0  0
 16 27  1  0  0  0  0
 16 17  1  0  0  0  0
 16 19  1  0  0  0  0
 17 18  1  0  0  0  0
 17 39  1  0  0  0  0
 17 40  1  0  0  0  0
 18 41  1  0  0  0  0
 19 28  1  0  0  0  0
 19 20  1  0  0  0  0
 19 21  1  0  0  0  0
 20 42  1  0  0  0  0
 21 29  1  0  0  0  0
 21 22  1  0  0  0  0
 22 43  1  0  0  0  0
 23 24  2  0  0  0  0
 23 25  1  0  0  0  0
M  CHG  1  25  -1
M  END
> <s_m_source_file>
AV-unprocessed.smi

> <i_m_source_file_index>
54

> <i_lp_mmshare_version>
43012

> <i_f3d_flags>
0

> <s_epik_input>
W0NIM11bQ0hdKFtDSDNdKUMoPU8pW05IXWMobjEpW25IXWMoPU8pYyhjMTIpbltjSF1uMltDQEBIXTNPW0NASF0oW0NIMl1bT0hdKVtDQEBIXShbT0hdKVtDQEhdM1tPSF0=

> <s_epik_cmdline>
J2VwaWtfcHl0aG9uJywgJy1waCcsICc3LjAnLCAnLXRuJywgJzgnLCAnLW1hJywgJzIwMCcsICctbWV0YWxfYmluZGluZycsICctaW1hZScsICc8aW5maWxlLm1hZT4nLCAnLW9tYWUnLCAnPG91dGZpbGUubWFlPic=

> <r_lp_tautomer_probability>
0.85571

> <r_epik_Ionization_Penalty>
1.75936

> <r_epik_Ionization_Penalty_Charging>
4.55893e-11

> <r_epik_Ionization_Penalty_Neutral>
1.75936

> <r_epik_State_Penalty>
1.72072

> <r_epik_Charging_Adjusted_Penalty>
1.72072

> <i_epik_Tot_Q>
-1

> <i_epik_Tot_abs_Q>
1

> <r_epik_Metal_State_Penalty>
0.400338

> <b_epik_Metal_Only>
1

> <s_epik_Chemistry_Notes>
This compound contains an acetal/aminal-like group ( X-CH(R)-Y where X, Y are N, S, or O) that may be acid/base labile, releasing an aldehyde.

> <s_lp_Force_Field>
OPLS_2005

> <r_lp_Energy>
63.0293

> <b_lp_Chiralities_Consistent>
1

> <s_lp_Variant>
AV-unprocessed.smi:54-30

> <Gold.Version>
5.8.1

> <Gold.Id.Protein>
6NUR|6NUR_protein|mol2

> <Gold.PLP.Fitness>
55.9066

> <Gold.PLP.PLP>
-38.4632

> <Gold.PLP.part.hbond>
-6.4948

> <Gold.PLP.part.metal>
0.0000

> <Gold.PLP.part.buried>
-4.2220

> <Gold.PLP.part.nonpolar>
-28.4233

> <Gold.PLP.part.repulsive>
0.2255

> <Gold.PLP.ligand.clash>
0.0000

> <Gold.PLP.ligand.torsion>
0.3637

> <Gold.PLP.Chemscore.Hbond>
5.1287

> <Gold.PLP.Chemscore.CHOScore>
0.9091

> <Gold.PLP.Chemscore.Metal>
0.0000

> <Gold.Chemscore.Hbonds>
donor molecule, donor type, donor heavy atom, donor atom, acceptor molecule, acceptor atom, score
      L1  H    22    43       P1  7957  0.54
      P1  H  7997  8010       L1    25  1.80
      P1  H  8011  8017       L1    22  0.98
      P1  H 10752 10763       L1    11  0.75
      L1  C    12    38       P1  7948  0.59
      L1  C    12    38       P1  7949  0.34

> <Gold.PLP.Chemscore.Internal.Correction>
0.0575

> <Gold.Rescore>
     Score         DG    S(hbond)    S(metal)    S(lipo)     H(rot)  DE(clash)    DE(int)     intcor
      9.23     -12.13       3.02        0.00      58.67       4.02       0.13       2.76       ----

> <Gold.Chemscore.Fitness>
9.2338

> <Gold.Chemscore.DG>
-12.1270

> <Gold.Chemscore.ZeroCoef>
-5.4800

> <Gold.Chemscore.Hbond>
3.0156

> <Gold.Chemscore.Metal>
0.0000

> <Gold.Chemscore.Lipo>
58.6677

> <Gold.Chemscore.Internal_Hbond>
0.0000

> <Gold.Chemscore.DEClash>
0.1302

> <Gold.Chemscore.DEInternal>
2.7630

> <Gold.Chemscore.Rot>
4.0192

> <Gold.Chemscore.Internal.Correction>
   9.000000E+99

> <Gold.Chemscore.Hbonds>
donor molecule, donor type, donor heavy atom, donor atom, acceptor molecule, acceptor atom, score
      L1  H    22    43       P1  7957  0.54
      P1  H  7997  8010       L1    25  0.05
      P1  H  8011  8017       L1    22  0.55
      P1  H 10752 10763       L1    11  0.70
      P1  H 10752 10764       L1    24  0.04

> <Gold.Chemscore.Hbond.Weighted>
-10.0722

> <Gold.Chemscore.Metal.Weighted>
-0.0000

> <Gold.Chemscore.Lipo.Weighted>
-6.8641

> <Gold.Chemscore.Internal_Hbond.Weighted>
0.0000

> <Gold.Chemscore.DEClash.Weighted>
0.1302

> <Gold.Chemscore.DEInternal.Weighted>
2.7630

> <Gold.Chemscore.Rot.Weighted>
10.2893

> <Gold.Chemscore.Internal.Correction.Weighted>
   9.000000E+99

> <Gold.Protein.RotatedTorsions>
[ 6907 6896 6895 6894 ] final -101.65 input  -60.11 | X-H torsion
[ 7974 7965 7964 7962 ] final    8.70 input  175.53 | X-H torsion
[ 8008 7997 7996 7995 ] final   34.35 input   59.86 | X-H torsion
[ 10167 10162 10161 10158 ] final  -48.12 input  -65.29 | X-H torsion
[ 10718 10713 10712 10709 ] final -179.37 input   66.30 | X-H torsion
[ 10763 10752 10751 10750 ] final   42.18 input  -60.55 | X-H torsion
[ 11005 11000 10999 10996 ] final   45.22 input  -57.11 | X-H torsion

> <Gold.Protein.ActiveResidues>
 VAL166  LYS551  ARG553  GLY616  TRP617  ASP618  TYR619  PRO620  LYS621  CYS622 
 ASP623  PHE694  ASN695  SER759  ASP760  ASP761  ALA762  ILE779  LEU786  VAL792 
 PHE793  MET794  SER795  GLU796  ALA797  LYS798  CYS799  TRP800  GLU811  SER814 

> <Gold.Protein.RotatedAtoms>
  150.7163  134.0701  159.3861 H   0  0  0  0  0  0  0  0  0  0  0  0  # atno 6907 bound_to 6896
  151.8683  135.0497  160.0486 H   0  0  0  0  0  0  0  0  0  0  0  0  # atno 6908 bound_to 6896
  152.2663  133.5307  159.5449 H   0  0  0  0  0  0  0  0  0  0  0  0  # atno 6909 bound_to 6896
  146.2413  139.9893  142.8427 H   0  0  0  0  0  0  0  0  0  0  0  0  # atno 7974 bound_to 7965
  155.1533  140.3277  155.4426 H   0  0  0  0  0  0  0  0  0  0  0  0  # atno 8008 bound_to 7997
  156.2567  140.1973  156.6594 H   0  0  0  0  0  0  0  0  0  0  0  0  # atno 8009 bound_to 7997
  154.6457  140.0564  156.9884 H   0  0  0  0  0  0  0  0  0  0  0  0  # atno 8010 bound_to 7997
  140.6745  143.2754  151.4024 H   0  0  0  0  0  0  0  0  0  0  0  0  # atno 10167 bound_to 10162
  156.8581  130.9742  151.3086 H   0  0  0  0  0  0  0  0  0  0  0  0  # atno 10718 bound_to 10713
  152.9889  135.6139  154.2908 H   0  0  0  0  0  0  0  0  0  0  0  0  # atno 10763 bound_to 10752
  154.2633  135.2781  155.2770 H   0  0  0  0  0  0  0  0  0  0  0  0  # atno 10764 bound_to 10752
  154.5186  135.5821  153.6720 H   0  0  0  0  0  0  0  0  0  0  0  0  # atno 10765 bound_to 10752
  140.1480  134.4498  155.8402 H   0  0  0  0  0  0  0  0  0  0  0  0  # atno 11005 bound_to 11000
  145.1518  140.9627  143.4428 LP  0  0  0  0  0  0  0  0  0  0  0  0  # atno 17320 bound_to 7965
  145.0198  139.3434  143.6078 LP  0  0  0  0  0  0  0  0  0  0  0  0  # atno 17321 bound_to 7965
  139.6030  144.1255  152.2219 LP  0  0  0  0  0  0  0  0  0  0  0  0  # atno 17342 bound_to 10162
  140.0645  144.5829  150.7237 LP  0  0  0  0  0  0  0  0  0  0  0  0  # atno 17343 bound_to 10162
  157.6266  130.8696  149.9199 LP  0  0  0  0  0  0  0  0  0  0  0  0  # atno 17370 bound_to 10713
  156.0792  130.3675  150.0616 LP  0  0  0  0  0  0  0  0  0  0  0  0  # atno 17371 bound_to 10713
  141.2195  133.6860  156.7369 LP  0  0  0  0  0  0  0  0  0  0  0  0  # atno 17394 bound_to 11000
  140.2640  134.8444  157.3785 LP  0  0  0  0  0  0  0  0  0  0  0  0  # atno 17395 bound_to 11000

$$$$
