#       Name:                AV-unprocessed.smi:1694
#       Creating user name   scv26
#       Creation time:       Fri Mar 27 07:55:01 2020


#       File generated by GOLD software.
#

@<TRIPOS>MOLECULE
AV-unprocessed.smi:1694
    39    40     1
SMALL
NO_CHARGES


@<TRIPOS>ATOM
      1 ****        -1.8403  -3.4482   1.0998 C.3            1 S1                 0.0000
      2 ****        -0.4498  -3.9057   1.5114 C.ar           1 S1                 0.0000
      3 ****        -0.2931  -5.1745   2.1088 C.ar           1 S1                 0.0000
      4 ****         0.9902  -5.6000   2.4904 C.ar           1 S1                 0.0000
      5 ****         2.0697  -4.7322   2.2566 C.ar           1 S1                 0.0000
      6 ****         1.9283  -3.5185   1.6860 N.ar           1 S1                 0.0000
      7 ****         0.6961  -3.0890   1.3100 C.ar           1 S1                 0.0000
      8 ****         0.4535  -1.8199   0.6973 N.am           1 S1                 0.0000
      9 ****         1.2802  -0.8059   0.3616 C.2            1 S1                 0.0000
     10 ****         2.4890  -0.8774   0.5772 O.2            1 S1                 0.0000
     11 ****         0.7089   0.2658  -0.2111 N.am           1 S1                 0.0000
     12 ****         1.4060   1.4694  -0.6502 C.3            1 S1                 0.0000
     13 ****         0.5494   2.2130  -1.6823 C.3            1 S1                 0.0000
     14 ****         1.2622   3.4791  -2.1825 C.3            1 S1                 0.0000
     15 ****         1.8698   4.3232  -1.0524 C.2            1 S1                 0.0000
     16 ****         2.1660   5.4962  -1.2672 O.2            1 S1                 0.0000
     17 ****         2.0980   3.7485   0.1417 N.am           1 S1                 0.0000
     18 ****         1.7092   2.3971   0.5437 C.3            1 S1                 0.0000
     19 ****        -2.5944  -4.1953   1.3488 H              1 S1                 0.0000
     20 ****        -1.8823  -3.2755   0.0240 H              1 S1                 0.0000
     21 ****        -2.1058  -2.5220   1.6105 H              1 S1                 0.0000
     22 ****        -1.1453  -5.8173   2.2746 H              1 S1                 0.0000
     23 ****         1.1424  -6.5655   2.9495 H              1 S1                 0.0000
     24 ****         3.0733  -5.0183   2.5342 H              1 S1                 0.0000
     25 ****        -0.5152  -1.6539   0.4663 H              1 S1                 0.0000
     26 ****        -0.2916   0.2420  -0.3517 H              1 S1                 0.0000
     27 ****         2.3444   1.1825  -1.1292 H              1 S1                 0.0000
     28 ****         0.3294   1.5607  -2.5285 H              1 S1                 0.0000
     29 ****        -0.4123   2.4836  -1.2434 H              1 S1                 0.0000
     30 ****         2.0725   3.1983  -2.8562 H              1 S1                 0.0000
     31 ****         0.5717   4.0912  -2.7637 H              1 S1                 0.0000
     32 ****         2.5305   4.3195   0.8537 H              1 S1                 0.0000
     33 ****         0.8271   2.4890   1.1788 H              1 S1                 0.0000
     34 ****         2.4985   1.9724   1.1647 H              1 S1                 0.0000
     35 ****         2.7284  -2.9366   1.5401 LP             1 S1                 0.0000
     36 ****         2.8727  -1.6948   1.0068 LP             1 S1                 0.0000
     37 ****         3.0880  -0.1181   0.3228 LP             1 S1                 0.0000
     38 ****         2.0109   5.8935  -2.1717 LP             1 S1                 0.0000
     39 ****         2.5621   6.0536  -0.5376 LP             1 S1                 0.0000
@<TRIPOS>BOND
    1    1    2 1     
    2    1   19 1     
    3    1   20 1     
    4    1   21 1     
    5    2    7 ar    
    6    2    3 ar    
    7    3    4 ar    
    8    3   22 1     
    9    4    5 ar    
   10    4   23 1     
   11    5    6 ar    
   12    5   24 1     
   13    6    7 ar    
   14    7    8 1     
   15    8    9 am    
   16    8   25 1     
   17    9   10 2     
   18    9   11 am    
   19   11   12 1     
   20   11   26 1     
   21   12   18 1     
   22   12   13 1     
   23   12   27 1     
   24   13   14 1     
   25   13   28 1     
   26   13   29 1     
   27   14   15 1     
   28   14   30 1     
   29   14   31 1     
   30   15   16 2     
   31   15   17 am    
   32   17   18 1     
   33   17   32 1     
   34   18   33 1     
   35   18   34 1     
   36    6   35 1     
   37   10   36 1     
   38   10   37 1     
   39   16   38 1     
   40   16   39 1     
@<TRIPOS>SUBSTRUCTURE
      1 S1             1
@<TRIPOS>SET
LONE_PAIRS      STATIC     ATOMS    <user>   **** ""
5 35 36 37 38 39
DONOR_HYDROGENS      STATIC     ATOMS    <user>   **** ""
3 25 26 32
ATOM$BLUE        STATIC     ATOMS    COLORGROUP SYSTEM
5 35 36 37 38 39
ATOM$RED        STATIC     ATOMS    COLORGROUP SYSTEM
3 25 26 32
