#       Name:                AV-unprocessed.smi:1995
#       Creating user name   scv26
#       Creation time:       Fri Mar 27 10:29:05 2020


#       File generated by GOLD software.
#

@<TRIPOS>MOLECULE
AV-unprocessed.smi:1995
    48    49     1
SMALL
NO_CHARGES


@<TRIPOS>ATOM
      1 ****        -0.5917  -0.9976   3.9385 C.3            1 S1                 0.0000
      2 ****        -0.9621  -1.5235   2.5404 C.3            1 S1                 0.0000
      3 ****        -0.5717  -0.6090   1.3388 C.3            1 S1                 0.0000
      4 ****        -1.2248   0.7848   1.5286 C.3            1 S1                 0.0000
      5 ****         0.9764  -0.4060   1.3188 C.3            1 S1                 0.0000
      6 ****         1.4874   0.1667   0.0719 N.am           1 S1                 0.0000
      7 ****         1.7153   1.4686  -0.1542 C.2            1 S1                 0.0000
      8 ****         1.4943   2.3506   0.6755 O.2            1 S1                 0.0000
      9 ****         2.2077   1.6684  -1.3892 N.am           1 S1                 0.0000
     10 ****         2.5495   2.8997  -2.0079 C.2            1 S1                 0.0000
     11 ****         2.3879   4.1005  -1.4396 N.2            1 S1                 0.0000
     12 ****         2.8066   5.1375  -2.2773 C.2            1 S1                 0.0000
     13 ****         3.2840   4.7050  -3.4894 C.2            1 S1                 0.0000
     14 ****         3.2278   2.9679  -3.6277 S.3            1 S1                 0.0000
     15 ****        -1.0333  -1.2079   0.0317 N.4            1 S1                 1.0000
     16 ****        -0.4504  -2.5357  -0.3125 C.3            1 S1                 0.0000
     17 ****        -0.8214  -2.9279  -1.7517 C.3            1 S1                 0.0000
     18 ****        -2.2354  -2.9595  -1.8847 O.3            1 S1                 0.0000
     19 ****        -2.8168  -1.6870  -1.6372 C.3            1 S1                 0.0000
     20 ****        -2.5059  -1.2399  -0.1984 C.3            1 S1                 0.0000
     21 ****        -0.8971  -1.7114   4.7038 H              1 S1                 0.0000
     22 ****        -1.0884  -0.0546   4.1646 H              1 S1                 0.0000
     23 ****         0.4823  -0.8512   4.0489 H              1 S1                 0.0000
     24 ****        -0.4946  -2.5017   2.4323 H              1 S1                 0.0000
     25 ****        -2.0363  -1.7057   2.5360 H              1 S1                 0.0000
     26 ****        -0.7355   1.3573   2.3169 H              1 S1                 0.0000
     27 ****        -2.2754   0.7120   1.8101 H              1 S1                 0.0000
     28 ****        -1.1664   1.3849   0.6202 H              1 S1                 0.0000
     29 ****         1.3003   0.2056   2.1624 H              1 S1                 0.0000
     30 ****         1.4838  -1.3600   1.4627 H              1 S1                 0.0000
     31 ****         1.7133  -0.4847  -0.6655 H              1 S1                 0.0000
     32 ****         2.3576   0.8455  -1.9542 H              1 S1                 0.0000
     33 ****         2.7284   6.1573  -1.9299 H              1 S1                 0.0000
     34 ****         3.6639   5.3009  -4.3059 H              1 S1                 0.0000
     35 ****         0.6346  -2.5312  -0.2294 H              1 S1                 0.0000
     36 ****        -0.8213  -3.3002   0.3707 H              1 S1                 0.0000
     37 ****        -0.3879  -2.2312  -2.4712 H              1 S1                 0.0000
     38 ****        -0.4246  -3.9159  -1.9859 H              1 S1                 0.0000
     39 ****        -2.4464  -0.9577  -2.3597 H              1 S1                 0.0000
     40 ****        -3.8948  -1.7589  -1.7832 H              1 S1                 0.0000
     41 ****        -2.9834  -1.9223   0.5050 H              1 S1                 0.0000
     42 ****        -2.9592  -0.2610  -0.0556 H              1 S1                 0.0000
     43 ****        -0.6776  -0.5730  -0.6687 H              1 S1                 0.0000
     44 ****         1.1253   2.1112   1.5736 LP             1 S1                 0.0000
     45 ****         1.6838   3.3066   0.4515 LP             1 S1                 0.0000
     46 ****         2.0119   4.2393  -0.5234 LP             1 S1                 0.0000
     47 ****        -2.6074  -3.6181  -1.2307 LP             1 S1                 0.0000
     48 ****        -2.4668  -3.2458  -2.8144 LP             1 S1                 0.0000
@<TRIPOS>BOND
    1    1    2 1     
    2    1   21 1     
    3    1   22 1     
    4    1   23 1     
    5    2    3 1     
    6    2   24 1     
    7    2   25 1     
    8    3    4 1     
    9    3    5 1     
   10    3   15 1     
   11    4   26 1     
   12    4   27 1     
   13    4   28 1     
   14    5    6 1     
   15    5   29 1     
   16    5   30 1     
   17    6    7 am    
   18    6   31 1     
   19    7    8 2     
   20    7    9 am    
   21    9   10 1     
   22    9   32 1     
   23   10   14 1     
   24   10   11 2     
   25   11   12 1     
   26   12   13 2     
   27   12   33 1     
   28   13   14 1     
   29   13   34 1     
   30   15   20 1     
   31   15   16 1     
   32   15   43 1     
   33   16   17 1     
   34   16   35 1     
   35   16   36 1     
   36   17   18 1     
   37   17   37 1     
   38   17   38 1     
   39   18   19 1     
   40   19   20 1     
   41   19   39 1     
   42   19   40 1     
   43   20   41 1     
   44   20   42 1     
   45    8   44 1     
   46    8   45 1     
   47   11   46 1     
   48   18   47 1     
   49   18   48 1     
@<TRIPOS>SUBSTRUCTURE
      1 S1             1
@<TRIPOS>SET
LONE_PAIRS      STATIC     ATOMS    <user>   **** ""
5 44 45 46 47 48
DONOR_HYDROGENS      STATIC     ATOMS    <user>   **** ""
3 31 32 43
ATOM$BLUE        STATIC     ATOMS    COLORGROUP SYSTEM
5 44 45 46 47 48
ATOM$RED        STATIC     ATOMS    COLORGROUP SYSTEM
3 31 32 43
