AV-unprocessed.smi:1786|AV-procd|sdf|7203|dock4
  -GOLD-   22720 8443D 1   1.00000     0.00000
 Structure written by MMmdl.
 44 45  0  0  0  0  0  0  0  0  2 V2000
  145.1711  135.4508  151.7629 C   0  0  0  0  0  0  0  0  0  0  0  0
  144.2685  134.3363  152.3349 C   0  0  1  0  0  0  0  0  0  0  0  0
  143.8526  133.3085  151.2614 C   0  0  0  0  0  0  0  0  0  0  0  0
  145.0143  132.3861  150.8639 C   0  0  0  0  0  0  0  0  0  0  0  0
  145.6070  131.7200  152.1115 C   0  0  0  0  0  0  0  0  0  0  0  0
  146.0115  132.7668  153.1625 C   0  0  0  0  0  0  0  0  0  0  0  0
  144.8606  133.6415  153.5176 N   0  3  1  0  0  0  0  0  0  0  0  0
  145.1294  134.5431  154.6673 C   0  0  0  0  0  0  0  0  0  0  0  0
  145.5292  133.7653  155.9353 C   0  0  0  0  0  0  0  0  0  0  0  0
  146.1201  134.6426  156.9388 N   0  0  0  0  0  0  0  0  0  0  0  0
  147.0719  134.2793  157.8119 C   0  0  0  0  0  0  0  0  0  0  0  0
  147.5306  133.1376  157.8681 O   0  0  0  0  0  0  0  0  0  0  0  0
  147.5553  135.3711  158.7772 C   0  0  0  0  0  0  0  0  0  0  0  0
  147.2636  135.0707  160.1888 N   0  0  0  0  0  0  0  0  0  0  0  0
  146.9231  133.7405  160.5059 C   0  0  0  0  0  0  0  0  0  0  0  0
  146.6390  133.3606  161.7616 C   0  0  0  0  0  0  0  0  0  0  0  0
  146.6882  134.3580  162.8042 C   0  0  0  0  0  0  0  0  0  0  0  0
  147.0166  135.6323  162.5127 C   0  0  0  0  0  0  0  0  0  0  0  0
  147.3308  136.0513  161.1419 C   0  0  0  0  0  0  0  0  0  0  0  0
  147.6362  137.2120  160.8663 O   0  0  0  0  0  0  0  0  0  0  0  0
  144.6857  135.9414  150.9189 H   0  0  0  0  0  0  0  0  0  0  0  0
  146.1280  135.0703  151.4078 H   0  0  0  0  0  0  0  0  0  0  0  0
  145.3768  136.2245  152.5022 H   0  0  0  0  0  0  0  0  0  0  0  0
  143.3503  134.8168  152.6762 H   0  0  0  0  0  0  0  0  0  0  0  0
  143.0336  132.6999  151.6474 H   0  0  0  0  0  0  0  0  0  0  0  0
  143.4599  133.8173  150.3803 H   0  0  0  0  0  0  0  0  0  0  0  0
  144.6672  131.6266  150.1628 H   0  0  0  0  0  0  0  0  0  0  0  0
  145.7857  132.9550  150.3444 H   0  0  0  0  0  0  0  0  0  0  0  0
  144.8756  131.0347  152.5420 H   0  0  0  0  0  0  0  0  0  0  0  0
  146.4714  131.1152  151.8357 H   0  0  0  0  0  0  0  0  0  0  0  0
  146.3757  132.2460  154.0475 H   0  0  0  0  0  0  0  0  0  0  0  0
  146.8438  133.3694  152.7976 H   0  0  0  0  0  0  0  0  0  0  0  0
  145.8990  135.2689  154.4007 H   0  0  0  0  0  0  0  0  0  0  0  0
  144.2271  135.1157  154.8864 H   0  0  0  0  0  0  0  0  0  0  0  0
  144.6640  133.2497  156.3561 H   0  0  0  0  0  0  0  0  0  0  0  0
  146.2653  132.9965  155.7036 H   0  0  0  0  0  0  0  0  0  0  0  0
  145.7952  135.5988  156.9614 H   0  0  0  0  0  0  0  0  0  0  0  0
  148.6276  135.5270  158.6439 H   0  0  0  0  0  0  0  0  0  0  0  0
  147.0919  136.3133  158.4820 H   0  0  0  0  0  0  0  0  0  0  0  0
  146.9148  133.0549  159.6711 H   0  0  0  0  0  0  0  0  0  0  0  0
  146.3838  132.3354  161.9866 H   0  0  0  0  0  0  0  0  0  0  0  0
  146.4617  134.0808  163.8232 H   0  0  0  0  0  0  0  0  0  0  0  0
  147.0494  136.3646  163.3060 H   0  0  0  0  0  0  0  0  0  0  0  0
  144.1327  133.0181  153.8371 H   0  0  0  0  0  0  0  0  0  0  0  0
  1  2  1  0  0  0  0
  1 21  1  0  0  0  0
  1 22  1  0  0  0  0
  1 23  1  0  0  0  0
  2  7  1  0  0  0  0
  2  3  1  0  0  0  0
  2 24  1  0  0  0  0
  3  4  1  0  0  0  0
  3 25  1  0  0  0  0
  3 26  1  0  0  0  0
  4  5  1  0  0  0  0
  4 27  1  0  0  0  0
  4 28  1  0  0  0  0
  5  6  1  0  0  0  0
  5 29  1  0  0  0  0
  5 30  1  0  0  0  0
  6  7  1  0  0  0  0
  6 31  1  0  0  0  0
  6 32  1  0  0  0  0
  7  8  1  0  0  0  0
  7 44  1  0  0  0  0
  8  9  1  0  0  0  0
  8 33  1  0  0  0  0
  8 34  1  0  0  0  0
  9 10  1  0  0  0  0
  9 35  1  0  0  0  0
  9 36  1  0  0  0  0
 10 11  1  0  0  0  0
 10 37  1  0  0  0  0
 11 12  2  0  0  0  0
 11 13  1  0  0  0  0
 13 14  1  0  0  0  0
 13 38  1  0  0  0  0
 13 39  1  0  0  0  0
 14 19  1  0  0  0  0
 14 15  1  0  0  0  0
 15 16  2  0  0  0  0
 15 40  1  0  0  0  0
 16 17  1  0  0  0  0
 16 41  1  0  0  0  0
 17 18  2  0  0  0  0
 17 42  1  0  0  0  0
 18 19  1  0  0  0  0
 18 43  1  0  0  0  0
 19 20  2  0  0  0  0
M  CHG  1   7   1
M  END
> <s_m_source_file>
AV-unprocessed.smi

> <i_m_source_file_index>
1786

> <i_lp_mmshare_version>
43012

> <i_f3d_flags>
0

> <s_epik_input>
W0NIM11bQ0BASF0xW0NIMl1bQ0gyXVtDSDJdW0NIMl1OMVtDSDJdW0NIMl1bTkhdQyg9TylbQ0gyXW4yW2NIXVtjSF1bY0hdW2NIXWMyPU8=

> <s_epik_cmdline>
J2VwaWtfcHl0aG9uJywgJy1waCcsICc3LjAnLCAnLXRuJywgJzgnLCAnLW1hJywgJzIwMCcsICctbWV0YWxfYmluZGluZycsICctaW1hZScsICc8aW5maWxlLm1hZT4nLCAnLW9tYWUnLCAnPG91dGZpbGUubWFlPic=

> <r_lp_tautomer_probability>
1

> <r_epik_Ionization_Penalty>
0.00237247

> <r_epik_Ionization_Penalty_Charging>
0.00237238

> <r_epik_Ionization_Penalty_Neutral>
8.2065e-08

> <r_epik_State_Penalty>
0.00163922

> <r_epik_Charging_Adjusted_Penalty>
0.0040116

> <i_epik_Tot_Q>
1

> <i_epik_Tot_abs_Q>
1

> <r_epik_Metal_State_Penalty>
-0

> <b_epik_Metal_Only>
0

> <s_lp_Force_Field>
OPLS_2005

> <r_lp_Energy>
28.482

> <b_lp_Chiralities_Consistent>
1

> <s_lp_Variant>
AV-unprocessed.smi:1786-2

> <Gold.Version>
5.8.1

> <Gold.Id.Protein>
6NUR|6NUR_protein|mol2

> <Gold.PLP.Fitness>
43.8629

> <Gold.PLP.PLP>
-33.3954

> <Gold.PLP.part.hbond>
-3.0000

> <Gold.PLP.part.metal>
0.0000

> <Gold.PLP.part.buried>
-4.9569

> <Gold.PLP.part.nonpolar>
-25.5920

> <Gold.PLP.part.repulsive>
0.0000

> <Gold.PLP.ligand.clash>
0.0000

> <Gold.PLP.ligand.torsion>
0.4730

> <Gold.PLP.Chemscore.Hbond>
3.7760

> <Gold.PLP.Chemscore.CHOScore>
0.0000

> <Gold.PLP.Chemscore.Metal>
0.0000

> <Gold.Chemscore.Hbonds>
donor molecule, donor type, donor heavy atom, donor atom, acceptor molecule, acceptor atom, score
      L1  H     7    44       P1 10957  1.43
      P1  H  6931  6943       L1    20  0.83
      P1  H  6934  6947       L1    20  0.94

> <Gold.PLP.Chemscore.Internal.Correction>
0.0855

> <Gold.Rescore>
     Score         DG    S(hbond)    S(metal)    S(lipo)     H(rot)  DE(clash)    DE(int)     intcor
     16.00     -17.92       2.75        0.00      68.57       1.86       0.00       1.92       ----

> <Gold.Chemscore.Fitness>
15.9963

> <Gold.Chemscore.DG>
-17.9194

> <Gold.Chemscore.ZeroCoef>
-5.4800

> <Gold.Chemscore.Hbond>
2.7470

> <Gold.Chemscore.Metal>
0.0000

> <Gold.Chemscore.Lipo>
68.5672

> <Gold.Chemscore.Internal_Hbond>
0.0000

> <Gold.Chemscore.DEClash>
0.0000

> <Gold.Chemscore.DEInternal>
1.9231

> <Gold.Chemscore.Rot>
1.8586

> <Gold.Chemscore.Internal.Correction>
   9.000000E+99

> <Gold.Chemscore.Hbonds>
donor molecule, donor type, donor heavy atom, donor atom, acceptor molecule, acceptor atom, score
      L1  H     7    44       P1 10957  0.67
      P1  H  6931  6943       L1    20  0.77
      P1  H  6934  6947       L1    20  0.91

> <Gold.Chemscore.Hbond.Weighted>
-9.1751

> <Gold.Chemscore.Metal.Weighted>
-0.0000

> <Gold.Chemscore.Lipo.Weighted>
-8.0224

> <Gold.Chemscore.Internal_Hbond.Weighted>
0.0000

> <Gold.Chemscore.DEClash.Weighted>
0.0000

> <Gold.Chemscore.DEInternal.Weighted>
1.9231

> <Gold.Chemscore.Rot.Weighted>
4.7581

> <Gold.Chemscore.Internal.Correction.Weighted>
   9.000000E+99

> <Gold.Protein.RotatedTorsions>
[ 6907 6896 6895 6894 ] final   -2.80 input  -60.11 | X-H torsion
[ 7974 7965 7964 7962 ] final -115.44 input  175.53 | X-H torsion
[ 8008 7997 7996 7995 ] final  135.46 input   59.86 | X-H torsion
[ 10167 10162 10161 10158 ] final  133.10 input  -65.29 | X-H torsion
[ 10718 10713 10712 10709 ] final -114.20 input   66.30 | X-H torsion
[ 10763 10752 10751 10750 ] final  160.62 input  -60.55 | X-H torsion
[ 11005 11000 10999 10996 ] final -101.19 input  -57.11 | X-H torsion

> <Gold.Protein.ActiveResidues>
 VAL166  LYS551  ARG553  GLY616  TRP617  ASP618  TYR619  PRO620  LYS621  CYS622 
 ASP623  PHE694  ASN695  SER759  ASP760  ASP761  ALA762  ILE779  LEU786  VAL792 
 PHE793  MET794  SER795  GLU796  ALA797  LYS798  CYS799  TRP800  GLU811  SER814 

> <Gold.Protein.RotatedAtoms>
  151.5240  135.1067  159.9885 H   0  0  0  0  0  0  0  0  0  0  0  0  # atno 6907 bound_to 6896
  152.4608  133.7813  159.6863 H   0  0  0  0  0  0  0  0  0  0  0  0  # atno 6908 bound_to 6896
  150.8569  133.7637  159.3031 H   0  0  0  0  0  0  0  0  0  0  0  0  # atno 6909 bound_to 6896
  145.1084  140.8596  143.3884 H   0  0  0  0  0  0  0  0  0  0  0  0  # atno 7974 bound_to 7965
  156.3003  140.2470  156.3584 H   0  0  0  0  0  0  0  0  0  0  0  0  # atno 8008 bound_to 7997
  154.8900  140.0409  157.1852 H   0  0  0  0  0  0  0  0  0  0  0  0  # atno 8009 bound_to 7997
  154.8608  140.2920  155.5544 H   0  0  0  0  0  0  0  0  0  0  0  0  # atno 8010 bound_to 7997
  139.5311  144.6631  151.4947 H   0  0  0  0  0  0  0  0  0  0  0  0  # atno 10167 bound_to 10162
  156.0815  130.6014  150.8743 H   0  0  0  0  0  0  0  0  0  0  0  0  # atno 10718 bound_to 10713
  154.2503  135.2772  155.2819 H   0  0  0  0  0  0  0  0  0  0  0  0  # atno 10763 bound_to 10752
  154.5471  135.5686  153.6893 H   0  0  0  0  0  0  0  0  0  0  0  0  # atno 10764 bound_to 10752
  152.9982  135.6265  154.2649 H   0  0  0  0  0  0  0  0  0  0  0  0  # atno 10765 bound_to 10752
  141.1241  133.8458  157.1199 H   0  0  0  0  0  0  0  0  0  0  0  0  # atno 11005 bound_to 11000
  145.0875  139.2914  143.5752 LP  0  0  0  0  0  0  0  0  0  0  0  0  # atno 17320 bound_to 7965
  146.3527  140.0401  142.8643 LP  0  0  0  0  0  0  0  0  0  0  0  0  # atno 17321 bound_to 7965
  140.6490  143.8736  150.6766 LP  0  0  0  0  0  0  0  0  0  0  0  0  # atno 17342 bound_to 10162
  140.2094  143.3895  152.1729 LP  0  0  0  0  0  0  0  0  0  0  0  0  # atno 17343 bound_to 10162
  157.5933  131.0944  150.9083 LP  0  0  0  0  0  0  0  0  0  0  0  0  # atno 17370 bound_to 10713
  156.9254  130.5330  149.5279 LP  0  0  0  0  0  0  0  0  0  0  0  0  # atno 17371 bound_to 10713
  140.0223  134.9940  157.0616 LP  0  0  0  0  0  0  0  0  0  0  0  0  # atno 17394 bound_to 11000
  140.4419  134.1672  155.7174 LP  0  0  0  0  0  0  0  0  0  0  0  0  # atno 17395 bound_to 11000

$$$$
