AV-unprocessed.smi:1698|AV-procd|sdf|6813|dock4
  -GOLD-   22720 7593D 1   1.00000     0.00000
 Structure written by MMmdl.
 28 29  0  0  0  0  0  0  0  0  1 V2000
  146.9157  132.5750  153.6910 O   0  0  0  0  0  0  0  0  0  0  0  0
  147.4058  133.5931  153.2065 C   0  0  0  0  0  0  0  0  0  0  0  0
  146.7723  134.4062  152.3400 N   0  0  0  0  0  0  0  0  0  0  0  0
  145.4581  134.2681  151.8274 C   0  0  0  0  0  0  0  0  0  0  0  0
  144.4143  133.5434  152.4643 C   0  0  0  0  0  0  0  0  0  0  0  0
  143.2949  133.5851  151.7560 N   0  0  0  0  0  0  0  0  0  0  0  0
  143.6142  134.3299  150.6735 N   0  0  0  0  0  0  0  0  0  0  0  0
  144.9203  134.7672  150.6744 C   0  0  0  0  0  0  0  0  0  0  0  0
  148.6536  133.9843  153.5228 N   0  0  0  0  0  0  0  0  0  0  0  0
  149.6062  133.3358  154.4252 C   0  0  2  0  0  0  0  0  0  0  0  0
  149.9615  131.9226  153.9263 C   0  0  0  0  0  0  0  0  0  0  0  0
  150.6619  131.1602  155.0584 C   0  0  0  0  0  0  0  0  0  0  0  0
  149.9753  131.8260  156.6223 S   0  0  0  0  0  0  0  0  0  0  0  0
  149.0238  130.8623  157.1955 O   0  0  0  0  0  0  0  0  0  0  0  0
  151.0758  132.3752  157.4286 O   0  0  0  0  0  0  0  0  0  0  0  0
  149.0439  133.2009  155.8497 C   0  0  0  0  0  0  0  0  0  0  0  0
  142.9374  134.5287  149.9504 H   0  0  0  0  0  0  0  0  0  0  0  0
  147.2863  135.2129  152.0177 H   0  0  0  0  0  0  0  0  0  0  0  0
  144.4316  132.9990  153.3971 H   0  0  0  0  0  0  0  0  0  0  0  0
  145.3280  135.3725  149.8785 H   0  0  0  0  0  0  0  0  0  0  0  0
  148.9734  134.8411  153.0942 H   0  0  0  0  0  0  0  0  0  0  0  0
  150.5339  133.9097  154.4647 H   0  0  0  0  0  0  0  0  0  0  0  0
  149.0437  131.3926  153.6668 H   0  0  0  0  0  0  0  0  0  0  0  0
  150.5753  131.9525  153.0255 H   0  0  0  0  0  0  0  0  0  0  0  0
  150.5053  130.0827  155.0058 H   0  0  0  0  0  0  0  0  0  0  0  0
  151.7342  131.3570  155.0526 H   0  0  0  0  0  0  0  0  0  0  0  0
  149.1519  134.1075  156.4455 H   0  0  0  0  0  0  0  0  0  0  0  0
  147.9903  132.9199  155.8330 H   0  0  0  0  0  0  0  0  0  0  0  0
  1  2  2  0  0  0  0
  2  3  1  0  0  0  0
  2  9  1  0  0  0  0
  3  4  1  0  0  0  0
  3 18  1  0  0  0  0
  4  8  2  0  0  0  0
  4  5  1  0  0  0  0
  5  6  2  0  0  0  0
  5 19  1  0  0  0  0
  6  7  1  0  0  0  0
  7 17  1  0  0  0  0
  7  8  1  0  0  0  0
  8 20  1  0  0  0  0
  9 10  1  0  0  0  0
  9 21  1  0  0  0  0
 10 16  1  0  0  0  0
 10 11  1  0  0  0  0
 10 22  1  0  0  0  0
 11 12  1  0  0  0  0
 11 23  1  0  0  0  0
 11 24  1  0  0  0  0
 12 13  1  0  0  0  0
 12 25  1  0  0  0  0
 12 26  1  0  0  0  0
 13 14  2  0  0  0  0
 13 15  2  0  0  0  0
 13 16  1  0  0  0  0
 16 27  1  0  0  0  0
 16 28  1  0  0  0  0
M  END
> <s_m_source_file>
AV-unprocessed.smi

> <i_m_source_file_index>
1698

> <i_lp_mmshare_version>
43012

> <i_f3d_flags>
0

> <s_epik_input>
Tz1TMSg9TylbQ0gyXVtDSDJdW0NASF0oW0NIMl0xKVtOSF1DKD1PKVtOSF1jMltjSF1uW25IXVtjSF0y

> <s_epik_cmdline>
J2VwaWtfcHl0aG9uJywgJy1waCcsICc3LjAnLCAnLXRuJywgJzgnLCAnLW1hJywgJzIwMCcsICctbWV0YWxfYmluZGluZycsICctaW1hZScsICc8aW5maWxlLm1hZT4nLCAnLW9tYWUnLCAnPG91dGZpbGUubWFlPic=

> <r_lp_tautomer_probability>
1

> <r_epik_Ionization_Penalty>
3.85517e-05

> <r_epik_Ionization_Penalty_Charging>
0

> <r_epik_Ionization_Penalty_Neutral>
3.85517e-05

> <r_epik_State_Penalty>
-0

> <r_epik_Charging_Adjusted_Penalty>
0

> <i_epik_Tot_Q>
0

> <i_epik_Tot_abs_Q>
0

> <r_epik_Metal_State_Penalty>
-0

> <b_epik_Metal_Only>
0

> <s_lp_Force_Field>
OPLS_2005

> <r_lp_Energy>
17.454

> <b_lp_Chiralities_Consistent>
1

> <s_lp_Variant>
AV-unprocessed.smi:1698-1

> <Gold.Version>
5.8.1

> <Gold.Id.Protein>
6NUR|6NUR_protein|mol2

> <Gold.PLP.Fitness>
36.0377

> <Gold.PLP.PLP>
-18.9276

> <Gold.PLP.part.hbond>
-4.0000

> <Gold.PLP.part.metal>
0.0000

> <Gold.PLP.part.buried>
-3.5168

> <Gold.PLP.part.nonpolar>
-12.2659

> <Gold.PLP.part.repulsive>
0.3358

> <Gold.PLP.ligand.clash>
0.0000

> <Gold.PLP.ligand.torsion>
0.1211

> <Gold.PLP.Chemscore.Hbond>
3.7840

> <Gold.PLP.Chemscore.CHOScore>
2.0000

> <Gold.PLP.Chemscore.Metal>
0.0000

> <Gold.Chemscore.Hbonds>
donor molecule, donor type, donor heavy atom, donor atom, acceptor molecule, acceptor atom, score
      L1  H     3    18       P1  7948  1.00
      L1  H     7    17       P1 10186  0.85
      L1  H     9    21       P1  7948  0.80
      P1  H  6896  6907       L1    15  0.94
      L1  C     5    19       P1 10957  0.94
      L1  C     8    20       P1  7921  1.00

> <Gold.PLP.Chemscore.Internal.Correction>
0.0003

> <Gold.Rescore>
     Score         DG    S(hbond)    S(metal)    S(lipo)     H(rot)  DE(clash)    DE(int)     intcor
     16.28     -17.59       3.16        0.00      35.24       1.00       0.03       1.29       ----

> <Gold.Chemscore.Fitness>
16.2793

> <Gold.Chemscore.DG>
-17.5927

> <Gold.Chemscore.ZeroCoef>
-5.4800

> <Gold.Chemscore.Hbond>
3.1584

> <Gold.Chemscore.Metal>
0.0000

> <Gold.Chemscore.Lipo>
35.2442

> <Gold.Chemscore.Internal_Hbond>
0.0000

> <Gold.Chemscore.DEClash>
0.0270

> <Gold.Chemscore.DEInternal>
1.2865

> <Gold.Chemscore.Rot>
1.0000

> <Gold.Chemscore.Internal.Correction>
   9.000000E+99

> <Gold.Chemscore.Hbonds>
donor molecule, donor type, donor heavy atom, donor atom, acceptor molecule, acceptor atom, score
      L1  H     3    18       P1  7948  0.94
      L1  H     7    17       P1 10186  0.74
      L1  H     9    21       P1  7948  0.12
      P1  H  6896  6907       L1    15  0.90

> <Gold.Chemscore.Hbond.Weighted>
-10.5492

> <Gold.Chemscore.Metal.Weighted>
-0.0000

> <Gold.Chemscore.Lipo.Weighted>
-4.1236

> <Gold.Chemscore.Internal_Hbond.Weighted>
0.0000

> <Gold.Chemscore.DEClash.Weighted>
0.0270

> <Gold.Chemscore.DEInternal.Weighted>
1.2865

> <Gold.Chemscore.Rot.Weighted>
2.5600

> <Gold.Chemscore.Internal.Correction.Weighted>
   9.000000E+99

> <Gold.Protein.RotatedTorsions>
[ 6907 6896 6895 6894 ] final -155.86 input  -60.11 | X-H torsion
[ 7974 7965 7964 7962 ] final  -22.67 input  175.53 | X-H torsion
[ 8008 7997 7996 7995 ] final  -10.45 input   59.86 | X-H torsion
[ 10167 10162 10161 10158 ] final  145.60 input  -65.29 | X-H torsion
[ 10718 10713 10712 10709 ] final   85.11 input   66.30 | X-H torsion
[ 10763 10752 10751 10750 ] final    3.17 input  -60.55 | X-H torsion
[ 11005 11000 10999 10996 ] final -168.50 input  -57.11 | X-H torsion

> <Gold.Protein.ActiveResidues>
 VAL166  LYS551  ARG553  GLY616  TRP617  ASP618  TYR619  PRO620  LYS621  CYS622 
 ASP623  PHE694  ASN695  SER759  ASP760  ASP761  ALA762  ILE779  LEU786  VAL792 
 PHE793  MET794  SER795  GLU796  ALA797  LYS798  CYS799  TRP800  GLU811  SER814 

> <Gold.Protein.RotatedAtoms>
  151.2788  133.4219  159.2625 H   0  0  0  0  0  0  0  0  0  0  0  0  # atno 6907 bound_to 6896
  151.0379  134.9586  159.8156 H   0  0  0  0  0  0  0  0  0  0  0  0  # atno 6908 bound_to 6896
  152.5359  134.2747  159.9037 H   0  0  0  0  0  0  0  0  0  0  0  0  # atno 6909 bound_to 6896
  146.1662  140.4511  142.8551 H   0  0  0  0  0  0  0  0  0  0  0  0  # atno 7974 bound_to 7965
  154.5554  140.2328  155.8419 H   0  0  0  0  0  0  0  0  0  0  0  0  # atno 8008 bound_to 7997
  156.1983  140.3059  155.9434 H   0  0  0  0  0  0  0  0  0  0  0  0  # atno 8009 bound_to 7997
  155.2990  140.0430  157.3019 H   0  0  0  0  0  0  0  0  0  0  0  0  # atno 8010 bound_to 7997
  139.4923  144.5890  151.6719 H   0  0  0  0  0  0  0  0  0  0  0  0  # atno 10167 bound_to 10162
  157.6909  131.0161  150.2774 H   0  0  0  0  0  0  0  0  0  0  0  0  # atno 10718 bound_to 10713
  153.2866  135.6945  153.7333 H   0  0  0  0  0  0  0  0  0  0  0  0  # atno 10763 bound_to 10752
  153.6300  135.3412  155.3039 H   0  0  0  0  0  0  0  0  0  0  0  0  # atno 10764 bound_to 10752
  154.8511  135.4406  154.1936 H   0  0  0  0  0  0  0  0  0  0  0  0  # atno 10765 bound_to 10752
  140.5413  134.5519  157.5100 H   0  0  0  0  0  0  0  0  0  0  0  0  # atno 11005 bound_to 11000
  144.8095  140.6361  143.6424 LP  0  0  0  0  0  0  0  0  0  0  0  0  # atno 17320 bound_to 7965
  145.4462  139.1529  143.3943 LP  0  0  0  0  0  0  0  0  0  0  0  0  # atno 17321 bound_to 7965
  140.5513  144.0421  150.6128 LP  0  0  0  0  0  0  0  0  0  0  0  0  # atno 17342 bound_to 10162
  140.3476  143.2982  152.0522 LP  0  0  0  0  0  0  0  0  0  0  0  0  # atno 17343 bound_to 10162
  156.3326  130.3803  149.7478 LP  0  0  0  0  0  0  0  0  0  0  0  0  # atno 17370 bound_to 10713
  156.5012  130.8130  151.3133 LP  0  0  0  0  0  0  0  0  0  0  0  0  # atno 17371 bound_to 10713
  139.9502  134.7630  156.0466 LP  0  0  0  0  0  0  0  0  0  0  0  0  # atno 17394 bound_to 11000
  141.1225  133.6608  156.3252 LP  0  0  0  0  0  0  0  0  0  0  0  0  # atno 17395 bound_to 11000

$$$$
