#       Name:                AV-unprocessed.smi:2707
#       Creating user name   scv26
#       Creation time:       Fri Mar 27 14:49:40 2020


#       File generated by GOLD software.
#

@<TRIPOS>MOLECULE
AV-unprocessed.smi:2707
    48    49     1
SMALL
NO_CHARGES


@<TRIPOS>ATOM
      1 ****        -4.2156   0.5027  -1.3919 C.3            1 S1                 0.0000
      2 ****        -3.4703  -0.8255  -1.6552 C.3            1 S1                 0.0000
      3 ****        -2.0197  -0.6080  -1.6025 N.am           1 S1                 0.0000
      4 ****        -1.2792  -0.2681  -0.5342 C.2            1 S1                 0.0000
      5 ****        -1.7405  -0.1047   0.5953 O.2            1 S1                 0.0000
      6 ****         0.0157  -0.1316  -0.8688 N.am           1 S1                 0.0000
      7 ****         1.0998   0.2437  -0.0325 C.ar           1 S1                 0.0000
      8 ****         2.3492   0.3550  -0.6753 C.ar           1 S1                 0.0000
      9 ****         3.4651   0.7326   0.0902 C.ar           1 S1                 0.0000
     10 ****         3.2658   0.9780   1.4677 C.ar           1 S1                 0.0000
     11 ****         4.3968   1.4074   2.4197 C.3            1 S1                 0.0000
     12 ****         4.5592   0.3615   3.5422 C.3            1 S1                 0.0000
     13 ****         4.0671   2.7860   3.0291 C.3            1 S1                 0.0000
     14 ****         5.7590   1.5326   1.7004 C.3            1 S1                 0.0000
     15 ****         2.0393   0.8485   2.0300 N.ar           1 S1                 0.0000
     16 ****         0.9819   0.4898   1.2964 N.ar           1 S1                 0.0000
     17 ****        -3.8327  -1.3545  -3.0643 C.3            1 S1                 0.0000
     18 ****        -5.2151  -2.0224  -3.0399 C.3            1 S1                 0.0000
     19 ****        -5.4350  -2.6745  -1.3439 S.o2           1 S1                 0.0000
     20 ****        -6.6107  -2.0328  -0.7364 O.2            1 S1                 0.0000
     21 ****        -5.2913  -4.1382  -1.3535 O.2            1 S1                 0.0000
     22 ****        -3.9093  -1.9249  -0.6611 C.3            1 S1                 0.0000
     23 ****        -5.2948   0.3878  -1.4938 H              1 S1                 0.0000
     24 ****        -3.9030   1.2768  -2.0934 H              1 S1                 0.0000
     25 ****        -4.0312   0.8789  -0.3856 H              1 S1                 0.0000
     26 ****        -1.5313  -0.7159  -2.4793 H              1 S1                 0.0000
     27 ****         0.2509  -0.2981  -1.8358 H              1 S1                 0.0000
     28 ****         2.4539   0.1605  -1.7329 H              1 S1                 0.0000
     29 ****         4.4281   0.8256  -0.3872 H              1 S1                 0.0000
     30 ****         5.3668   0.6322   4.2232 H              1 S1                 0.0000
     31 ****         4.7885  -0.6236   3.1345 H              1 S1                 0.0000
     32 ****         3.6531   0.2658   4.1414 H              1 S1                 0.0000
     33 ****         3.1463   2.7621   3.6127 H              1 S1                 0.0000
     34 ****         3.9436   3.5413   2.2523 H              1 S1                 0.0000
     35 ****         4.8603   3.1268   3.6955 H              1 S1                 0.0000
     36 ****         6.5444   1.8375   2.3932 H              1 S1                 0.0000
     37 ****         5.7287   2.2798   0.9063 H              1 S1                 0.0000
     38 ****         6.0725   0.5847   1.2612 H              1 S1                 0.0000
     39 ****        -3.7821  -0.5726  -3.8230 H              1 S1                 0.0000
     40 ****        -3.1039  -2.1126  -3.3561 H              1 S1                 0.0000
     41 ****        -6.0044  -1.2941  -3.2262 H              1 S1                 0.0000
     42 ****        -5.3083  -2.8285  -3.7679 H              1 S1                 0.0000
     43 ****        -3.1619  -2.7163  -0.5958 H              1 S1                 0.0000
     44 ****        -4.0973  -1.5527   0.3465 H              1 S1                 0.0000
     45 ****        -2.7198  -0.2250   0.7576 LP             1 S1                 0.0000
     46 ****        -1.1358   0.1484   1.3505 LP             1 S1                 0.0000
     47 ****         1.9243   1.0240   3.0077 LP             1 S1                 0.0000
     48 ****         0.0875   0.4012   1.7347 LP             1 S1                 0.0000
@<TRIPOS>BOND
    1    1    2 1     
    2    1   23 1     
    3    1   24 1     
    4    1   25 1     
    5    2   22 1     
    6    2    3 1     
    7    2   17 1     
    8    3    4 am    
    9    3   26 1     
   10    4    5 2     
   11    4    6 am    
   12    6    7 1     
   13    6   27 1     
   14    7   16 ar    
   15    7    8 ar    
   16    8    9 ar    
   17    8   28 1     
   18    9   10 ar    
   19    9   29 1     
   20   10   11 1     
   21   10   15 ar    
   22   11   12 1     
   23   11   13 1     
   24   11   14 1     
   25   12   30 1     
   26   12   31 1     
   27   12   32 1     
   28   13   33 1     
   29   13   34 1     
   30   13   35 1     
   31   14   36 1     
   32   14   37 1     
   33   14   38 1     
   34   15   16 ar    
   35   17   18 1     
   36   17   39 1     
   37   17   40 1     
   38   18   19 1     
   39   18   41 1     
   40   18   42 1     
   41   19   20 2     
   42   19   21 2     
   43   19   22 1     
   44   22   43 1     
   45   22   44 1     
   46    5   45 1     
   47    5   46 1     
   48   15   47 1     
   49   16   48 1     
@<TRIPOS>SUBSTRUCTURE
      1 S1             1
@<TRIPOS>SET
LONE_PAIRS      STATIC     ATOMS    <user>   **** ""
6 45 46 47 48 20 21
DONOR_HYDROGENS      STATIC     ATOMS    <user>   **** ""
2 26 27
ATOM$BLUE        STATIC     ATOMS    COLORGROUP SYSTEM
6 45 46 47 48 20 21
ATOM$RED        STATIC     ATOMS    COLORGROUP SYSTEM
2 26 27
