AV-unprocessed.smi:2156|AV-procd|sdf|8779|dock7
  -GOLD-   2272011563D 1   1.00000     0.00000
 Structure written by MMmdl.
 34 34  0  0  0  0  0  0  0  0  1 V2000
  152.7225  143.0222  162.3268 C   0  0  0  0  0  0  0  0  0  0  0  0
  152.1362  143.6389  161.0523 C   0  0  0  0  0  0  0  0  0  0  0  0
  153.0946  143.5370  159.8528 C   0  0  0  0  0  0  0  0  0  0  0  0
  152.5397  144.1474  158.5499 C   0  0  2  0  0  0  0  0  0  0  0  0
  151.6559  145.3702  158.8319 C   0  0  0  0  0  0  0  0  0  0  0  0
  151.7615  143.1596  157.8039 N   0  0  0  0  0  0  0  0  0  0  0  0
  150.5575  142.6772  158.1505 C   0  0  0  0  0  0  0  0  0  0  0  0
  149.9496  143.0347  159.1605 O   0  0  0  0  0  0  0  0  0  0  0  0
  149.9438  141.6542  157.1838 C   0  0  0  0  0  0  0  0  0  0  0  0
  150.7597  140.4409  157.0301 N   0  0  0  0  0  0  0  0  0  0  0  0
  151.2572  139.7862  158.1481 C   0  0  0  0  0  0  0  0  0  0  0  0
  152.0232  138.6718  158.0800 C   0  0  0  0  0  0  0  0  0  0  0  0
  152.3709  138.0925  156.7869 C   0  0  0  0  0  0  0  0  0  0  0  0
  153.0563  137.0858  156.6223 O   0  0  0  0  0  0  0  0  0  0  0  0
  151.8547  138.7816  155.6863 N   0  0  0  0  0  0  0  0  0  0  0  0
  151.0663  139.9317  155.7493 C   0  0  0  0  0  0  0  0  0  0  0  0
  150.6662  140.4647  154.7149 O   0  0  0  0  0  0  0  0  0  0  0  0
  152.0718  138.4191  154.7694 H   0  0  0  0  0  0  0  0  0  0  0  0
  152.0197  143.1042  163.1558 H   0  0  0  0  0  0  0  0  0  0  0  0
  153.6436  143.5264  162.6200 H   0  0  0  0  0  0  0  0  0  0  0  0
  152.9485  141.9647  162.1861 H   0  0  0  0  0  0  0  0  0  0  0  0
  151.1965  143.1408  160.8112 H   0  0  0  0  0  0  0  0  0  0  0  0
  151.8901  144.6825  161.2488 H   0  0  0  0  0  0  0  0  0  0  0  0
  154.0437  144.0126  160.1047 H   0  0  0  0  0  0  0  0  0  0  0  0
  153.3219  142.4844  159.6786 H   0  0  0  0  0  0  0  0  0  0  0  0
  153.3827  144.4928  157.9488 H   0  0  0  0  0  0  0  0  0  0  0  0
  152.2133  146.1441  159.3607 H   0  0  0  0  0  0  0  0  0  0  0  0
  150.7931  145.1056  159.4441 H   0  0  0  0  0  0  0  0  0  0  0  0
  151.2860  145.8091  157.9048 H   0  0  0  0  0  0  0  0  0  0  0  0
  152.1762  142.8115  156.9516 H   0  0  0  0  0  0  0  0  0  0  0  0
  148.9506  141.3943  157.5527 H   0  0  0  0  0  0  0  0  0  0  0  0
  149.7760  142.1221  156.2117 H   0  0  0  0  0  0  0  0  0  0  0  0
  151.0291  140.1827  159.1272 H   0  0  0  0  0  0  0  0  0  0  0  0
  152.3818  138.2073  158.9871 H   0  0  0  0  0  0  0  0  0  0  0  0
  1  2  1  0  0  0  0
  1 19  1  0  0  0  0
  1 20  1  0  0  0  0
  1 21  1  0  0  0  0
  2  3  1  0  0  0  0
  2 22  1  0  0  0  0
  2 23  1  0  0  0  0
  3  4  1  0  0  0  0
  3 24  1  0  0  0  0
  3 25  1  0  0  0  0
  4  5  1  0  0  0  0
  4  6  1  0  0  0  0
  4 26  1  0  0  0  0
  5 27  1  0  0  0  0
  5 28  1  0  0  0  0
  5 29  1  0  0  0  0
  6  7  1  0  0  0  0
  6 30  1  0  0  0  0
  7  8  2  0  0  0  0
  7  9  1  0  0  0  0
  9 10  1  0  0  0  0
  9 31  1  0  0  0  0
  9 32  1  0  0  0  0
 10 16  1  0  0  0  0
 10 11  1  0  0  0  0
 11 12  2  0  0  0  0
 11 33  1  0  0  0  0
 12 13  1  0  0  0  0
 12 34  1  0  0  0  0
 13 14  2  0  0  0  0
 13 15  1  0  0  0  0
 15 18  1  0  0  0  0
 15 16  1  0  0  0  0
 16 17  2  0  0  0  0
M  END
> <s_m_source_file>
AV-unprocessed.smi

> <i_m_source_file_index>
2156

> <i_lp_mmshare_version>
43012

> <i_f3d_flags>
0

> <s_epik_input>
W0NIM11bQ0gyXVtDSDJdW0NASF0oW0NIM10pW05IXUMoPU8pW0NIMl1uMVtjSF1bY0hdYyg9TylbbkhdYzE9Tw==

> <s_epik_cmdline>
J2VwaWtfcHl0aG9uJywgJy1waCcsICc3LjAnLCAnLXRuJywgJzgnLCAnLW1hJywgJzIwMCcsICctbWV0YWxfYmluZGluZycsICctaW1hZScsICc8aW5maWxlLm1hZT4nLCAnLW9tYWUnLCAnPG91dGZpbGUubWFlPic=

> <r_lp_tautomer_probability>
0.999537

> <r_epik_Ionization_Penalty>
0.00324917

> <r_epik_Ionization_Penalty_Charging>
0.00324916

> <r_epik_Ionization_Penalty_Neutral>
1.93017e-08

> <r_epik_State_Penalty>
0.00229371

> <r_epik_Charging_Adjusted_Penalty>
0.00554286

> <i_epik_Tot_Q>
0

> <i_epik_Tot_abs_Q>
0

> <r_epik_Metal_State_Penalty>
0.364744

> <b_epik_Metal_Only>
0

> <s_lp_Force_Field>
OPLS_2005

> <r_lp_Energy>
3.31869

> <b_lp_Chiralities_Consistent>
1

> <s_lp_Variant>
AV-unprocessed.smi:2156-1

> <Gold.Version>
5.8.1

> <Gold.Id.Protein>
6NUR|6NUR_protein|mol2

> <Gold.PLP.Fitness>
40.7333

> <Gold.PLP.PLP>
-36.2584

> <Gold.PLP.part.hbond>
-3.0000

> <Gold.PLP.part.metal>
0.0000

> <Gold.PLP.part.buried>
-4.9293

> <Gold.PLP.part.nonpolar>
-28.7858

> <Gold.PLP.part.repulsive>
0.3505

> <Gold.PLP.ligand.clash>
0.0000

> <Gold.PLP.ligand.torsion>
0.5270

> <Gold.PLP.Chemscore.Hbond>
1.8320

> <Gold.PLP.Chemscore.CHOScore>
0.0000

> <Gold.PLP.Chemscore.Metal>
0.0000

> <Gold.Chemscore.Hbonds>
donor molecule, donor type, donor heavy atom, donor atom, acceptor molecule, acceptor atom, score
      P1  H  7989  7998       L1    17  1.00
      P1  H 10752 10764       L1    14  0.49

> <Gold.PLP.Chemscore.Internal.Correction>
0.0328

> <Gold.Rescore>
     Score         DG    S(hbond)    S(metal)    S(lipo)     H(rot)  DE(clash)    DE(int)     intcor
     13.56     -15.34       1.98        0.00      75.71       2.19       0.00       1.78       ----

> <Gold.Chemscore.Fitness>
13.5588

> <Gold.Chemscore.DG>
-15.3377

> <Gold.Chemscore.ZeroCoef>
-5.4800

> <Gold.Chemscore.Hbond>
1.9816

> <Gold.Chemscore.Metal>
0.0000

> <Gold.Chemscore.Lipo>
75.7075

> <Gold.Chemscore.Internal_Hbond>
0.0000

> <Gold.Chemscore.DEClash>
0.0029

> <Gold.Chemscore.DEInternal>
1.7760

> <Gold.Chemscore.Rot>
2.1949

> <Gold.Chemscore.Internal.Correction>
   9.000000E+99

> <Gold.Chemscore.Hbonds>
donor molecule, donor type, donor heavy atom, donor atom, acceptor molecule, acceptor atom, score
      P1  H  7989  7998       L1    17  0.96
      P1  H 10752 10764       L1    14  0.50

> <Gold.Chemscore.Hbond.Weighted>
-6.6187

> <Gold.Chemscore.Metal.Weighted>
-0.0000

> <Gold.Chemscore.Lipo.Weighted>
-8.8578

> <Gold.Chemscore.Internal_Hbond.Weighted>
0.0000

> <Gold.Chemscore.DEClash.Weighted>
0.0029

> <Gold.Chemscore.DEInternal.Weighted>
1.7760

> <Gold.Chemscore.Rot.Weighted>
5.6188

> <Gold.Chemscore.Internal.Correction.Weighted>
   9.000000E+99

> <Gold.Protein.RotatedTorsions>
[ 6907 6896 6895 6894 ] final  -97.65 input  -60.11 | X-H torsion
[ 7974 7965 7964 7962 ] final  166.71 input  175.53 | X-H torsion
[ 8008 7997 7996 7995 ] final  105.01 input   59.86 | X-H torsion
[ 10167 10162 10161 10158 ] final  -69.84 input  -65.29 | X-H torsion
[ 10718 10713 10712 10709 ] final -111.50 input   66.30 | X-H torsion
[ 10763 10752 10751 10750 ] final  -17.96 input  -60.55 | X-H torsion
[ 11005 11000 10999 10996 ] final   12.37 input  -57.11 | X-H torsion

> <Gold.Protein.ActiveResidues>
 VAL166  LYS551  ARG553  GLY616  TRP617  ASP618  TYR619  PRO620  LYS621  CYS622 
 ASP623  PHE694  ASN695  SER759  ASP760  ASP761  ALA762  ILE779  LEU786  VAL792 
 PHE793  MET794  SER795  GLU796  ALA797  LYS798  CYS799  TRP800  GLU811  SER814 

> <Gold.Protein.RotatedAtoms>
  150.7022  134.1316  159.4071 H   0  0  0  0  0  0  0  0  0  0  0  0  # atno 6907 bound_to 6896
  151.9302  135.0257  160.0538 H   0  0  0  0  0  0  0  0  0  0  0  0  # atno 6908 bound_to 6896
  152.2182  133.4928  159.5184 H   0  0  0  0  0  0  0  0  0  0  0  0  # atno 6909 bound_to 6896
  144.7452  139.8655  143.6384 H   0  0  0  0  0  0  0  0  0  0  0  0  # atno 7974 bound_to 7965
  156.1623  140.3138  155.8828 H   0  0  0  0  0  0  0  0  0  0  0  0  # atno 8008 bound_to 7997
  155.3758  140.0484  157.3061 H   0  0  0  0  0  0  0  0  0  0  0  0  # atno 8009 bound_to 7997
  154.5158  140.2181  155.9080 H   0  0  0  0  0  0  0  0  0  0  0  0  # atno 8010 bound_to 7997
  140.5399  143.2315  151.7108 H   0  0  0  0  0  0  0  0  0  0  0  0  # atno 10167 bound_to 10162
  156.0651  130.5871  150.8382 H   0  0  0  0  0  0  0  0  0  0  0  0  # atno 10718 bound_to 10713
  153.5819  135.7005  153.5460 H   0  0  0  0  0  0  0  0  0  0  0  0  # atno 10763 bound_to 10752
  153.3253  135.4062  155.1451 H   0  0  0  0  0  0  0  0  0  0  0  0  # atno 10764 bound_to 10752
  154.8616  135.3705  154.5347 H   0  0  0  0  0  0  0  0  0  0  0  0  # atno 10765 bound_to 10752
  140.4927  134.0824  155.7775 H   0  0  0  0  0  0  0  0  0  0  0  0  # atno 11005 bound_to 11000
  146.1317  139.4354  143.0164 LP  0  0  0  0  0  0  0  0  0  0  0  0  # atno 17320 bound_to 7965
  145.7152  141.0093  143.1432 LP  0  0  0  0  0  0  0  0  0  0  0  0  # atno 17321 bound_to 7965
  139.4985  144.3985  152.0206 LP  0  0  0  0  0  0  0  0  0  0  0  0  # atno 17342 bound_to 10162
  140.3093  144.3557  150.6038 LP  0  0  0  0  0  0  0  0  0  0  0  0  # atno 17343 bound_to 10162
  157.5687  131.0946  150.9451 LP  0  0  0  0  0  0  0  0  0  0  0  0  # atno 17370 bound_to 10713
  156.9672  130.5477  149.5288 LP  0  0  0  0  0  0  0  0  0  0  0  0  # atno 17371 bound_to 10713
  141.1476  133.9027  157.2178 LP  0  0  0  0  0  0  0  0  0  0  0  0  # atno 17394 bound_to 11000
  139.9760  135.0114  156.9631 LP  0  0  0  0  0  0  0  0  0  0  0  0  # atno 17395 bound_to 11000

$$$$
