AV-unprocessed.smi:774|AV-procd|sdf|3694|dock5
  -GOLD-   22720 1113D 1   1.00000     0.00000
 Structure written by MMmdl.
 37 38  0  0  0  0  0  0  0  0  1 V2000
  145.7220  129.6707  151.6833 C   0  0  0  0  0  0  0  0  0  0  0  0
  145.8473  131.1912  151.8099 C   0  0  0  0  0  0  0  0  0  0  0  0
  144.9886  132.0432  150.4582 S   0  0  0  0  0  0  0  0  0  0  0  0
  145.3180  133.7750  150.8966 C   0  0  1  0  0  0  0  0  0  0  0  0
  144.0777  134.6635  150.8140 C   0  0  0  0  0  0  0  0  0  0  0  0
  144.4215  135.8766  151.6792 C   0  0  0  0  0  0  0  0  0  0  0  0
  145.3889  135.3658  152.7634 C   0  0  2  0  0  0  0  0  0  0  0  0
  146.5599  136.2334  152.8664 N   0  0  0  0  0  0  0  0  0  0  0  0
  146.5860  137.4238  153.4821 C   0  0  0  0  0  0  0  0  0  0  0  0
  145.6107  137.9192  154.0468 O   0  0  0  0  0  0  0  0  0  0  0  0
  147.8085  137.9784  153.4181 N   0  0  0  0  0  0  0  0  0  0  0  0
  148.2217  139.2491  153.9001 C   0  0  0  0  0  0  0  0  0  0  0  0
  147.4273  140.4187  153.8285 C   0  0  0  0  0  0  0  0  0  0  0  0
  147.9546  141.6292  154.3176 C   0  0  0  0  0  0  0  0  0  0  0  0
  149.2570  141.6274  154.8538 C   0  0  0  0  0  0  0  0  0  0  0  0
  150.0305  140.5230  154.9156 N   0  0  0  0  0  0  0  0  0  0  0  0
  149.5189  139.3664  154.4430 C   0  0  0  0  0  0  0  0  0  0  0  0
  145.7841  133.9356  152.3463 C   0  0  0  0  0  0  0  0  0  0  0  0
  146.2430  129.1692  152.4991 H   0  0  0  0  0  0  0  0  0  0  0  0
  146.1533  129.3182  150.7463 H   0  0  0  0  0  0  0  0  0  0  0  0
  144.6781  129.3575  151.7120 H   0  0  0  0  0  0  0  0  0  0  0  0
  145.4302  131.5228  152.7612 H   0  0  0  0  0  0  0  0  0  0  0  0
  146.8992  131.4756  151.8016 H   0  0  0  0  0  0  0  0  0  0  0  0
  146.0896  134.1683  150.2333 H   0  0  0  0  0  0  0  0  0  0  0  0
  143.8253  134.9444  149.7913 H   0  0  0  0  0  0  0  0  0  0  0  0
  143.2179  134.1437  151.2389 H   0  0  0  0  0  0  0  0  0  0  0  0
  144.9039  136.6315  151.0559 H   0  0  0  0  0  0  0  0  0  0  0  0
  143.5298  136.3361  152.1067 H   0  0  0  0  0  0  0  0  0  0  0  0
  144.8667  135.3311  153.7215 H   0  0  0  0  0  0  0  0  0  0  0  0
  147.4102  135.9022  152.4350 H   0  0  0  0  0  0  0  0  0  0  0  0
  148.5382  137.4074  153.0169 H   0  0  0  0  0  0  0  0  0  0  0  0
  146.4384  140.4136  153.3966 H   0  0  0  0  0  0  0  0  0  0  0  0
  147.3750  142.5396  154.2776 H   0  0  0  0  0  0  0  0  0  0  0  0
  149.6916  142.5388  155.2372 H   0  0  0  0  0  0  0  0  0  0  0  0
  150.1670  138.5042  154.5050 H   0  0  0  0  0  0  0  0  0  0  0  0
  145.2558  133.2255  152.9842 H   0  0  0  0  0  0  0  0  0  0  0  0
  146.8496  133.7298  152.4578 H   0  0  0  0  0  0  0  0  0  0  0  0
  1  2  1  0  0  0  0
  1 19  1  0  0  0  0
  1 20  1  0  0  0  0
  1 21  1  0  0  0  0
  2  3  1  0  0  0  0
  2 22  1  0  0  0  0
  2 23  1  0  0  0  0
  3  4  1  0  0  0  0
  4 18  1  0  0  0  0
  4  5  1  0  0  0  0
  4 24  1  0  0  0  0
  5  6  1  0  0  0  0
  5 25  1  0  0  0  0
  5 26  1  0  0  0  0
  6  7  1  0  0  0  0
  6 27  1  0  0  0  0
  6 28  1  0  0  0  0
  7  8  1  0  0  0  0
  7 18  1  0  0  0  0
  7 29  1  0  0  0  0
  8  9  1  0  0  0  0
  8 30  1  0  0  0  0
  9 10  2  0  0  0  0
  9 11  1  0  0  0  0
 11 12  1  0  0  0  0
 11 31  1  0  0  0  0
 12 17  1  0  0  0  0
 12 13  2  0  0  0  0
 13 14  1  0  0  0  0
 13 32  1  0  0  0  0
 14 15  2  0  0  0  0
 14 33  1  0  0  0  0
 15 16  1  0  0  0  0
 15 34  1  0  0  0  0
 16 17  2  0  0  0  0
 17 35  1  0  0  0  0
 18 36  1  0  0  0  0
 18 37  1  0  0  0  0
M  END
> <s_m_source_file>
AV-unprocessed.smi

> <i_m_source_file_index>
774

> <i_lp_mmshare_version>
43012

> <i_f3d_flags>
0

> <s_epik_input>
W0NIM11bQ0gyXVNbQ0BASF0xW0NIMl1bQ0gyXVtDQEhdKFtDSDJdMSlbTkhdQyg9TylbTkhdYzJbY0hdW2NIXVtjSF1uW2NIXTI=

> <s_epik_cmdline>
J2VwaWtfcHl0aG9uJywgJy1waCcsICc3LjAnLCAnLXRuJywgJzgnLCAnLW1hJywgJzIwMCcsICctbWV0YWxfYmluZGluZycsICctaW1hZScsICc8aW5maWxlLm1hZT4nLCAnLW9tYWUnLCAnPG91dGZpbGUubWFlPic=

> <r_epik_Ionization_Penalty>
0.00485718

> <r_epik_Ionization_Penalty_Charging>
0

> <r_epik_Ionization_Penalty_Neutral>
0.00485718

> <r_epik_State_Penalty>
0.00349461

> <r_epik_Charging_Adjusted_Penalty>
0.00349461

> <i_epik_Tot_Q>
0

> <i_epik_Tot_abs_Q>
0

> <r_epik_Metal_State_Penalty>
-0

> <b_epik_Metal_Only>
0

> <s_lp_Force_Field>
OPLS_2005

> <r_lp_Energy>
19.7013

> <b_lp_Chiralities_Consistent>
1

> <s_lp_Variant>
AV-unprocessed.smi:774-4

> <Gold.Version>
5.8.1

> <Gold.Id.Protein>
6NUR|6NUR_protein|mol2

> <Gold.PLP.Fitness>
41.7813

> <Gold.PLP.PLP>
-32.5072

> <Gold.PLP.part.hbond>
-2.9983

> <Gold.PLP.part.metal>
0.0000

> <Gold.PLP.part.buried>
-1.6206

> <Gold.PLP.part.nonpolar>
-27.9940

> <Gold.PLP.part.repulsive>
0.2847

> <Gold.PLP.ligand.clash>
0.0000

> <Gold.PLP.ligand.torsion>
1.1296

> <Gold.PLP.Chemscore.Hbond>
2.8400

> <Gold.PLP.Chemscore.CHOScore>
1.0000

> <Gold.PLP.Chemscore.Metal>
0.0000

> <Gold.Chemscore.Hbonds>
donor molecule, donor type, donor heavy atom, donor atom, acceptor molecule, acceptor atom, score
      L1  H     8    30       P1  7948  0.99
      L1  H    11    31       P1  7948  0.96
      P1  H  7989  7998       L1    16  0.62
      L1  C    15    34       P1  8028  1.00

> <Gold.PLP.Chemscore.Internal.Correction>
0.0134

> <Gold.Rescore>
     Score         DG    S(hbond)    S(metal)    S(lipo)     H(rot)  DE(clash)    DE(int)     intcor
     16.91     -19.48       2.12        0.00      87.65       1.30       0.56       2.00       ----

> <Gold.Chemscore.Fitness>
16.9118

> <Gold.Chemscore.DG>
-19.4773

> <Gold.Chemscore.ZeroCoef>
-5.4800

> <Gold.Chemscore.Hbond>
2.1201

> <Gold.Chemscore.Metal>
0.0000

> <Gold.Chemscore.Lipo>
87.6461

> <Gold.Chemscore.Internal_Hbond>
0.0000

> <Gold.Chemscore.DEClash>
0.5606

> <Gold.Chemscore.DEInternal>
2.0049

> <Gold.Chemscore.Rot>
1.3041

> <Gold.Chemscore.Internal.Correction>
   9.000000E+99

> <Gold.Chemscore.Hbonds>
donor molecule, donor type, donor heavy atom, donor atom, acceptor molecule, acceptor atom, score
      L1  H     8    30       P1  7948  0.94
      L1  H    11    31       P1  7948  0.92
      P1  H  7989  7998       L1    16  0.08

> <Gold.Chemscore.Hbond.Weighted>
-7.0811

> <Gold.Chemscore.Metal.Weighted>
-0.0000

> <Gold.Chemscore.Lipo.Weighted>
-10.2546

> <Gold.Chemscore.Internal_Hbond.Weighted>
0.0000

> <Gold.Chemscore.DEClash.Weighted>
0.5606

> <Gold.Chemscore.DEInternal.Weighted>
2.0049

> <Gold.Chemscore.Rot.Weighted>
3.3384

> <Gold.Chemscore.Internal.Correction.Weighted>
   9.000000E+99

> <Gold.Protein.RotatedTorsions>
[ 6907 6896 6895 6894 ] final  179.73 input  -60.11 | X-H torsion
[ 7974 7965 7964 7962 ] final -136.98 input  175.53 | X-H torsion
[ 8008 7997 7996 7995 ] final  156.52 input   59.86 | X-H torsion
[ 10167 10162 10161 10158 ] final -149.23 input  -65.29 | X-H torsion
[ 10718 10713 10712 10709 ] final -145.36 input   66.30 | X-H torsion
[ 10763 10752 10751 10750 ] final -111.62 input  -60.55 | X-H torsion
[ 11005 11000 10999 10996 ] final  106.18 input  -57.11 | X-H torsion

> <Gold.Protein.ActiveResidues>
 VAL166  LYS551  ARG553  GLY616  TRP617  ASP618  TYR619  PRO620  LYS621  CYS622 
 ASP623  PHE694  ASN695  SER759  ASP760  ASP761  ALA762  ILE779  LEU786  VAL792 
 PHE793  MET794  SER795  GLU796  ALA797  LYS798  CYS799  TRP800  GLU811  SER814 

> <Gold.Protein.RotatedAtoms>
  151.6669  133.3315  159.3187 H   0  0  0  0  0  0  0  0  0  0  0  0  # atno 6907 bound_to 6896
  150.7886  134.6895  159.6498 H   0  0  0  0  0  0  0  0  0  0  0  0  # atno 6908 bound_to 6896
  152.3961  134.6366  160.0140 H   0  0  0  0  0  0  0  0  0  0  0  0  # atno 6909 bound_to 6896
  144.8881  140.6603  143.5163 H   0  0  0  0  0  0  0  0  0  0  0  0  # atno 7974 bound_to 7965
  156.2417  140.1910  156.6969 H   0  0  0  0  0  0  0  0  0  0  0  0  # atno 8008 bound_to 7997
  154.6211  140.0608  156.9642 H   0  0  0  0  0  0  0  0  0  0  0  0  # atno 8009 bound_to 7997
  155.1861  140.3280  155.4369 H   0  0  0  0  0  0  0  0  0  0  0  0  # atno 8010 bound_to 7997
  139.7461  143.8589  152.2575 H   0  0  0  0  0  0  0  0  0  0  0  0  # atno 10167 bound_to 10162
  156.3815  130.7839  151.2032 H   0  0  0  0  0  0  0  0  0  0  0  0  # atno 10718 bound_to 10713
  154.8309  135.4521  154.1067 H   0  0  0  0  0  0  0  0  0  0  0  0  # atno 10763 bound_to 10752
  153.2341  135.6909  153.7863 H   0  0  0  0  0  0  0  0  0  0  0  0  # atno 10764 bound_to 10752
  153.7235  135.3338  155.3247 H   0  0  0  0  0  0  0  0  0  0  0  0  # atno 10765 bound_to 10752
  139.8811  134.9361  156.5627 H   0  0  0  0  0  0  0  0  0  0  0  0  # atno 11005 bound_to 11000
  145.3833  139.1632  143.4269 LP  0  0  0  0  0  0  0  0  0  0  0  0  # atno 17320 bound_to 7965
  146.3037  140.3915  142.8695 LP  0  0  0  0  0  0  0  0  0  0  0  0  # atno 17321 bound_to 7965
  139.8553  144.7144  150.9164 LP  0  0  0  0  0  0  0  0  0  0  0  0  # atno 17342 bound_to 10162
  140.7792  143.3864  151.1387 LP  0  0  0  0  0  0  0  0  0  0  0  0  # atno 17343 bound_to 10162
  157.7492  131.0343  150.4309 LP  0  0  0  0  0  0  0  0  0  0  0  0  # atno 17370 bound_to 10713
  156.4554  130.4020  149.6609 LP  0  0  0  0  0  0  0  0  0  0  0  0  # atno 17371 bound_to 10713
  140.8157  133.8394  155.8850 LP  0  0  0  0  0  0  0  0  0  0  0  0  # atno 17394 bound_to 11000
  140.9465  134.1834  157.4759 LP  0  0  0  0  0  0  0  0  0  0  0  0  # atno 17395 bound_to 11000

$$$$
