AV-unprocessed.smi:1401|AV-procd|sdf|5694|dock1
  -GOLD-   22720 5323D 1   1.00000     0.00000
 Structure written by MMmdl.
 48 50  0  0  0  0  0  0  0  0  1 V2000
  147.2230  140.1390  157.2779 C   0  0  0  0  0  0  0  0  0  0  0  0
  148.4042  139.3827  157.8227 C   0  0  0  0  0  0  0  0  0  0  0  0
  148.1604  138.2292  158.3513 N   0  0  0  0  0  0  0  0  0  0  0  0
  149.1746  137.4391  158.8592 N   0  0  0  0  0  0  0  0  0  0  0  0
  148.7175  136.1154  159.3171 C   0  0  0  0  0  0  0  0  0  0  0  0
  147.8691  136.1606  160.6005 C   0  0  0  0  0  0  0  0  0  0  0  0
  147.6532  137.2423  161.1452 O   0  0  0  0  0  0  0  0  0  0  0  0
  147.3598  135.0013  161.0487 N   0  0  0  0  0  0  0  0  0  0  0  0
  146.3816  134.8370  162.1166 C   0  0  2  0  0  0  0  0  0  0  0  0
  146.1515  133.3442  162.4075 C   0  0  0  0  0  0  0  0  0  0  0  0
  145.0727  135.5573  161.7136 C   0  0  1  0  0  0  0  0  0  0  0  0
  144.2289  134.8205  160.6502 C   0  0  0  0  0  0  0  0  0  0  0  0
  142.8211  134.8060  161.2765 C   0  0  1  0  0  0  0  0  0  0  0  0
  142.7920  133.7859  162.4299 C   0  0  0  0  0  0  0  0  0  0  0  0
  143.6141  134.4894  163.5252 C   0  0  0  0  0  0  0  0  0  0  0  0
  144.0359  135.8051  162.8404 C   0  0  2  0  0  0  0  0  0  0  0  0
  142.7874  136.1315  162.0286 C   0  0  0  0  0  0  0  0  0  0  0  0
  150.4935  137.7873  158.8761 C   0  0  0  0  0  0  0  0  0  0  0  0
  151.3694  137.0458  159.3229 O   0  0  0  0  0  0  0  0  0  0  0  0
  150.7606  139.1028  158.2898 C   0  0  0  0  0  0  0  0  0  0  0  0
  152.1303  139.5044  158.2836 C   0  0  0  0  0  0  0  0  0  0  0  0
  153.2405  139.8320  158.2985 N   0  0  0  0  0  0  0  0  0  0  0  0
  149.7748  139.8798  157.7750 C   0  0  0  0  0  0  0  0  0  0  0  0
  150.0016  141.2446  157.1399 C   0  0  0  0  0  0  0  0  0  0  0  0
  147.1102  141.0983  157.7833 H   0  0  0  0  0  0  0  0  0  0  0  0
  146.2910  139.5865  157.4079 H   0  0  0  0  0  0  0  0  0  0  0  0
  147.3448  140.3284  156.2112 H   0  0  0  0  0  0  0  0  0  0  0  0
  148.1484  135.5999  158.5420 H   0  0  0  0  0  0  0  0  0  0  0  0
  149.5864  135.4816  159.5037 H   0  0  0  0  0  0  0  0  0  0  0  0
  147.6083  134.1637  160.5427 H   0  0  0  0  0  0  0  0  0  0  0  0
  146.7768  135.3040  163.0203 H   0  0  0  0  0  0  0  0  0  0  0  0
  145.4253  133.2064  163.2087 H   0  0  0  0  0  0  0  0  0  0  0  0
  147.0743  132.8534  162.7183 H   0  0  0  0  0  0  0  0  0  0  0  0
  145.7776  132.8206  161.5270 H   0  0  0  0  0  0  0  0  0  0  0  0
  145.3441  136.5360  161.3130 H   0  0  0  0  0  0  0  0  0  0  0  0
  144.2337  135.3727  159.7097 H   0  0  0  0  0  0  0  0  0  0  0  0
  144.5879  133.8118  160.4420 H   0  0  0  0  0  0  0  0  0  0  0  0
  142.0205  134.6662  160.5498 H   0  0  0  0  0  0  0  0  0  0  0  0
  141.7707  133.6108  162.7704 H   0  0  0  0  0  0  0  0  0  0  0  0
  143.2184  132.8242  162.1426 H   0  0  0  0  0  0  0  0  0  0  0  0
  142.9884  134.6974  164.3942 H   0  0  0  0  0  0  0  0  0  0  0  0
  144.4573  133.8922  163.8705 H   0  0  0  0  0  0  0  0  0  0  0  0
  144.3297  136.5864  163.5419 H   0  0  0  0  0  0  0  0  0  0  0  0
  142.9052  137.0014  161.3799 H   0  0  0  0  0  0  0  0  0  0  0  0
  141.8930  136.2604  162.6410 H   0  0  0  0  0  0  0  0  0  0  0  0
  151.0505  141.5393  157.1579 H   0  0  0  0  0  0  0  0  0  0  0  0
  149.4368  142.0128  157.6693 H   0  0  0  0  0  0  0  0  0  0  0  0
  149.6809  141.2385  156.0973 H   0  0  0  0  0  0  0  0  0  0  0  0
  1  2  1  0  0  0  0
  1 25  1  0  0  0  0
  1 26  1  0  0  0  0
  1 27  1  0  0  0  0
  2 23  1  0  0  0  0
  2  3  2  0  0  0  0
  3  4  1  0  0  0  0
  4  5  1  0  0  0  0
  4 18  1  0  0  0  0
  5  6  1  0  0  0  0
  5 28  1  0  0  0  0
  5 29  1  0  0  0  0
  6  7  2  0  0  0  0
  6  8  1  0  0  0  0
  8  9  1  0  0  0  0
  8 30  1  0  0  0  0
  9 10  1  0  0  0  0
  9 11  1  0  0  0  0
  9 31  1  0  0  0  0
 10 32  1  0  0  0  0
 10 33  1  0  0  0  0
 10 34  1  0  0  0  0
 11 16  1  0  0  0  0
 11 12  1  0  0  0  0
 11 35  1  0  0  0  0
 12 13  1  0  0  0  0
 12 36  1  0  0  0  0
 12 37  1  0  0  0  0
 13 17  1  0  0  0  0
 13 14  1  0  0  0  0
 13 38  1  0  0  0  0
 14 15  1  0  0  0  0
 14 39  1  0  0  0  0
 14 40  1  0  0  0  0
 15 16  1  0  0  0  0
 15 41  1  0  0  0  0
 15 42  1  0  0  0  0
 16 17  1  0  0  0  0
 16 43  1  0  0  0  0
 17 44  1  0  0  0  0
 17 45  1  0  0  0  0
 18 19  2  0  0  0  0
 18 20  1  0  0  0  0
 20 21  1  0  0  0  0
 20 23  2  0  0  0  0
 21 22  3  0  0  0  0
 23 24  1  0  0  0  0
 24 46  1  0  0  0  0
 24 47  1  0  0  0  0
 24 48  1  0  0  0  0
M  END
> <s_m_source_file>
AV-unprocessed.smi

> <i_m_source_file_index>
1401

> <i_lp_mmshare_version>
43012

> <i_f3d_flags>
0

> <s_epik_input>
TiNDYyhjMVtDSDNdKWMoPU8pbihuYzFbQ0gzXSlbQ0gyXUMoPU8pW05IXVtDQEhdKFtDSDNdKVtDQEhdKFtDSDJdW0NASF0yMylbQ0BIXShbQ0gyXTMpW0NIMl1bQ0gyXTI=

> <s_epik_cmdline>
J2VwaWtfcHl0aG9uJywgJy1waCcsICc3LjAnLCAnLXRuJywgJzgnLCAnLW1hJywgJzIwMCcsICctbWV0YWxfYmluZGluZycsICctaW1hZScsICc8aW5maWxlLm1hZT4nLCAnLW9tYWUnLCAnPG91dGZpbGUubWFlPic=

> <r_lp_tautomer_probability>
1

> <r_epik_Ionization_Penalty>
2.16501e-08

> <r_epik_Ionization_Penalty_Charging>
2.29436e-11

> <r_epik_Ionization_Penalty_Neutral>
2.16271e-08

> <r_epik_State_Penalty>
-0

> <r_epik_Charging_Adjusted_Penalty>
2.29436e-11

> <i_epik_Tot_Q>
0

> <i_epik_Tot_abs_Q>
0

> <r_epik_Metal_State_Penalty>
-0

> <b_epik_Metal_Only>
0

> <s_lp_Force_Field>
OPLS_2005

> <r_lp_Energy>
65.485

> <b_lp_Chiralities_Consistent>
1

> <s_lp_Variant>
AV-unprocessed.smi:1401-7

> <Gold.Version>
5.8.1

> <Gold.Id.Protein>
6NUR|6NUR_protein|mol2

> <Gold.PLP.Fitness>
44.9647

> <Gold.PLP.PLP>
-34.0694

> <Gold.PLP.part.hbond>
-4.3612

> <Gold.PLP.part.metal>
0.0000

> <Gold.PLP.part.buried>
-5.9238

> <Gold.PLP.part.nonpolar>
-23.8052

> <Gold.PLP.part.repulsive>
0.0360

> <Gold.PLP.ligand.clash>
0.0036

> <Gold.PLP.ligand.torsion>
0.2820

> <Gold.PLP.Chemscore.Hbond>
3.8000

> <Gold.PLP.Chemscore.CHOScore>
0.0000

> <Gold.PLP.Chemscore.Metal>
0.0000

> <Gold.Chemscore.Hbonds>
donor molecule, donor type, donor heavy atom, donor atom, acceptor molecule, acceptor atom, score
      P1  H  6896  6908       L1    19  0.99
      P1  H  6931  6943       L1     7  0.90
      P1  H  6934  6947       L1     7  0.88
      P1  H  7997  8010       L1    22  1.00

> <Gold.PLP.Chemscore.Internal.Correction>
0.0629

> <Gold.Rescore>
     Score         DG    S(hbond)    S(metal)    S(lipo)     H(rot)  DE(clash)    DE(int)     intcor
     20.75     -21.63       3.75        0.00      66.76       1.63       0.17       0.71       ----

> <Gold.Chemscore.Fitness>
20.7454

> <Gold.Chemscore.DG>
-21.6325

> <Gold.Chemscore.ZeroCoef>
-5.4800

> <Gold.Chemscore.Hbond>
3.7454

> <Gold.Chemscore.Metal>
0.0000

> <Gold.Chemscore.Lipo>
66.7582

> <Gold.Chemscore.Internal_Hbond>
0.0000

> <Gold.Chemscore.DEClash>
0.1748

> <Gold.Chemscore.DEInternal>
0.7123

> <Gold.Chemscore.Rot>
1.6281

> <Gold.Chemscore.Internal.Correction>
   9.000000E+99

> <Gold.Chemscore.Hbonds>
donor molecule, donor type, donor heavy atom, donor atom, acceptor molecule, acceptor atom, score
      P1  H  6896  6908       L1    19  0.89
      P1  H  6931  6943       L1     7  0.87
      P1  H  6934  6947       L1     7  0.86
      P1  H  7997  8010       L1    22  0.99

> <Gold.Chemscore.Hbond.Weighted>
-12.5096

> <Gold.Chemscore.Metal.Weighted>
-0.0000

> <Gold.Chemscore.Lipo.Weighted>
-7.8107

> <Gold.Chemscore.Internal_Hbond.Weighted>
0.0000

> <Gold.Chemscore.DEClash.Weighted>
0.1748

> <Gold.Chemscore.DEInternal.Weighted>
0.7123

> <Gold.Chemscore.Rot.Weighted>
4.1678

> <Gold.Chemscore.Internal.Correction.Weighted>
   9.000000E+99

> <Gold.Protein.RotatedTorsions>
[ 6907 6896 6895 6894 ] final -146.42 input  -60.11 | X-H torsion
[ 7974 7965 7964 7962 ] final -176.11 input  175.53 | X-H torsion
[ 8008 7997 7996 7995 ] final   28.58 input   59.86 | X-H torsion
[ 10167 10162 10161 10158 ] final -145.15 input  -65.29 | X-H torsion
[ 10718 10713 10712 10709 ] final  128.29 input   66.30 | X-H torsion
[ 10763 10752 10751 10750 ] final -161.35 input  -60.55 | X-H torsion
[ 11005 11000 10999 10996 ] final  135.69 input  -57.11 | X-H torsion

> <Gold.Protein.ActiveResidues>
 VAL166  LYS551  ARG553  GLY616  TRP617  ASP618  TYR619  PRO620  LYS621  CYS622 
 ASP623  PHE694  ASN695  SER759  ASP760  ASP761  ALA762  ILE779  LEU786  VAL792 
 PHE793  MET794  SER795  GLU796  ALA797  LYS798  CYS799  TRP800  GLU811  SER814 

> <Gold.Protein.RotatedAtoms>
  151.1414  133.4969  159.2596 H   0  0  0  0  0  0  0  0  0  0  0  0  # atno 6907 bound_to 6896
  151.1651  135.0291  159.8737 H   0  0  0  0  0  0  0  0  0  0  0  0  # atno 6908 bound_to 6896
  152.5462  134.1283  159.8481 H   0  0  0  0  0  0  0  0  0  0  0  0  # atno 6909 bound_to 6896
  144.7127  140.1220  143.6404 H   0  0  0  0  0  0  0  0  0  0  0  0  # atno 7974 bound_to 7965
  155.0610  140.3190  155.4661 H   0  0  0  0  0  0  0  0  0  0  0  0  # atno 8008 bound_to 7997
  156.2813  140.2129  156.5681 H   0  0  0  0  0  0  0  0  0  0  0  0  # atno 8009 bound_to 7997
  154.7132  140.0496  157.0557 H   0  0  0  0  0  0  0  0  0  0  0  0  # atno 8010 bound_to 7997
  139.7832  143.8071  152.2641 H   0  0  0  0  0  0  0  0  0  0  0  0  # atno 10167 bound_to 10162
  157.5257  131.1098  150.9086 H   0  0  0  0  0  0  0  0  0  0  0  0  # atno 10718 bound_to 10713
  154.7311  135.3047  154.8889 H   0  0  0  0  0  0  0  0  0  0  0  0  # atno 10763 bound_to 10752
  153.9732  135.6739  153.4752 H   0  0  0  0  0  0  0  0  0  0  0  0  # atno 10764 bound_to 10752
  153.0919  135.4955  154.8627 H   0  0  0  0  0  0  0  0  0  0  0  0  # atno 10765 bound_to 10752
  139.9996  134.9483  157.0043 H   0  0  0  0  0  0  0  0  0  0  0  0  # atno 11005 bound_to 11000
  145.9363  139.2639  143.1295 LP  0  0  0  0  0  0  0  0  0  0  0  0  # atno 17320 bound_to 7965
  145.9471  140.8937  143.0278 LP  0  0  0  0  0  0  0  0  0  0  0  0  # atno 17321 bound_to 7965
  139.8140  144.7324  150.9660 LP  0  0  0  0  0  0  0  0  0  0  0  0  # atno 17342 bound_to 10162
  140.7819  143.4223  151.0822 LP  0  0  0  0  0  0  0  0  0  0  0  0  # atno 17343 bound_to 10162
  156.9682  130.5481  149.5289 LP  0  0  0  0  0  0  0  0  0  0  0  0  # atno 17370 bound_to 10713
  156.0385  130.5470  150.8714 LP  0  0  0  0  0  0  0  0  0  0  0  0  # atno 17371 bound_to 10713
  140.4752  134.1345  155.7209 LP  0  0  0  0  0  0  0  0  0  0  0  0  # atno 17394 bound_to 11000
  141.1632  133.8753  157.1790 LP  0  0  0  0  0  0  0  0  0  0  0  0  # atno 17395 bound_to 11000

$$$$
