AV-unprocessed.smi:601|AV-procd|sdf|3032|dock10
  -GOLD-   2262023543D 1   1.00000     0.00000
 Structure written by MMmdl.
 50 51  0  0  0  0  0  0  0  0  1 V2000
  144.0076  134.5753  156.3078 C   0  0  0  0  0  0  0  0  0  0  0  0
  144.0466  134.8317  157.8184 C   0  0  0  0  0  0  0  0  0  0  0  0
  145.4778  134.9844  158.3520 C   0  0  0  0  0  0  0  0  0  0  0  0
  146.1130  136.3295  157.9565 C   0  0  0  0  0  0  0  0  0  0  0  0
  147.4865  136.4616  158.4654 N   0  0  0  0  0  0  0  0  0  0  0  0
  147.7294  136.5904  159.7964 C   0  0  0  0  0  0  0  0  0  0  0  0
  148.8632  136.8052  160.2300 O   0  0  0  0  0  0  0  0  0  0  0  0
  146.5616  136.4171  160.8023 C   0  0  1  0  0  0  0  0  0  0  0  0
  146.6468  135.1588  161.6762 C   0  0  0  0  0  0  0  0  0  0  0  0
  147.5083  135.5749  162.8622 C   0  0  0  0  0  0  0  0  0  0  0  0
  147.5373  137.1045  162.7913 C   0  0  0  0  0  0  0  0  0  0  0  0
  146.5937  137.4483  161.7825 O   0  0  0  0  0  0  0  0  0  0  0  0
  148.5165  136.4926  157.5084 C   0  0  0  0  0  0  0  0  0  0  0  0
  148.5863  137.4768  156.5632 C   0  0  0  0  0  0  0  0  0  0  0  0
  147.6435  138.4944  156.5430 N   0  0  0  0  0  0  0  0  0  0  0  0
  149.5942  137.4935  155.5944 N   0  0  0  0  0  0  0  0  0  0  0  0
  149.7150  138.5200  154.5779 C   0  0  0  0  0  0  0  0  0  0  0  0
  151.1078  139.1717  154.5560 C   0  0  0  0  0  0  0  0  0  0  0  0
  151.2376  140.3020  155.5814 C   0  0  0  0  0  0  0  0  0  0  0  0
  150.5453  136.4460  155.5415 C   0  0  0  0  0  0  0  0  0  0  0  0
  151.4351  136.3771  154.6930 O   0  0  0  0  0  0  0  0  0  0  0  0
  150.4451  135.4490  156.5055 N   0  0  0  0  0  0  0  0  0  0  0  0
  149.4831  135.3867  157.5104 C   0  0  0  0  0  0  0  0  0  0  0  0
  149.4951  134.4442  158.3013 O   0  0  0  0  0  0  0  0  0  0  0  0
  151.1245  134.7030  156.4704 H   0  0  0  0  0  0  0  0  0  0  0  0
  142.9805  134.4744  155.9566 H   0  0  0  0  0  0  0  0  0  0  0  0
  144.5383  133.6581  156.0502 H   0  0  0  0  0  0  0  0  0  0  0  0
  144.4687  135.3960  155.7576 H   0  0  0  0  0  0  0  0  0  0  0  0
  143.4729  135.7311  158.0454 H   0  0  0  0  0  0  0  0  0  0  0  0
  143.5494  134.0097  158.3344 H   0  0  0  0  0  0  0  0  0  0  0  0
  145.4681  134.8828  159.4377 H   0  0  0  0  0  0  0  0  0  0  0  0
  146.0911  134.1665  157.9727 H   0  0  0  0  0  0  0  0  0  0  0  0
  146.1132  136.4175  156.8687 H   0  0  0  0  0  0  0  0  0  0  0  0
  145.4984  137.1573  158.3143 H   0  0  0  0  0  0  0  0  0  0  0  0
  145.6127  136.4318  160.2657 H   0  0  0  0  0  0  0  0  0  0  0  0
  145.6477  134.8960  162.0253 H   0  0  0  0  0  0  0  0  0  0  0  0
  147.0426  134.2870  161.1536 H   0  0  0  0  0  0  0  0  0  0  0  0
  147.0791  135.2207  163.7998 H   0  0  0  0  0  0  0  0  0  0  0  0
  148.5177  135.1697  162.7812 H   0  0  0  0  0  0  0  0  0  0  0  0
  147.2767  137.5707  163.7415 H   0  0  0  0  0  0  0  0  0  0  0  0
  148.5272  137.4599  162.5011 H   0  0  0  0  0  0  0  0  0  0  0  0
  146.8908  138.5363  157.2152 H   0  0  0  0  0  0  0  0  0  0  0  0
  147.6404  139.2027  155.8231 H   0  0  0  0  0  0  0  0  0  0  0  0
  149.4777  138.0527  153.6225 H   0  0  0  0  0  0  0  0  0  0  0  0
  148.9211  139.2520  154.7374 H   0  0  0  0  0  0  0  0  0  0  0  0
  151.8729  138.4204  154.7542 H   0  0  0  0  0  0  0  0  0  0  0  0
  151.3140  139.5656  153.5601 H   0  0  0  0  0  0  0  0  0  0  0  0
  152.2318  140.7478  155.5445 H   0  0  0  0  0  0  0  0  0  0  0  0
  151.0753  139.9334  156.5947 H   0  0  0  0  0  0  0  0  0  0  0  0
  150.5107  141.0920  155.3903 H   0  0  0  0  0  0  0  0  0  0  0  0
  1  2  1  0  0  0  0
  1 26  1  0  0  0  0
  1 27  1  0  0  0  0
  1 28  1  0  0  0  0
  2  3  1  0  0  0  0
  2 29  1  0  0  0  0
  2 30  1  0  0  0  0
  3  4  1  0  0  0  0
  3 31  1  0  0  0  0
  3 32  1  0  0  0  0
  4  5  1  0  0  0  0
  4 33  1  0  0  0  0
  4 34  1  0  0  0  0
  5  6  1  0  0  0  0
  5 13  1  0  0  0  0
  6  7  2  0  0  0  0
  6  8  1  0  0  0  0
  8 12  1  0  0  0  0
  8  9  1  0  0  0  0
  8 35  1  0  0  0  0
  9 10  1  0  0  0  0
  9 36  1  0  0  0  0
  9 37  1  0  0  0  0
 10 11  1  0  0  0  0
 10 38  1  0  0  0  0
 10 39  1  0  0  0  0
 11 12  1  0  0  0  0
 11 40  1  0  0  0  0
 11 41  1  0  0  0  0
 13 23  1  0  0  0  0
 13 14  2  0  0  0  0
 14 15  1  0  0  0  0
 14 16  1  0  0  0  0
 15 42  1  0  0  0  0
 15 43  1  0  0  0  0
 16 17  1  0  0  0  0
 16 20  1  0  0  0  0
 17 18  1  0  0  0  0
 17 44  1  0  0  0  0
 17 45  1  0  0  0  0
 18 19  1  0  0  0  0
 18 46  1  0  0  0  0
 18 47  1  0  0  0  0
 19 48  1  0  0  0  0
 19 49  1  0  0  0  0
 19 50  1  0  0  0  0
 20 21  2  0  0  0  0
 20 22  1  0  0  0  0
 22 25  1  0  0  0  0
 22 23  1  0  0  0  0
 23 24  2  0  0  0  0
M  END
> <s_m_source_file>
AV-unprocessed.smi

> <i_m_source_file_index>
601

> <i_lp_mmshare_version>
43012

> <i_f3d_flags>
0

> <s_epik_input>
TzFbQ0gyXVtDSDJdW0NIMl1bQ0BIXTFDKD1PKU4oW0NIMl1bQ0gyXVtDSDJdW0NIM10pYzJjKFtOSDJdKW4oW0NIMl1bQ0gyXVtDSDNdKWMoPU8pW25IXWMyPU8=

> <s_epik_cmdline>
J2VwaWtfcHl0aG9uJywgJy1waCcsICc3LjAnLCAnLXRuJywgJzgnLCAnLW1hJywgJzIwMCcsICctbWV0YWxfYmluZGluZycsICctaW1hZScsICc8aW5maWxlLm1hZT4nLCAnLW9tYWUnLCAnPG91dGZpbGUubWFlPic=

> <r_lp_tautomer_probability>
1

> <r_epik_Ionization_Penalty>
6.19718e-05

> <r_epik_Ionization_Penalty_Charging>
2.78773e-05

> <r_epik_Ionization_Penalty_Neutral>
3.40944e-05

> <r_epik_State_Penalty>
-0

> <r_epik_Charging_Adjusted_Penalty>
2.78773e-05

> <i_epik_Tot_Q>
0

> <i_epik_Tot_abs_Q>
0

> <r_epik_Metal_State_Penalty>
0.0271358

> <b_epik_Metal_Only>
0

> <s_lp_Force_Field>
OPLS_2005

> <r_lp_Energy>
41.2463

> <b_lp_Chiralities_Consistent>
1

> <s_lp_Variant>
AV-unprocessed.smi:601-2

> <Gold.Version>
5.8.1

> <Gold.Id.Protein>
6NUR|6NUR_protein|mol2

> <Gold.PLP.Fitness>
39.5711

> <Gold.PLP.PLP>
-30.6757

> <Gold.PLP.part.hbond>
-3.9946

> <Gold.PLP.part.metal>
0.0000

> <Gold.PLP.part.buried>
-3.6540

> <Gold.PLP.part.nonpolar>
-23.6161

> <Gold.PLP.part.repulsive>
0.2847

> <Gold.PLP.ligand.clash>
0.0000

> <Gold.PLP.ligand.torsion>
1.7207

> <Gold.PLP.Chemscore.Hbond>
3.3037

> <Gold.PLP.Chemscore.CHOScore>
0.0000

> <Gold.PLP.Chemscore.Metal>
0.0000

> <Gold.Chemscore.Hbonds>
donor molecule, donor type, donor heavy atom, donor atom, acceptor molecule, acceptor atom, score
      P1  H  6896  6909       L1    24  0.99
      P1  H  6931  6943       L1     7  0.40
      P1  H  6934  6947       L1    12  0.93
      P1  H 10752 10764       L1    21  1.00

> <Gold.PLP.Chemscore.Internal.Correction>
2.4259

> <Gold.Rescore>
     Score         DG    S(hbond)    S(metal)    S(lipo)     H(rot)  DE(clash)    DE(int)     intcor
     12.51     -16.93       2.88        0.00      58.44       1.96       0.10       4.32       ----

> <Gold.Chemscore.Fitness>
12.5095

> <Gold.Chemscore.DG>
-16.9273

> <Gold.Chemscore.ZeroCoef>
-5.4800

> <Gold.Chemscore.Hbond>
2.8828

> <Gold.Chemscore.Metal>
0.0000

> <Gold.Chemscore.Lipo>
58.4370

> <Gold.Chemscore.Internal_Hbond>
0.0000

> <Gold.Chemscore.DEClash>
0.1013

> <Gold.Chemscore.DEInternal>
4.3165

> <Gold.Chemscore.Rot>
1.9603

> <Gold.Chemscore.Internal.Correction>
   9.000000E+99

> <Gold.Chemscore.Hbonds>
donor molecule, donor type, donor heavy atom, donor atom, acceptor molecule, acceptor atom, score
      P1  H  6896  6909       L1    24  0.93
      P1  H  6931  6943       L1     7  0.38
      P1  H  6934  6947       L1    12  0.41
      P1  H 10752 10764       L1    21  1.00

> <Gold.Chemscore.Hbond.Weighted>
-9.6287

> <Gold.Chemscore.Metal.Weighted>
-0.0000

> <Gold.Chemscore.Lipo.Weighted>
-6.8371

> <Gold.Chemscore.Internal_Hbond.Weighted>
0.0000

> <Gold.Chemscore.DEClash.Weighted>
0.1013

> <Gold.Chemscore.DEInternal.Weighted>
4.3165

> <Gold.Chemscore.Rot.Weighted>
5.0185

> <Gold.Chemscore.Internal.Correction.Weighted>
   9.000000E+99

> <Gold.Protein.RotatedTorsions>
[ 6907 6896 6895 6894 ] final    6.04 input  -60.11 | X-H torsion
[ 7974 7965 7964 7962 ] final  -64.13 input  175.53 | X-H torsion
[ 8008 7997 7996 7995 ] final    5.19 input   59.86 | X-H torsion
[ 10167 10162 10161 10158 ] final   65.65 input  -65.29 | X-H torsion
[ 10718 10713 10712 10709 ] final   14.02 input   66.30 | X-H torsion
[ 10763 10752 10751 10750 ] final  -65.95 input  -60.55 | X-H torsion
[ 11005 11000 10999 10996 ] final -112.24 input  -57.11 | X-H torsion

> <Gold.Protein.ActiveResidues>
 VAL166  LYS551  ARG553  GLY616  TRP617  ASP618  TYR619  PRO620  LYS621  CYS622 
 ASP623  PHE694  ASN695  SER759  ASP760  ASP761  ALA762  ILE779  LEU786  VAL792 
 PHE793  MET794  SER795  GLU796  ALA797  LYS798  CYS799  TRP800  GLU811  SER814 

> <Gold.Protein.RotatedAtoms>
  151.6672  135.0981  160.0190 H   0  0  0  0  0  0  0  0  0  0  0  0  # atno 6907 bound_to 6896
  152.3912  133.6678  159.6248 H   0  0  0  0  0  0  0  0  0  0  0  0  # atno 6908 bound_to 6896
  150.7827  133.8867  159.3343 H   0  0  0  0  0  0  0  0  0  0  0  0  # atno 6909 bound_to 6896
  145.7706  140.8815  143.0382 H   0  0  0  0  0  0  0  0  0  0  0  0  # atno 7974 bound_to 7965
  154.7253  140.2720  155.6505 H   0  0  0  0  0  0  0  0  0  0  0  0  # atno 8008 bound_to 7997
  156.2835  140.2726  156.1861 H   0  0  0  0  0  0  0  0  0  0  0  0  # atno 8009 bound_to 7997
  155.0453  140.0371  157.2514 H   0  0  0  0  0  0  0  0  0  0  0  0  # atno 8010 bound_to 7997
  140.1089  144.4836  150.6990 H   0  0  0  0  0  0  0  0  0  0  0  0  # atno 10167 bound_to 10162
  157.0331  130.6201  149.5738 H   0  0  0  0  0  0  0  0  0  0  0  0  # atno 10718 bound_to 10713
  154.3526  135.6133  153.5650 H   0  0  0  0  0  0  0  0  0  0  0  0  # atno 10763 bound_to 10752
  152.9797  135.5796  154.4725 H   0  0  0  0  0  0  0  0  0  0  0  0  # atno 10764 bound_to 10752
  154.4449  135.2851  155.1799 H   0  0  0  0  0  0  0  0  0  0  0  0  # atno 10765 bound_to 10752
  141.0687  133.9416  157.2528 H   0  0  0  0  0  0  0  0  0  0  0  0  # atno 11005 bound_to 11000
  144.6813  139.9849  143.7484 LP  0  0  0  0  0  0  0  0  0  0  0  0  # atno 17320 bound_to 7965
  146.0174  139.3221  143.0833 LP  0  0  0  0  0  0  0  0  0  0  0  0  # atno 17321 bound_to 7965
  140.6936  143.2390  151.5062 LP  0  0  0  0  0  0  0  0  0  0  0  0  # atno 17342 bound_to 10162
  139.5630  144.2111  152.1721 LP  0  0  0  0  0  0  0  0  0  0  0  0  # atno 17343 bound_to 10162
  156.0063  130.5150  150.7840 LP  0  0  0  0  0  0  0  0  0  0  0  0  # atno 17370 bound_to 10713
  157.5162  131.0928  151.0136 LP  0  0  0  0  0  0  0  0  0  0  0  0  # atno 17371 bound_to 10713
  139.9502  135.0177  156.8970 LP  0  0  0  0  0  0  0  0  0  0  0  0  # atno 17394 bound_to 11000
  140.5719  134.0435  155.7433 LP  0  0  0  0  0  0  0  0  0  0  0  0  # atno 17395 bound_to 11000

$$$$
