#       Name:                AV-unprocessed.smi:2216
#       Creating user name   scv26
#       Creation time:       Fri Mar 27 12:18:22 2020


#       File generated by GOLD software.
#

@<TRIPOS>MOLECULE
AV-unprocessed.smi:2216
    47    48     1
SMALL
NO_CHARGES


@<TRIPOS>ATOM
      1 ****        -5.0199   4.1053   0.7952 C.3            1 S1                 0.0000
      2 ****        -5.0034   2.5860   0.7866 C.2            1 S1                 0.0000
      3 ****        -3.8415   1.8859   0.8115 C.2            1 S1                 0.0000
      4 ****        -3.8173   0.4232   0.8023 C.2            1 S1                 0.0000
      5 ****        -2.6877  -0.4054   0.8234 N.am           1 S1                 0.0000
      6 ****        -1.3893  -0.0575   0.8653 C.2            1 S1                 0.0000
      7 ****        -0.9491   1.0913   0.8980 O.2            1 S1                 0.0000
      8 ****        -0.6042  -1.1442   0.8656 N.am           1 S1                 0.0000
      9 ****         0.8536  -1.1269   0.9026 C.3            1 S1                 0.0000
     10 ****         1.4528  -0.8693  -0.4909 C.3            1 S1                 0.0000
     11 ****         2.9896  -0.8582  -0.4875 C.3            1 S1                 0.0000
     12 ****         3.5655  -0.4612  -1.8611 C.3            1 S1                 0.0000
     13 ****         5.0966  -0.5353  -1.8467 C.3            1 S1                 0.0000
     14 ****         5.5422  -1.9161  -1.3535 C.3            1 S1                 0.0000
     15 ****         4.8674  -2.2478  -0.0130 C.3            1 S1                 0.0000
     16 ****         3.4520  -2.1647  -0.1488 O.3            1 S1                 0.0000
     17 ****        -5.0826  -0.1270   0.7663 C.2            1 S1                 0.0000
     18 ****        -6.2789   0.4992   0.7409 N.pl3          1 S1                -1.0000
     19 ****        -6.2908   1.8631   0.7488 C.2            1 S1                 0.0000
     20 ****        -7.3423   2.5016   0.7247 O.2            1 S1                 0.0000
     21 ****        -4.0096   4.5144   0.8199 H              1 S1                 0.0000
     22 ****        -5.5547   4.4756   1.6704 H              1 S1                 0.0000
     23 ****        -5.5155   4.4860  -0.0983 H              1 S1                 0.0000
     24 ****        -2.9224   2.4477   0.8366 H              1 S1                 0.0000
     25 ****        -2.8888  -1.3945   0.8029 H              1 S1                 0.0000
     26 ****        -1.0485  -2.0501   0.8365 H              1 S1                 0.0000
     27 ****         1.2016  -0.3765   1.6145 H              1 S1                 0.0000
     28 ****         1.1899  -2.0921   1.2818 H              1 S1                 0.0000
     29 ****         1.0931  -1.6227  -1.1931 H              1 S1                 0.0000
     30 ****         1.0932   0.0916  -0.8617 H              1 S1                 0.0000
     31 ****         3.3339  -0.1481   0.2667 H              1 S1                 0.0000
     32 ****         3.1760  -1.1289  -2.6308 H              1 S1                 0.0000
     33 ****         3.2455   0.5461  -2.1300 H              1 S1                 0.0000
     34 ****         5.4969  -0.3383  -2.8415 H              1 S1                 0.0000
     35 ****         5.4959   0.2374  -1.1886 H              1 S1                 0.0000
     36 ****         5.2750  -2.6728  -2.0922 H              1 S1                 0.0000
     37 ****         6.6270  -1.9483  -1.2496 H              1 S1                 0.0000
     38 ****         5.1322  -3.2580   0.3000 H              1 S1                 0.0000
     39 ****         5.2081  -1.5722   0.7730 H              1 S1                 0.0000
     40 ****        -5.1425  -1.2369   0.7553 H              1 S1                 0.0000
     41 ****        -1.5786   1.8682   0.8946 LP             1 S1                 0.0000
     42 ****         0.0381   1.2478   0.9279 LP             1 S1                 0.0000
     43 ****         3.1650  -2.7984  -0.8672 LP             1 S1                 0.0000
     44 ****         3.0343  -2.4335   0.7191 LP             1 S1                 0.0000
     45 ****        -7.1318  -0.0223   0.7169 LP             1 S1                 0.0000
     46 ****        -7.3204   3.5013   0.7307 LP             1 S1                 0.0000
     47 ****        -8.2187   2.0208   0.6990 LP             1 S1                 0.0000
@<TRIPOS>BOND
    1    1    2 1     
    2    1   21 1     
    3    1   22 1     
    4    1   23 1     
    5    2   19 1     
    6    2    3 2     
    7    3    4 1     
    8    3   24 1     
    9    4    5 1     
   10    4   17 2     
   11    5    6 am    
   12    5   25 1     
   13    6    7 2     
   14    6    8 am    
   15    8    9 1     
   16    8   26 1     
   17    9   10 1     
   18    9   27 1     
   19    9   28 1     
   20   10   11 1     
   21   10   29 1     
   22   10   30 1     
   23   11   16 1     
   24   11   12 1     
   25   11   31 1     
   26   12   13 1     
   27   12   32 1     
   28   12   33 1     
   29   13   14 1     
   30   13   34 1     
   31   13   35 1     
   32   14   15 1     
   33   14   36 1     
   34   14   37 1     
   35   15   16 1     
   36   15   38 1     
   37   15   39 1     
   38   17   18 1     
   39   17   40 1     
   40   18   19 1     
   41   19   20 2     
   42    7   41 1     
   43    7   42 1     
   44   16   43 1     
   45   16   44 1     
   46   18   45 1     
   47   20   46 1     
   48   20   47 1     
@<TRIPOS>SUBSTRUCTURE
      1 S1             1
@<TRIPOS>SET
LONE_PAIRS      STATIC     ATOMS    <user>   **** ""
7 41 42 43 44 45 46 47
DONOR_HYDROGENS      STATIC     ATOMS    <user>   **** ""
2 25 26
ATOM$BLUE        STATIC     ATOMS    COLORGROUP SYSTEM
7 41 42 43 44 45 46 47
ATOM$RED        STATIC     ATOMS    COLORGROUP SYSTEM
2 25 26
