AV-unprocessed.smi:36|AV-procd|sdf|293|dock8
  -GOLD-   2262016 83D 1   1.00000     0.00000
 Structure written by MMmdl.
 64 67  0  0  0  0  0  0  0  0  1 V2000
  161.2244  136.9400  162.2133 C   0  0  0  0  0  0  0  0  0  0  0  0
  159.9780  136.0576  162.0330 C   0  0  0  0  0  0  0  0  0  0  0  0
  158.8815  136.8460  161.2976 C   0  0  0  0  0  0  0  0  0  0  0  0
  160.3409  134.7991  161.2269 C   0  0  0  0  0  0  0  0  0  0  0  0
  159.3222  135.5286  163.7478 Si  0  0  0  0  0  0  0  0  0  0  0  0
  160.6408  134.5550  164.7106 C   0  0  0  0  0  0  0  0  0  0  0  0
  158.7784  137.0369  164.7676 C   0  0  0  0  0  0  0  0  0  0  0  0
  157.9688  134.5378  163.5111 O   0  0  0  0  0  0  0  0  0  0  0  0
  157.0998  134.1278  164.5485 C   0  0  0  0  0  0  0  0  0  0  0  0
  156.0202  133.1873  163.9747 C   0  0  2  0  0  0  0  0  0  0  0  0
  155.3929  133.8687  162.8854 O   0  0  0  0  0  0  0  0  0  0  0  0
  154.0910  134.2495  163.2242 C   0  0  2  0  0  0  0  0  0  0  0  0
  153.8956  135.6885  162.8782 N   0  0  0  0  0  0  0  0  0  0  0  0
  153.7309  136.7294  163.7178 C   0  0  0  0  0  0  0  0  0  0  0  0
  153.5631  137.9121  163.1303 N   0  0  0  0  0  0  0  0  0  0  0  0
  153.6268  137.5927  161.7777 C   0  0  0  0  0  0  0  0  0  0  0  0
  153.5107  138.4554  160.5815 C   0  0  0  0  0  0  0  0  0  0  0  0
  153.3213  139.7264  160.7691 N   0  0  0  0  0  0  0  0  0  0  0  0
  153.2132  140.5833  159.6809 C   0  0  0  0  0  0  0  0  0  0  0  0
  153.3027  140.3201  158.4783 O   0  0  0  0  0  0  0  0  0  0  0  0
  152.8854  141.9899  160.0646 C   0  0  0  0  0  0  0  0  0  0  0  0
  152.6323  142.3171  161.4140 C   0  0  0  0  0  0  0  0  0  0  0  0
  152.3222  143.6433  161.7734 C   0  0  0  0  0  0  0  0  0  0  0  0
  152.2649  144.6461  160.7864 C   0  0  0  0  0  0  0  0  0  0  0  0
  152.5152  144.3225  159.4387 C   0  0  0  0  0  0  0  0  0  0  0  0
  152.8237  142.9964  159.0775 C   0  0  0  0  0  0  0  0  0  0  0  0
  153.6358  137.6788  159.4219 N   0  0  0  0  0  0  0  0  0  0  0  0
  153.8403  136.2909  159.3776 C   0  0  0  0  0  0  0  0  0  0  0  0
  153.9458  135.5175  160.4251 N   0  0  0  0  0  0  0  0  0  0  0  0
  153.8294  136.2406  161.6037 C   0  0  0  0  0  0  0  0  0  0  0  0
  153.9399  134.0434  164.7275 C   0  0  0  0  0  0  0  0  0  0  0  0
  154.8592  132.8619  164.9294 C   0  0  2  0  0  0  0  0  0  0  0  0
  155.2324  132.7052  166.2835 O   0  0  0  0  0  0  0  0  0  0  0  0
  161.6234  137.2623  161.2509 H   0  0  0  0  0  0  0  0  0  0  0  0
  162.0183  136.4049  162.7347 H   0  0  0  0  0  0  0  0  0  0  0  0
  160.9974  137.8365  162.7910 H   0  0  0  0  0  0  0  0  0  0  0  0
  158.6041  137.7467  161.8455 H   0  0  0  0  0  0  0  0  0  0  0  0
  157.9794  136.2464  161.1717 H   0  0  0  0  0  0  0  0  0  0  0  0
  159.2128  137.1554  160.3056 H   0  0  0  0  0  0  0  0  0  0  0  0
  160.7019  135.0567  160.2307 H   0  0  0  0  0  0  0  0  0  0  0  0
  159.4775  134.1439  161.1059 H   0  0  0  0  0  0  0  0  0  0  0  0
  161.1241  134.2225  161.7197 H   0  0  0  0  0  0  0  0  0  0  0  0
  161.5306  135.1581  164.8900 H   0  0  0  0  0  0  0  0  0  0  0  0
  160.9570  133.6632  164.1701 H   0  0  0  0  0  0  0  0  0  0  0  0
  160.2683  134.2310  165.6821 H   0  0  0  0  0  0  0  0  0  0  0  0
  159.6066  137.7235  164.9411 H   0  0  0  0  0  0  0  0  0  0  0  0
  158.3937  136.7415  165.7436 H   0  0  0  0  0  0  0  0  0  0  0  0
  157.9901  137.5971  164.2655 H   0  0  0  0  0  0  0  0  0  0  0  0
  157.6893  133.6233  165.3142 H   0  0  0  0  0  0  0  0  0  0  0  0
  156.6557  135.0050  165.0189 H   0  0  0  0  0  0  0  0  0  0  0  0
  156.4811  132.2645  163.6235 H   0  0  0  0  0  0  0  0  0  0  0  0
  153.3640  133.6979  162.6267 H   0  0  0  0  0  0  0  0  0  0  0  0
  153.7313  136.6194  164.7922 H   0  0  0  0  0  0  0  0  0  0  0  0
  152.6742  141.5531  162.1769 H   0  0  0  0  0  0  0  0  0  0  0  0
  152.1282  143.8911  162.8065 H   0  0  0  0  0  0  0  0  0  0  0  0
  152.0275  145.6626  161.0628 H   0  0  0  0  0  0  0  0  0  0  0  0
  152.4712  145.0917  158.6819 H   0  0  0  0  0  0  0  0  0  0  0  0
  153.0140  142.7563  158.0412 H   0  0  0  0  0  0  0  0  0  0  0  0
  153.9084  135.8849  158.3675 H   0  0  0  0  0  0  0  0  0  0  0  0
  154.3015  134.9232  165.2632 H   0  0  0  0  0  0  0  0  0  0  0  0
  152.9013  133.8542  165.0006 H   0  0  0  0  0  0  0  0  0  0  0  0
  154.3567  131.9530  164.5947 H   0  0  0  0  0  0  0  0  0  0  0  0
  154.9829  133.4848  166.7559 H   0  0  0  0  0  0  0  0  0  0  0  0
  153.5718  138.1630  158.5379 H   0  0  0  0  0  0  0  0  0  0  0  0
  1  2  1  0  0  0  0
  1 34  1  0  0  0  0
  1 35  1  0  0  0  0
  1 36  1  0  0  0  0
  2  3  1  0  0  0  0
  2  4  1  0  0  0  0
  2  5  1  0  0  0  0
  3 37  1  0  0  0  0
  3 38  1  0  0  0  0
  3 39  1  0  0  0  0
  4 40  1  0  0  0  0
  4 41  1  0  0  0  0
  4 42  1  0  0  0  0
  5  6  1  0  0  0  0
  5  7  1  0  0  0  0
  5  8  1  0  0  0  0
  6 43  1  0  0  0  0
  6 44  1  0  0  0  0
  6 45  1  0  0  0  0
  7 46  1  0  0  0  0
  7 47  1  0  0  0  0
  7 48  1  0  0  0  0
  8  9  1  0  0  0  0
  9 10  1  0  0  0  0
  9 49  1  0  0  0  0
  9 50  1  0  0  0  0
 10 32  1  0  0  0  0
 10 11  1  0  0  0  0
 10 51  1  0  0  0  0
 11 12  1  0  0  0  0
 12 13  1  0  0  0  0
 12 31  1  0  0  0  0
 12 52  1  0  0  0  0
 13 30  1  0  0  0  0
 13 14  1  0  0  0  0
 14 15  2  0  0  0  0
 14 53  1  0  0  0  0
 15 16  1  0  0  0  0
 16 30  2  0  0  0  0
 16 17  1  0  0  0  0
 17 18  2  0  0  0  0
 17 27  1  0  0  0  0
 18 19  1  0  0  0  0
 19 20  2  0  0  0  0
 19 21  1  0  0  0  0
 21 26  1  0  0  0  0
 21 22  2  0  0  0  0
 22 23  1  0  0  0  0
 22 54  1  0  0  0  0
 23 24  2  0  0  0  0
 23 55  1  0  0  0  0
 24 25  1  0  0  0  0
 24 56  1  0  0  0  0
 25 26  2  0  0  0  0
 25 57  1  0  0  0  0
 26 58  1  0  0  0  0
 27 28  1  0  0  0  0
 27 64  1  0  0  0  0
 28 29  2  0  0  0  0
 28 59  1  0  0  0  0
 29 30  1  0  0  0  0
 31 32  1  0  0  0  0
 31 60  1  0  0  0  0
 31 61  1  0  0  0  0
 32 33  1  0  0  0  0
 32 62  1  0  0  0  0
 33 63  1  0  0  0  0
M  END
> <s_m_source_file>
AV-unprocessed.smi

> <i_m_source_file_index>
36

> <i_lp_mmshare_version>
43012

> <i_f3d_flags>
0

> <s_epik_input>
W0NIM11DKFtDSDNdKShbQ0gzXSlbU2ldKFtDSDNdKShbQ0gzXSlPW0NIMl1bQ0BASF0xT1tDQEhdKFtDSDJdW0NASF0xW09IXSluKFtjSF1uMiljKGMyMyluW2NIXW5jM1tOSF1DKD1PKWM0W2NIXVtjSF1bY0hdW2NIXVtjSF00

> <s_epik_cmdline>
J2VwaWtfcHl0aG9uJywgJy1waCcsICc3LjAnLCAnLXRuJywgJzgnLCAnLW1hJywgJzIwMCcsICctbWV0YWxfYmluZGluZycsICctaW1hZScsICc8aW5maWxlLm1hZT4nLCAnLW9tYWUnLCAnPG91dGZpbGUubWFlPic=

> <r_epik_Ionization_Penalty>
0.0850405

> <r_epik_Ionization_Penalty_Charging>
0.0850403

> <r_epik_Ionization_Penalty_Neutral>
1.47497e-07

> <r_epik_State_Penalty>
2.6133

> <r_epik_Charging_Adjusted_Penalty>
2.69834

> <i_epik_Tot_Q>
0

> <i_epik_Tot_abs_Q>
0

> <r_epik_Metal_State_Penalty>
2.92945

> <b_epik_Metal_Only>
0

> <s_epik_Chemistry_Notes>
This compound contains an acetal/aminal-like group ( X-CH(R)-Y where X, Y are N, S, or O) that may be acid/base labile, releasing an aldehyde.

> <s_lp_Force_Field>
OPLS_2005

> <r_lp_Energy>
48.5801

> <b_lp_Chiralities_Consistent>
1

> <s_lp_Variant>
AV-unprocessed.smi:36-15

> <Gold.Version>
5.8.1

> <Gold.Id.Protein>
6NUR|6NUR_protein|mol2

> <Gold.PLP.Fitness>
49.1661

> <Gold.PLP.PLP>
-43.8956

> <Gold.PLP.part.hbond>
-2.0000

> <Gold.PLP.part.metal>
0.0000

> <Gold.PLP.part.buried>
-4.0482

> <Gold.PLP.part.nonpolar>
-37.6369

> <Gold.PLP.part.repulsive>
0.0837

> <Gold.PLP.ligand.clash>
0.0000

> <Gold.PLP.ligand.torsion>
0.2520

> <Gold.PLP.Chemscore.Hbond>
1.8390

> <Gold.PLP.Chemscore.CHOScore>
0.0000

> <Gold.PLP.Chemscore.Metal>
0.0000

> <Gold.Chemscore.Hbonds>
donor molecule, donor type, donor heavy atom, donor atom, acceptor molecule, acceptor atom, score
      P1  H  6896  6909       L1    29  0.75
      P1  H  7997  8009       L1    20  0.83

> <Gold.PLP.Chemscore.Internal.Correction>
0.2575

> <Gold.Rescore>
     Score         DG    S(hbond)    S(metal)    S(lipo)     H(rot)  DE(clash)    DE(int)     intcor
     12.51     -12.89       1.00        0.00      93.86       2.70       0.04       0.34       ----

> <Gold.Chemscore.Fitness>
12.5110

> <Gold.Chemscore.DG>
-12.8884

> <Gold.Chemscore.ZeroCoef>
-5.4800

> <Gold.Chemscore.Hbond>
1.0028

> <Gold.Chemscore.Metal>
0.0000

> <Gold.Chemscore.Lipo>
93.8584

> <Gold.Chemscore.Internal_Hbond>
0.0000

> <Gold.Chemscore.DEClash>
0.0419

> <Gold.Chemscore.DEInternal>
0.3356

> <Gold.Chemscore.Rot>
2.7041

> <Gold.Chemscore.Internal.Correction>
   9.000000E+99

> <Gold.Chemscore.Hbonds>
donor molecule, donor type, donor heavy atom, donor atom, acceptor molecule, acceptor atom, score
      P1  H  6896  6909       L1    29  0.09
      P1  H  7997  8009       L1    20  0.80

> <Gold.Chemscore.Hbond.Weighted>
-3.3495

> <Gold.Chemscore.Metal.Weighted>
-0.0000

> <Gold.Chemscore.Lipo.Weighted>
-10.9814

> <Gold.Chemscore.Internal_Hbond.Weighted>
0.0000

> <Gold.Chemscore.DEClash.Weighted>
0.0419

> <Gold.Chemscore.DEInternal.Weighted>
0.3356

> <Gold.Chemscore.Rot.Weighted>
6.9225

> <Gold.Chemscore.Internal.Correction.Weighted>
   9.000000E+99

> <Gold.Protein.RotatedTorsions>
[ 6907 6896 6895 6894 ] final -162.59 input  -60.11 | X-H torsion
[ 7974 7965 7964 7962 ] final  -69.76 input  175.53 | X-H torsion
[ 8008 7997 7996 7995 ] final  161.48 input   59.86 | X-H torsion
[ 10167 10162 10161 10158 ] final  -35.99 input  -65.29 | X-H torsion
[ 10718 10713 10712 10709 ] final  -55.61 input   66.30 | X-H torsion
[ 10763 10752 10751 10750 ] final   98.26 input  -60.55 | X-H torsion
[ 11005 11000 10999 10996 ] final  151.11 input  -57.11 | X-H torsion

> <Gold.Protein.ActiveResidues>
 VAL166  LYS551  ARG553  GLY616  TRP617  ASP618  TYR619  PRO620  LYS621  CYS622 
 ASP623  PHE694  ASN695  SER759  ASP760  ASP761  ALA762  ILE779  LEU786  VAL792 
 PHE793  MET794  SER795  GLU796  ALA797  LYS798  CYS799  TRP800  GLU811  SER814 

> <Gold.Protein.RotatedAtoms>
  151.3827  133.3815  159.2711 H   0  0  0  0  0  0  0  0  0  0  0  0  # atno 6907 bound_to 6896
  150.9565  134.8960  159.7715 H   0  0  0  0  0  0  0  0  0  0  0  0  # atno 6908 bound_to 6896
  152.5133  134.3785  159.9395 H   0  0  0  0  0  0  0  0  0  0  0  0  # atno 6909 bound_to 6896
  145.6996  140.9121  143.0738 H   0  0  0  0  0  0  0  0  0  0  0  0  # atno 7974 bound_to 7965
  156.2100  140.1776  156.7715 H   0  0  0  0  0  0  0  0  0  0  0  0  # atno 8008 bound_to 7997
  154.5709  140.0682  156.8993 H   0  0  0  0  0  0  0  0  0  0  0  0  # atno 8009 bound_to 7997
  155.2674  140.3340  155.4270 H   0  0  0  0  0  0  0  0  0  0  0  0  # atno 8010 bound_to 7997
  140.7153  143.3439  151.2298 H   0  0  0  0  0  0  0  0  0  0  0  0  # atno 10167 bound_to 10162
  156.1355  130.4157  150.0194 H   0  0  0  0  0  0  0  0  0  0  0  0  # atno 10718 bound_to 10713
  153.2869  135.4154  155.1131 H   0  0  0  0  0  0  0  0  0  0  0  0  # atno 10763 bound_to 10752
  154.8508  135.3509  154.6034 H   0  0  0  0  0  0  0  0  0  0  0  0  # atno 10764 bound_to 10752
  153.6456  135.7055  153.5284 H   0  0  0  0  0  0  0  0  0  0  0  0  # atno 10765 bound_to 10752
  140.1190  134.8876  157.2045 H   0  0  0  0  0  0  0  0  0  0  0  0  # atno 11005 bound_to 11000
  144.6972  139.8930  143.7454 LP  0  0  0  0  0  0  0  0  0  0  0  0  # atno 17320 bound_to 7965
  146.0809  139.3797  143.0465 LP  0  0  0  0  0  0  0  0  0  0  0  0  # atno 17321 bound_to 7965
  139.6954  143.9622  152.2880 LP  0  0  0  0  0  0  0  0  0  0  0  0  # atno 17342 bound_to 10162
  139.9298  144.6748  150.8375 LP  0  0  0  0  0  0  0  0  0  0  0  0  # atno 17343 bound_to 10162
  156.8094  130.9319  151.3644 LP  0  0  0  0  0  0  0  0  0  0  0  0  # atno 17370 bound_to 10713
  157.6528  130.8899  149.9667 LP  0  0  0  0  0  0  0  0  0  0  0  0  # atno 17371 bound_to 10713
  140.2990  134.3153  155.7295 LP  0  0  0  0  0  0  0  0  0  0  0  0  # atno 17394 bound_to 11000
  141.2147  133.7580  156.9613 LP  0  0  0  0  0  0  0  0  0  0  0  0  # atno 17395 bound_to 11000

$$$$
