#       Name:                AV-unprocessed.smi:1911
#       Creating user name   scv26
#       Creation time:       Fri Mar 27 09:48:37 2020


#       File generated by GOLD software.
#

@<TRIPOS>MOLECULE
AV-unprocessed.smi:1911
    57    59     1
SMALL
NO_CHARGES


@<TRIPOS>ATOM
      1 ****        -6.0764  -5.3731   1.5393 N.pl3          1 S1                -1.0000
      2 ****        -6.7440  -4.2025   1.4975 C.2            1 S1                 0.0000
      3 ****        -7.5030  -3.7352   2.3433 O.2            1 S1                 0.0000
      4 ****        -6.4702  -3.4202   0.2083 C.3            1 S1                 0.0000
      5 ****        -5.0339  -3.0553   0.1052 N.4            1 S1                 1.0000
      6 ****        -4.6539  -1.9113   0.9765 C.3            1 S1                 0.0000
      7 ****        -3.1367  -1.6641   0.9377 C.3            1 S1                 0.0000
      8 ****        -2.6470  -1.4349  -0.5038 C.3            1 S1                 0.0000
      9 ****        -1.1937  -1.2955  -0.5449 N.am           1 S1                 0.0000
     10 ****        -0.5194  -0.1661  -0.2840 C.2            1 S1                 0.0000
     11 ****        -1.0648   0.8936   0.0234 O.2            1 S1                 0.0000
     12 ****         0.8059  -0.3459  -0.4201 N.am           1 S1                 0.0000
     13 ****         1.8504   0.5973  -0.2222 C.ar           1 S1                 0.0000
     14 ****         1.7329   1.7540   0.5871 C.ar           1 S1                 0.0000
     15 ****         2.8387   2.6170   0.7319 C.ar           1 S1                 0.0000
     16 ****         4.0550   2.3196   0.0729 C.ar           1 S1                 0.0000
     17 ****         5.2002   3.1323   0.1756 N.pl3          1 S1                 0.0000
     18 ****         6.3037   3.0227  -0.7702 C.3            1 S1                 0.0000
     19 ****         6.9525   4.4109  -0.8091 C.3            1 S1                 0.0000
     20 ****         6.5235   5.0590   0.5070 C.3            1 S1                 0.0000
     21 ****         5.1366   4.4656   0.7510 C.3            1 S1                 0.0000
     22 ****         4.1243   1.1928  -0.6753 N.pl3          1 S1                 1.0000
     23 ****         3.0912   0.3390  -0.8396 C.ar           1 S1                 0.0000
     24 ****        -3.0847  -2.6143  -1.3870 C.3            1 S1                 0.0000
     25 ****        -4.6032  -2.8424  -1.2994 C.3            1 S1                 0.0000
     26 ****        -6.1978  -5.9788   2.3599 H              1 S1                 0.0000
     27 ****        -6.7634  -4.0511  -0.6324 H              1 S1                 0.0000
     28 ****        -7.0945  -2.5266   0.1591 H              1 S1                 0.0000
     29 ****        -5.1876  -1.0155   0.6555 H              1 S1                 0.0000
     30 ****        -4.9556  -2.1054   2.0060 H              1 S1                 0.0000
     31 ****        -2.8917  -0.8041   1.5620 H              1 S1                 0.0000
     32 ****        -2.6202  -2.5203   1.3744 H              1 S1                 0.0000
     33 ****        -3.1059  -0.5253  -0.8965 H              1 S1                 0.0000
     34 ****        -0.6656  -2.1195  -0.7929 H              1 S1                 0.0000
     35 ****         1.0982  -1.2511  -0.7588 H              1 S1                 0.0000
     36 ****         0.8217   1.9912   1.1138 H              1 S1                 0.0000
     37 ****         2.7387   3.4944   1.3533 H              1 S1                 0.0000
     38 ****         7.0087   2.2768  -0.4019 H              1 S1                 0.0000
     39 ****         5.9733   2.7195  -1.7642 H              1 S1                 0.0000
     40 ****         8.0351   4.3688  -0.9304 H              1 S1                 0.0000
     41 ****         6.5449   4.9817  -1.6443 H              1 S1                 0.0000
     42 ****         7.2021   4.7544   1.3048 H              1 S1                 0.0000
     43 ****         6.5184   6.1485   0.4662 H              1 S1                 0.0000
     44 ****         4.3725   5.0485   0.2352 H              1 S1                 0.0000
     45 ****         4.8939   4.4366   1.8137 H              1 S1                 0.0000
     46 ****         3.2895  -0.5205  -1.4636 H              1 S1                 0.0000
     47 ****        -2.7998  -2.4320  -2.4239 H              1 S1                 0.0000
     48 ****        -2.5659  -3.5231  -1.0779 H              1 S1                 0.0000
     49 ****        -4.8683  -3.7129  -1.9008 H              1 S1                 0.0000
     50 ****        -5.1393  -1.9902  -1.7200 H              1 S1                 0.0000
     51 ****        -4.5302  -3.8648   0.4409 H              1 S1                 0.0000
     52 ****         5.0061   0.9755  -1.1400 H              1 S1                 0.0000
     53 ****        -5.4760  -5.6457   0.7876 LP             1 S1                 0.0000
     54 ****        -7.6851  -4.2416   3.1861 LP             1 S1                 0.0000
     55 ****        -7.9386  -2.8484   2.1889 LP             1 S1                 0.0000
     56 ****        -2.0615   0.9424   0.0892 LP             1 S1                 0.0000
     57 ****        -0.5113   1.7059   0.2074 LP             1 S1                 0.0000
@<TRIPOS>BOND
    1    1    2 1     
    2    1   26 1     
    3    2    3 2     
    4    2    4 1     
    5    4    5 1     
    6    4   27 1     
    7    4   28 1     
    8    5   25 1     
    9    5    6 1     
   10    5   51 1     
   11    6    7 1     
   12    6   29 1     
   13    6   30 1     
   14    7    8 1     
   15    7   31 1     
   16    7   32 1     
   17    8    9 1     
   18    8   24 1     
   19    8   33 1     
   20    9   10 am    
   21    9   34 1     
   22   10   11 2     
   23   10   12 am    
   24   12   13 1     
   25   12   35 1     
   26   13   23 ar    
   27   13   14 ar    
   28   14   15 ar    
   29   14   36 1     
   30   15   16 ar    
   31   15   37 1     
   32   16   17 1     
   33   16   22 ar    
   34   17   21 1     
   35   17   18 1     
   36   18   19 1     
   37   18   38 1     
   38   18   39 1     
   39   19   20 1     
   40   19   40 1     
   41   19   41 1     
   42   20   21 1     
   43   20   42 1     
   44   20   43 1     
   45   21   44 1     
   46   21   45 1     
   47   22   23 ar    
   48   22   52 1     
   49   23   46 1     
   50   24   25 1     
   51   24   47 1     
   52   24   48 1     
   53   25   49 1     
   54   25   50 1     
   55    1   53 1     
   56    3   54 1     
   57    3   55 1     
   58   11   56 1     
   59   11   57 1     
@<TRIPOS>SUBSTRUCTURE
      1 S1             1
@<TRIPOS>SET
LONE_PAIRS      STATIC     ATOMS    <user>   **** ""
5 53 54 55 56 57
DONOR_HYDROGENS      STATIC     ATOMS    <user>   **** ""
5 26 51 34 35 52
ATOM$BLUE        STATIC     ATOMS    COLORGROUP SYSTEM
5 53 54 55 56 57
ATOM$RED        STATIC     ATOMS    COLORGROUP SYSTEM
5 26 51 34 35 52
