AV-unprocessed.smi:1813|AV-procd|sdf|7345|dock3
  -GOLD-   22720 9 03D 1   1.00000     0.00000
 Structure written by MMmdl.
 39 40  0  0  0  0  0  0  0  0  3 V2000
  143.6490  145.9615  155.8785 C   0  0  0  0  0  0  0  0  0  0  0  0
  143.4255  144.5562  155.5597 N   0  5  0  0  0  0  0  0  0  0  0  0
  144.1108  143.5367  156.1434 C   0  0  0  0  0  0  0  0  0  0  0  0
  144.8717  143.5298  157.1169 O   0  0  0  0  0  0  0  0  0  0  0  0
  143.8248  142.2047  155.4404 C   0  0  0  0  0  0  0  0  0  0  0  0
  145.0753  141.6517  154.8630 N   0  3  2  0  0  0  0  0  0  0  0  0
  145.8656  140.8885  155.8617 C   0  0  0  0  0  0  0  0  0  0  0  0
  147.0768  140.2023  155.2061 C   0  0  0  0  0  0  0  0  0  0  0  0
  147.9750  141.2069  154.4574 C   0  0  2  0  0  0  0  0  0  0  0  0
  148.6953  142.0862  155.3782 N   0  0  0  0  0  0  0  0  0  0  0  0
  149.7349  141.7223  156.1434 C   0  0  0  0  0  0  0  0  0  0  0  0
  150.1983  140.5816  156.1591 O   0  0  0  0  0  0  0  0  0  0  0  0
  150.1866  142.7559  156.8755 N   0  0  0  0  0  0  0  0  0  0  0  0
  151.2579  142.7690  157.8072 C   0  0  0  0  0  0  0  0  0  0  0  0
  151.7115  141.6872  158.4509 N   0  0  0  0  0  0  0  0  0  0  0  0
  152.7715  141.9932  159.3082 C   0  0  0  0  0  0  0  0  0  0  0  0
  153.1127  143.3229  159.3060 C   0  0  0  0  0  0  0  0  0  0  0  0
  152.1126  144.2486  158.2183 S   0  0  0  0  0  0  0  0  0  0  0  0
  147.1220  142.0332  153.4797 C   0  0  0  0  0  0  0  0  0  0  0  0
  145.9060  142.6751  154.1722 C   0  0  0  0  0  0  0  0  0  0  0  0
  143.0346  146.6191  155.2640 H   0  0  0  0  0  0  0  0  0  0  0  0
  144.6833  146.2667  155.7185 H   0  0  0  0  0  0  0  0  0  0  0  0
  143.4077  146.1940  156.9162 H   0  0  0  0  0  0  0  0  0  0  0  0
  143.3482  141.4712  156.0948 H   0  0  0  0  0  0  0  0  0  0  0  0
  143.1089  142.4168  154.6450 H   0  0  0  0  0  0  0  0  0  0  0  0
  146.1914  141.5580  156.6593 H   0  0  0  0  0  0  0  0  0  0  0  0
  145.2357  140.1282  156.3251 H   0  0  0  0  0  0  0  0  0  0  0  0
  147.6495  139.6568  155.9570 H   0  0  0  0  0  0  0  0  0  0  0  0
  146.7185  139.4512  154.5007 H   0  0  0  0  0  0  0  0  0  0  0  0
  148.7142  140.6530  153.8756 H   0  0  0  0  0  0  0  0  0  0  0  0
  148.3853  143.0458  155.4271 H   0  0  0  0  0  0  0  0  0  0  0  0
  149.7089  143.6366  156.7541 H   0  0  0  0  0  0  0  0  0  0  0  0
  153.2259  141.2009  159.8849 H   0  0  0  0  0  0  0  0  0  0  0  0
  153.8894  143.8114  159.8755 H   0  0  0  0  0  0  0  0  0  0  0  0
  147.7305  142.8021  153.0019 H   0  0  0  0  0  0  0  0  0  0  0  0
  146.7699  141.3847  152.6763 H   0  0  0  0  0  0  0  0  0  0  0  0
  145.3132  143.1997  153.4227 H   0  0  0  0  0  0  0  0  0  0  0  0
  146.2322  143.4263  154.8929 H   0  0  0  0  0  0  0  0  0  0  0  0
  144.7826  140.9865  154.1614 H   0  0  0  0  0  0  0  0  0  0  0  0
  1  2  1  0  0  0  0
  1 21  1  0  0  0  0
  1 22  1  0  0  0  0
  1 23  1  0  0  0  0
  2  3  1  0  0  0  0
  3  4  2  0  0  0  0
  3  5  1  0  0  0  0
  5  6  1  0  0  0  0
  5 24  1  0  0  0  0
  5 25  1  0  0  0  0
  6 20  1  0  0  0  0
  6  7  1  0  0  0  0
  6 39  1  0  0  0  0
  7  8  1  0  0  0  0
  7 26  1  0  0  0  0
  7 27  1  0  0  0  0
  8  9  1  0  0  0  0
  8 28  1  0  0  0  0
  8 29  1  0  0  0  0
  9 10  1  0  0  0  0
  9 19  1  0  0  0  0
  9 30  1  0  0  0  0
 10 11  1  0  0  0  0
 10 31  1  0  0  0  0
 11 12  2  0  0  0  0
 11 13  1  0  0  0  0
 13 14  1  0  0  0  0
 13 32  1  0  0  0  0
 14 18  1  0  0  0  0
 14 15  2  0  0  0  0
 15 16  1  0  0  0  0
 16 17  2  0  0  0  0
 16 33  1  0  0  0  0
 17 18  1  0  0  0  0
 17 34  1  0  0  0  0
 19 20  1  0  0  0  0
 19 35  1  0  0  0  0
 19 36  1  0  0  0  0
 20 37  1  0  0  0  0
 20 38  1  0  0  0  0
M  CHG  1   2  -1
M  CHG  1   6   1
M  END
> <s_m_source_file>
AV-unprocessed.smi

> <i_m_source_file_index>
1813

> <i_lp_mmshare_version>
43012

> <i_f3d_flags>
0

> <s_epik_input>
W0NIM11bTkhdQyg9TylbQ0gyXU4xW0NIMl1bQ0gyXVtDSF0oW0NIMl1bQ0gyXTEpW05IXUMoPU8pW05IXWMybltjSF1bY0hdczI=

> <s_epik_cmdline>
J2VwaWtfcHl0aG9uJywgJy1waCcsICc3LjAnLCAnLXRuJywgJzgnLCAnLW1hJywgJzIwMCcsICctbWV0YWxfYmluZGluZycsICctaW1hZScsICc8aW5maWxlLm1hZT4nLCAnLW9tYWUnLCAnPG91dGZpbGUubWFlPic=

> <r_lp_tautomer_probability>
0.999

> <r_epik_Ionization_Penalty>
6.14232

> <r_epik_Ionization_Penalty_Charging>
6.14218

> <r_epik_Ionization_Penalty_Neutral>
0.000139308

> <r_epik_State_Penalty>
6.98503

> <r_epik_Charging_Adjusted_Penalty>
13.1272

> <i_epik_Tot_Q>
0

> <i_epik_Tot_abs_Q>
2

> <r_epik_Metal_State_Penalty>
2.95036

> <b_epik_Metal_Only>
1

> <s_lp_Force_Field>
OPLS_2005

> <r_lp_Energy>
8.34863

> <b_lp_Chiralities_Consistent>
1

> <s_lp_Variant>
AV-unprocessed.smi:1813-6

> <Gold.Version>
5.8.1

> <Gold.Id.Protein>
6NUR|6NUR_protein|mol2

> <Gold.PLP.Fitness>
44.3313

> <Gold.PLP.PLP>
-33.4000

> <Gold.PLP.part.hbond>
-3.0000

> <Gold.PLP.part.metal>
0.0000

> <Gold.PLP.part.buried>
-6.1022

> <Gold.PLP.part.nonpolar>
-25.9835

> <Gold.PLP.part.repulsive>
0.3523

> <Gold.PLP.ligand.clash>
0.0000

> <Gold.PLP.ligand.torsion>
0.5237

> <Gold.PLP.Chemscore.Hbond>
3.9760

> <Gold.PLP.Chemscore.CHOScore>
0.0000

> <Gold.PLP.Chemscore.Metal>
0.0000

> <Gold.Chemscore.Hbonds>
donor molecule, donor type, donor heavy atom, donor atom, acceptor molecule, acceptor atom, score
      L1  H     6    39       P1 10175  1.85
      L1  H    10    31       P1  8028  0.93
      L1  H    13    32       P1  8028  0.96

> <Gold.PLP.Chemscore.Internal.Correction>
0.0507

> <Gold.Rescore>
     Score         DG    S(hbond)    S(metal)    S(lipo)     H(rot)  DE(clash)    DE(int)     intcor
     16.17     -18.02       2.66        0.00      68.99       1.73       0.14       1.71       ----

> <Gold.Chemscore.Fitness>
16.1668

> <Gold.Chemscore.DG>
-18.0161

> <Gold.Chemscore.ZeroCoef>
-5.4800

> <Gold.Chemscore.Hbond>
2.6636

> <Gold.Chemscore.Metal>
0.0000

> <Gold.Chemscore.Lipo>
68.9881

> <Gold.Chemscore.Internal_Hbond>
0.0000

> <Gold.Chemscore.DEClash>
0.1388

> <Gold.Chemscore.DEInternal>
1.7105

> <Gold.Chemscore.Rot>
1.7312

> <Gold.Chemscore.Internal.Correction>
   9.000000E+99

> <Gold.Chemscore.Hbonds>
donor molecule, donor type, donor heavy atom, donor atom, acceptor molecule, acceptor atom, score
      L1  H     6    39       P1 10175  0.76
      L1  H    10    31       P1  8028  0.90
      L1  H    13    32       P1  8028  0.92

> <Gold.Chemscore.Hbond.Weighted>
-8.8964

> <Gold.Chemscore.Metal.Weighted>
-0.0000

> <Gold.Chemscore.Lipo.Weighted>
-8.0716

> <Gold.Chemscore.Internal_Hbond.Weighted>
0.0000

> <Gold.Chemscore.DEClash.Weighted>
0.1388

> <Gold.Chemscore.DEInternal.Weighted>
1.7105

> <Gold.Chemscore.Rot.Weighted>
4.4319

> <Gold.Chemscore.Internal.Correction.Weighted>
   9.000000E+99

> <Gold.Protein.RotatedTorsions>
[ 6907 6896 6895 6894 ] final  164.66 input  -60.11 | X-H torsion
[ 7974 7965 7964 7962 ] final  -85.82 input  175.53 | X-H torsion
[ 8008 7997 7996 7995 ] final -109.43 input   59.86 | X-H torsion
[ 10167 10162 10161 10158 ] final  162.59 input  -65.29 | X-H torsion
[ 10718 10713 10712 10709 ] final   98.77 input   66.30 | X-H torsion
[ 10763 10752 10751 10750 ] final  -18.64 input  -60.55 | X-H torsion
[ 11005 11000 10999 10996 ] final  106.50 input  -57.11 | X-H torsion

> <Gold.Protein.ActiveResidues>
 VAL166  LYS551  ARG553  GLY616  TRP617  ASP618  TYR619  PRO620  LYS621  CYS622 
 ASP623  PHE694  ASN695  SER759  ASP760  ASP761  ALA762  ILE779  LEU786  VAL792 
 PHE793  MET794  SER795  GLU796  ALA797  LYS798  CYS799  TRP800  GLU811  SER814 

> <Gold.Protein.RotatedAtoms>
  151.9064  133.3550  159.3848 H   0  0  0  0  0  0  0  0  0  0  0  0  # atno 6907 bound_to 6896
  150.7068  134.4776  159.5464 H   0  0  0  0  0  0  0  0  0  0  0  0  # atno 6908 bound_to 6896
  152.2374  134.8262  160.0516 H   0  0  0  0  0  0  0  0  0  0  0  0  # atno 6909 bound_to 6896
  145.4882  140.9554  143.1826 H   0  0  0  0  0  0  0  0  0  0  0  0  # atno 7974 bound_to 7965
  154.9592  140.0399  157.2182 H   0  0  0  0  0  0  0  0  0  0  0  0  # atno 8008 bound_to 7997
  154.7905  140.2834  155.5973 H   0  0  0  0  0  0  0  0  0  0  0  0  # atno 8009 bound_to 7997
  156.2949  140.2574  156.2751 H   0  0  0  0  0  0  0  0  0  0  0  0  # atno 8010 bound_to 7997
  139.4862  144.4423  151.8936 H   0  0  0  0  0  0  0  0  0  0  0  0  # atno 10167 bound_to 10162
  157.6889  131.0650  150.4847 H   0  0  0  0  0  0  0  0  0  0  0  0  # atno 10718 bound_to 10713
  153.5924  135.7002  153.5418 H   0  0  0  0  0  0  0  0  0  0  0  0  # atno 10763 bound_to 10752
  153.3167  135.4085  155.1382 H   0  0  0  0  0  0  0  0  0  0  0  0  # atno 10764 bound_to 10752
  154.8598  135.3685  154.5456 H   0  0  0  0  0  0  0  0  0  0  0  0  # atno 10765 bound_to 10752
  139.8815  134.9371  156.5677 H   0  0  0  0  0  0  0  0  0  0  0  0  # atno 11005 bound_to 11000
  144.7849  139.6448  143.7138 LP  0  0  0  0  0  0  0  0  0  0  0  0  # atno 17320 bound_to 7965
  146.2300  139.5795  142.9561 LP  0  0  0  0  0  0  0  0  0  0  0  0  # atno 17321 bound_to 7965
  140.3875  144.2658  150.5902 LP  0  0  0  0  0  0  0  0  0  0  0  0  # atno 17342 bound_to 10162
  140.5177  143.2274  151.8438 LP  0  0  0  0  0  0  0  0  0  0  0  0  # atno 17343 bound_to 10162
  156.5177  130.4154  149.6267 LP  0  0  0  0  0  0  0  0  0  0  0  0  # atno 17370 bound_to 10713
  156.3183  130.7266  151.2173 LP  0  0  0  0  0  0  0  0  0  0  0  0  # atno 17371 bound_to 10713
  140.8122  133.8420  155.8820 LP  0  0  0  0  0  0  0  0  0  0  0  0  # atno 17394 bound_to 11000
  140.9496  134.1796  157.4738 LP  0  0  0  0  0  0  0  0  0  0  0  0  # atno 17395 bound_to 11000

$$$$
