AV-unprocessed.smi:212|AV-procd|sdf|1629|dock2
  -GOLD-   2262019573D 1   1.00000     0.00000
 Structure written by MMmdl.
 65 68  0  0  0  0  0  0  0  0  2 V2000
  151.1551  133.9766  156.1310 C   0  0  0  0  0  0  0  0  0  0  0  0
  149.6713  134.0256  155.7187 C   0  0  2  0  0  0  0  0  0  0  0  0
  149.4254  133.6069  154.2524 C   0  0  0  0  0  0  0  0  0  0  0  0
  147.9744  133.6116  153.9302 N   0  3  2  0  0  0  0  0  0  0  0  0
  147.6817  133.1508  152.5469 C   0  0  0  0  0  0  0  0  0  0  0  0
  146.4902  132.1661  152.4851 C   0  0  0  0  0  0  0  0  0  0  0  0
  146.0175  131.9992  151.0311 C   0  0  0  0  0  0  0  0  0  0  0  0
  146.8343  130.7938  153.0938 C   0  0  0  0  0  0  0  0  0  0  0  0
  145.3995  132.7100  153.2018 O   0  0  0  0  0  0  0  0  0  0  0  0
  147.3206  134.9028  154.2711 C   0  0  0  0  0  0  0  0  0  0  0  0
  147.5711  135.2796  155.7433 C   0  0  0  0  0  0  0  0  0  0  0  0
  149.0007  135.2922  156.0392 N   0  0  0  0  0  0  0  0  0  0  0  0
  149.5817  136.4868  155.7577 C   0  0  0  0  0  0  0  0  0  0  0  0
  149.5645  136.9890  154.4949 N   0  0  0  0  0  0  0  0  0  0  0  0
  150.1116  138.1808  154.2364 C   0  0  0  0  0  0  0  0  0  0  0  0
  150.7073  139.0263  155.0799 N   0  0  0  0  0  0  0  0  0  0  0  0
  150.7170  138.5309  156.3502 C   0  0  0  0  0  0  0  0  0  0  0  0
  150.1820  137.2817  156.7714 C   0  0  0  0  0  0  0  0  0  0  0  0
  150.3770  137.1154  158.1369 N   0  0  0  0  0  0  0  0  0  0  0  0
  150.9900  138.2079  158.5040 C   0  0  0  0  0  0  0  0  0  0  0  0
  151.2248  139.1160  157.4959 N   0  0  0  0  0  0  0  0  0  0  0  0
  151.8736  140.4089  157.6196 C   0  0  0  0  0  0  0  0  0  0  0  0
  152.1786  140.8237  159.0841 C   0  0  1  0  0  0  0  0  0  0  0  0
  153.1974  139.8760  159.7689 C   0  0  0  0  0  0  0  0  0  0  0  0
  154.2662  139.5363  158.9089 O   0  0  0  0  0  0  0  0  0  0  0  0
  152.6663  142.2952  159.1380 C   0  0  1  0  0  0  0  0  0  0  0  0
  151.8440  143.2749  158.3169 C   0  0  0  0  0  0  0  0  0  0  0  0
  152.2407  144.6142  158.9241 C   0  0  0  0  0  0  0  0  0  0  0  0
  152.4285  144.3535  160.3083 O   0  0  0  0  0  0  0  0  0  0  0  0
  152.5820  142.9534  160.5226 C   0  0  0  0  0  0  0  0  0  0  0  0
  151.5494  132.9656  156.0243 H   0  0  0  0  0  0  0  0  0  0  0  0
  151.2808  134.2666  157.1745 H   0  0  0  0  0  0  0  0  0  0  0  0
  151.7814  134.6292  155.5237 H   0  0  0  0  0  0  0  0  0  0  0  0
  149.1722  133.2812  156.3410 H   0  0  0  0  0  0  0  0  0  0  0  0
  149.9532  134.2643  153.5613 H   0  0  0  0  0  0  0  0  0  0  0  0
  149.8223  132.6034  154.0927 H   0  0  0  0  0  0  0  0  0  0  0  0
  147.5092  134.0080  151.8934 H   0  0  0  0  0  0  0  0  0  0  0  0
  148.5583  132.6475  152.1352 H   0  0  0  0  0  0  0  0  0  0  0  0
  146.8047  131.5751  150.4064 H   0  0  0  0  0  0  0  0  0  0  0  0
  145.7300  132.9556  150.5921 H   0  0  0  0  0  0  0  0  0  0  0  0
  145.1547  131.3351  150.9652 H   0  0  0  0  0  0  0  0  0  0  0  0
  147.6815  130.3371  152.5808 H   0  0  0  0  0  0  0  0  0  0  0  0
  145.9933  130.1039  153.0146 H   0  0  0  0  0  0  0  0  0  0  0  0
  147.0909  130.8696  154.1510 H   0  0  0  0  0  0  0  0  0  0  0  0
  145.6870  132.9152  154.0789 H   0  0  0  0  0  0  0  0  0  0  0  0
  147.7028  135.6866  153.6151 H   0  0  0  0  0  0  0  0  0  0  0  0
  146.2478  134.8384  154.0912 H   0  0  0  0  0  0  0  0  0  0  0  0
  147.1129  136.2445  155.9658 H   0  0  0  0  0  0  0  0  0  0  0  0
  147.0885  134.5548  156.3999 H   0  0  0  0  0  0  0  0  0  0  0  0
  150.0628  138.5049  153.2073 H   0  0  0  0  0  0  0  0  0  0  0  0
  151.2804  138.3871  159.5289 H   0  0  0  0  0  0  0  0  0  0  0  0
  152.7958  140.3877  157.0375 H   0  0  0  0  0  0  0  0  0  0  0  0
  151.2236  141.1406  157.1399 H   0  0  0  0  0  0  0  0  0  0  0  0
  151.2462  140.7751  159.6492 H   0  0  0  0  0  0  0  0  0  0  0  0
  153.5891  140.3235  160.6831 H   0  0  0  0  0  0  0  0  0  0  0  0
  152.7313  138.9351  160.0573 H   0  0  0  0  0  0  0  0  0  0  0  0
  154.2880  138.5961  158.8135 H   0  0  0  0  0  0  0  0  0  0  0  0
  153.7005  142.3460  158.7927 H   0  0  0  0  0  0  0  0  0  0  0  0
  152.0550  143.2286  157.2483 H   0  0  0  0  0  0  0  0  0  0  0  0
  150.7774  143.0975  158.4639 H   0  0  0  0  0  0  0  0  0  0  0  0
  153.1860  144.9578  158.5021 H   0  0  0  0  0  0  0  0  0  0  0  0
  151.4918  145.3894  158.7591 H   0  0  0  0  0  0  0  0  0  0  0  0
  151.7092  142.5971  161.0712 H   0  0  0  0  0  0  0  0  0  0  0  0
  153.4647  142.7542  161.1305 H   0  0  0  0  0  0  0  0  0  0  0  0
  147.5610  132.9213  154.5406 H   0  0  0  0  0  0  0  0  0  0  0  0
  1  2  1  0  0  0  0
  1 31  1  0  0  0  0
  1 32  1  0  0  0  0
  1 33  1  0  0  0  0
  2 12  1  0  0  0  0
  2  3  1  0  0  0  0
  2 34  1  0  0  0  0
  3  4  1  0  0  0  0
  3 35  1  0  0  0  0
  3 36  1  0  0  0  0
  4  5  1  0  0  0  0
  4 10  1  0  0  0  0
  4 65  1  0  0  0  0
  5  6  1  0  0  0  0
  5 37  1  0  0  0  0
  5 38  1  0  0  0  0
  6  7  1  0  0  0  0
  6  8  1  0  0  0  0
  6  9  1  0  0  0  0
  7 39  1  0  0  0  0
  7 40  1  0  0  0  0
  7 41  1  0  0  0  0
  8 42  1  0  0  0  0
  8 43  1  0  0  0  0
  8 44  1  0  0  0  0
  9 45  1  0  0  0  0
 10 11  1  0  0  0  0
 10 46  1  0  0  0  0
 10 47  1  0  0  0  0
 11 12  1  0  0  0  0
 11 48  1  0  0  0  0
 11 49  1  0  0  0  0
 12 13  1  0  0  0  0
 13 18  1  0  0  0  0
 13 14  2  0  0  0  0
 14 15  1  0  0  0  0
 15 16  2  0  0  0  0
 15 50  1  0  0  0  0
 16 17  1  0  0  0  0
 17 21  1  0  0  0  0
 17 18  2  0  0  0  0
 18 19  1  0  0  0  0
 19 20  2  0  0  0  0
 20 21  1  0  0  0  0
 20 51  1  0  0  0  0
 21 22  1  0  0  0  0
 22 23  1  0  0  0  0
 22 52  1  0  0  0  0
 22 53  1  0  0  0  0
 23 24  1  0  0  0  0
 23 26  1  0  0  0  0
 23 54  1  0  0  0  0
 24 25  1  0  0  0  0
 24 55  1  0  0  0  0
 24 56  1  0  0  0  0
 25 57  1  0  0  0  0
 26 30  1  0  0  0  0
 26 27  1  0  0  0  0
 26 58  1  0  0  0  0
 27 28  1  0  0  0  0
 27 59  1  0  0  0  0
 27 60  1  0  0  0  0
 28 29  1  0  0  0  0
 28 61  1  0  0  0  0
 28 62  1  0  0  0  0
 29 30  1  0  0  0  0
 30 63  1  0  0  0  0
 30 64  1  0  0  0  0
M  CHG  1   4   1
M  END
> <s_m_source_file>
AV-unprocessed.smi

> <i_m_source_file_index>
212

> <i_lp_mmshare_version>
43012

> <i_f3d_flags>
0

> <s_epik_input>
W0NIM11bQ0BASF0xW0NIMl1OKFtDSDJdQyhbQ0gzXSkoW0NIM10pW09IXSlbQ0gyXVtDSDJdTjFjKG5bY0hdbjIpYyhjMjMpbltjSF1uM1tDSDJdW0NASF0oW0NIMl1bT0hdKVtDQEBIXTRbQ0gyXVtDSDJdT1tDSDJdNA==

> <s_epik_cmdline>
J2VwaWtfcHl0aG9uJywgJy1waCcsICc3LjAnLCAnLXRuJywgJzgnLCAnLW1hJywgJzIwMCcsICctbWV0YWxfYmluZGluZycsICctaW1hZScsICc8aW5maWxlLm1hZT4nLCAnLW9tYWUnLCAnPG91dGZpbGUubWFlPic=

> <r_lp_tautomer_probability>
1

> <r_epik_Ionization_Penalty>
0.00182193

> <r_epik_Ionization_Penalty_Charging>
0.00173996

> <r_epik_Ionization_Penalty_Neutral>
8.19718e-05

> <r_epik_State_Penalty>
-0

> <r_epik_Charging_Adjusted_Penalty>
0.00173996

> <i_epik_Tot_Q>
1

> <i_epik_Tot_abs_Q>
1

> <r_epik_Metal_State_Penalty>
-0

> <b_epik_Metal_Only>
0

> <s_lp_Force_Field>
OPLS_2005

> <r_lp_Energy>
57.8479

> <b_lp_Chiralities_Consistent>
1

> <s_lp_Variant>
AV-unprocessed.smi:212-13

> <Gold.Version>
5.8.1

> <Gold.Id.Protein>
6NUR|6NUR_protein|mol2

> <Gold.PLP.Fitness>
46.7985

> <Gold.PLP.PLP>
-41.7226

> <Gold.PLP.part.hbond>
-1.3759

> <Gold.PLP.part.metal>
0.0000

> <Gold.PLP.part.buried>
-6.2444

> <Gold.PLP.part.nonpolar>
-36.6823

> <Gold.PLP.part.repulsive>
2.6275

> <Gold.PLP.ligand.clash>
0.0000

> <Gold.PLP.ligand.torsion>
1.3361

> <Gold.PLP.Chemscore.Hbond>
1.0000

> <Gold.PLP.Chemscore.CHOScore>
1.1169

> <Gold.PLP.Chemscore.Metal>
0.0000

> <Gold.Chemscore.Hbonds>
donor molecule, donor type, donor heavy atom, donor atom, acceptor molecule, acceptor atom, score
      P1  H  7997  8008       L1    25  0.95
      L1  C    15    50       P1  7948  0.14
      L1  C    15    50       P1  7957  0.87

> <Gold.PLP.Chemscore.Internal.Correction>
1.3974

> <Gold.Rescore>
     Score         DG    S(hbond)    S(metal)    S(lipo)     H(rot)  DE(clash)    DE(int)     intcor
      9.36     -12.32       0.97        0.00     111.22       3.68       1.50       1.45       ----

> <Gold.Chemscore.Fitness>
9.3614

> <Gold.Chemscore.DG>
-12.3165

> <Gold.Chemscore.ZeroCoef>
-5.4800

> <Gold.Chemscore.Hbond>
0.9724

> <Gold.Chemscore.Metal>
0.0000

> <Gold.Chemscore.Lipo>
111.2178

> <Gold.Chemscore.Internal_Hbond>
0.0000

> <Gold.Chemscore.DEClash>
1.5012

> <Gold.Chemscore.DEInternal>
1.4539

> <Gold.Chemscore.Rot>
3.6812

> <Gold.Chemscore.Internal.Correction>
   9.000000E+99

> <Gold.Chemscore.Hbonds>
donor molecule, donor type, donor heavy atom, donor atom, acceptor molecule, acceptor atom, score
      P1  H  7997  8008       L1    25  0.22

> <Gold.Chemscore.Hbond.Weighted>
-3.2479

> <Gold.Chemscore.Metal.Weighted>
-0.0000

> <Gold.Chemscore.Lipo.Weighted>
-13.0125

> <Gold.Chemscore.Internal_Hbond.Weighted>
0.0000

> <Gold.Chemscore.DEClash.Weighted>
1.5012

> <Gold.Chemscore.DEInternal.Weighted>
1.4539

> <Gold.Chemscore.Rot.Weighted>
9.4239

> <Gold.Chemscore.Internal.Correction.Weighted>
   9.000000E+99

> <Gold.Protein.RotatedTorsions>
[ 6907 6896 6895 6894 ] final -164.92 input  -60.11 | X-H torsion
[ 7974 7965 7964 7962 ] final   81.89 input  175.53 | X-H torsion
[ 8008 7997 7996 7995 ] final -103.61 input   59.86 | X-H torsion
[ 10167 10162 10161 10158 ] final -160.49 input  -65.29 | X-H torsion
[ 10718 10713 10712 10709 ] final   90.32 input   66.30 | X-H torsion
[ 10763 10752 10751 10750 ] final  102.20 input  -60.55 | X-H torsion
[ 11005 11000 10999 10996 ] final -115.39 input  -57.11 | X-H torsion

> <Gold.Protein.ActiveResidues>
 VAL166  LYS551  ARG553  GLY616  TRP617  ASP618  TYR619  PRO620  LYS621  CYS622 
 ASP623  PHE694  ASN695  SER759  ASP760  ASP761  ALA762  ILE779  LEU786  VAL792 
 PHE793  MET794  SER795  GLU796  ALA797  LYS798  CYS799  TRP800  GLU811  SER814 

> <Gold.Protein.RotatedAtoms>
  151.4195  133.3702  159.2754 H   0  0  0  0  0  0  0  0  0  0  0  0  # atno 6907 bound_to 6896
  150.9304  134.8720  159.7558 H   0  0  0  0  0  0  0  0  0  0  0  0  # atno 6908 bound_to 6896
  152.5025  134.4140  159.9510 H   0  0  0  0  0  0  0  0  0  0  0  0  # atno 6909 bound_to 6896
  145.6322  139.2407  143.2078 H   0  0  0  0  0  0  0  0  0  0  0  0  # atno 7974 bound_to 7965
  154.8733  140.0422  157.1738 H   0  0  0  0  0  0  0  0  0  0  0  0  # atno 8008 bound_to 7997
  154.8716  140.2959  155.5457 H   0  0  0  0  0  0  0  0  0  0  0  0  # atno 8009 bound_to 7997
  156.2999  140.2428  156.3705 H   0  0  0  0  0  0  0  0  0  0  0  0  # atno 8010 bound_to 7997
  139.6535  144.0041  152.2178 H   0  0  0  0  0  0  0  0  0  0  0  0  # atno 10167 bound_to 10162
  157.6958  131.0366  150.3560 H   0  0  0  0  0  0  0  0  0  0  0  0  # atno 10718 bound_to 10713
  153.3365  135.4018  155.1537 H   0  0  0  0  0  0  0  0  0  0  0  0  # atno 10763 bound_to 10752
  154.8634  135.3623  154.5402 H   0  0  0  0  0  0  0  0  0  0  0  0  # atno 10764 bound_to 10752
  153.5844  135.7075  153.5509 H   0  0  0  0  0  0  0  0  0  0  0  0  # atno 10765 bound_to 10752
  141.0491  133.9716  157.2868 H   0  0  0  0  0  0  0  0  0  0  0  0  # atno 11005 bound_to 11000
  146.1347  140.7138  142.9395 LP  0  0  0  0  0  0  0  0  0  0  0  0  # atno 17320 bound_to 7965
  144.7189  140.4306  143.7023 LP  0  0  0  0  0  0  0  0  0  0  0  0  # atno 17321 bound_to 7965
  139.9761  144.6460  150.7944 LP  0  0  0  0  0  0  0  0  0  0  0  0  # atno 17342 bound_to 10162
  140.7548  143.3035  151.3020 LP  0  0  0  0  0  0  0  0  0  0  0  0  # atno 17343 bound_to 10162
  156.4002  130.3914  149.6965 LP  0  0  0  0  0  0  0  0  0  0  0  0  # atno 17370 bound_to 10713
  156.4285  130.7803  151.2822 LP  0  0  0  0  0  0  0  0  0  0  0  0  # atno 17371 bound_to 10713
  139.9335  135.0198  156.8480 LP  0  0  0  0  0  0  0  0  0  0  0  0  # atno 17394 bound_to 11000
  140.6090  134.0100  155.7569 LP  0  0  0  0  0  0  0  0  0  0  0  0  # atno 17395 bound_to 11000

$$$$
