AV-unprocessed.smi:1005|AV-procd|sdf|4362|dock8
  -GOLD-   22720 2263D 1   1.00000     0.00000
 Structure written by MMmdl.
 56 58  0  0  0  0  0  0  0  0  2 V2000
  152.8529  142.7791  161.0410 C   0  0  0  0  0  0  0  0  0  0  0  0
  152.2192  142.4289  159.7061 C   0  0  0  0  0  0  0  0  0  0  0  0
  152.6719  141.2857  159.0093 C   0  0  0  0  0  0  0  0  0  0  0  0
  152.1104  140.9268  157.7643 C   0  0  0  0  0  0  0  0  0  0  0  0
  152.3958  139.8667  156.9207 N   0  0  0  0  0  0  0  0  0  0  0  0
  151.5422  140.0800  155.9236 C   0  0  0  0  0  0  0  0  0  0  0  0
  150.7318  141.1512  156.0246 N   0  0  0  0  0  0  0  0  0  0  0  0
  149.7253  141.5848  155.0719 C   0  0  0  0  0  0  0  0  0  0  0  0
  148.7062  140.4759  154.7439 C   0  0  2  0  0  0  0  0  0  0  0  0
  148.0697  140.8000  153.5220 O   0  0  0  0  0  0  0  0  0  0  0  0
  147.6396  140.3327  155.8502 C   0  0  0  0  0  0  0  0  0  0  0  0
  146.8899  141.5512  156.1596 N   0  0  0  0  0  0  0  0  0  0  0  0
  145.7750  141.7250  155.2354 C   0  0  0  0  0  0  0  0  0  0  0  0
  144.9679  142.9970  155.5424 C   0  0  0  0  0  0  0  0  0  0  0  0
  144.5108  142.9531  156.8901 O   0  0  0  0  0  0  0  0  0  0  0  0
  145.5723  142.8426  157.8353 C   0  0  1  0  0  0  0  0  0  0  0  0
  144.9574  142.8022  159.2456 C   0  0  0  0  0  0  0  0  0  0  0  0
  145.9833  142.7201  160.3162 N   0  3  0  0  0  0  0  0  0  0  0  0
  145.4088  142.5718  161.6735 C   0  0  0  0  0  0  0  0  0  0  0  0
  146.9433  143.8443  160.2536 C   0  0  0  0  0  0  0  0  0  0  0  0
  146.3777  141.5641  157.5277 C   0  0  0  0  0  0  0  0  0  0  0  0
  151.0748  141.7493  157.2319 C   0  0  0  0  0  0  0  0  0  0  0  0
  150.6153  142.8885  157.9157 C   0  0  0  0  0  0  0  0  0  0  0  0
  151.1870  143.2326  159.1585 C   0  0  0  0  0  0  0  0  0  0  0  0
  150.6842  144.4654  159.8890 C   0  0  0  0  0  0  0  0  0  0  0  0
  153.6517  142.0825  161.2979 H   0  0  0  0  0  0  0  0  0  0  0  0
  152.1089  142.7441  161.8375 H   0  0  0  0  0  0  0  0  0  0  0  0
  153.2813  143.7814  161.0103 H   0  0  0  0  0  0  0  0  0  0  0  0
  153.4575  140.6729  159.4262 H   0  0  0  0  0  0  0  0  0  0  0  0
  151.4997  139.4168  155.0718 H   0  0  0  0  0  0  0  0  0  0  0  0
  149.2165  142.4530  155.4927 H   0  0  0  0  0  0  0  0  0  0  0  0
  150.2250  141.9260  154.1637 H   0  0  0  0  0  0  0  0  0  0  0  0
  149.2403  139.5326  154.6223 H   0  0  0  0  0  0  0  0  0  0  0  0
  148.6487  140.5655  152.8125 H   0  0  0  0  0  0  0  0  0  0  0  0
  146.9203  139.5866  155.5099 H   0  0  0  0  0  0  0  0  0  0  0  0
  148.0819  139.9132  156.7555 H   0  0  0  0  0  0  0  0  0  0  0  0
  146.1464  141.7739  154.2109 H   0  0  0  0  0  0  0  0  0  0  0  0
  145.1136  140.8585  155.2859 H   0  0  0  0  0  0  0  0  0  0  0  0
  145.5757  143.8894  155.3843 H   0  0  0  0  0  0  0  0  0  0  0  0
  144.1085  143.0713  154.8758 H   0  0  0  0  0  0  0  0  0  0  0  0
  146.2348  143.7031  157.7358 H   0  0  0  0  0  0  0  0  0  0  0  0
  144.3613  143.7059  159.3827 H   0  0  0  0  0  0  0  0  0  0  0  0
  144.2670  141.9625  159.3397 H   0  0  0  0  0  0  0  0  0  0  0  0
  144.7867  143.4301  161.9309 H   0  0  0  0  0  0  0  0  0  0  0  0
  146.2019  142.4939  162.4180 H   0  0  0  0  0  0  0  0  0  0  0  0
  144.8014  141.6714  161.7571 H   0  0  0  0  0  0  0  0  0  0  0  0
  146.4404  144.7976  160.4225 H   0  0  0  0  0  0  0  0  0  0  0  0
  147.4335  143.8827  159.2801 H   0  0  0  0  0  0  0  0  0  0  0  0
  147.7222  143.7299  161.0082 H   0  0  0  0  0  0  0  0  0  0  0  0
  145.7503  140.6868  157.6942 H   0  0  0  0  0  0  0  0  0  0  0  0
  147.2031  141.4973  158.2360 H   0  0  0  0  0  0  0  0  0  0  0  0
  149.8293  143.4920  157.4861 H   0  0  0  0  0  0  0  0  0  0  0  0
  149.8562  144.9337  159.3559 H   0  0  0  0  0  0  0  0  0  0  0  0
  151.4816  145.2028  159.9842 H   0  0  0  0  0  0  0  0  0  0  0  0
  150.3328  144.2033  160.8871 H   0  0  0  0  0  0  0  0  0  0  0  0
  146.5209  141.8846  160.1315 H   0  0  0  0  0  0  0  0  0  0  0  0
  1  2  1  0  0  0  0
  1 26  1  0  0  0  0
  1 27  1  0  0  0  0
  1 28  1  0  0  0  0
  2 24  1  0  0  0  0
  2  3  2  0  0  0  0
  3  4  1  0  0  0  0
  3 29  1  0  0  0  0
  4 22  2  0  0  0  0
  4  5  1  0  0  0  0
  5  6  2  0  0  0  0
  6  7  1  0  0  0  0
  6 30  1  0  0  0  0
  7  8  1  0  0  0  0
  7 22  1  0  0  0  0
  8  9  1  0  0  0  0
  8 31  1  0  0  0  0
  8 32  1  0  0  0  0
  9 10  1  0  0  0  0
  9 11  1  0  0  0  0
  9 33  1  0  0  0  0
 10 34  1  0  0  0  0
 11 12  1  0  0  0  0
 11 35  1  0  0  0  0
 11 36  1  0  0  0  0
 12 21  1  0  0  0  0
 12 13  1  0  0  0  0
 13 14  1  0  0  0  0
 13 37  1  0  0  0  0
 13 38  1  0  0  0  0
 14 15  1  0  0  0  0
 14 39  1  0  0  0  0
 14 40  1  0  0  0  0
 15 16  1  0  0  0  0
 16 17  1  0  0  0  0
 16 21  1  0  0  0  0
 16 41  1  0  0  0  0
 17 18  1  0  0  0  0
 17 42  1  0  0  0  0
 17 43  1  0  0  0  0
 18 19  1  0  0  0  0
 18 20  1  0  0  0  0
 18 56  1  0  0  0  0
 19 44  1  0  0  0  0
 19 45  1  0  0  0  0
 19 46  1  0  0  0  0
 20 47  1  0  0  0  0
 20 48  1  0  0  0  0
 20 49  1  0  0  0  0
 21 50  1  0  0  0  0
 21 51  1  0  0  0  0
 22 23  1  0  0  0  0
 23 24  2  0  0  0  0
 23 52  1  0  0  0  0
 24 25  1  0  0  0  0
 25 53  1  0  0  0  0
 25 54  1  0  0  0  0
 25 55  1  0  0  0  0
M  CHG  1  18   1
M  END
> <s_m_source_file>
AV-unprocessed.smi

> <i_m_source_file_index>
1005

> <i_lp_mmshare_version>
43012

> <i_f3d_flags>
0

> <s_epik_input>
W0NIM11jKFtjSF0xKWMoW0NIM10pW2NIXWMoYzEyKW4oW2NIXW4yKVtDSDJdW0NASF0oW09IXSlbQ0gyXU4zW0NIMl1bQ0gyXU9bQ0BIXShbQ0gyXTMpW0NIMl1OKFtDSDNdKVtDSDNd

> <s_epik_cmdline>
J2VwaWtfcHl0aG9uJywgJy1waCcsICc3LjAnLCAnLXRuJywgJzgnLCAnLW1hJywgJzIwMCcsICctbWV0YWxfYmluZGluZycsICctaW1hZScsICc8aW5maWxlLm1hZT4nLCAnLW9tYWUnLCAnPG91dGZpbGUubWFlPic=

> <r_epik_Ionization_Penalty>
0.226781

> <r_epik_Ionization_Penalty_Charging>
0.00915946

> <r_epik_Ionization_Penalty_Neutral>
0.217622

> <r_epik_State_Penalty>
0.173018

> <r_epik_Charging_Adjusted_Penalty>
0.182178

> <i_epik_Tot_Q>
1

> <i_epik_Tot_abs_Q>
1

> <r_epik_Metal_State_Penalty>
0.0905268

> <b_epik_Metal_Only>
0

> <s_lp_Force_Field>
OPLS_2005

> <r_lp_Energy>
36.5786

> <b_lp_Chiralities_Consistent>
1

> <s_lp_Variant>
AV-unprocessed.smi:1005-1

> <Gold.Version>
5.8.1

> <Gold.Id.Protein>
6NUR|6NUR_protein|mol2

> <Gold.PLP.Fitness>
50.3374

> <Gold.PLP.PLP>
-45.2646

> <Gold.PLP.part.hbond>
-2.0000

> <Gold.PLP.part.metal>
0.0000

> <Gold.PLP.part.buried>
-6.6137

> <Gold.PLP.part.nonpolar>
-35.7053

> <Gold.PLP.part.repulsive>
0.3542

> <Gold.PLP.ligand.clash>
0.0000

> <Gold.PLP.ligand.torsion>
0.4983

> <Gold.PLP.Chemscore.Hbond>
2.0000

> <Gold.PLP.Chemscore.CHOScore>
0.0000

> <Gold.PLP.Chemscore.Metal>
0.0000

> <Gold.Chemscore.Hbonds>
donor molecule, donor type, donor heavy atom, donor atom, acceptor molecule, acceptor atom, score
      L1  H    10    34       P1  7957  1.00
      P1  H  7997  8009       L1     5  1.00

> <Gold.PLP.Chemscore.Internal.Correction>
0.0695

> <Gold.Rescore>
     Score         DG    S(hbond)    S(metal)    S(lipo)     H(rot)  DE(clash)    DE(int)     intcor
     16.51     -18.17       1.75        0.00     111.30       2.41       0.31       1.36       ----

> <Gold.Chemscore.Fitness>
16.5051

> <Gold.Chemscore.DG>
-18.1661

> <Gold.Chemscore.ZeroCoef>
-5.4800

> <Gold.Chemscore.Hbond>
1.7493

> <Gold.Chemscore.Metal>
0.0000

> <Gold.Chemscore.Lipo>
111.2998

> <Gold.Chemscore.Internal_Hbond>
0.0000

> <Gold.Chemscore.DEClash>
0.3059

> <Gold.Chemscore.DEInternal>
1.3551

> <Gold.Chemscore.Rot>
2.4136

> <Gold.Chemscore.Internal.Correction>
   9.000000E+99

> <Gold.Chemscore.Hbonds>
donor molecule, donor type, donor heavy atom, donor atom, acceptor molecule, acceptor atom, score
      L1  H    10    34       P1  7957  0.98
      P1  H  7997  8009       L1     5  0.37

> <Gold.Chemscore.Hbond.Weighted>
-5.8428

> <Gold.Chemscore.Metal.Weighted>
-0.0000

> <Gold.Chemscore.Lipo.Weighted>
-13.0221

> <Gold.Chemscore.Internal_Hbond.Weighted>
0.0000

> <Gold.Chemscore.DEClash.Weighted>
0.3059

> <Gold.Chemscore.DEInternal.Weighted>
1.3551

> <Gold.Chemscore.Rot.Weighted>
6.1788

> <Gold.Chemscore.Internal.Correction.Weighted>
   9.000000E+99

> <Gold.Protein.RotatedTorsions>
[ 6907 6896 6895 6894 ] final   57.71 input  -60.11 | X-H torsion
[ 7974 7965 7964 7962 ] final  151.86 input  175.53 | X-H torsion
[ 8008 7997 7996 7995 ] final -166.51 input   59.86 | X-H torsion
[ 10167 10162 10161 10158 ] final   93.69 input  -65.29 | X-H torsion
[ 10718 10713 10712 10709 ] final  128.17 input   66.30 | X-H torsion
[ 10763 10752 10751 10750 ] final  155.39 input  -60.55 | X-H torsion
[ 11005 11000 10999 10996 ] final  143.97 input  -57.11 | X-H torsion

> <Gold.Protein.ActiveResidues>
 VAL166  LYS551  ARG553  GLY616  TRP617  ASP618  TYR619  PRO620  LYS621  CYS622 
 ASP623  PHE694  ASN695  SER759  ASP760  ASP761  ALA762  ILE779  LEU786  VAL792 
 PHE793  MET794  SER795  GLU796  ALA797  LYS798  CYS799  TRP800  GLU811  SER814 

> <Gold.Protein.RotatedAtoms>
  152.3756  134.6668  160.0160 H   0  0  0  0  0  0  0  0  0  0  0  0  # atno 6907 bound_to 6896
  151.6947  133.3305  159.3259 H   0  0  0  0  0  0  0  0  0  0  0  0  # atno 6908 bound_to 6896
  150.7707  134.6603  159.6381 H   0  0  0  0  0  0  0  0  0  0  0  0  # atno 6909 bound_to 6896
  144.8262  139.6593  143.6079 H   0  0  0  0  0  0  0  0  0  0  0  0  # atno 7974 bound_to 7965
  155.8648  140.0984  157.1589 H   0  0  0  0  0  0  0  0  0  0  0  0  # atno 8008 bound_to 7997
  154.3993  140.1358  156.4068 H   0  0  0  0  0  0  0  0  0  0  0  0  # atno 8009 bound_to 7997
  155.7816  140.3458  155.5303 H   0  0  0  0  0  0  0  0  0  0  0  0  # atno 8010 bound_to 7997
  139.8155  144.6754  150.9585 H   0  0  0  0  0  0  0  0  0  0  0  0  # atno 10167 bound_to 10162
  157.5268  131.1098  150.9070 H   0  0  0  0  0  0  0  0  0  0  0  0  # atno 10718 bound_to 10713
  154.1676  135.2806  155.3090 H   0  0  0  0  0  0  0  0  0  0  0  0  # atno 10763 bound_to 10752
  154.6099  135.5502  153.7466 H   0  0  0  0  0  0  0  0  0  0  0  0  # atno 10764 bound_to 10752
  153.0174  135.6413  154.1817 H   0  0  0  0  0  0  0  0  0  0  0  0  # atno 10765 bound_to 10752
  140.0595  134.9212  157.1159 H   0  0  0  0  0  0  0  0  0  0  0  0  # atno 11005 bound_to 11000
  146.2567  139.6319  142.9390 LP  0  0  0  0  0  0  0  0  0  0  0  0  # atno 17320 bound_to 7965
  145.4995  141.0438  143.2548 LP  0  0  0  0  0  0  0  0  0  0  0  0  # atno 17321 bound_to 7965
  140.7816  143.4143  151.0943 LP  0  0  0  0  0  0  0  0  0  0  0  0  # atno 17342 bound_to 10162
  139.7806  143.8360  152.3137 LP  0  0  0  0  0  0  0  0  0  0  0  0  # atno 17343 bound_to 10162
  156.9663  130.5474  149.5288 LP  0  0  0  0  0  0  0  0  0  0  0  0  # atno 17370 bound_to 10713
  156.0393  130.5477  150.8731 LP  0  0  0  0  0  0  0  0  0  0  0  0  # atno 17371 bound_to 10713
  140.3792  134.2306  155.7172 LP  0  0  0  0  0  0  0  0  0  0  0  0  # atno 17394 bound_to 11000
  141.1967  133.8077  157.0661 LP  0  0  0  0  0  0  0  0  0  0  0  0  # atno 17395 bound_to 11000

$$$$
