AV-unprocessed.smi:1240|AV-procd|sdf|5211|dock4
  -GOLD-   22720 4303D 1   1.00000     0.00000
 Structure written by MMmdl.
 48 50  0  0  0  0  0  0  0  0  4 V2000
  147.1110  133.8761  153.6387 O   0  0  0  0  0  0  0  0  0  0  0  0
  147.7916  133.1999  152.8589 C   0  0  0  0  0  0  0  0  0  0  0  0
  149.0534  132.7315  153.0507 N   0  5  0  0  0  0  0  0  0  0  0  0
  149.8097  132.8715  154.2943 C   0  0  0  0  0  0  0  0  0  0  0  0
  149.3168  131.8419  155.3720 C   0  0  2  0  0  0  0  0  0  0  0  0
  149.4923  132.3111  156.8546 C   0  0  2  0  0  0  0  0  0  0  0  0
  148.3871  131.8301  157.7846 C   0  0  0  0  0  0  0  0  0  0  0  0
  148.5528  132.7377  158.9977 C   0  0  0  0  0  0  0  0  0  0  0  0
  149.0309  133.9748  158.4861 O   0  0  0  0  0  0  0  0  0  0  0  0
  149.4016  133.8244  157.1198 C   0  0  0  0  0  0  0  0  0  0  0  0
  149.8907  130.4584  155.2146 N   0  3  0  0  0  0  0  0  0  0  0  0
  149.4848  129.7210  153.9887 C   0  0  0  0  0  0  0  0  0  0  0  0
  149.8773  128.2395  154.1138 C   0  0  0  0  0  0  0  0  0  0  0  0
  151.2744  128.1291  154.3611 O   0  0  0  0  0  0  0  0  0  0  0  0
  151.6563  128.7598  155.5783 C   0  0  0  0  0  0  0  0  0  0  0  0
  151.3401  130.2618  155.5027 C   0  0  0  0  0  0  0  0  0  0  0  0
  147.2870  132.8214  151.6708 N   0  0  0  0  0  0  0  0  0  0  0  0
  146.0205  133.1231  151.1024 C   0  0  0  0  0  0  0  0  0  0  0  0
  145.4057  132.1335  150.3042 C   0  0  0  0  0  0  0  0  0  0  0  0
  144.1588  132.4013  149.7040 C   0  0  0  0  0  0  0  0  0  0  0  0
  143.5697  133.6029  149.8846 N   0  3  0  0  0  0  0  0  0  0  0  0
  144.1277  134.5863  150.6234 C   0  0  0  0  0  0  0  0  0  0  0  0
  145.3736  134.3762  151.2485 C   0  0  0  0  0  0  0  0  0  0  0  0
  150.8712  132.7076  154.1087 H   0  0  0  0  0  0  0  0  0  0  0  0
  149.7405  133.8775  154.7099 H   0  0  0  0  0  0  0  0  0  0  0  0
  148.2431  131.7147  155.2220 H   0  0  0  0  0  0  0  0  0  0  0  0
  150.4437  131.9565  157.2564 H   0  0  0  0  0  0  0  0  0  0  0  0
  147.4091  131.9935  157.3287 H   0  0  0  0  0  0  0  0  0  0  0  0
  148.4689  130.7744  158.0453 H   0  0  0  0  0  0  0  0  0  0  0  0
  147.6231  132.8671  159.5524 H   0  0  0  0  0  0  0  0  0  0  0  0
  149.3012  132.3305  159.6786 H   0  0  0  0  0  0  0  0  0  0  0  0
  150.3386  134.3441  156.9186 H   0  0  0  0  0  0  0  0  0  0  0  0
  148.6239  134.2796  156.5048 H   0  0  0  0  0  0  0  0  0  0  0  0
  148.4072  129.8009  153.8413 H   0  0  0  0  0  0  0  0  0  0  0  0
  149.9630  130.1514  153.1081 H   0  0  0  0  0  0  0  0  0  0  0  0
  149.3161  127.7544  154.9143 H   0  0  0  0  0  0  0  0  0  0  0  0
  149.6388  127.7086  153.1921 H   0  0  0  0  0  0  0  0  0  0  0  0
  151.1417  128.2954  156.4210 H   0  0  0  0  0  0  0  0  0  0  0  0
  152.7244  128.6083  155.7350 H   0  0  0  0  0  0  0  0  0  0  0  0
  151.9527  130.7164  154.7232 H   0  0  0  0  0  0  0  0  0  0  0  0
  151.6137  130.7360  156.4446 H   0  0  0  0  0  0  0  0  0  0  0  0
  147.8614  132.1811  151.1424 H   0  0  0  0  0  0  0  0  0  0  0  0
  145.8807  131.1739  150.1583 H   0  0  0  0  0  0  0  0  0  0  0  0
  143.6207  131.6965  149.0872 H   0  0  0  0  0  0  0  0  0  0  0  0
  143.5686  135.5084  150.6866 H   0  0  0  0  0  0  0  0  0  0  0  0
  145.8180  135.1790  151.8173 H   0  0  0  0  0  0  0  0  0  0  0  0
  149.4280  129.9486  155.9530 H   0  0  0  0  0  0  0  0  0  0  0  0
  142.6683  133.7774  149.4398 H   0  0  0  0  0  0  0  0  0  0  0  0
  1  2  2  0  0  0  0
  2  3  1  0  0  0  0
  2 17  1  0  0  0  0
  3  4  1  0  0  0  0
  4  5  1  0  0  0  0
  4 24  1  0  0  0  0
  4 25  1  0  0  0  0
  5  6  1  0  0  0  0
  5 11  1  0  0  0  0
  5 26  1  0  0  0  0
  6 10  1  0  0  0  0
  6  7  1  0  0  0  0
  6 27  1  0  0  0  0
  7  8  1  0  0  0  0
  7 28  1  0  0  0  0
  7 29  1  0  0  0  0
  8  9  1  0  0  0  0
  8 30  1  0  0  0  0
  8 31  1  0  0  0  0
  9 10  1  0  0  0  0
 10 32  1  0  0  0  0
 10 33  1  0  0  0  0
 11 16  1  0  0  0  0
 11 12  1  0  0  0  0
 11 47  1  0  0  0  0
 12 13  1  0  0  0  0
 12 34  1  0  0  0  0
 12 35  1  0  0  0  0
 13 14  1  0  0  0  0
 13 36  1  0  0  0  0
 13 37  1  0  0  0  0
 14 15  1  0  0  0  0
 15 16  1  0  0  0  0
 15 38  1  0  0  0  0
 15 39  1  0  0  0  0
 16 40  1  0  0  0  0
 16 41  1  0  0  0  0
 17 18  1  0  0  0  0
 17 42  1  0  0  0  0
 18 23  1  0  0  0  0
 18 19  2  0  0  0  0
 19 20  1  0  0  0  0
 19 43  1  0  0  0  0
 20 21  2  0  0  0  0
 20 44  1  0  0  0  0
 21 22  1  0  0  0  0
 21 48  1  0  0  0  0
 22 23  2  0  0  0  0
 22 45  1  0  0  0  0
 23 46  1  0  0  0  0
M  CHG  1   3  -1
M  CHG  1  11   1
M  CHG  1  21   1
M  END
> <s_m_source_file>
AV-unprocessed.smi

> <i_m_source_file_index>
1240

> <i_lp_mmshare_version>
43012

> <i_f3d_flags>
0

> <s_epik_input>
W2NIXTFbY0hdbltjSF1bY0hdYzFbTkhdQyg9TylbTkhdW0NIMl1bQ0BIXShbQ0BASF0yW0NIMl1bQ0gyXU9bQ0gyXTIpTjNbQ0gyXVtDSDJdT1tDSDJdW0NIMl0z

> <s_epik_cmdline>
J2VwaWtfcHl0aG9uJywgJy1waCcsICc3LjAnLCAnLXRuJywgJzgnLCAnLW1hJywgJzIwMCcsICctbWV0YWxfYmluZGluZycsICctaW1hZScsICc8aW5maWxlLm1hZT4nLCAnLW9tYWUnLCAnPG91dGZpbGUubWFlPic=

> <r_epik_Ionization_Penalty>
8.41087

> <r_epik_Ionization_Penalty_Charging>
8.41087

> <r_epik_Ionization_Penalty_Neutral>
3.12936e-06

> <r_epik_State_Penalty>
8.81894

> <r_epik_Charging_Adjusted_Penalty>
17.2298

> <i_epik_Tot_Q>
1

> <i_epik_Tot_abs_Q>
3

> <r_epik_Metal_State_Penalty>
4.82983

> <b_epik_Metal_Only>
1

> <s_lp_Force_Field>
OPLS_2005

> <r_lp_Energy>
48.2206

> <b_lp_Chiralities_Consistent>
1

> <s_lp_Variant>
AV-unprocessed.smi:1240-17

> <Gold.Version>
5.8.1

> <Gold.Id.Protein>
6NUR|6NUR_protein|mol2

> <Gold.PLP.Fitness>
41.7186

> <Gold.PLP.PLP>
-32.0615

> <Gold.PLP.part.hbond>
-3.0000

> <Gold.PLP.part.metal>
0.0000

> <Gold.PLP.part.buried>
-6.3789

> <Gold.PLP.part.nonpolar>
-25.9091

> <Gold.PLP.part.repulsive>
2.0999

> <Gold.PLP.ligand.clash>
0.0000

> <Gold.PLP.ligand.torsion>
1.3922

> <Gold.PLP.Chemscore.Hbond>
3.9840

> <Gold.PLP.Chemscore.CHOScore>
0.0000

> <Gold.PLP.Chemscore.Metal>
0.0000

> <Gold.Chemscore.Hbonds>
donor molecule, donor type, donor heavy atom, donor atom, acceptor molecule, acceptor atom, score
      L1  H    17    42       P1 10747  1.00
      L1  H    21    48       P1 10186  1.98
      P1  H  6896  6909       L1     9  0.95

> <Gold.PLP.Chemscore.Internal.Correction>
0.4896

> <Gold.Rescore>
     Score         DG    S(hbond)    S(metal)    S(lipo)     H(rot)  DE(clash)    DE(int)     intcor
     16.39     -18.91       2.69        0.00      75.19       1.70       0.21       2.31       ----

> <Gold.Chemscore.Fitness>
16.3917

> <Gold.Chemscore.DG>
-18.9087

> <Gold.Chemscore.ZeroCoef>
-5.4800

> <Gold.Chemscore.Hbond>
2.6911

> <Gold.Chemscore.Metal>
0.0000

> <Gold.Chemscore.Lipo>
75.1948

> <Gold.Chemscore.Internal_Hbond>
0.0000

> <Gold.Chemscore.DEClash>
0.2114

> <Gold.Chemscore.DEInternal>
2.3056

> <Gold.Chemscore.Rot>
1.7021

> <Gold.Chemscore.Internal.Correction>
   9.000000E+99

> <Gold.Chemscore.Hbonds>
donor molecule, donor type, donor heavy atom, donor atom, acceptor molecule, acceptor atom, score
      L1  H    17    42       P1 10747  0.99
      L1  H    21    48       P1 10186  0.93
      P1  H  6896  6909       L1     9  0.09

> <Gold.Chemscore.Hbond.Weighted>
-8.9884

> <Gold.Chemscore.Metal.Weighted>
-0.0000

> <Gold.Chemscore.Lipo.Weighted>
-8.7978

> <Gold.Chemscore.Internal_Hbond.Weighted>
0.0000

> <Gold.Chemscore.DEClash.Weighted>
0.2114

> <Gold.Chemscore.DEInternal.Weighted>
2.3056

> <Gold.Chemscore.Rot.Weighted>
4.3575

> <Gold.Chemscore.Internal.Correction.Weighted>
   9.000000E+99

> <Gold.Protein.RotatedTorsions>
[ 6907 6896 6895 6894 ] final   17.16 input  -60.11 | X-H torsion
[ 7974 7965 7964 7962 ] final   61.49 input  175.53 | X-H torsion
[ 8008 7997 7996 7995 ] final  174.59 input   59.86 | X-H torsion
[ 10167 10162 10161 10158 ] final   33.82 input  -65.29 | X-H torsion
[ 10718 10713 10712 10709 ] final  -30.88 input   66.30 | X-H torsion
[ 10763 10752 10751 10750 ] final -139.56 input  -60.55 | X-H torsion
[ 11005 11000 10999 10996 ] final  111.37 input  -57.11 | X-H torsion

> <Gold.Protein.ActiveResidues>
 VAL166  LYS551  ARG553  GLY616  TRP617  ASP618  TYR619  PRO620  LYS621  CYS622 
 ASP623  PHE694  ASN695  SER759  ASP760  ASP761  ALA762  ILE779  LEU786  VAL792 
 PHE793  MET794  SER795  GLU796  ALA797  LYS798  CYS799  TRP800  GLU811  SER814 

> <Gold.Protein.RotatedAtoms>
  151.8452  135.0576  160.0452 H   0  0  0  0  0  0  0  0  0  0  0  0  # atno 6907 bound_to 6896
  152.2778  133.5438  159.5487 H   0  0  0  0  0  0  0  0  0  0  0  0  # atno 6908 bound_to 6896
  150.7177  134.0523  159.3845 H   0  0  0  0  0  0  0  0  0  0  0  0  # atno 6909 bound_to 6896
  145.8841  139.3464  143.0688 H   0  0  0  0  0  0  0  0  0  0  0  0  # atno 7974 bound_to 7965
  156.0958  140.1430  156.9532 H   0  0  0  0  0  0  0  0  0  0  0  0  # atno 8008 bound_to 7997
  154.4670  140.0922  156.7094 H   0  0  0  0  0  0  0  0  0  0  0  0  # atno 8009 bound_to 7997
  155.4843  140.3446  155.4347 H   0  0  0  0  0  0  0  0  0  0  0  0  # atno 8010 bound_to 7997
  140.4372  144.1239  150.6168 H   0  0  0  0  0  0  0  0  0  0  0  0  # atno 10167 bound_to 10162
  156.3942  130.4378  149.7371 H   0  0  0  0  0  0  0  0  0  0  0  0  # atno 10718 bound_to 10713
  154.8605  135.3579  154.5566 H   0  0  0  0  0  0  0  0  0  0  0  0  # atno 10763 bound_to 10752
  153.6183  135.7007  153.5325 H   0  0  0  0  0  0  0  0  0  0  0  0  # atno 10764 bound_to 10752
  153.3151  135.4167  155.1329 H   0  0  0  0  0  0  0  0  0  0  0  0  # atno 10765 bound_to 10752
  139.8902  134.9506  156.6422 H   0  0  0  0  0  0  0  0  0  0  0  0  # atno 11005 bound_to 11000
  145.8988  140.9256  143.0514 LP  0  0  0  0  0  0  0  0  0  0  0  0  # atno 17320 bound_to 7965
  144.6728  140.1004  143.7461 LP  0  0  0  0  0  0  0  0  0  0  0  0  # atno 17321 bound_to 7965
  140.4360  143.2547  151.9535 LP  0  0  0  0  0  0  0  0  0  0  0  0  # atno 17342 bound_to 10162
  139.4787  144.5700  151.8104 LP  0  0  0  0  0  0  0  0  0  0  0  0  # atno 17343 bound_to 10162
  156.4412  130.7862  151.2883 LP  0  0  0  0  0  0  0  0  0  0  0  0  # atno 17370 bound_to 10713
  157.7501  131.0124  150.3383 LP  0  0  0  0  0  0  0  0  0  0  0  0  # atno 17371 bound_to 10713
  140.7585  133.8837  155.8400 LP  0  0  0  0  0  0  0  0  0  0  0  0  # atno 17394 bound_to 11000
  140.9942  134.1238  157.4380 LP  0  0  0  0  0  0  0  0  0  0  0  0  # atno 17395 bound_to 11000

$$$$
