AV-unprocessed.smi:92|AV-procd|sdf|846|dock4
  -GOLD-   2262017283D 1   1.00000     0.00000
 Structure written by MMmdl.
 61 64  0  0  0  0  0  0  0  0  2 V2000
  150.5829  142.6807  157.6749 C   0  0  0  0  0  0  0  0  0  0  0  0
  150.5421  141.7518  156.4532 C   0  0  0  0  0  0  0  0  0  0  0  0
  149.2352  141.7999  155.7444 N   0  3  1  0  0  0  0  0  0  0  0  0
  149.1634  140.8890  154.5738 C   0  0  0  0  0  0  0  0  0  0  0  0
  149.0123  139.4217  155.0049 C   0  0  0  0  0  0  0  0  0  0  0  0
  147.7722  139.2339  155.9031 C   0  0  1  0  0  0  0  0  0  0  0  0
  147.6079  137.8319  156.3141 N   0  0  0  0  0  0  0  0  0  0  0  0
  148.0629  137.3879  157.6296 C   0  0  0  0  0  0  0  0  0  0  0  0
  147.3944  136.8666  155.3769 C   0  0  0  0  0  0  0  0  0  0  0  0
  147.8842  135.6151  155.5857 N   0  0  0  0  0  0  0  0  0  0  0  0
  147.6818  134.6462  154.6892 C   0  0  0  0  0  0  0  0  0  0  0  0
  147.0290  134.7088  153.5289 N   0  0  0  0  0  0  0  0  0  0  0  0
  146.5394  135.9605  153.3005 C   0  0  0  0  0  0  0  0  0  0  0  0
  146.6753  137.0866  154.1640 C   0  0  0  0  0  0  0  0  0  0  0  0
  146.0587  138.1921  153.5890 N   0  0  0  0  0  0  0  0  0  0  0  0
  145.5791  137.7452  152.4614 C   0  0  0  0  0  0  0  0  0  0  0  0
  145.8198  136.4144  152.2058 N   0  0  0  0  0  0  0  0  0  0  0  0
  145.4032  135.6840  151.0402 C   0  0  0  0  0  0  0  0  0  0  0  0
  143.9576  135.2044  150.8720 C   0  0  0  0  0  0  0  0  0  0  0  0
  144.4627  133.9058  150.1990 C   0  0  0  0  0  0  0  0  0  0  0  0
  143.8073  132.5935  150.6693 C   0  0  0  0  0  0  0  0  0  0  0  0
  142.4747  132.4519  150.2194 O   0  0  0  0  0  0  0  0  0  0  0  0
  144.3835  133.8619  148.6580 C   0  0  0  0  0  0  0  0  0  0  0  0
  143.0610  133.8911  148.1598 O   0  0  0  0  0  0  0  0  0  0  0  0
  145.8485  134.2370  150.8026 C   0  0  0  0  0  0  0  0  0  0  0  0
  147.8200  140.2056  157.1091 C   0  0  2  0  0  0  0  0  0  0  0  0
  146.5413  140.1268  157.9617 C   0  0  0  0  0  0  0  0  0  0  0  0
  148.0404  141.6567  156.6200 C   0  0  0  0  0  0  0  0  0  0  0  0
  151.5824  142.6947  158.1101 H   0  0  0  0  0  0  0  0  0  0  0  0
  149.8963  142.3611  158.4578 H   0  0  0  0  0  0  0  0  0  0  0  0
  150.3297  143.7049  157.3999 H   0  0  0  0  0  0  0  0  0  0  0  0
  151.3271  142.0754  155.7688 H   0  0  0  0  0  0  0  0  0  0  0  0
  150.7946  140.7317  156.7418 H   0  0  0  0  0  0  0  0  0  0  0  0
  148.3072  141.1779  153.9625 H   0  0  0  0  0  0  0  0  0  0  0  0
  150.0426  141.0143  153.9408 H   0  0  0  0  0  0  0  0  0  0  0  0
  148.9303  138.7930  154.1180 H   0  0  0  0  0  0  0  0  0  0  0  0
  149.9158  139.0979  155.5219 H   0  0  0  0  0  0  0  0  0  0  0  0
  146.8973  139.5289  155.3222 H   0  0  0  0  0  0  0  0  0  0  0  0
  148.6753  136.4886  157.5537 H   0  0  0  0  0  0  0  0  0  0  0  0
  147.2077  137.1708  158.2696 H   0  0  0  0  0  0  0  0  0  0  0  0
  148.6636  138.1480  158.1273 H   0  0  0  0  0  0  0  0  0  0  0  0
  148.1020  133.6827  154.9366 H   0  0  0  0  0  0  0  0  0  0  0  0
  145.0338  138.3824  151.7803 H   0  0  0  0  0  0  0  0  0  0  0  0
  145.6850  136.2980  150.1836 H   0  0  0  0  0  0  0  0  0  0  0  0
  143.4560  135.0365  151.8255 H   0  0  0  0  0  0  0  0  0  0  0  0
  143.3500  135.8427  150.2299 H   0  0  0  0  0  0  0  0  0  0  0  0
  144.3699  131.7302  150.3122 H   0  0  0  0  0  0  0  0  0  0  0  0
  143.7972  132.5336  151.7581 H   0  0  0  0  0  0  0  0  0  0  0  0
  142.2044  133.2631  149.8172 H   0  0  0  0  0  0  0  0  0  0  0  0
  144.9180  134.7055  148.2197 H   0  0  0  0  0  0  0  0  0  0  0  0
  144.8587  132.9587  148.2735 H   0  0  0  0  0  0  0  0  0  0  0  0
  142.4641  133.7804  148.8842 H   0  0  0  0  0  0  0  0  0  0  0  0
  146.6829  134.1382  150.1074 H   0  0  0  0  0  0  0  0  0  0  0  0
  146.0608  133.7041  151.7298 H   0  0  0  0  0  0  0  0  0  0  0  0
  148.6550  139.9365  157.7550 H   0  0  0  0  0  0  0  0  0  0  0  0
  145.6546  140.3574  157.3703 H   0  0  0  0  0  0  0  0  0  0  0  0
  146.5794  140.8322  158.7923 H   0  0  0  0  0  0  0  0  0  0  0  0
  146.4050  139.1333  158.3893 H   0  0  0  0  0  0  0  0  0  0  0  0
  148.1051  142.3389  157.4667 H   0  0  0  0  0  0  0  0  0  0  0  0
  147.1692  141.9796  156.0481 H   0  0  0  0  0  0  0  0  0  0  0  0
  149.1866  142.7319  155.3582 H   0  0  0  0  0  0  0  0  0  0  0  0
  1  2  1  0  0  0  0
  1 29  1  0  0  0  0
  1 30  1  0  0  0  0
  1 31  1  0  0  0  0
  2  3  1  0  0  0  0
  2 32  1  0  0  0  0
  2 33  1  0  0  0  0
  3 28  1  0  0  0  0
  3  4  1  0  0  0  0
  3 61  1  0  0  0  0
  4  5  1  0  0  0  0
  4 34  1  0  0  0  0
  4 35  1  0  0  0  0
  5  6  1  0  0  0  0
  5 36  1  0  0  0  0
  5 37  1  0  0  0  0
  6  7  1  0  0  0  0
  6 26  1  0  0  0  0
  6 38  1  0  0  0  0
  7  8  1  0  0  0  0
  7  9  1  0  0  0  0
  8 39  1  0  0  0  0
  8 40  1  0  0  0  0
  8 41  1  0  0  0  0
  9 14  1  0  0  0  0
  9 10  2  0  0  0  0
 10 11  1  0  0  0  0
 11 12  2  0  0  0  0
 11 42  1  0  0  0  0
 12 13  1  0  0  0  0
 13 17  1  0  0  0  0
 13 14  2  0  0  0  0
 14 15  1  0  0  0  0
 15 16  2  0  0  0  0
 16 17  1  0  0  0  0
 16 43  1  0  0  0  0
 17 18  1  0  0  0  0
 18 25  1  0  0  0  0
 18 19  1  0  0  0  0
 18 44  1  0  0  0  0
 19 20  1  0  0  0  0
 19 45  1  0  0  0  0
 19 46  1  0  0  0  0
 20 21  1  0  0  0  0
 20 23  1  0  0  0  0
 20 25  1  0  0  0  0
 21 22  1  0  0  0  0
 21 47  1  0  0  0  0
 21 48  1  0  0  0  0
 22 49  1  0  0  0  0
 23 24  1  0  0  0  0
 23 50  1  0  0  0  0
 23 51  1  0  0  0  0
 24 52  1  0  0  0  0
 25 53  1  0  0  0  0
 25 54  1  0  0  0  0
 26 27  1  0  0  0  0
 26 28  1  0  0  0  0
 26 55  1  0  0  0  0
 27 56  1  0  0  0  0
 27 57  1  0  0  0  0
 27 58  1  0  0  0  0
 28 59  1  0  0  0  0
 28 60  1  0  0  0  0
M  CHG  1   3   1
M  END
> <s_m_source_file>
AV-unprocessed.smi

> <i_m_source_file_index>
92

> <i_lp_mmshare_version>
43012

> <i_f3d_flags>
0

> <s_epik_input>
W0NIM11bQ0gyXU4xW0NIMl1bQ0gyXVtDQEhdKFtDQEBIXShbQ0gzXSlbQ0gyXTEpTihbQ0gzXSljKG5bY0hdbjIpYyhjMjMpbltjSF1uM1tDSF0oW0NIMl00KVtDSDJdQzQoW0NIMl1bT0hdKVtDSDJdW09IXQ==

> <s_epik_cmdline>
J2VwaWtfcHl0aG9uJywgJy1waCcsICc3LjAnLCAnLXRuJywgJzgnLCAnLW1hJywgJzIwMCcsICctbWV0YWxfYmluZGluZycsICctaW1hZScsICc8aW5maWxlLm1hZT4nLCAnLW9tYWUnLCAnPG91dGZpbGUubWFlPic=

> <r_lp_tautomer_probability>
1

> <r_epik_Ionization_Penalty>
0.00235514

> <r_epik_Ionization_Penalty_Charging>
0.00137877

> <r_epik_Ionization_Penalty_Neutral>
0.000976366

> <r_epik_State_Penalty>
-0

> <r_epik_Charging_Adjusted_Penalty>
0.00137877

> <i_epik_Tot_Q>
1

> <i_epik_Tot_abs_Q>
1

> <r_epik_Metal_State_Penalty>
-0

> <b_epik_Metal_Only>
0

> <s_lp_Force_Field>
OPLS_2005

> <r_lp_Energy>
55.2069

> <b_lp_Chiralities_Consistent>
1

> <s_lp_Variant>
AV-unprocessed.smi:92-6

> <Gold.Version>
5.8.1

> <Gold.Id.Protein>
6NUR|6NUR_protein|mol2

> <Gold.PLP.Fitness>
48.7763

> <Gold.PLP.PLP>
-30.3271

> <Gold.PLP.part.hbond>
-5.8684

> <Gold.PLP.part.metal>
0.0000

> <Gold.PLP.part.buried>
4.6085

> <Gold.PLP.part.nonpolar>
-30.7848

> <Gold.PLP.part.repulsive>
1.7838

> <Gold.PLP.ligand.clash>
0.0000

> <Gold.PLP.ligand.torsion>
1.0466

> <Gold.PLP.Chemscore.Hbond>
4.6560

> <Gold.PLP.Chemscore.CHOScore>
1.8622

> <Gold.PLP.Chemscore.Metal>
0.0000

> <Gold.Chemscore.Hbonds>
donor molecule, donor type, donor heavy atom, donor atom, acceptor molecule, acceptor atom, score
      L1  H     3    61       P1  8028  1.95
      L1  H    22    49       P1 10186  0.98
      L1  H    24    52       P1 10186  0.82
      P1  H 10192 10197       L1    24  0.90
      L1  C    16    43       P1 10171  1.00
      L1  C    16    43       P1 10175  0.85

> <Gold.PLP.Chemscore.Internal.Correction>
0.9878

> <Gold.Rescore>
     Score         DG    S(hbond)    S(metal)    S(lipo)     H(rot)  DE(clash)    DE(int)     intcor
      9.39     -15.88       2.74        0.00      81.20       3.22       3.52       2.97       ----

> <Gold.Chemscore.Fitness>
9.3940

> <Gold.Chemscore.DG>
-15.8766

> <Gold.Chemscore.ZeroCoef>
-5.4800

> <Gold.Chemscore.Hbond>
2.7379

> <Gold.Chemscore.Metal>
0.0000

> <Gold.Chemscore.Lipo>
81.1988

> <Gold.Chemscore.Internal_Hbond>
0.0000

> <Gold.Chemscore.DEClash>
3.5152

> <Gold.Chemscore.DEInternal>
2.9675

> <Gold.Chemscore.Rot>
3.2219

> <Gold.Chemscore.Internal.Correction>
   9.000000E+99

> <Gold.Chemscore.Hbonds>
donor molecule, donor type, donor heavy atom, donor atom, acceptor molecule, acceptor atom, score
      L1  H     3    61       P1  8028  0.87
      L1  H    22    49       P1 10186  0.93
      L1  H    24    52       P1 10186  0.81
      P1  H 10192 10197       L1    24  0.18

> <Gold.Chemscore.Hbond.Weighted>
-9.1446

> <Gold.Chemscore.Metal.Weighted>
-0.0000

> <Gold.Chemscore.Lipo.Weighted>
-9.5003

> <Gold.Chemscore.Internal_Hbond.Weighted>
0.0000

> <Gold.Chemscore.DEClash.Weighted>
3.5152

> <Gold.Chemscore.DEInternal.Weighted>
2.9675

> <Gold.Chemscore.Rot.Weighted>
8.2482

> <Gold.Chemscore.Internal.Correction.Weighted>
   9.000000E+99

> <Gold.Protein.RotatedTorsions>
[ 6907 6896 6895 6894 ] final -175.12 input  -60.11 | X-H torsion
[ 7974 7965 7964 7962 ] final  -33.76 input  175.53 | X-H torsion
[ 8008 7997 7996 7995 ] final   84.03 input   59.86 | X-H torsion
[ 10167 10162 10161 10158 ] final   29.51 input  -65.29 | X-H torsion
[ 10718 10713 10712 10709 ] final   71.53 input   66.30 | X-H torsion
[ 10763 10752 10751 10750 ] final -123.67 input  -60.55 | X-H torsion
[ 11005 11000 10999 10996 ] final   38.49 input  -57.11 | X-H torsion

> <Gold.Protein.ActiveResidues>
 VAL166  LYS551  ARG553  GLY616  TRP617  ASP618  TYR619  PRO620  LYS621  CYS622 
 ASP623  PHE694  ASN695  SER759  ASP760  ASP761  ALA762  ILE779  LEU786  VAL792 
 PHE793  MET794  SER795  GLU796  ALA797  LYS798  CYS799  TRP800  GLU811  SER814 

> <Gold.Protein.RotatedAtoms>
  151.5833  133.3375  159.3012 H   0  0  0  0  0  0  0  0  0  0  0  0  # atno 6907 bound_to 6896
  150.8301  134.7553  159.6857 H   0  0  0  0  0  0  0  0  0  0  0  0  # atno 6908 bound_to 6896
  152.4385  134.5644  159.9955 H   0  0  0  0  0  0  0  0  0  0  0  0  # atno 6909 bound_to 6896
  146.0885  140.5955  142.8875 H   0  0  0  0  0  0  0  0  0  0  0  0  # atno 7974 bound_to 7965
  155.9317  140.3414  155.6254 H   0  0  0  0  0  0  0  0  0  0  0  0  # atno 8008 bound_to 7997
  155.7150  140.0776  157.2374 H   0  0  0  0  0  0  0  0  0  0  0  0  # atno 8009 bound_to 7997
  154.4086  140.1616  156.2325 H   0  0  0  0  0  0  0  0  0  0  0  0  # atno 8010 bound_to 7997
  140.4760  144.0690  150.6251 H   0  0  0  0  0  0  0  0  0  0  0  0  # atno 10167 bound_to 10162
  157.6456  130.9533  150.0802 H   0  0  0  0  0  0  0  0  0  0  0  0  # atno 10718 bound_to 10713
  154.8711  135.4090  154.2981 H   0  0  0  0  0  0  0  0  0  0  0  0  # atno 10763 bound_to 10752
  153.3845  135.7012  153.6546 H   0  0  0  0  0  0  0  0  0  0  0  0  # atno 10764 bound_to 10752
  153.5354  135.3659  155.2666 H   0  0  0  0  0  0  0  0  0  0  0  0  # atno 10765 bound_to 10752
  140.2121  134.3743  155.8044 H   0  0  0  0  0  0  0  0  0  0  0  0  # atno 11005 bound_to 11000
  144.7343  140.4762  143.6915 LP  0  0  0  0  0  0  0  0  0  0  0  0  # atno 17320 bound_to 7965
  145.6085  139.1511  143.3089 LP  0  0  0  0  0  0  0  0  0  0  0  0  # atno 17321 bound_to 7965
  140.3918  143.2748  152.0051 LP  0  0  0  0  0  0  0  0  0  0  0  0  # atno 17342 bound_to 10162
  139.4825  144.6071  151.7502 LP  0  0  0  0  0  0  0  0  0  0  0  0  # atno 17343 bound_to 10162
  156.1780  130.3649  149.9074 LP  0  0  0  0  0  0  0  0  0  0  0  0  # atno 17370 bound_to 10713
  156.7033  130.8941  151.3602 LP  0  0  0  0  0  0  0  0  0  0  0  0  # atno 17371 bound_to 10713
  141.2226  133.7148  156.8435 LP  0  0  0  0  0  0  0  0  0  0  0  0  # atno 17394 bound_to 11000
  140.1940  134.8945  157.3093 LP  0  0  0  0  0  0  0  0  0  0  0  0  # atno 17395 bound_to 11000

$$$$
