#       Name:                AV-unprocessed.smi:1644
#       Creating user name   scv26
#       Creation time:       Fri Mar 27 07:27:41 2020


#       File generated by GOLD software.
#

@<TRIPOS>MOLECULE
AV-unprocessed.smi:1644
    56    58     1
SMALL
NO_CHARGES


@<TRIPOS>ATOM
      1 ****        -1.4643   4.5581   1.5385 C.3            1 S1                 0.0000
      2 ****        -2.4177   3.3960   1.2395 C.3            1 S1                 0.0000
      3 ****        -2.5418   3.1110  -0.2672 C.3            1 S1                 0.0000
      4 ****        -3.5328   1.9813  -0.6212 C.3            1 S1                 0.0000
      5 ****        -3.6895   1.8498  -2.0560 N.am           1 S1                 0.0000
      6 ****        -3.3314   0.6420  -2.5093 C.2            1 S1                 0.0000
      7 ****        -3.3524   0.2929  -3.6885 O.2            1 S1                 0.0000
      8 ****        -2.9450  -0.1053  -1.4609 N.am           1 S1                 0.0000
      9 ****        -2.4485  -1.4809  -1.5635 C.3            1 S1                 0.0000
     10 ****        -0.9073  -1.5231  -1.6180 C.3            1 S1                 0.0000
     11 ****        -0.4947  -1.3785  -2.9634 O.3            1 S1                 0.0000
     12 ****        -0.3477  -2.8542  -1.0822 C.3            1 S1                 0.0000
     13 ****         1.1030  -2.8594  -1.0396 N.pl3          1 S1                 0.0000
     14 ****         1.9445  -3.4758  -1.8916 C.2            1 S1                 0.0000
     15 ****         3.2481  -3.3431  -1.6615 N.2            1 S1                 0.0000
     16 ****         3.2516  -2.5469  -0.5286 C.ar           1 S1                 0.0000
     17 ****         4.3270  -2.0351   0.2301 C.ar           1 S1                 0.0000
     18 ****         4.0929  -1.2299   1.3678 C.ar           1 S1                 0.0000
     19 ****         5.2791  -0.7005   2.1543 C.3            1 S1                 0.0000
     20 ****         2.7653  -0.9255   1.7627 C.ar           1 S1                 0.0000
     21 ****         2.4893  -0.0621   2.9809 C.3            1 S1                 0.0000
     22 ****         1.6795  -1.4290   1.0163 C.ar           1 S1                 0.0000
     23 ****         1.9257  -2.2287  -0.1137 C.ar           1 S1                 0.0000
     24 ****        -3.0196   0.5834  -0.3142 C.2            1 S1                 0.0000
     25 ****        -2.7261   0.1812   0.8115 O.2            1 S1                 0.0000
     26 ****        -1.4018   4.7425   2.6113 H              1 S1                 0.0000
     27 ****        -1.8019   5.4787   1.0618 H              1 S1                 0.0000
     28 ****        -0.4572   4.3432   1.1793 H              1 S1                 0.0000
     29 ****        -2.0621   2.5106   1.7657 H              1 S1                 0.0000
     30 ****        -3.4021   3.6243   1.6496 H              1 S1                 0.0000
     31 ****        -2.8596   4.0255  -0.7702 H              1 S1                 0.0000
     32 ****        -1.5551   2.8767  -0.6706 H              1 S1                 0.0000
     33 ****        -4.5073   2.1408  -0.1580 H              1 S1                 0.0000
     34 ****        -4.0195   2.6030  -2.6421 H              1 S1                 0.0000
     35 ****        -2.7994  -2.0283  -0.6869 H              1 S1                 0.0000
     36 ****        -2.8872  -2.0025  -2.4166 H              1 S1                 0.0000
     37 ****        -0.4863  -0.7043  -1.0328 H              1 S1                 0.0000
     38 ****        -0.8317  -0.5604  -3.2957 H              1 S1                 0.0000
     39 ****        -0.7107  -3.0348  -0.0696 H              1 S1                 0.0000
     40 ****        -0.6896  -3.6922  -1.6917 H              1 S1                 0.0000
     41 ****         1.5795  -4.0513  -2.7297 H              1 S1                 0.0000
     42 ****         5.3381  -2.2670  -0.0708 H              1 S1                 0.0000
     43 ****         5.2619  -1.0846   3.1744 H              1 S1                 0.0000
     44 ****         5.2571   0.3888   2.1937 H              1 S1                 0.0000
     45 ****         6.2241  -0.9991   1.7000 H              1 S1                 0.0000
     46 ****         1.4187   0.0573   3.1495 H              1 S1                 0.0000
     47 ****         2.9203   0.9307   2.8508 H              1 S1                 0.0000
     48 ****         2.9207  -0.5129   3.8747 H              1 S1                 0.0000
     49 ****         0.6627  -1.2045   1.3038 H              1 S1                 0.0000
     50 ****        -3.6547   0.9336  -4.3943 LP             1 S1                 0.0000
     51 ****        -3.0671  -0.6315  -3.9415 LP             1 S1                 0.0000
     52 ****        -0.8522  -2.1365  -3.5089 LP             1 S1                 0.0000
     53 ****         0.5042  -1.3756  -3.0111 LP             1 S1                 0.0000
     54 ****         4.0214  -3.7191  -2.1720 LP             1 S1                 0.0000
     55 ****        -2.8197   0.7893   1.5998 LP             1 S1                 0.0000
     56 ****        -2.3940  -0.7535   0.9376 LP             1 S1                 0.0000
@<TRIPOS>BOND
    1    1    2 1     
    2    1   26 1     
    3    1   27 1     
    4    1   28 1     
    5    2    3 1     
    6    2   29 1     
    7    2   30 1     
    8    3    4 1     
    9    3   31 1     
   10    3   32 1     
   11    4   24 1     
   12    4    5 1     
   13    4   33 1     
   14    5    6 am    
   15    5   34 1     
   16    6    7 2     
   17    6    8 am    
   18    8    9 1     
   19    8   24 am    
   20    9   10 1     
   21    9   35 1     
   22    9   36 1     
   23   10   11 1     
   24   10   12 1     
   25   10   37 1     
   26   11   38 1     
   27   12   13 1     
   28   12   39 1     
   29   12   40 1     
   30   13   23 1     
   31   13   14 1     
   32   14   15 2     
   33   14   41 1     
   34   15   16 1     
   35   16   23 ar    
   36   16   17 ar    
   37   17   18 ar    
   38   17   42 1     
   39   18   19 1     
   40   18   20 ar    
   41   19   43 1     
   42   19   44 1     
   43   19   45 1     
   44   20   21 1     
   45   20   22 ar    
   46   21   46 1     
   47   21   47 1     
   48   21   48 1     
   49   22   23 ar    
   50   22   49 1     
   51   24   25 2     
   52    7   50 1     
   53    7   51 1     
   54   11   52 1     
   55   11   53 1     
   56   15   54 1     
   57   25   55 1     
   58   25   56 1     
@<TRIPOS>SUBSTRUCTURE
      1 S1             1
@<TRIPOS>SET
LONE_PAIRS      STATIC     ATOMS    <user>   **** ""
7 50 51 52 53 54 55 56
DONOR_HYDROGENS      STATIC     ATOMS    <user>   **** ""
2 34 38
ATOM$BLUE        STATIC     ATOMS    COLORGROUP SYSTEM
7 50 51 52 53 54 55 56
ATOM$RED        STATIC     ATOMS    COLORGROUP SYSTEM
2 34 38
