AV-unprocessed.smi:1278|AV-procd|sdf|5354|dock5
  -GOLD-   22720 4493D 1   1.00000     0.00000
 Structure written by MMmdl.
 38 39  0  0  0  0  0  0  0  0  3 V2000
  153.6424  141.1800  160.8291 C   0  0  0  0  0  0  0  0  0  0  0  0
  152.3172  141.4006  160.0861 C   0  0  1  0  0  0  0  0  0  0  0  0
  152.1941  142.8457  159.5751 C   0  0  0  0  0  0  0  0  0  0  0  0
  150.8744  143.0294  158.8157 C   0  0  0  0  0  0  0  0  0  0  0  0
  150.7435  141.9988  157.6835 C   0  0  0  0  0  0  0  0  0  0  0  0
  150.8642  140.6122  158.2036 N   0  3  1  0  0  0  0  0  0  0  0  0
  150.6140  139.5962  157.1516 C   0  0  0  0  0  0  0  0  0  0  0  0
  150.5078  138.1716  157.7283 C   0  0  0  0  0  0  0  0  0  0  0  0
  149.4323  138.0758  158.7079 N   0  0  0  0  0  0  0  0  0  0  0  0
  148.9625  136.9414  159.2461 C   0  0  0  0  0  0  0  0  0  0  0  0
  149.4359  135.8560  158.9019 O   0  0  0  0  0  0  0  0  0  0  0  0
  147.9812  137.1373  160.1545 N   0  5  0  0  0  0  0  0  0  0  0  0
  147.4566  136.0905  160.8123 C   0  0  0  0  0  0  0  0  0  0  0  0
  147.1405  134.9357  160.2150 N   0  0  0  0  0  0  0  0  0  0  0  0
  146.6035  133.9881  161.0886 C   0  0  0  0  0  0  0  0  0  0  0  0
  146.5026  134.4341  162.3795 C   0  0  0  0  0  0  0  0  0  0  0  0
  147.0790  136.0688  162.5371 S   0  0  0  0  0  0  0  0  0  0  0  0
  152.1521  140.4060  158.9192 C   0  0  0  0  0  0  0  0  0  0  0  0
  154.4980  141.3397  160.1717 H   0  0  0  0  0  0  0  0  0  0  0  0
  153.7093  140.1644  161.2203 H   0  0  0  0  0  0  0  0  0  0  0  0
  153.7384  141.8642  161.6728 H   0  0  0  0  0  0  0  0  0  0  0  0
  151.5091  141.2229  160.7975 H   0  0  0  0  0  0  0  0  0  0  0  0
  152.2442  143.5487  160.4075 H   0  0  0  0  0  0  0  0  0  0  0  0
  153.0316  143.0814  158.9167 H   0  0  0  0  0  0  0  0  0  0  0  0
  150.0361  142.9242  159.5058 H   0  0  0  0  0  0  0  0  0  0  0  0
  150.8159  144.0395  158.4091 H   0  0  0  0  0  0  0  0  0  0  0  0
  149.7762  142.1280  157.1960 H   0  0  0  0  0  0  0  0  0  0  0  0
  151.5080  142.1721  156.9243 H   0  0  0  0  0  0  0  0  0  0  0  0
  149.6764  139.8333  156.6474 H   0  0  0  0  0  0  0  0  0  0  0  0
  151.3922  139.6505  156.3885 H   0  0  0  0  0  0  0  0  0  0  0  0
  150.2940  137.4476  156.9430 H   0  0  0  0  0  0  0  0  0  0  0  0
  151.4529  137.8685  158.1824 H   0  0  0  0  0  0  0  0  0  0  0  0
  149.0104  138.9411  159.0125 H   0  0  0  0  0  0  0  0  0  0  0  0
  146.3195  133.0197  160.7050 H   0  0  0  0  0  0  0  0  0  0  0  0
  146.1248  133.9061  163.2419 H   0  0  0  0  0  0  0  0  0  0  0  0
  152.9786  140.5115  158.2143 H   0  0  0  0  0  0  0  0  0  0  0  0
  152.2024  139.3903  159.3103 H   0  0  0  0  0  0  0  0  0  0  0  0
  150.1250  140.5027  158.8830 H   0  0  0  0  0  0  0  0  0  0  0  0
  1  2  1  0  0  0  0
  1 19  1  0  0  0  0
  1 20  1  0  0  0  0
  1 21  1  0  0  0  0
  2 18  1  0  0  0  0
  2  3  1  0  0  0  0
  2 22  1  0  0  0  0
  3  4  1  0  0  0  0
  3 23  1  0  0  0  0
  3 24  1  0  0  0  0
  4  5  1  0  0  0  0
  4 25  1  0  0  0  0
  4 26  1  0  0  0  0
  5  6  1  0  0  0  0
  5 27  1  0  0  0  0
  5 28  1  0  0  0  0
  6  7  1  0  0  0  0
  6 18  1  0  0  0  0
  6 38  1  0  0  0  0
  7  8  1  0  0  0  0
  7 29  1  0  0  0  0
  7 30  1  0  0  0  0
  8  9  1  0  0  0  0
  8 31  1  0  0  0  0
  8 32  1  0  0  0  0
  9 10  1  0  0  0  0
  9 33  1  0  0  0  0
 10 11  2  0  0  0  0
 10 12  1  0  0  0  0
 12 13  1  0  0  0  0
 13 17  1  0  0  0  0
 13 14  2  0  0  0  0
 14 15  1  0  0  0  0
 15 16  2  0  0  0  0
 15 34  1  0  0  0  0
 16 17  1  0  0  0  0
 16 35  1  0  0  0  0
 18 36  1  0  0  0  0
 18 37  1  0  0  0  0
M  CHG  1   6   1
M  CHG  1  12  -1
M  END
> <s_m_source_file>
AV-unprocessed.smi

> <i_m_source_file_index>
1278

> <i_lp_mmshare_version>
43012

> <i_f3d_flags>
0

> <s_epik_input>
W0NIM11bQ0BASF0xW0NIMl1bQ0gyXVtDSDJdTihbQ0gyXTEpW0NIMl1bQ0gyXVtOSF1DKD1PKVtOSF1jMm5bY0hdW2NIXXMy

> <s_epik_cmdline>
J2VwaWtfcHl0aG9uJywgJy1waCcsICc3LjAnLCAnLXRuJywgJzgnLCAnLW1hJywgJzIwMCcsICctbWV0YWxfYmluZGluZycsICctaW1hZScsICc8aW5maWxlLm1hZT4nLCAnLW9tYWUnLCAnPG91dGZpbGUubWFlPic=

> <r_lp_tautomer_probability>
0.999

> <r_epik_Ionization_Penalty>
6.22019

> <r_epik_Ionization_Penalty_Charging>
5.38911

> <r_epik_Ionization_Penalty_Neutral>
0.831074

> <r_epik_State_Penalty>
5.38904

> <r_epik_Charging_Adjusted_Penalty>
10.7782

> <i_epik_Tot_Q>
0

> <i_epik_Tot_abs_Q>
2

> <r_epik_Metal_State_Penalty>
1.41502

> <b_epik_Metal_Only>
1

> <s_lp_Force_Field>
OPLS_2005

> <r_lp_Energy>
5.28715

> <b_lp_Chiralities_Consistent>
1

> <s_lp_Variant>
AV-unprocessed.smi:1278-8

> <Gold.Version>
5.8.1

> <Gold.Id.Protein>
6NUR|6NUR_protein|mol2

> <Gold.PLP.Fitness>
46.6175

> <Gold.PLP.PLP>
-36.0570

> <Gold.PLP.part.hbond>
-3.0000

> <Gold.PLP.part.metal>
0.0000

> <Gold.PLP.part.buried>
-4.6535

> <Gold.PLP.part.nonpolar>
-30.5140

> <Gold.PLP.part.repulsive>
0.3596

> <Gold.PLP.ligand.clash>
0.0000

> <Gold.PLP.ligand.torsion>
0.4214

> <Gold.PLP.Chemscore.Hbond>
3.7720

> <Gold.PLP.Chemscore.CHOScore>
0.0000

> <Gold.PLP.Chemscore.Metal>
0.0000

> <Gold.Chemscore.Hbonds>
donor molecule, donor type, donor heavy atom, donor atom, acceptor molecule, acceptor atom, score
      P1  H  6896  6907       L1    11  1.00
      P1  H  6931  6943       L1    12  0.39
      P1  H  6934  6947       L1    12  0.95

> <Gold.PLP.Chemscore.Internal.Correction>
0.0873

> <Gold.Rescore>
     Score         DG    S(hbond)    S(metal)    S(lipo)     H(rot)  DE(clash)    DE(int)     intcor
     15.86     -17.69       1.92        0.00      83.91       1.57       0.08       1.75       ----

> <Gold.Chemscore.Fitness>
15.8599

> <Gold.Chemscore.DG>
-17.6943

> <Gold.Chemscore.ZeroCoef>
-5.4800

> <Gold.Chemscore.Hbond>
1.9190

> <Gold.Chemscore.Metal>
0.0000

> <Gold.Chemscore.Lipo>
83.9142

> <Gold.Chemscore.Internal_Hbond>
0.0000

> <Gold.Chemscore.DEClash>
0.0840

> <Gold.Chemscore.DEInternal>
1.7504

> <Gold.Chemscore.Rot>
1.5676

> <Gold.Chemscore.Internal.Correction>
   9.000000E+99

> <Gold.Chemscore.Hbonds>
donor molecule, donor type, donor heavy atom, donor atom, acceptor molecule, acceptor atom, score
      P1  H  6896  6907       L1    11  0.99
      P1  H  6931  6943       L1    12  0.03
      P1  H  6934  6947       L1    12  0.39

> <Gold.Chemscore.Hbond.Weighted>
-6.4093

> <Gold.Chemscore.Metal.Weighted>
-0.0000

> <Gold.Chemscore.Lipo.Weighted>
-9.8180

> <Gold.Chemscore.Internal_Hbond.Weighted>
0.0000

> <Gold.Chemscore.DEClash.Weighted>
0.0840

> <Gold.Chemscore.DEInternal.Weighted>
1.7504

> <Gold.Chemscore.Rot.Weighted>
4.0130

> <Gold.Chemscore.Internal.Correction.Weighted>
   9.000000E+99

> <Gold.Protein.RotatedTorsions>
[ 6907 6896 6895 6894 ] final  -74.32 input  -60.11 | X-H torsion
[ 7974 7965 7964 7962 ] final    3.26 input  175.53 | X-H torsion
[ 8008 7997 7996 7995 ] final  140.81 input   59.86 | X-H torsion
[ 10167 10162 10161 10158 ] final  138.50 input  -65.29 | X-H torsion
[ 10718 10713 10712 10709 ] final -107.60 input   66.30 | X-H torsion
[ 10763 10752 10751 10750 ] final  113.07 input  -60.55 | X-H torsion
[ 11005 11000 10999 10996 ] final  -43.70 input  -57.11 | X-H torsion

> <Gold.Protein.ActiveResidues>
 VAL166  LYS551  ARG553  GLY616  TRP617  ASP618  TYR619  PRO620  LYS621  CYS622 
 ASP623  PHE694  ASN695  SER759  ASP760  ASP761  ALA762  ILE779  LEU786  VAL792 
 PHE793  MET794  SER795  GLU796  ALA797  LYS798  CYS799  TRP800  GLU811  SER814 

> <Gold.Protein.RotatedAtoms>
  150.7097  134.4886  159.5504 H   0  0  0  0  0  0  0  0  0  0  0  0  # atno 6907 bound_to 6896
  152.2508  134.8131  160.0455 H   0  0  0  0  0  0  0  0  0  0  0  0  # atno 6908 bound_to 6896
  151.8879  133.3474  159.3825 H   0  0  0  0  0  0  0  0  0  0  0  0  # atno 6909 bound_to 6896
  146.2445  140.0712  142.8362 H   0  0  0  0  0  0  0  0  0  0  0  0  # atno 7974 bound_to 7965
  156.2974  140.2331  156.4462 H   0  0  0  0  0  0  0  0  0  0  0  0  # atno 8008 bound_to 7997
  154.8142  140.0441  157.1385 H   0  0  0  0  0  0  0  0  0  0  0  0  # atno 8009 bound_to 7997
  154.9388  140.3026  155.5134 H   0  0  0  0  0  0  0  0  0  0  0  0  # atno 8010 bound_to 7997
  139.5109  144.6350  151.5720 H   0  0  0  0  0  0  0  0  0  0  0  0  # atno 10167 bound_to 10162
  156.0444  130.5671  150.7844 H   0  0  0  0  0  0  0  0  0  0  0  0  # atno 10718 bound_to 10713
  153.4871  135.3666  155.2473 H   0  0  0  0  0  0  0  0  0  0  0  0  # atno 10763 bound_to 10752
  154.8753  135.3968  154.3632 H   0  0  0  0  0  0  0  0  0  0  0  0  # atno 10764 bound_to 10752
  153.4245  135.7081  153.6337 H   0  0  0  0  0  0  0  0  0  0  0  0  # atno 10765 bound_to 10752
  141.0401  133.6783  156.2769 H   0  0  0  0  0  0  0  0  0  0  0  0  # atno 11005 bound_to 11000
  145.0814  140.9223  143.4823 LP  0  0  0  0  0  0  0  0  0  0  0  0  # atno 17320 bound_to 7965
  145.0866  139.2920  143.5756 LP  0  0  0  0  0  0  0  0  0  0  0  0  # atno 17321 bound_to 7965
  140.6095  143.9461  150.6443 LP  0  0  0  0  0  0  0  0  0  0  0  0  # atno 17342 bound_to 10162
  140.2700  143.3463  152.1247 LP  0  0  0  0  0  0  0  0  0  0  0  0  # atno 17343 bound_to 10162
  157.5302  131.0936  150.9964 LP  0  0  0  0  0  0  0  0  0  0  0  0  # atno 17370 bound_to 10713
  157.0273  130.5697  149.5338 LP  0  0  0  0  0  0  0  0  0  0  0  0  # atno 17371 bound_to 10713
  140.6250  134.5323  157.5552 LP  0  0  0  0  0  0  0  0  0  0  0  0  # atno 17394 bound_to 11000
  139.9269  134.8038  156.1041 LP  0  0  0  0  0  0  0  0  0  0  0  0  # atno 17395 bound_to 11000

$$$$
