AV-unprocessed.smi:1666|AV-procd|sdf|6672|dock9
  -GOLD-   22720 7383D 1   1.00000     0.00000
 Structure written by MMmdl.
 40 41  0  0  0  0  0  0  0  0  2 V2000
  147.7744  133.2393  152.4134 C   0  0  0  0  0  0  0  0  0  0  0  0
  146.3559  133.2405  151.8668 C   0  0  0  0  0  0  0  0  0  0  0  0
  145.6764  132.0140  151.7082 C   0  0  0  0  0  0  0  0  0  0  0  0
  144.3649  132.0168  151.2033 C   0  0  0  0  0  0  0  0  0  0  0  0
  143.7846  133.2540  150.8758 C   0  0  0  0  0  0  0  0  0  0  0  0
  144.4262  134.4308  151.0243 N   0  0  0  0  0  0  0  0  0  0  0  0
  145.6925  134.4457  151.5114 C   0  0  0  0  0  0  0  0  0  0  0  0
  146.4299  135.6494  151.6941 N   0  0  0  0  0  0  0  0  0  0  0  0
  145.9793  136.8547  152.0842 C   0  0  0  0  0  0  0  0  0  0  0  0
  144.8112  137.1256  152.3655 O   0  0  0  0  0  0  0  0  0  0  0  0
  146.9729  137.7539  152.1307 N   0  0  0  0  0  0  0  0  0  0  0  0
  146.8104  139.1508  152.5155 C   0  0  0  0  0  0  0  0  0  0  0  0
  146.1829  139.2796  153.9169 C   0  0  0  0  0  0  0  0  0  0  0  0
  145.7545  140.6674  154.2198 N   0  3  0  0  0  0  0  0  0  0  0  0
  145.3869  140.8455  155.6451 C   0  0  0  0  0  0  0  0  0  0  0  0
  144.9064  142.2835  155.9036 C   0  0  0  0  0  0  0  0  0  0  0  0
  145.9207  143.2016  155.5165 O   0  0  0  0  0  0  0  0  0  0  0  0
  146.2231  143.1055  154.1303 C   0  0  0  0  0  0  0  0  0  0  0  0
  146.7452  141.6944  153.8106 C   0  0  0  0  0  0  0  0  0  0  0  0
  148.1225  132.2251  152.6119 H   0  0  0  0  0  0  0  0  0  0  0  0
  147.8239  133.7992  153.3476 H   0  0  0  0  0  0  0  0  0  0  0  0
  148.4606  133.6946  151.6987 H   0  0  0  0  0  0  0  0  0  0  0  0
  146.1520  131.0801  151.9696 H   0  0  0  0  0  0  0  0  0  0  0  0
  143.8182  131.0950  151.0707 H   0  0  0  0  0  0  0  0  0  0  0  0
  142.7792  133.3015  150.4844 H   0  0  0  0  0  0  0  0  0  0  0  0
  147.4183  135.5814  151.5026 H   0  0  0  0  0  0  0  0  0  0  0  0
  147.9044  137.4505  151.8856 H   0  0  0  0  0  0  0  0  0  0  0  0
  147.7785  139.6495  152.4620 H   0  0  0  0  0  0  0  0  0  0  0  0
  146.1711  139.6343  151.7764 H   0  0  0  0  0  0  0  0  0  0  0  0
  145.3147  138.6199  153.9591 H   0  0  0  0  0  0  0  0  0  0  0  0
  146.8693  138.9332  154.6911 H   0  0  0  0  0  0  0  0  0  0  0  0
  144.5984  140.1423  155.9160 H   0  0  0  0  0  0  0  0  0  0  0  0
  146.2485  140.6204  156.2758 H   0  0  0  0  0  0  0  0  0  0  0  0
  143.9836  142.4906  155.3592 H   0  0  0  0  0  0  0  0  0  0  0  0
  144.6895  142.4228  156.9628 H   0  0  0  0  0  0  0  0  0  0  0  0
  145.3384  143.3381  153.5351 H   0  0  0  0  0  0  0  0  0  0  0  0
  146.9789  143.8509  153.8820 H   0  0  0  0  0  0  0  0  0  0  0  0
  147.6882  141.5219  154.3319 H   0  0  0  0  0  0  0  0  0  0  0  0
  146.9538  141.6225  152.7438 H   0  0  0  0  0  0  0  0  0  0  0  0
  144.9133  140.8352  153.6862 H   0  0  0  0  0  0  0  0  0  0  0  0
  1  2  1  0  0  0  0
  1 20  1  0  0  0  0
  1 21  1  0  0  0  0
  1 22  1  0  0  0  0
  2  7  1  0  0  0  0
  2  3  2  0  0  0  0
  3  4  1  0  0  0  0
  3 23  1  0  0  0  0
  4  5  2  0  0  0  0
  4 24  1  0  0  0  0
  5  6  1  0  0  0  0
  5 25  1  0  0  0  0
  6  7  2  0  0  0  0
  7  8  1  0  0  0  0
  8  9  1  0  0  0  0
  8 26  1  0  0  0  0
  9 10  2  0  0  0  0
  9 11  1  0  0  0  0
 11 12  1  0  0  0  0
 11 27  1  0  0  0  0
 12 13  1  0  0  0  0
 12 28  1  0  0  0  0
 12 29  1  0  0  0  0
 13 14  1  0  0  0  0
 13 30  1  0  0  0  0
 13 31  1  0  0  0  0
 14 19  1  0  0  0  0
 14 15  1  0  0  0  0
 14 40  1  0  0  0  0
 15 16  1  0  0  0  0
 15 32  1  0  0  0  0
 15 33  1  0  0  0  0
 16 17  1  0  0  0  0
 16 34  1  0  0  0  0
 16 35  1  0  0  0  0
 17 18  1  0  0  0  0
 18 19  1  0  0  0  0
 18 36  1  0  0  0  0
 18 37  1  0  0  0  0
 19 38  1  0  0  0  0
 19 39  1  0  0  0  0
M  CHG  1  14   1
M  END
> <s_m_source_file>
AV-unprocessed.smi

> <i_m_source_file_index>
1666

> <i_lp_mmshare_version>
43012

> <i_f3d_flags>
0

> <s_epik_input>
W0NIM11jMVtjSF1bY0hdW2NIXW5jMVtOSF1DKD1PKVtOSF1bQ0gyXVtDSDJdTjJbQ0gyXVtDSDJdT1tDSDJdW0NIMl0y

> <s_epik_cmdline>
J2VwaWtfcHl0aG9uJywgJy1waCcsICc3LjAnLCAnLXRuJywgJzgnLCAnLW1hJywgJzIwMCcsICctbWV0YWxfYmluZGluZycsICctaW1hZScsICc8aW5maWxlLm1hZT4nLCAnLW9tYWUnLCAnPG91dGZpbGUubWFlPic=

> <r_epik_Ionization_Penalty>
0.602573

> <r_epik_Ionization_Penalty_Charging>
0.602531

> <r_epik_Ionization_Penalty_Neutral>
4.20806e-05

> <r_epik_State_Penalty>
0.617039

> <r_epik_Charging_Adjusted_Penalty>
1.21957

> <i_epik_Tot_Q>
1

> <i_epik_Tot_abs_Q>
1

> <r_epik_Metal_State_Penalty>
0.617042

> <b_epik_Metal_Only>
0

> <s_lp_Force_Field>
OPLS_2005

> <r_lp_Energy>
16.3818

> <b_lp_Chiralities_Consistent>
1

> <s_lp_Variant>
AV-unprocessed.smi:1666-2

> <Gold.Version>
5.8.1

> <Gold.Id.Protein>
6NUR|6NUR_protein|mol2

> <Gold.PLP.Fitness>
45.0077

> <Gold.PLP.PLP>
-31.0206

> <Gold.PLP.part.hbond>
-2.8622

> <Gold.PLP.part.metal>
0.0000

> <Gold.PLP.part.buried>
-2.9534

> <Gold.PLP.part.nonpolar>
-25.8515

> <Gold.PLP.part.repulsive>
1.1431

> <Gold.PLP.ligand.clash>
0.0000

> <Gold.PLP.ligand.torsion>
0.3930

> <Gold.PLP.Chemscore.Hbond>
3.9200

> <Gold.PLP.Chemscore.CHOScore>
1.0000

> <Gold.PLP.Chemscore.Metal>
0.0000

> <Gold.Chemscore.Hbonds>
donor molecule, donor type, donor heavy atom, donor atom, acceptor molecule, acceptor atom, score
      L1  H     8    26       P1  7948  0.93
      L1  H    11    27       P1  7948  0.96
      L1  H    14    40       P1 10175  2.00
      L1  C     5    25       P1 10186  1.00

> <Gold.PLP.Chemscore.Internal.Correction>
0.0132

> <Gold.Rescore>
     Score         DG    S(hbond)    S(metal)    S(lipo)     H(rot)  DE(clash)    DE(int)     intcor
     15.11     -18.30       2.79        0.00      63.47       1.54       0.74       2.45       ----

> <Gold.Chemscore.Fitness>
15.1133

> <Gold.Chemscore.DG>
-18.3017

> <Gold.Chemscore.ZeroCoef>
-5.4800

> <Gold.Chemscore.Hbond>
2.7944

> <Gold.Chemscore.Metal>
0.0000

> <Gold.Chemscore.Lipo>
63.4702

> <Gold.Chemscore.Internal_Hbond>
0.0000

> <Gold.Chemscore.DEClash>
0.7429

> <Gold.Chemscore.DEInternal>
2.4455

> <Gold.Chemscore.Rot>
1.5381

> <Gold.Chemscore.Internal.Correction>
   9.000000E+99

> <Gold.Chemscore.Hbonds>
donor molecule, donor type, donor heavy atom, donor atom, acceptor molecule, acceptor atom, score
      L1  H     8    26       P1  7948  0.88
      L1  H    11    27       P1  7948  0.90
      L1  H    14    40       P1 10175  0.90

> <Gold.Chemscore.Hbond.Weighted>
-9.3332

> <Gold.Chemscore.Metal.Weighted>
-0.0000

> <Gold.Chemscore.Lipo.Weighted>
-7.4260

> <Gold.Chemscore.Internal_Hbond.Weighted>
0.0000

> <Gold.Chemscore.DEClash.Weighted>
0.7429

> <Gold.Chemscore.DEInternal.Weighted>
2.4455

> <Gold.Chemscore.Rot.Weighted>
3.9375

> <Gold.Chemscore.Internal.Correction.Weighted>
   9.000000E+99

> <Gold.Protein.RotatedTorsions>
[ 6907 6896 6895 6894 ] final  135.12 input  -60.11 | X-H torsion
[ 7974 7965 7964 7962 ] final   50.86 input  175.53 | X-H torsion
[ 8008 7997 7996 7995 ] final    9.25 input   59.86 | X-H torsion
[ 10167 10162 10161 10158 ] final  -75.40 input  -65.29 | X-H torsion
[ 10718 10713 10712 10709 ] final    1.31 input   66.30 | X-H torsion
[ 10763 10752 10751 10750 ] final  -82.25 input  -60.55 | X-H torsion
[ 11005 11000 10999 10996 ] final   11.08 input  -57.11 | X-H torsion

> <Gold.Protein.ActiveResidues>
 VAL166  LYS551  ARG553  GLY616  TRP617  ASP618  TYR619  PRO620  LYS621  CYS622 
 ASP623  PHE694  ASN695  SER759  ASP760  ASP761  ALA762  ILE779  LEU786  VAL792 
 PHE793  MET794  SER795  GLU796  ALA797  LYS798  CYS799  TRP800  GLU811  SER814 

> <Gold.Protein.RotatedAtoms>
  152.3039  133.5683  159.5636 H   0  0  0  0  0  0  0  0  0  0  0  0  # atno 6907 bound_to 6896
  150.7290  134.0251  159.3723 H   0  0  0  0  0  0  0  0  0  0  0  0  # atno 6908 bound_to 6896
  151.8149  135.0670  160.0468 H   0  0  0  0  0  0  0  0  0  0  0  0  # atno 6909 bound_to 6896
  145.9970  139.4399  143.0038 H   0  0  0  0  0  0  0  0  0  0  0  0  # atno 7974 bound_to 7965
  154.7775  140.2813  155.6090 H   0  0  0  0  0  0  0  0  0  0  0  0  # atno 8008 bound_to 7997
  156.2944  140.2629  156.2520 H   0  0  0  0  0  0  0  0  0  0  0  0  # atno 8009 bound_to 7997
  154.9825  140.0374  157.2273 H   0  0  0  0  0  0  0  0  0  0  0  0  # atno 8010 bound_to 7997
  140.4945  143.2373  151.7853 H   0  0  0  0  0  0  0  0  0  0  0  0  # atno 10167 bound_to 10162
  156.8463  130.5538  149.5673 H   0  0  0  0  0  0  0  0  0  0  0  0  # atno 10718 bound_to 10713
  154.5735  135.5598  153.7117 H   0  0  0  0  0  0  0  0  0  0  0  0  # atno 10763 bound_to 10752
  153.0056  135.6303  154.2081 H   0  0  0  0  0  0  0  0  0  0  0  0  # atno 10764 bound_to 10752
  154.2021  135.2877  155.2967 H   0  0  0  0  0  0  0  0  0  0  0  0  # atno 10765 bound_to 10752
  140.5073  134.0687  155.7809 H   0  0  0  0  0  0  0  0  0  0  0  0  # atno 11005 bound_to 11000
  145.7544  140.9960  143.1233 LP  0  0  0  0  0  0  0  0  0  0  0  0  # atno 17320 bound_to 7965
  144.6907  139.9254  143.7469 LP  0  0  0  0  0  0  0  0  0  0  0  0  # atno 17321 bound_to 7965
  139.4858  144.4605  151.9547 LP  0  0  0  0  0  0  0  0  0  0  0  0  # atno 17342 bound_to 10162
  140.3692  144.2876  150.5922 LP  0  0  0  0  0  0  0  0  0  0  0  0  # atno 17343 bound_to 10162
  156.0853  130.5853  150.9636 LP  0  0  0  0  0  0  0  0  0  0  0  0  # atno 17370 bound_to 10713
  157.6328  131.0919  150.8407 LP  0  0  0  0  0  0  0  0  0  0  0  0  # atno 17371 bound_to 10713
  141.1404  133.9148  157.2338 LP  0  0  0  0  0  0  0  0  0  0  0  0  # atno 17394 bound_to 11000
  139.9679  135.0137  156.9435 LP  0  0  0  0  0  0  0  0  0  0  0  0  # atno 17395 bound_to 11000

$$$$
