AV-unprocessed.smi:1005|AV-procd|sdf|4364|dock2
  -GOLD-   22720 2263D 1   1.00000     0.00000
 Structure written by MMmdl.
 56 58  0  0  0  0  0  0  0  0  2 V2000
  152.7171  142.8028  161.6463 C   0  0  0  0  0  0  0  0  0  0  0  0
  152.2046  142.4962  160.2502 C   0  0  0  0  0  0  0  0  0  0  0  0
  152.6721  141.3406  159.5848 C   0  0  0  0  0  0  0  0  0  0  0  0
  152.2187  141.0186  158.2870 C   0  0  0  0  0  0  0  0  0  0  0  0
  152.5354  139.9517  157.4637 N   0  0  0  0  0  0  0  0  0  0  0  0
  151.7907  140.2099  156.3929 C   0  0  0  0  0  0  0  0  0  0  0  0
  151.0208  141.3142  156.4282 N   0  0  0  0  0  0  0  0  0  0  0  0
  150.1219  141.7817  155.3881 C   0  0  0  0  0  0  0  0  0  0  0  0
  149.3395  140.6274  154.7345 C   0  0  2  0  0  0  0  0  0  0  0  0
  150.1901  140.0071  153.7933 O   0  0  0  0  0  0  0  0  0  0  0  0
  148.0620  141.0934  153.9995 C   0  0  0  0  0  0  0  0  0  0  0  0
  146.9386  140.1570  154.0445 N   0  0  0  0  0  0  0  0  0  0  0  0
  146.2115  140.2815  155.3029 C   0  0  0  0  0  0  0  0  0  0  0  0
  145.0310  139.3001  155.3828 C   0  0  0  0  0  0  0  0  0  0  0  0
  145.5084  137.9705  155.2056 O   0  0  0  0  0  0  0  0  0  0  0  0
  146.1841  137.7808  153.9648 C   0  0  2  0  0  0  0  0  0  0  0  0
  146.6598  136.3189  153.8992 C   0  0  0  0  0  0  0  0  0  0  0  0
  146.9308  135.8692  152.5102 N   0  3  0  0  0  0  0  0  0  0  0  0
  147.1445  134.4081  152.3975 C   0  0  0  0  0  0  0  0  0  0  0  0
  145.8999  136.3419  151.5600 C   0  0  0  0  0  0  0  0  0  0  0  0
  147.3672  138.7672  153.8891 C   0  0  0  0  0  0  0  0  0  0  0  0
  151.2766  141.8913  157.6676 C   0  0  0  0  0  0  0  0  0  0  0  0
  150.8048  143.0446  158.3190 C   0  0  0  0  0  0  0  0  0  0  0  0
  151.2694  143.3523  159.6148 C   0  0  0  0  0  0  0  0  0  0  0  0
  150.7536  144.6000  160.3092 C   0  0  0  0  0  0  0  0  0  0  0  0
  153.3853  142.0200  162.0067 H   0  0  0  0  0  0  0  0  0  0  0  0
  151.8881  142.8831  162.3497 H   0  0  0  0  0  0  0  0  0  0  0  0
  153.2691  143.7429  161.6516 H   0  0  0  0  0  0  0  0  0  0  0  0
  153.3845  140.6881  160.0680 H   0  0  0  0  0  0  0  0  0  0  0  0
  151.7984  139.5538  155.5347 H   0  0  0  0  0  0  0  0  0  0  0  0
  149.4377  142.5162  155.8146 H   0  0  0  0  0  0  0  0  0  0  0  0
  150.7169  142.3075  154.6400 H   0  0  0  0  0  0  0  0  0  0  0  0
  149.1095  139.8950  155.5069 H   0  0  0  0  0  0  0  0  0  0  0  0
  149.7563  140.0068  152.9536 H   0  0  0  0  0  0  0  0  0  0  0  0
  147.7254  142.0474  154.4054 H   0  0  0  0  0  0  0  0  0  0  0  0
  148.3258  141.3039  152.9618 H   0  0  0  0  0  0  0  0  0  0  0  0
  146.8872  140.1017  156.1407 H   0  0  0  0  0  0  0  0  0  0  0  0
  145.8390  141.3003  155.4166 H   0  0  0  0  0  0  0  0  0  0  0  0
  144.5386  139.3766  156.3523 H   0  0  0  0  0  0  0  0  0  0  0  0
  144.2828  139.5312  154.6231 H   0  0  0  0  0  0  0  0  0  0  0  0
  145.4981  137.9940  153.1444 H   0  0  0  0  0  0  0  0  0  0  0  0
  147.5547  136.1778  154.5073 H   0  0  0  0  0  0  0  0  0  0  0  0
  145.8867  135.6896  154.3434 H   0  0  0  0  0  0  0  0  0  0  0  0
  146.2563  133.8576  152.7107 H   0  0  0  0  0  0  0  0  0  0  0  0
  147.9845  134.0767  153.0070 H   0  0  0  0  0  0  0  0  0  0  0  0
  147.3667  134.1325  151.3660 H   0  0  0  0  0  0  0  0  0  0  0  0
  144.9216  135.9266  151.8057 H   0  0  0  0  0  0  0  0  0  0  0  0
  146.1505  136.0481  150.5401 H   0  0  0  0  0  0  0  0  0  0  0  0
  145.8255  137.4299  151.5784 H   0  0  0  0  0  0  0  0  0  0  0  0
  147.8717  138.6278  152.9344 H   0  0  0  0  0  0  0  0  0  0  0  0
  148.0962  138.5184  154.6622 H   0  0  0  0  0  0  0  0  0  0  0  0
  150.0896  143.6862  157.8259 H   0  0  0  0  0  0  0  0  0  0  0  0
  150.0968  145.1757  159.6564 H   0  0  0  0  0  0  0  0  0  0  0  0
  151.5809  145.2465  160.6025 H   0  0  0  0  0  0  0  0  0  0  0  0
  150.1884  144.3322  161.2022 H   0  0  0  0  0  0  0  0  0  0  0  0
  147.7927  136.3158  152.2289 H   0  0  0  0  0  0  0  0  0  0  0  0
  1  2  1  0  0  0  0
  1 26  1  0  0  0  0
  1 27  1  0  0  0  0
  1 28  1  0  0  0  0
  2 24  1  0  0  0  0
  2  3  2  0  0  0  0
  3  4  1  0  0  0  0
  3 29  1  0  0  0  0
  4 22  2  0  0  0  0
  4  5  1  0  0  0  0
  5  6  2  0  0  0  0
  6  7  1  0  0  0  0
  6 30  1  0  0  0  0
  7  8  1  0  0  0  0
  7 22  1  0  0  0  0
  8  9  1  0  0  0  0
  8 31  1  0  0  0  0
  8 32  1  0  0  0  0
  9 10  1  0  0  0  0
  9 11  1  0  0  0  0
  9 33  1  0  0  0  0
 10 34  1  0  0  0  0
 11 12  1  0  0  0  0
 11 35  1  0  0  0  0
 11 36  1  0  0  0  0
 12 21  1  0  0  0  0
 12 13  1  0  0  0  0
 13 14  1  0  0  0  0
 13 37  1  0  0  0  0
 13 38  1  0  0  0  0
 14 15  1  0  0  0  0
 14 39  1  0  0  0  0
 14 40  1  0  0  0  0
 15 16  1  0  0  0  0
 16 17  1  0  0  0  0
 16 21  1  0  0  0  0
 16 41  1  0  0  0  0
 17 18  1  0  0  0  0
 17 42  1  0  0  0  0
 17 43  1  0  0  0  0
 18 19  1  0  0  0  0
 18 20  1  0  0  0  0
 18 56  1  0  0  0  0
 19 44  1  0  0  0  0
 19 45  1  0  0  0  0
 19 46  1  0  0  0  0
 20 47  1  0  0  0  0
 20 48  1  0  0  0  0
 20 49  1  0  0  0  0
 21 50  1  0  0  0  0
 21 51  1  0  0  0  0
 22 23  1  0  0  0  0
 23 24  2  0  0  0  0
 23 52  1  0  0  0  0
 24 25  1  0  0  0  0
 25 53  1  0  0  0  0
 25 54  1  0  0  0  0
 25 55  1  0  0  0  0
M  CHG  1  18   1
M  END
> <s_m_source_file>
AV-unprocessed.smi

> <i_m_source_file_index>
1005

> <i_lp_mmshare_version>
43012

> <i_f3d_flags>
0

> <s_epik_input>
W0NIM11jKFtjSF0xKWMoW0NIM10pW2NIXWMoYzEyKW4oW2NIXW4yKVtDSDJdW0NASF0oW09IXSlbQ0gyXU4zW0NIMl1bQ0gyXU9bQ0BIXShbQ0gyXTMpW0NIMl1OKFtDSDNdKVtDSDNd

> <s_epik_cmdline>
J2VwaWtfcHl0aG9uJywgJy1waCcsICc3LjAnLCAnLXRuJywgJzgnLCAnLW1hJywgJzIwMCcsICctbWV0YWxfYmluZGluZycsICctaW1hZScsICc8aW5maWxlLm1hZT4nLCAnLW9tYWUnLCAnPG91dGZpbGUubWFlPic=

> <r_epik_Ionization_Penalty>
0.226781

> <r_epik_Ionization_Penalty_Charging>
0.00915946

> <r_epik_Ionization_Penalty_Neutral>
0.217622

> <r_epik_State_Penalty>
0.173018

> <r_epik_Charging_Adjusted_Penalty>
0.182178

> <i_epik_Tot_Q>
1

> <i_epik_Tot_abs_Q>
1

> <r_epik_Metal_State_Penalty>
0.0905268

> <b_epik_Metal_Only>
0

> <s_lp_Force_Field>
OPLS_2005

> <r_lp_Energy>
37.9452

> <b_lp_Chiralities_Consistent>
1

> <s_lp_Variant>
AV-unprocessed.smi:1005-3

> <Gold.Version>
5.8.1

> <Gold.Id.Protein>
6NUR|6NUR_protein|mol2

> <Gold.PLP.Fitness>
56.5833

> <Gold.PLP.PLP>
-44.1641

> <Gold.PLP.part.hbond>
-4.0000

> <Gold.PLP.part.metal>
0.0000

> <Gold.PLP.part.buried>
-4.7955

> <Gold.PLP.part.nonpolar>
-34.3868

> <Gold.PLP.part.repulsive>
0.1756

> <Gold.PLP.ligand.clash>
0.0000

> <Gold.PLP.ligand.torsion>
1.4209

> <Gold.PLP.Chemscore.Hbond>
4.9120

> <Gold.PLP.Chemscore.CHOScore>
0.0000

> <Gold.PLP.Chemscore.Metal>
0.0000

> <Gold.Chemscore.Hbonds>
donor molecule, donor type, donor heavy atom, donor atom, acceptor molecule, acceptor atom, score
      L1  H    10    34       P1  7957  1.00
      L1  H    18    56       P1  7948  0.39
      P1  H  7989  7998       L1    10  0.86
      P1  H  7997  8009       L1     5  1.00

> <Gold.PLP.Chemscore.Internal.Correction>
0.5250

> <Gold.Rescore>
     Score         DG    S(hbond)    S(metal)    S(lipo)     H(rot)  DE(clash)    DE(int)     intcor
     20.46     -22.66       2.90        0.00     116.79       2.41       0.69       1.51       ----

> <Gold.Chemscore.Fitness>
20.4629

> <Gold.Chemscore.DG>
-22.6621

> <Gold.Chemscore.ZeroCoef>
-5.4800

> <Gold.Chemscore.Hbond>
2.9031

> <Gold.Chemscore.Metal>
0.0000

> <Gold.Chemscore.Lipo>
116.7899

> <Gold.Chemscore.Internal_Hbond>
0.0000

> <Gold.Chemscore.DEClash>
0.6939

> <Gold.Chemscore.DEInternal>
1.5053

> <Gold.Chemscore.Rot>
2.4136

> <Gold.Chemscore.Internal.Correction>
   9.000000E+99

> <Gold.Chemscore.Hbonds>
donor molecule, donor type, donor heavy atom, donor atom, acceptor molecule, acceptor atom, score
      L1  H    10    34       P1  7957  0.99
      L1  H    18    56       P1  7948  0.20
      P1  H  7989  7998       L1    10  0.26
      P1  H  7997  8009       L1     5  0.33

> <Gold.Chemscore.Hbond.Weighted>
-9.6965

> <Gold.Chemscore.Metal.Weighted>
-0.0000

> <Gold.Chemscore.Lipo.Weighted>
-13.6644

> <Gold.Chemscore.Internal_Hbond.Weighted>
0.0000

> <Gold.Chemscore.DEClash.Weighted>
0.6939

> <Gold.Chemscore.DEInternal.Weighted>
1.5053

> <Gold.Chemscore.Rot.Weighted>
6.1788

> <Gold.Chemscore.Internal.Correction.Weighted>
   9.000000E+99

> <Gold.Protein.RotatedTorsions>
[ 6907 6896 6895 6894 ] final  160.52 input  -60.11 | X-H torsion
[ 7974 7965 7964 7962 ] final -175.62 input  175.53 | X-H torsion
[ 8008 7997 7996 7995 ] final  170.45 input   59.86 | X-H torsion
[ 10167 10162 10161 10158 ] final   76.97 input  -65.29 | X-H torsion
[ 10718 10713 10712 10709 ] final  132.69 input   66.30 | X-H torsion
[ 10763 10752 10751 10750 ] final  -82.41 input  -60.55 | X-H torsion
[ 11005 11000 10999 10996 ] final -140.28 input  -57.11 | X-H torsion

> <Gold.Protein.ActiveResidues>
 VAL166  LYS551  ARG553  GLY616  TRP617  ASP618  TYR619  PRO620  LYS621  CYS622 
 ASP623  PHE694  ASN695  SER759  ASP760  ASP761  ALA762  ILE779  LEU786  VAL792 
 PHE793  MET794  SER795  GLU796  ALA797  LYS798  CYS799  TRP800  GLU811  SER814 

> <Gold.Protein.RotatedAtoms>
  151.9694  133.3721  159.4064 H   0  0  0  0  0  0  0  0  0  0  0  0  # atno 6907 bound_to 6896
  150.6951  134.4156  159.5191 H   0  0  0  0  0  0  0  0  0  0  0  0  # atno 6908 bound_to 6896
  152.1858  134.8715  160.0573 H   0  0  0  0  0  0  0  0  0  0  0  0  # atno 6909 bound_to 6896
  144.7128  140.1293  143.6400 H   0  0  0  0  0  0  0  0  0  0  0  0  # atno 7974 bound_to 7965
  156.1364  140.1538  156.8987 H   0  0  0  0  0  0  0  0  0  0  0  0  # atno 8008 bound_to 7997
  154.4951  140.0840  156.7718 H   0  0  0  0  0  0  0  0  0  0  0  0  # atno 8009 bound_to 7997
  155.4160  140.3421  155.4269 H   0  0  0  0  0  0  0  0  0  0  0  0  # atno 8010 bound_to 7997
  139.9866  144.5788  150.7854 H   0  0  0  0  0  0  0  0  0  0  0  0  # atno 10167 bound_to 10162
  157.4846  131.1087  150.9637 H   0  0  0  0  0  0  0  0  0  0  0  0  # atno 10718 bound_to 10713
  154.5754  135.5592  153.7135 H   0  0  0  0  0  0  0  0  0  0  0  0  # atno 10763 bound_to 10752
  153.0063  135.6307  154.2056 H   0  0  0  0  0  0  0  0  0  0  0  0  # atno 10764 bound_to 10752
  154.1996  135.2878  155.2975 H   0  0  0  0  0  0  0  0  0  0  0  0  # atno 10765 bound_to 10752
  140.8438  134.2369  157.4796 H   0  0  0  0  0  0  0  0  0  0  0  0  # atno 11005 bound_to 11000
  145.9301  139.2601  143.1330 LP  0  0  0  0  0  0  0  0  0  0  0  0  # atno 17320 bound_to 7965
  145.9531  140.8893  143.0249 LP  0  0  0  0  0  0  0  0  0  0  0  0  # atno 17321 bound_to 7965
  140.7470  143.2899  151.3359 LP  0  0  0  0  0  0  0  0  0  0  0  0  # atno 17342 bound_to 10162
  139.6371  144.0610  152.2524 LP  0  0  0  0  0  0  0  0  0  0  0  0  # atno 17343 bound_to 10162
  157.0358  130.5729  149.5349 LP  0  0  0  0  0  0  0  0  0  0  0  0  # atno 17370 bound_to 10713
  156.0140  130.5233  150.8077 LP  0  0  0  0  0  0  0  0  0  0  0  0  # atno 17371 bound_to 10713
  139.8703  134.9649  156.4510 LP  0  0  0  0  0  0  0  0  0  0  0  0  # atno 17394 bound_to 11000
  140.8866  133.7879  155.9525 LP  0  0  0  0  0  0  0  0  0  0  0  0  # atno 17395 bound_to 11000

$$$$
