AV-unprocessed.smi:2542|AV-procd|sdf|9991|dock4
  -GOLD-   2272014 43D 1   1.00000     0.00000
 Structure written by MMmdl.
 41 42  0  0  0  0  0  0  0  0  1 V2000
  151.9781  140.1415  156.5776 C   0  0  0  0  0  0  0  0  0  0  0  0
  150.8501  141.0210  157.1563 C   0  0  0  0  0  0  0  0  0  0  0  0
  150.0534  141.5909  155.9577 C   0  0  0  0  0  0  0  0  0  0  0  0
  149.8975  140.1306  157.9953 C   0  0  0  0  0  0  0  0  0  0  0  0
  149.5500  138.8973  157.2972 N   0  0  0  0  0  0  0  0  0  0  0  0
  148.8445  137.8828  157.8194 C   0  0  0  0  0  0  0  0  0  0  0  0
  148.4287  137.8982  158.9789 O   0  0  0  0  0  0  0  0  0  0  0  0
  148.5617  136.6655  156.9060 C   0  0  0  0  0  0  0  0  0  0  0  0
  149.1325  135.4221  157.4639 C   0  0  0  0  0  0  0  0  0  0  0  0
  149.5793  134.4480  157.9018 N   0  0  0  0  0  0  0  0  0  0  0  0
  147.0350  136.5069  156.6740 C   0  0  0  0  0  0  0  0  0  0  0  0
  146.7750  136.6930  155.1739 C   0  0  0  0  0  0  0  0  0  0  0  0
  147.9855  137.4570  154.6512 C   0  0  0  0  0  0  0  0  0  0  0  0
  149.1391  136.9138  155.4926 C   0  0  0  0  0  0  0  0  0  0  0  0
  151.4610  142.1274  158.0389 C   0  0  0  0  0  0  0  0  0  0  0  0
  151.3335  143.5066  157.7401 C   0  0  0  0  0  0  0  0  0  0  0  0
  151.9068  144.4519  158.6135 C   0  0  0  0  0  0  0  0  0  0  0  0
  152.5811  144.1180  159.7327 N   0  0  0  0  0  0  0  0  0  0  0  0
  152.7046  142.8064  160.0208 C   0  0  0  0  0  0  0  0  0  0  0  0
  152.1676  141.7831  159.2153 C   0  0  0  0  0  0  0  0  0  0  0  0
  151.5789  139.3601  155.9299 H   0  0  0  0  0  0  0  0  0  0  0  0
  152.5529  139.6442  157.3589 H   0  0  0  0  0  0  0  0  0  0  0  0
  152.6755  140.7340  155.9845 H   0  0  0  0  0  0  0  0  0  0  0  0
  149.6359  140.7903  155.3459 H   0  0  0  0  0  0  0  0  0  0  0  0
  150.6862  142.1929  155.3043 H   0  0  0  0  0  0  0  0  0  0  0  0
  149.2166  142.2123  156.2788 H   0  0  0  0  0  0  0  0  0  0  0  0
  150.3516  139.8986  158.9604 H   0  0  0  0  0  0  0  0  0  0  0  0
  148.9703  140.6626  158.2137 H   0  0  0  0  0  0  0  0  0  0  0  0
  149.8580  138.8180  156.3383 H   0  0  0  0  0  0  0  0  0  0  0  0
  146.6746  135.5314  157.0027 H   0  0  0  0  0  0  0  0  0  0  0  0
  146.4587  137.2447  157.2350 H   0  0  0  0  0  0  0  0  0  0  0  0
  146.7258  135.7171  154.6889 H   0  0  0  0  0  0  0  0  0  0  0  0
  145.8358  137.2090  154.9724 H   0  0  0  0  0  0  0  0  0  0  0  0
  148.1423  137.3155  153.5815 H   0  0  0  0  0  0  0  0  0  0  0  0
  147.8588  138.5250  154.8317 H   0  0  0  0  0  0  0  0  0  0  0  0
  149.9963  137.5890  155.4860 H   0  0  0  0  0  0  0  0  0  0  0  0
  149.4815  135.9723  155.0601 H   0  0  0  0  0  0  0  0  0  0  0  0
  150.8077  143.8629  156.8679 H   0  0  0  0  0  0  0  0  0  0  0  0
  151.8193  145.5084  158.4060 H   0  0  0  0  0  0  0  0  0  0  0  0
  153.2458  142.5632  160.9230 H   0  0  0  0  0  0  0  0  0  0  0  0
  152.2970  140.7516  159.5072 H   0  0  0  0  0  0  0  0  0  0  0  0
  1  2  1  0  0  0  0
  1 21  1  0  0  0  0
  1 22  1  0  0  0  0
  1 23  1  0  0  0  0
  2  3  1  0  0  0  0
  2  4  1  0  0  0  0
  2 15  1  0  0  0  0
  3 24  1  0  0  0  0
  3 25  1  0  0  0  0
  3 26  1  0  0  0  0
  4  5  1  0  0  0  0
  4 27  1  0  0  0  0
  4 28  1  0  0  0  0
  5  6  1  0  0  0  0
  5 29  1  0  0  0  0
  6  7  2  0  0  0  0
  6  8  1  0  0  0  0
  8 14  1  0  0  0  0
  8  9  1  0  0  0  0
  8 11  1  0  0  0  0
  9 10  3  0  0  0  0
 11 12  1  0  0  0  0
 11 30  1  0  0  0  0
 11 31  1  0  0  0  0
 12 13  1  0  0  0  0
 12 32  1  0  0  0  0
 12 33  1  0  0  0  0
 13 14  1  0  0  0  0
 13 34  1  0  0  0  0
 13 35  1  0  0  0  0
 14 36  1  0  0  0  0
 14 37  1  0  0  0  0
 15 20  1  0  0  0  0
 15 16  2  0  0  0  0
 16 17  1  0  0  0  0
 16 38  1  0  0  0  0
 17 18  2  0  0  0  0
 17 39  1  0  0  0  0
 18 19  1  0  0  0  0
 19 20  2  0  0  0  0
 19 40  1  0  0  0  0
 20 41  1  0  0  0  0
M  END
> <s_m_source_file>
AV-unprocessed.smi

> <i_m_source_file_index>
2542

> <i_lp_mmshare_version>
43012

> <i_f3d_flags>
0

> <s_epik_input>
W2NIXTFbY0hdbltjSF1bY0hdYzFDKFtDSDNdKShbQ0gzXSlbQ0gyXVtOSF1DKD1PKUMyKEMjTilbQ0gyXVtDSDJdW0NIMl1bQ0gyXTI=

> <s_epik_cmdline>
J2VwaWtfcHl0aG9uJywgJy1waCcsICc3LjAnLCAnLXRuJywgJzgnLCAnLW1hJywgJzIwMCcsICctbWV0YWxfYmluZGluZycsICctaW1hZScsICc8aW5maWxlLm1hZT4nLCAnLW9tYWUnLCAnPG91dGZpbGUubWFlPic=

> <r_epik_Ionization_Penalty>
0.0480096

> <r_epik_Ionization_Penalty_Charging>
0

> <r_epik_Ionization_Penalty_Neutral>
0.0480096

> <r_epik_State_Penalty>
0.04092

> <r_epik_Charging_Adjusted_Penalty>
0.04092

> <i_epik_Tot_Q>
0

> <i_epik_Tot_abs_Q>
0

> <r_epik_Metal_State_Penalty>
0.0377989

> <b_epik_Metal_Only>
0

> <s_lp_Force_Field>
OPLS_2005

> <r_lp_Energy>
29.6926

> <b_lp_Chiralities_Consistent>
1

> <s_lp_Variant>
AV-unprocessed.smi:2542-1

> <Gold.Version>
5.8.1

> <Gold.Id.Protein>
6NUR|6NUR_protein|mol2

> <Gold.PLP.Fitness>
30.3180

> <Gold.PLP.PLP>
-28.8559

> <Gold.PLP.part.hbond>
-2.0000

> <Gold.PLP.part.metal>
0.0000

> <Gold.PLP.part.buried>
-4.0622

> <Gold.PLP.part.nonpolar>
-23.8458

> <Gold.PLP.part.repulsive>
0.0700

> <Gold.PLP.ligand.clash>
1.3400

> <Gold.PLP.ligand.torsion>
0.1891

> <Gold.PLP.Chemscore.Hbond>
1.0468

> <Gold.PLP.Chemscore.CHOScore>
0.0000

> <Gold.PLP.Chemscore.Metal>
0.0000

> <Gold.Chemscore.Hbonds>
donor molecule, donor type, donor heavy atom, donor atom, acceptor molecule, acceptor atom, score
      P1  H  6896  6908       L1    10  1.00

> <Gold.PLP.Chemscore.Internal.Correction>
0.0400

> <Gold.Rescore>
     Score         DG    S(hbond)    S(metal)    S(lipo)     H(rot)  DE(clash)    DE(int)     intcor
     14.93     -15.17       1.13        0.00      83.07       1.49       0.01       0.23       ----

> <Gold.Chemscore.Fitness>
14.9251

> <Gold.Chemscore.DG>
-15.1720

> <Gold.Chemscore.ZeroCoef>
-5.4800

> <Gold.Chemscore.Hbond>
1.1335

> <Gold.Chemscore.Metal>
0.0000

> <Gold.Chemscore.Lipo>
83.0735

> <Gold.Chemscore.Internal_Hbond>
0.0000

> <Gold.Chemscore.DEClash>
0.0149

> <Gold.Chemscore.DEInternal>
0.2321

> <Gold.Chemscore.Rot>
1.4897

> <Gold.Chemscore.Internal.Correction>
   9.000000E+99

> <Gold.Chemscore.Hbonds>
donor molecule, donor type, donor heavy atom, donor atom, acceptor molecule, acceptor atom, score
      P1  H  6896  6908       L1    10  0.99

> <Gold.Chemscore.Hbond.Weighted>
-3.7860

> <Gold.Chemscore.Metal.Weighted>
-0.0000

> <Gold.Chemscore.Lipo.Weighted>
-9.7196

> <Gold.Chemscore.Internal_Hbond.Weighted>
0.0000

> <Gold.Chemscore.DEClash.Weighted>
0.0149

> <Gold.Chemscore.DEInternal.Weighted>
0.2321

> <Gold.Chemscore.Rot.Weighted>
3.8136

> <Gold.Chemscore.Internal.Correction.Weighted>
   9.000000E+99

> <Gold.Protein.RotatedTorsions>
[ 6907 6896 6895 6894 ] final  134.49 input  -60.11 | X-H torsion
[ 7974 7965 7964 7962 ] final   60.78 input  175.53 | X-H torsion
[ 8008 7997 7996 7995 ] final  134.23 input   59.86 | X-H torsion
[ 10167 10162 10161 10158 ] final   -3.55 input  -65.29 | X-H torsion
[ 10718 10713 10712 10709 ] final  -68.82 input   66.30 | X-H torsion
[ 10763 10752 10751 10750 ] final   22.27 input  -60.55 | X-H torsion
[ 11005 11000 10999 10996 ] final  -88.39 input  -57.11 | X-H torsion

> <Gold.Protein.ActiveResidues>
 VAL166  LYS551  ARG553  GLY616  TRP617  ASP618  TYR619  PRO620  LYS621  CYS622 
 ASP623  PHE694  ASN695  SER759  ASP760  ASP761  ALA762  ILE779  LEU786  VAL792 
 PHE793  MET794  SER795  GLU796  ALA797  LYS798  CYS799  TRP800  GLU811  SER814 

> <Gold.Protein.RotatedAtoms>
  152.3107  133.5750  159.5678 H   0  0  0  0  0  0  0  0  0  0  0  0  # atno 6907 bound_to 6896
  150.7322  134.0156  159.3693 H   0  0  0  0  0  0  0  0  0  0  0  0  # atno 6908 bound_to 6896
  151.8049  135.0698  160.0456 H   0  0  0  0  0  0  0  0  0  0  0  0  # atno 6909 bound_to 6896
  145.8922  139.3519  143.0643 H   0  0  0  0  0  0  0  0  0  0  0  0  # atno 7974 bound_to 7965
  156.2998  140.2501  156.3384 H   0  0  0  0  0  0  0  0  0  0  0  0  # atno 8008 bound_to 7997
  154.9079  140.0404  157.1949 H   0  0  0  0  0  0  0  0  0  0  0  0  # atno 8009 bound_to 7997
  154.8435  140.2894  155.5648 H   0  0  0  0  0  0  0  0  0  0  0  0  # atno 8010 bound_to 7997
  140.6894  143.6527  150.8336 H   0  0  0  0  0  0  0  0  0  0  0  0  # atno 10167 bound_to 10162
  156.0486  130.4301  150.2057 H   0  0  0  0  0  0  0  0  0  0  0  0  # atno 10718 bound_to 10713
  153.0929  135.6652  153.9819 H   0  0  0  0  0  0  0  0  0  0  0  0  # atno 10763 bound_to 10752
  153.9411  135.2994  155.3444 H   0  0  0  0  0  0  0  0  0  0  0  0  # atno 10764 bound_to 10752
  154.7345  135.5108  153.9092 H   0  0  0  0  0  0  0  0  0  0  0  0  # atno 10765 bound_to 10752
  141.1602  133.7567  156.9444 H   0  0  0  0  0  0  0  0  0  0  0  0  # atno 11005 bound_to 11000
  145.8895  140.9313  143.0559 LP  0  0  0  0  0  0  0  0  0  0  0  0  # atno 17320 bound_to 7965
  144.6731  140.0886  143.7466 LP  0  0  0  0  0  0  0  0  0  0  0  0  # atno 17321 bound_to 7965
  140.0238  143.5514  152.2789 LP  0  0  0  0  0  0  0  0  0  0  0  0  # atno 17342 bound_to 10162
  139.6282  144.7640  151.2592 LP  0  0  0  0  0  0  0  0  0  0  0  0  # atno 17343 bound_to 10162
  157.0143  130.9960  151.3357 LP  0  0  0  0  0  0  0  0  0  0  0  0  # atno 17370 bound_to 10713
  157.5388  130.8106  149.8004 LP  0  0  0  0  0  0  0  0  0  0  0  0  # atno 17371 bound_to 10713
  140.1299  134.9362  157.2323 LP  0  0  0  0  0  0  0  0  0  0  0  0  # atno 17394 bound_to 11000
  140.2966  134.3180  155.7301 LP  0  0  0  0  0  0  0  0  0  0  0  0  # atno 17395 bound_to 11000

$$$$
