AV-unprocessed.smi:3167|AV-procd|sdf|12097|dock1
  -GOLD-   2272017533D 1   1.00000     0.00000
 Structure written by MMmdl.
 37 38  0  0  0  0  0  0  0  0  2 V2000
  149.6311  131.0056  153.7867 C   0  0  0  0  0  0  0  0  0  0  0  0
  149.1155  132.3146  153.1475 C   0  0  2  0  0  0  0  0  0  0  0  0
  148.7055  133.3355  154.2413 C   0  0  0  0  0  0  0  0  0  0  0  0
  149.3095  134.6507  154.0498 N   0  0  0  0  0  0  0  0  0  0  0  0
  150.2731  135.1692  154.8244 C   0  0  0  0  0  0  0  0  0  0  0  0
  150.7533  134.5802  155.7929 O   0  0  0  0  0  0  0  0  0  0  0  0
  150.6326  136.3932  154.4061 N   0  0  0  0  0  0  0  0  0  0  0  0
  151.5951  137.2513  154.9942 C   0  0  0  0  0  0  0  0  0  0  0  0
  152.3851  138.2719  154.3880 C   0  0  0  0  0  0  0  0  0  0  0  0
  153.1784  138.8550  155.2756 N   0  0  0  0  0  0  0  0  0  0  0  0
  152.9043  138.2196  156.4369 N   0  0  0  0  0  0  0  0  0  0  0  0
  151.9476  137.2367  156.3105 C   0  0  0  0  0  0  0  0  0  0  0  0
  147.9787  132.0554  152.2173 N   0  3  0  0  0  0  0  0  0  0  0  0
  146.9343  131.1370  152.7395 C   0  0  0  0  0  0  0  0  0  0  0  0
  145.5767  131.6636  152.2542 C   0  0  0  0  0  0  0  0  0  0  0  0
  145.9180  132.7447  151.2356 C   0  0  0  0  0  0  0  0  0  0  0  0
  147.2716  133.2545  151.7162 C   0  0  0  0  0  0  0  0  0  0  0  0
  153.3735  138.4659  157.2970 H   0  0  0  0  0  0  0  0  0  0  0  0
  150.4583  131.1913  154.4717 H   0  0  0  0  0  0  0  0  0  0  0  0
  150.0082  130.3062  153.0409 H   0  0  0  0  0  0  0  0  0  0  0  0
  148.8439  130.5031  154.3496 H   0  0  0  0  0  0  0  0  0  0  0  0
  149.9285  132.7384  152.5556 H   0  0  0  0  0  0  0  0  0  0  0  0
  147.6231  133.4618  154.2872 H   0  0  0  0  0  0  0  0  0  0  0  0
  149.0087  132.9679  155.2220 H   0  0  0  0  0  0  0  0  0  0  0  0
  148.9726  135.2013  153.2730 H   0  0  0  0  0  0  0  0  0  0  0  0
  150.1671  136.7515  153.5853 H   0  0  0  0  0  0  0  0  0  0  0  0
  152.4171  138.6069  153.3621 H   0  0  0  0  0  0  0  0  0  0  0  0
  151.6138  136.6343  157.1425 H   0  0  0  0  0  0  0  0  0  0  0  0
  147.1242  130.1291  152.3689 H   0  0  0  0  0  0  0  0  0  0  0  0
  146.9415  131.0962  153.8301 H   0  0  0  0  0  0  0  0  0  0  0  0
  144.9489  130.8786  151.8314 H   0  0  0  0  0  0  0  0  0  0  0  0
  145.0346  132.1059  153.0914 H   0  0  0  0  0  0  0  0  0  0  0  0
  146.0191  132.3020  150.2437 H   0  0  0  0  0  0  0  0  0  0  0  0
  145.1634  133.5298  151.1800 H   0  0  0  0  0  0  0  0  0  0  0  0
  147.1277  133.9662  152.5312 H   0  0  0  0  0  0  0  0  0  0  0  0
  147.8248  133.7524  150.9193 H   0  0  0  0  0  0  0  0  0  0  0  0
  148.3618  131.6035  151.3994 H   0  0  0  0  0  0  0  0  0  0  0  0
  1  2  1  0  0  0  0
  1 19  1  0  0  0  0
  1 20  1  0  0  0  0
  1 21  1  0  0  0  0
  2  3  1  0  0  0  0
  2 13  1  0  0  0  0
  2 22  1  0  0  0  0
  3  4  1  0  0  0  0
  3 23  1  0  0  0  0
  3 24  1  0  0  0  0
  4  5  1  0  0  0  0
  4 25  1  0  0  0  0
  5  6  2  0  0  0  0
  5  7  1  0  0  0  0
  7  8  1  0  0  0  0
  7 26  1  0  0  0  0
  8 12  2  0  0  0  0
  8  9  1  0  0  0  0
  9 10  2  0  0  0  0
  9 27  1  0  0  0  0
 10 11  1  0  0  0  0
 11 18  1  0  0  0  0
 11 12  1  0  0  0  0
 12 28  1  0  0  0  0
 13 17  1  0  0  0  0
 13 14  1  0  0  0  0
 13 37  1  0  0  0  0
 14 15  1  0  0  0  0
 14 29  1  0  0  0  0
 14 30  1  0  0  0  0
 15 16  1  0  0  0  0
 15 31  1  0  0  0  0
 15 32  1  0  0  0  0
 16 17  1  0  0  0  0
 16 33  1  0  0  0  0
 16 34  1  0  0  0  0
 17 35  1  0  0  0  0
 17 36  1  0  0  0  0
M  CHG  1  13   1
M  END
> <s_m_source_file>
AV-unprocessed.smi

> <i_m_source_file_index>
3167

> <i_lp_mmshare_version>
43012

> <i_f3d_flags>
0

> <s_epik_input>
W0NIMl0xW0NIMl1bQ0gyXVtDSDJdTjFbQ0BIXShbQ0gzXSlbQ0gyXVtOSF1DKD1PKVtOSF1jMltjSF1uW25IXVtjSF0y

> <s_epik_cmdline>
J2VwaWtfcHl0aG9uJywgJy1waCcsICc3LjAnLCAnLXRuJywgJzgnLCAnLW1hJywgJzIwMCcsICctbWV0YWxfYmluZGluZycsICctaW1hZScsICc8aW5maWxlLm1hZT4nLCAnLW9tYWUnLCAnPG91dGZpbGUubWFlPic=

> <r_lp_tautomer_probability>
0.5

> <r_epik_Ionization_Penalty>
0.000801258

> <r_epik_Ionization_Penalty_Charging>
0.000761583

> <r_epik_Ionization_Penalty_Neutral>
3.96747e-05

> <r_epik_State_Penalty>
0.000487427

> <r_epik_Charging_Adjusted_Penalty>
0.00124901

> <i_epik_Tot_Q>
1

> <i_epik_Tot_abs_Q>
1

> <r_epik_Metal_State_Penalty>
-0

> <b_epik_Metal_Only>
0

> <s_lp_Force_Field>
OPLS_2005

> <r_lp_Energy>
32.1126

> <b_lp_Chiralities_Consistent>
1

> <s_lp_Variant>
AV-unprocessed.smi:3167-1

> <Gold.Version>
5.8.1

> <Gold.Id.Protein>
6NUR|6NUR_protein|mol2

> <Gold.PLP.Fitness>
39.1785

> <Gold.PLP.PLP>
-29.5834

> <Gold.PLP.part.hbond>
-4.8429

> <Gold.PLP.part.metal>
0.0000

> <Gold.PLP.part.buried>
-5.2241

> <Gold.PLP.part.nonpolar>
-20.5094

> <Gold.PLP.part.repulsive>
0.2614

> <Gold.PLP.ligand.clash>
0.0000

> <Gold.PLP.ligand.torsion>
1.0858

> <Gold.PLP.Chemscore.Hbond>
3.9040

> <Gold.PLP.Chemscore.CHOScore>
0.0000

> <Gold.PLP.Chemscore.Metal>
0.0000

> <Gold.Chemscore.Hbonds>
donor molecule, donor type, donor heavy atom, donor atom, acceptor molecule, acceptor atom, score
      L1  H     4    25       P1  7948  1.00
      L1  H     7    26       P1  7948  0.51
      L1  H    13    37       P1 10747  0.86
      P1  H  7997  8010       L1    10  0.90

> <Gold.PLP.Chemscore.Internal.Correction>
0.0546

> <Gold.Rescore>
     Score         DG    S(hbond)    S(metal)    S(lipo)     H(rot)  DE(clash)    DE(int)     intcor
     15.63     -17.85       2.86        0.00      59.91       1.63       0.00       2.23       ----

> <Gold.Chemscore.Fitness>
15.6267

> <Gold.Chemscore.DG>
-17.8534

> <Gold.Chemscore.ZeroCoef>
-5.4800

> <Gold.Chemscore.Hbond>
2.8561

> <Gold.Chemscore.Metal>
0.0000

> <Gold.Chemscore.Lipo>
59.9113

> <Gold.Chemscore.Internal_Hbond>
0.0000

> <Gold.Chemscore.DEClash>
0.0004

> <Gold.Chemscore.DEInternal>
2.2263

> <Gold.Chemscore.Rot>
1.6311

> <Gold.Chemscore.Internal.Correction>
   9.000000E+99

> <Gold.Chemscore.Hbonds>
donor molecule, donor type, donor heavy atom, donor atom, acceptor molecule, acceptor atom, score
      L1  H     4    25       P1  7948  0.39
      L1  H     7    26       P1  7948  0.06
      L1  H    13    37       P1 10747  0.84
      P1  H  7997  8010       L1    10  0.18

> <Gold.Chemscore.Hbond.Weighted>
-9.5395

> <Gold.Chemscore.Metal.Weighted>
-0.0000

> <Gold.Chemscore.Lipo.Weighted>
-7.0096

> <Gold.Chemscore.Internal_Hbond.Weighted>
0.0000

> <Gold.Chemscore.DEClash.Weighted>
0.0004

> <Gold.Chemscore.DEInternal.Weighted>
2.2263

> <Gold.Chemscore.Rot.Weighted>
4.1757

> <Gold.Chemscore.Internal.Correction.Weighted>
   9.000000E+99

> <Gold.Protein.RotatedTorsions>
[ 6907 6896 6895 6894 ] final  129.77 input  -60.11 | X-H torsion
[ 7974 7965 7964 7962 ] final   23.36 input  175.53 | X-H torsion
[ 8008 7997 7996 7995 ] final   99.53 input   59.86 | X-H torsion
[ 10167 10162 10161 10158 ] final   37.32 input  -65.29 | X-H torsion
[ 10718 10713 10712 10709 ] final  174.03 input   66.30 | X-H torsion
[ 10763 10752 10751 10750 ] final  -47.84 input  -60.55 | X-H torsion
[ 11005 11000 10999 10996 ] final  126.82 input  -57.11 | X-H torsion

> <Gold.Protein.ActiveResidues>
 VAL166  LYS551  ARG553  GLY616  TRP617  ASP618  TYR619  PRO620  LYS621  CYS622 
 ASP623  PHE694  ASN695  SER759  ASP760  ASP761  ALA762  ILE779  LEU786  VAL792 
 PHE793  MET794  SER795  GLU796  ALA797  LYS798  CYS799  TRP800  GLU811  SER814 

> <Gold.Protein.RotatedAtoms>
  152.3591  133.6275  159.6001 H   0  0  0  0  0  0  0  0  0  0  0  0  # atno 6907 bound_to 6896
  150.7589  133.9452  159.3477 H   0  0  0  0  0  0  0  0  0  0  0  0  # atno 6908 bound_to 6896
  151.7292  135.0879  160.0348 H   0  0  0  0  0  0  0  0  0  0  0  0  # atno 6909 bound_to 6896
  146.1987  139.7755  142.8777 H   0  0  0  0  0  0  0  0  0  0  0  0  # atno 7974 bound_to 7965
  156.1114  140.3227  155.8077 H   0  0  0  0  0  0  0  0  0  0  0  0  # atno 8008 bound_to 7997
  155.4667  140.0543  157.3002 H   0  0  0  0  0  0  0  0  0  0  0  0  # atno 8009 bound_to 7997
  154.4762  140.2033  155.9886 H   0  0  0  0  0  0  0  0  0  0  0  0  # atno 8010 bound_to 7997
  140.4044  144.1679  150.6135 H   0  0  0  0  0  0  0  0  0  0  0  0  # atno 10167 bound_to 10162
  156.9555  131.0044  151.2939 H   0  0  0  0  0  0  0  0  0  0  0  0  # atno 10718 bound_to 10713
  154.0680  135.6608  153.4820 H   0  0  0  0  0  0  0  0  0  0  0  0  # atno 10763 bound_to 10752
  153.0401  135.5150  154.7594 H   0  0  0  0  0  0  0  0  0  0  0  0  # atno 10764 bound_to 10752
  154.6651  135.3021  154.9783 H   0  0  0  0  0  0  0  0  0  0  0  0  # atno 10765 bound_to 10752
  139.9475  134.9627  156.8763 H   0  0  0  0  0  0  0  0  0  0  0  0  # atno 11005 bound_to 11000
  145.3556  141.0316  143.3314 LP  0  0  0  0  0  0  0  0  0  0  0  0  # atno 17320 bound_to 7965
  144.8637  139.5140  143.6800 LP  0  0  0  0  0  0  0  0  0  0  0  0  # atno 17321 bound_to 7965
  140.4705  143.2414  151.9095 LP  0  0  0  0  0  0  0  0  0  0  0  0  # atno 17342 bound_to 10162
  139.4784  144.5374  151.8578 LP  0  0  0  0  0  0  0  0  0  0  0  0  # atno 17343 bound_to 10162
  157.5693  130.8299  149.8369 LP  0  0  0  0  0  0  0  0  0  0  0  0  # atno 17370 bound_to 10713
  156.0344  130.3755  150.1599 LP  0  0  0  0  0  0  0  0  0  0  0  0  # atno 17371 bound_to 10713
  140.5798  134.0363  155.7460 LP  0  0  0  0  0  0  0  0  0  0  0  0  # atno 17394 bound_to 11000
  141.1130  133.9586  157.2875 LP  0  0  0  0  0  0  0  0  0  0  0  0  # atno 17395 bound_to 11000

$$$$
