AV-unprocessed.smi:1762|AV-procd|sdf|7111|dock1
  -GOLD-   22720 8333D 1   1.00000     0.00000
 Structure written by MMmdl.
 53 54  0  0  0  0  0  0  0  0  2 V2000
  143.4018  135.8734  152.7694 C   0  0  0  0  0  0  0  0  0  0  0  0
  144.8391  136.3865  152.9144 C   0  0  2  0  0  0  0  0  0  0  0  0
  145.6648  135.5211  153.8844 C   0  0  0  0  0  0  0  0  0  0  0  0
  147.0296  136.0848  154.0737 N   0  3  2  0  0  0  0  0  0  0  0  0
  147.9533  135.2613  154.9279 C   0  0  2  0  0  0  0  0  0  0  0  0
  149.1281  136.1148  155.4527 C   0  0  0  0  0  0  0  0  0  0  0  0
  149.2005  136.4002  156.6487 O   0  0  0  0  0  0  0  0  0  0  0  0
  150.0389  136.5092  154.5504 N   0  0  0  0  0  0  0  0  0  0  0  0
  151.2151  137.3083  154.8651 C   0  0  0  0  0  0  0  0  0  0  0  0
  150.9911  138.7782  154.4841 C   0  0  0  0  0  0  0  0  0  0  0  0
  150.9816  139.6885  155.6976 C   0  0  0  0  0  0  0  0  0  0  0  0
  151.3836  139.2088  156.9624 C   0  0  0  0  0  0  0  0  0  0  0  0
  151.3656  140.0989  158.0536 C   0  0  0  0  0  0  0  0  0  0  0  0
  150.9501  141.4272  157.8389 C   0  0  0  0  0  0  0  0  0  0  0  0
  150.5678  141.8077  156.5373 C   0  0  0  0  0  0  0  0  0  0  0  0
  150.5807  140.9621  155.4842 N   0  0  0  0  0  0  0  0  0  0  0  0
  148.4837  133.9600  154.2358 C   0  0  0  0  0  0  0  0  0  0  0  0
  147.3573  133.0403  153.7242 C   0  0  0  0  0  0  0  0  0  0  0  0
  149.4772  133.1503  155.0955 C   0  0  0  0  0  0  0  0  0  0  0  0
  146.9045  137.4951  154.5435 C   0  0  0  0  0  0  0  0  0  0  0  0
  146.0477  138.3419  153.5852 C   0  0  1  0  0  0  0  0  0  0  0  0
  146.7531  138.6691  152.2569 C   0  0  0  0  0  0  0  0  0  0  0  0
  144.7777  137.7251  153.3930 O   0  0  0  0  0  0  0  0  0  0  0  0
  143.3852  134.8502  152.3933 H   0  0  0  0  0  0  0  0  0  0  0  0
  142.8356  136.4914  152.0720 H   0  0  0  0  0  0  0  0  0  0  0  0
  142.8786  135.8871  153.7257 H   0  0  0  0  0  0  0  0  0  0  0  0
  145.3013  136.3693  151.9273 H   0  0  0  0  0  0  0  0  0  0  0  0
  145.1650  135.4433  154.8514 H   0  0  0  0  0  0  0  0  0  0  0  0
  145.7017  134.5203  153.4593 H   0  0  0  0  0  0  0  0  0  0  0  0
  147.3647  134.9432  155.7911 H   0  0  0  0  0  0  0  0  0  0  0  0
  149.9106  136.2392  153.5858 H   0  0  0  0  0  0  0  0  0  0  0  0
  151.4306  137.2252  155.9315 H   0  0  0  0  0  0  0  0  0  0  0  0
  152.0799  136.9130  154.3289 H   0  0  0  0  0  0  0  0  0  0  0  0
  151.7735  139.1118  153.8006 H   0  0  0  0  0  0  0  0  0  0  0  0
  150.0474  138.8860  153.9474 H   0  0  0  0  0  0  0  0  0  0  0  0
  151.7005  138.1848  157.0951 H   0  0  0  0  0  0  0  0  0  0  0  0
  151.6661  139.7691  159.0368 H   0  0  0  0  0  0  0  0  0  0  0  0
  150.9259  142.1377  158.6519 H   0  0  0  0  0  0  0  0  0  0  0  0
  150.2444  142.8184  156.3364 H   0  0  0  0  0  0  0  0  0  0  0  0
  149.0053  134.2568  153.3270 H   0  0  0  0  0  0  0  0  0  0  0  0
  146.8077  132.5702  154.5403 H   0  0  0  0  0  0  0  0  0  0  0  0
  147.7626  132.2383  153.1063 H   0  0  0  0  0  0  0  0  0  0  0  0
  146.6431  133.5929  153.1131 H   0  0  0  0  0  0  0  0  0  0  0  0
  148.9908  132.7090  155.9657 H   0  0  0  0  0  0  0  0  0  0  0  0
  150.3027  133.7632  155.4560 H   0  0  0  0  0  0  0  0  0  0  0  0
  149.9106  132.3325  154.5193 H   0  0  0  0  0  0  0  0  0  0  0  0
  146.4492  137.4968  155.5352 H   0  0  0  0  0  0  0  0  0  0  0  0
  147.8756  137.9774  154.6515 H   0  0  0  0  0  0  0  0  0  0  0  0
  145.8458  139.2943  154.0763 H   0  0  0  0  0  0  0  0  0  0  0  0
  147.6502  139.2631  152.4334 H   0  0  0  0  0  0  0  0  0  0  0  0
  146.1004  139.2466  151.6020 H   0  0  0  0  0  0  0  0  0  0  0  0
  147.0615  137.7733  151.7187 H   0  0  0  0  0  0  0  0  0  0  0  0
  147.4547  136.1184  153.1579 H   0  0  0  0  0  0  0  0  0  0  0  0
  1  2  1  0  0  0  0
  1 24  1  0  0  0  0
  1 25  1  0  0  0  0
  1 26  1  0  0  0  0
  2 23  1  0  0  0  0
  2  3  1  0  0  0  0
  2 27  1  0  0  0  0
  3  4  1  0  0  0  0
  3 28  1  0  0  0  0
  3 29  1  0  0  0  0
  4  5  1  0  0  0  0
  4 20  1  0  0  0  0
  4 53  1  0  0  0  0
  5  6  1  0  0  0  0
  5 17  1  0  0  0  0
  5 30  1  0  0  0  0
  6  7  2  0  0  0  0
  6  8  1  0  0  0  0
  8  9  1  0  0  0  0
  8 31  1  0  0  0  0
  9 10  1  0  0  0  0
  9 32  1  0  0  0  0
  9 33  1  0  0  0  0
 10 11  1  0  0  0  0
 10 34  1  0  0  0  0
 10 35  1  0  0  0  0
 11 16  1  0  0  0  0
 11 12  2  0  0  0  0
 12 13  1  0  0  0  0
 12 36  1  0  0  0  0
 13 14  2  0  0  0  0
 13 37  1  0  0  0  0
 14 15  1  0  0  0  0
 14 38  1  0  0  0  0
 15 16  2  0  0  0  0
 15 39  1  0  0  0  0
 17 18  1  0  0  0  0
 17 19  1  0  0  0  0
 17 40  1  0  0  0  0
 18 41  1  0  0  0  0
 18 42  1  0  0  0  0
 18 43  1  0  0  0  0
 19 44  1  0  0  0  0
 19 45  1  0  0  0  0
 19 46  1  0  0  0  0
 20 21  1  0  0  0  0
 20 47  1  0  0  0  0
 20 48  1  0  0  0  0
 21 22  1  0  0  0  0
 21 23  1  0  0  0  0
 21 49  1  0  0  0  0
 22 50  1  0  0  0  0
 22 51  1  0  0  0  0
 22 52  1  0  0  0  0
M  CHG  1   4   1
M  END
> <s_m_source_file>
AV-unprocessed.smi

> <i_m_source_file_index>
1762

> <i_lp_mmshare_version>
43012

> <i_f3d_flags>
0

> <s_epik_input>
W0NIM11bQ0BASF0xW0NIMl1OKFtDSDJdW0NASF0oTzEpW0NIM10pW0NAQEhdKFtDSF0oW0NIM10pW0NIM10pQyg9TylbTkhdW0NIMl1bQ0gyXWMyW2NIXVtjSF1bY0hdW2NIXW4y

> <s_epik_cmdline>
J2VwaWtfcHl0aG9uJywgJy1waCcsICc3LjAnLCAnLXRuJywgJzgnLCAnLW1hJywgJzIwMCcsICctbWV0YWxfYmluZGluZycsICctaW1hZScsICc8aW5maWxlLm1hZT4nLCAnLW9tYWUnLCAnPG91dGZpbGUubWFlPic=

> <r_epik_Ionization_Penalty>
2.27005

> <r_epik_Ionization_Penalty_Charging>
2.24983

> <r_epik_Ionization_Penalty_Neutral>
0.0202209

> <r_epik_State_Penalty>
2.40228

> <r_epik_Charging_Adjusted_Penalty>
4.65211

> <i_epik_Tot_Q>
1

> <i_epik_Tot_abs_Q>
1

> <r_epik_Metal_State_Penalty>
2.40762

> <b_epik_Metal_Only>
0

> <s_lp_Force_Field>
OPLS_2005

> <r_lp_Energy>
24.4928

> <b_lp_Chiralities_Consistent>
1

> <s_lp_Variant>
AV-unprocessed.smi:1762-13

> <Gold.Version>
5.8.1

> <Gold.Id.Protein>
6NUR|6NUR_protein|mol2

> <Gold.PLP.Fitness>
43.2617

> <Gold.PLP.PLP>
-33.2185

> <Gold.PLP.part.hbond>
-3.4707

> <Gold.PLP.part.metal>
0.0000

> <Gold.PLP.part.buried>
-2.4604

> <Gold.PLP.part.nonpolar>
-27.7903

> <Gold.PLP.part.repulsive>
0.6387

> <Gold.PLP.ligand.clash>
0.0000

> <Gold.PLP.ligand.torsion>
1.0773

> <Gold.PLP.Chemscore.Hbond>
2.9408

> <Gold.PLP.Chemscore.CHOScore>
1.0000

> <Gold.PLP.Chemscore.Metal>
0.0000

> <Gold.Chemscore.Hbonds>
donor molecule, donor type, donor heavy atom, donor atom, acceptor molecule, acceptor atom, score
      L1  H     4    53       P1  7948  2.00
      L1  H     8    31       P1  7948  0.80
      P1  H  7989  7998       L1    16  0.16
      L1  C    15    39       P1  8028  1.00

> <Gold.PLP.Chemscore.Internal.Correction>
0.3755

> <Gold.Rescore>
     Score         DG    S(hbond)    S(metal)    S(lipo)     H(rot)  DE(clash)    DE(int)     intcor
     14.52     -15.85       1.42        0.00      84.34       1.66       0.01       1.31       ----

> <Gold.Chemscore.Fitness>
14.5226

> <Gold.Chemscore.DG>
-15.8456

> <Gold.Chemscore.ZeroCoef>
-5.4800

> <Gold.Chemscore.Hbond>
1.4239

> <Gold.Chemscore.Metal>
0.0000

> <Gold.Chemscore.Lipo>
84.3442

> <Gold.Chemscore.Internal_Hbond>
0.0000

> <Gold.Chemscore.DEClash>
0.0121

> <Gold.Chemscore.DEInternal>
1.3109

> <Gold.Chemscore.Rot>
1.6635

> <Gold.Chemscore.Internal.Correction>
   9.000000E+99

> <Gold.Chemscore.Hbonds>
donor molecule, donor type, donor heavy atom, donor atom, acceptor molecule, acceptor atom, score
      L1  H     4    53       P1  7948  0.96
      L1  H     8    31       P1  7948  0.12
      P1  H  7989  7998       L1    16  0.01

> <Gold.Chemscore.Hbond.Weighted>
-4.7560

> <Gold.Chemscore.Metal.Weighted>
-0.0000

> <Gold.Chemscore.Lipo.Weighted>
-9.8683

> <Gold.Chemscore.Internal_Hbond.Weighted>
0.0000

> <Gold.Chemscore.DEClash.Weighted>
0.0121

> <Gold.Chemscore.DEInternal.Weighted>
1.3109

> <Gold.Chemscore.Rot.Weighted>
4.2586

> <Gold.Chemscore.Internal.Correction.Weighted>
   9.000000E+99

> <Gold.Protein.RotatedTorsions>
[ 6907 6896 6895 6894 ] final   38.32 input  -60.11 | X-H torsion
[ 7974 7965 7964 7962 ] final  -42.20 input  175.53 | X-H torsion
[ 8008 7997 7996 7995 ] final -172.87 input   59.86 | X-H torsion
[ 10167 10162 10161 10158 ] final  143.42 input  -65.29 | X-H torsion
[ 10718 10713 10712 10709 ] final   96.07 input   66.30 | X-H torsion
[ 10763 10752 10751 10750 ] final -134.53 input  -60.55 | X-H torsion
[ 11005 11000 10999 10996 ] final  -22.89 input  -57.11 | X-H torsion

> <Gold.Protein.ActiveResidues>
 VAL166  LYS551  ARG553  GLY616  TRP617  ASP618  TYR619  PRO620  LYS621  CYS622 
 ASP623  PHE694  ASN695  SER759  ASP760  ASP761  ALA762  ILE779  LEU786  VAL792 
 PHE793  MET794  SER795  GLU796  ALA797  LYS798  CYS799  TRP800  GLU811  SER814 

> <Gold.Protein.RotatedAtoms>
  152.1549  134.8959  160.0545 H   0  0  0  0  0  0  0  0  0  0  0  0  # atno 6907 bound_to 6896
  151.9977  133.3809  159.4177 H   0  0  0  0  0  0  0  0  0  0  0  0  # atno 6908 bound_to 6896
  150.6880  134.3790  159.5069 H   0  0  0  0  0  0  0  0  0  0  0  0  # atno 6909 bound_to 6896
  146.0138  140.6932  142.9211 H   0  0  0  0  0  0  0  0  0  0  0  0  # atno 7974 bound_to 7965
  155.9502  140.1125  157.0983 H   0  0  0  0  0  0  0  0  0  0  0  0  # atno 8008 bound_to 7997
  154.4108  140.1202  156.5108 H   0  0  0  0  0  0  0  0  0  0  0  0  # atno 8009 bound_to 7997
  155.6852  140.3473  155.4873 H   0  0  0  0  0  0  0  0  0  0  0  0  # atno 8010 bound_to 7997
  139.4970  144.6041  151.6416 H   0  0  0  0  0  0  0  0  0  0  0  0  # atno 10167 bound_to 10162
  157.6931  131.0566  150.4436 H   0  0  0  0  0  0  0  0  0  0  0  0  # atno 10718 bound_to 10713
  154.8717  135.3731  154.4751 H   0  0  0  0  0  0  0  0  0  0  0  0  # atno 10763 bound_to 10752
  153.5409  135.7026  153.5642 H   0  0  0  0  0  0  0  0  0  0  0  0  # atno 10764 bound_to 10752
  153.3805  135.3998  155.1817 H   0  0  0  0  0  0  0  0  0  0  0  0  # atno 10765 bound_to 10752
  140.8700  133.7727  156.0175 H   0  0  0  0  0  0  0  0  0  0  0  0  # atno 11005 bound_to 11000
  144.6963  140.3446  143.7193 LP  0  0  0  0  0  0  0  0  0  0  0  0  # atno 17320 bound_to 7965
  145.7300  139.1733  143.2436 LP  0  0  0  0  0  0  0  0  0  0  0  0  # atno 17321 bound_to 7965
  140.5699  144.0127  150.6211 LP  0  0  0  0  0  0  0  0  0  0  0  0  # atno 17342 bound_to 10162
  140.3241  143.3119  152.0754 LP  0  0  0  0  0  0  0  0  0  0  0  0  # atno 17343 bound_to 10162
  156.4793  130.4070  149.6471 LP  0  0  0  0  0  0  0  0  0  0  0  0  # atno 17370 bound_to 10713
  156.3523  130.7438  151.2399 LP  0  0  0  0  0  0  0  0  0  0  0  0  # atno 17371 bound_to 10713
  140.8584  134.2870  157.5245 LP  0  0  0  0  0  0  0  0  0  0  0  0  # atno 17394 bound_to 11000
  139.8711  134.9505  156.4057 LP  0  0  0  0  0  0  0  0  0  0  0  0  # atno 17395 bound_to 11000

$$$$
