AV-unprocessed.smi:1982|AV-procd|sdf|8024|dock3
  -GOLD-   2272010213D 1   1.00000     0.00000
 Structure written by MMmdl.
 36 37  0  0  0  0  0  0  0  0  1 V2000
  152.6713  144.4165  158.3444 C   0  0  0  0  0  0  0  0  0  0  0  0
  151.8713  143.6494  159.4175 C   0  0  2  0  0  0  0  0  0  0  0  0
  152.7282  143.3633  160.6675 C   0  0  0  0  0  0  0  0  0  0  0  0
  153.7731  142.2649  160.4163 C   0  0  0  0  0  0  0  0  0  0  0  0
  153.1100  140.9763  159.9109 C   0  0  0  0  0  0  0  0  0  0  0  0
  152.2518  141.2242  158.6554 C   0  0  1  0  0  0  0  0  0  0  0  0
  151.5980  139.9692  158.2841 N   0  0  0  0  0  0  0  0  0  0  0  0
  152.2164  138.8254  157.9506 C   0  0  0  0  0  0  0  0  0  0  0  0
  153.4418  138.7060  157.9058 O   0  0  0  0  0  0  0  0  0  0  0  0
  151.2921  137.6491  157.6143 C   0  0  0  0  0  0  0  0  0  0  0  0
  150.1792  137.5229  158.5396 N   0  0  0  0  0  0  0  0  0  0  0  0
  148.8972  137.8756  158.4234 C   0  0  0  0  0  0  0  0  0  0  0  0
  148.2067  137.5749  159.5127 N   0  0  0  0  0  0  0  0  0  0  0  0
  149.1572  136.9978  160.3382 N   0  0  0  0  0  0  0  0  0  0  0  0
  150.3296  136.9646  159.7665 N   0  0  0  0  0  0  0  0  0  0  0  0
  151.2060  142.3438  158.9037 C   0  0  2  0  0  0  0  0  0  0  0  0
  150.2864  142.5937  157.6918 C   0  0  0  0  0  0  0  0  0  0  0  0
  153.4754  143.8159  157.9207 H   0  0  0  0  0  0  0  0  0  0  0  0
  153.1219  145.3153  158.7660 H   0  0  0  0  0  0  0  0  0  0  0  0
  152.0325  144.7401  157.5229 H   0  0  0  0  0  0  0  0  0  0  0  0
  151.0702  144.3188  159.7340 H   0  0  0  0  0  0  0  0  0  0  0  0
  153.2205  144.2754  161.0062 H   0  0  0  0  0  0  0  0  0  0  0  0
  152.0767  143.0528  161.4855 H   0  0  0  0  0  0  0  0  0  0  0  0
  154.5114  142.6080  159.6911 H   0  0  0  0  0  0  0  0  0  0  0  0
  154.3219  142.0602  161.3359 H   0  0  0  0  0  0  0  0  0  0  0  0
  153.8769  140.2310  159.6966 H   0  0  0  0  0  0  0  0  0  0  0  0
  152.4895  140.5593  160.7055 H   0  0  0  0  0  0  0  0  0  0  0  0
  152.9191  141.5449  157.8541 H   0  0  0  0  0  0  0  0  0  0  0  0
  150.5883  139.9706  158.2902 H   0  0  0  0  0  0  0  0  0  0  0  0
  150.9033  137.7677  156.6015 H   0  0  0  0  0  0  0  0  0  0  0  0
  151.8644  136.7208  157.6351 H   0  0  0  0  0  0  0  0  0  0  0  0
  148.4745  138.3459  157.5479 H   0  0  0  0  0  0  0  0  0  0  0  0
  150.5551  141.9967  159.7082 H   0  0  0  0  0  0  0  0  0  0  0  0
  150.8602  142.8170  156.7922 H   0  0  0  0  0  0  0  0  0  0  0  0
  149.6114  143.4297  157.8765 H   0  0  0  0  0  0  0  0  0  0  0  0
  149.6663  141.7238  157.4751 H   0  0  0  0  0  0  0  0  0  0  0  0
  1  2  1  0  0  0  0
  1 18  1  0  0  0  0
  1 19  1  0  0  0  0
  1 20  1  0  0  0  0
  2 16  1  0  0  0  0
  2  3  1  0  0  0  0
  2 21  1  0  0  0  0
  3  4  1  0  0  0  0
  3 22  1  0  0  0  0
  3 23  1  0  0  0  0
  4  5  1  0  0  0  0
  4 24  1  0  0  0  0
  4 25  1  0  0  0  0
  5  6  1  0  0  0  0
  5 26  1  0  0  0  0
  5 27  1  0  0  0  0
  6  7  1  0  0  0  0
  6 16  1  0  0  0  0
  6 28  1  0  0  0  0
  7  8  1  0  0  0  0
  7 29  1  0  0  0  0
  8  9  2  0  0  0  0
  8 10  1  0  0  0  0
 10 11  1  0  0  0  0
 10 30  1  0  0  0  0
 10 31  1  0  0  0  0
 11 15  1  0  0  0  0
 11 12  1  0  0  0  0
 12 13  2  0  0  0  0
 12 32  1  0  0  0  0
 13 14  1  0  0  0  0
 14 15  2  0  0  0  0
 16 17  1  0  0  0  0
 16 33  1  0  0  0  0
 17 34  1  0  0  0  0
 17 35  1  0  0  0  0
 17 36  1  0  0  0  0
M  END
> <s_m_source_file>
AV-unprocessed.smi

> <i_m_source_file_index>
1982

> <i_lp_mmshare_version>
43012

> <i_f3d_flags>
0

> <s_epik_input>
W0NIM11bQ0BASF0xW0NIMl1bQ0gyXVtDSDJdW0NASF0oW0NASF0xW0NIM10pW05IXUMoPU8pW0NIMl1uMltjSF1ubm4y

> <s_epik_cmdline>
J2VwaWtfcHl0aG9uJywgJy1waCcsICc3LjAnLCAnLXRuJywgJzgnLCAnLW1hJywgJzIwMCcsICctbWV0YWxfYmluZGluZycsICctaW1hZScsICc8aW5maWxlLm1hZT4nLCAnLW9tYWUnLCAnPG91dGZpbGUubWFlPic=

> <r_lp_tautomer_probability>
1

> <r_epik_Ionization_Penalty>
5.03816e-07

> <r_epik_Ionization_Penalty_Charging>
0

> <r_epik_Ionization_Penalty_Neutral>
5.03816e-07

> <r_epik_State_Penalty>
-0

> <r_epik_Charging_Adjusted_Penalty>
0

> <i_epik_Tot_Q>
0

> <i_epik_Tot_abs_Q>
0

> <r_epik_Metal_State_Penalty>
-0

> <b_epik_Metal_Only>
0

> <s_lp_Force_Field>
OPLS_2005

> <r_lp_Energy>
16.2726

> <b_lp_Chiralities_Consistent>
1

> <s_lp_Variant>
AV-unprocessed.smi:1982-5

> <Gold.Version>
5.8.1

> <Gold.Id.Protein>
6NUR|6NUR_protein|mol2

> <Gold.PLP.Fitness>
41.1692

> <Gold.PLP.PLP>
-33.6482

> <Gold.PLP.part.hbond>
-4.9044

> <Gold.PLP.part.metal>
0.0000

> <Gold.PLP.part.buried>
-5.0352

> <Gold.PLP.part.nonpolar>
-24.3826

> <Gold.PLP.part.repulsive>
0.1060

> <Gold.PLP.ligand.clash>
0.0000

> <Gold.PLP.ligand.torsion>
0.4805

> <Gold.PLP.Chemscore.Hbond>
2.8255

> <Gold.PLP.Chemscore.CHOScore>
0.0000

> <Gold.PLP.Chemscore.Metal>
0.0000

> <Gold.Chemscore.Hbonds>
donor molecule, donor type, donor heavy atom, donor atom, acceptor molecule, acceptor atom, score
      P1  H  6896  6907       L1    15  0.98
      P1  H  6931  6943       L1    14  0.59
      P1  H  6934  6947       L1    13  0.21
      P1  H  7997  8008       L1     9  1.00

> <Gold.PLP.Chemscore.Internal.Correction>
0.0056

> <Gold.Rescore>
     Score         DG    S(hbond)    S(metal)    S(lipo)     H(rot)  DE(clash)    DE(int)     intcor
     17.56     -18.27       2.30        0.00      85.27       1.91       0.01       0.70       ----

> <Gold.Chemscore.Fitness>
17.5587

> <Gold.Chemscore.DG>
-18.2695

> <Gold.Chemscore.ZeroCoef>
-5.4800

> <Gold.Chemscore.Hbond>
2.3028

> <Gold.Chemscore.Metal>
0.0000

> <Gold.Chemscore.Lipo>
85.2719

> <Gold.Chemscore.Internal_Hbond>
0.0000

> <Gold.Chemscore.DEClash>
0.0126

> <Gold.Chemscore.DEInternal>
0.6982

> <Gold.Chemscore.Rot>
1.9058

> <Gold.Chemscore.Internal.Correction>
   9.000000E+99

> <Gold.Chemscore.Hbonds>
donor molecule, donor type, donor heavy atom, donor atom, acceptor molecule, acceptor atom, score
      P1  H  6896  6907       L1    15  0.69
      P1  H  6931  6943       L1    14  0.13
      P1  H  6934  6947       L1    13  0.08
      P1  H  7997  8008       L1     9  0.98

> <Gold.Chemscore.Hbond.Weighted>
-7.6915

> <Gold.Chemscore.Metal.Weighted>
-0.0000

> <Gold.Chemscore.Lipo.Weighted>
-9.9768

> <Gold.Chemscore.Internal_Hbond.Weighted>
0.0000

> <Gold.Chemscore.DEClash.Weighted>
0.0126

> <Gold.Chemscore.DEInternal.Weighted>
0.6982

> <Gold.Chemscore.Rot.Weighted>
4.8788

> <Gold.Chemscore.Internal.Correction.Weighted>
   9.000000E+99

> <Gold.Protein.RotatedTorsions>
[ 6907 6896 6895 6894 ] final  -26.66 input  -60.11 | X-H torsion
[ 7974 7965 7964 7962 ] final    4.60 input  175.53 | X-H torsion
[ 8008 7997 7996 7995 ] final  -86.14 input   59.86 | X-H torsion
[ 10167 10162 10161 10158 ] final  120.65 input  -65.29 | X-H torsion
[ 10718 10713 10712 10709 ] final -147.77 input   66.30 | X-H torsion
[ 10763 10752 10751 10750 ] final  146.89 input  -60.55 | X-H torsion
[ 11005 11000 10999 10996 ] final  -19.59 input  -57.11 | X-H torsion

> <Gold.Protein.ActiveResidues>
 VAL166  LYS551  ARG553  GLY616  TRP617  ASP618  TYR619  PRO620  LYS621  CYS622 
 ASP623  PHE694  ASN695  SER759  ASP760  ASP761  ALA762  ILE779  LEU786  VAL792 
 PHE793  MET794  SER795  GLU796  ALA797  LYS798  CYS799  TRP800  GLU811  SER814 

> <Gold.Protein.RotatedAtoms>
  151.1578  135.0259  159.8696 H   0  0  0  0  0  0  0  0  0  0  0  0  # atno 6907 bound_to 6896
  152.5452  134.1314  159.8450 H   0  0  0  0  0  0  0  0  0  0  0  0  # atno 6908 bound_to 6896
  151.1406  133.4928  159.2629 H   0  0  0  0  0  0  0  0  0  0  0  0  # atno 6909 bound_to 6896
  146.2443  140.0509  142.8375 H   0  0  0  0  0  0  0  0  0  0  0  0  # atno 7974 bound_to 7965
  154.6486  140.0582  156.9929 H   0  0  0  0  0  0  0  0  0  0  0  0  # atno 8008 bound_to 7997
  155.1406  140.3265  155.4434 H   0  0  0  0  0  0  0  0  0  0  0  0  # atno 8009 bound_to 7997
  156.2565  140.1964  156.6522 H   0  0  0  0  0  0  0  0  0  0  0  0  # atno 8010 bound_to 7997
  139.5969  144.7044  151.3155 H   0  0  0  0  0  0  0  0  0  0  0  0  # atno 10167 bound_to 10162
  156.4117  130.7985  151.2203 H   0  0  0  0  0  0  0  0  0  0  0  0  # atno 10718 bound_to 10713
  154.0294  135.2899  155.3370 H   0  0  0  0  0  0  0  0  0  0  0  0  # atno 10763 bound_to 10752
  154.6997  135.5193  153.8513 H   0  0  0  0  0  0  0  0  0  0  0  0  # atno 10764 bound_to 10752
  153.0647  135.6626  154.0508 H   0  0  0  0  0  0  0  0  0  0  0  0  # atno 10765 bound_to 10752
  140.8381  133.7946  155.9831 H   0  0  0  0  0  0  0  0  0  0  0  0  # atno 11005 bound_to 11000
  145.0985  140.9330  143.4727 LP  0  0  0  0  0  0  0  0  0  0  0  0  # atno 17320 bound_to 7965
  145.0697  139.3041  143.5838 LP  0  0  0  0  0  0  0  0  0  0  0  0  # atno 17321 bound_to 7965
  140.7219  143.7112  150.7768 LP  0  0  0  0  0  0  0  0  0  0  0  0  # atno 17342 bound_to 10162
  140.0680  143.5089  152.2594 LP  0  0  0  0  0  0  0  0  0  0  0  0  # atno 17343 bound_to 10162
  157.7507  131.0255  150.3923 LP  0  0  0  0  0  0  0  0  0  0  0  0  # atno 17370 bound_to 10713
  156.4223  130.3955  149.6817 LP  0  0  0  0  0  0  0  0  0  0  0  0  # atno 17371 bound_to 10713
  140.8925  134.2478  157.5087 LP  0  0  0  0  0  0  0  0  0  0  0  0  # atno 17394 bound_to 11000
  139.8703  134.9668  156.4575 LP  0  0  0  0  0  0  0  0  0  0  0  0  # atno 17395 bound_to 11000

$$$$
