AV-unprocessed.smi:1340|AV-procd|sdf|5503|dock8
  -GOLD-   22720 5 83D 1   1.00000     0.00000
 Structure written by MMmdl.
 40 41  0  0  0  0  0  0  0  0  1 V2000
  153.5805  142.1432  162.1507 C   0  0  0  0  0  0  0  0  0  0  0  0
  153.3099  142.0822  160.6436 C   0  0  0  0  0  0  0  0  0  0  0  0
  152.7691  143.4109  160.0832 C   0  0  0  0  0  0  0  0  0  0  0  0
  152.2276  143.3047  158.6435 C   0  0  2  0  0  0  0  0  0  0  0  0
  151.9415  144.6863  158.0363 C   0  0  0  0  0  0  0  0  0  0  0  0
  151.0134  142.4952  158.6343 N   0  0  0  0  0  0  0  0  0  0  0  0
  150.6595  141.6084  157.6904 C   0  0  0  0  0  0  0  0  0  0  0  0
  151.2790  141.4480  156.6390 O   0  0  0  0  0  0  0  0  0  0  0  0
  149.4242  140.7563  157.9945 C   0  0  0  0  0  0  0  0  0  0  0  0
  149.8012  139.3016  158.0170 C   0  0  0  0  0  0  0  0  0  0  0  0
  150.9787  138.7468  157.5780 C   0  0  0  0  0  0  0  0  0  0  0  0
  151.0326  137.0263  157.8522 S   0  0  0  0  0  0  0  0  0  0  0  0
  149.4197  137.1230  158.5642 C   0  0  0  0  0  0  0  0  0  0  0  0
  148.6790  136.0494  159.1407 N   0  0  0  0  0  0  0  0  0  0  0  0
  148.5454  134.7617  158.4663 C   0  0  0  0  0  0  0  0  0  0  0  0
  147.6347  133.9583  159.3892 C   0  0  0  0  0  0  0  0  0  0  0  0
  147.3937  134.8910  160.4650 N   0  0  0  0  0  0  0  0  0  0  0  0
  147.9958  136.0711  160.3022 C   0  0  0  0  0  0  0  0  0  0  0  0
  147.9188  136.9991  161.1049 O   0  0  0  0  0  0  0  0  0  0  0  0
  148.9129  138.3594  158.5479 N   0  0  0  0  0  0  0  0  0  0  0  0
  153.9550  141.1866  162.5161 H   0  0  0  0  0  0  0  0  0  0  0  0
  152.6710  142.3760  162.7052 H   0  0  0  0  0  0  0  0  0  0  0  0
  154.3235  142.9051  162.3876 H   0  0  0  0  0  0  0  0  0  0  0  0
  154.2293  141.8133  160.1225 H   0  0  0  0  0  0  0  0  0  0  0  0
  152.6031  141.2756  160.4514 H   0  0  0  0  0  0  0  0  0  0  0  0
  151.9834  143.7865  160.7404 H   0  0  0  0  0  0  0  0  0  0  0  0
  153.5667  144.1544  160.1101 H   0  0  0  0  0  0  0  0  0  0  0  0
  152.9913  142.8168  158.0347 H   0  0  0  0  0  0  0  0  0  0  0  0
  152.8415  145.3013  158.0218 H   0  0  0  0  0  0  0  0  0  0  0  0
  151.1816  145.2216  158.6066 H   0  0  0  0  0  0  0  0  0  0  0  0
  151.5879  144.5994  157.0083 H   0  0  0  0  0  0  0  0  0  0  0  0
  150.4307  142.5526  159.4572 H   0  0  0  0  0  0  0  0  0  0  0  0
  149.0009  141.0641  158.9515 H   0  0  0  0  0  0  0  0  0  0  0  0
  148.6580  140.9451  157.2414 H   0  0  0  0  0  0  0  0  0  0  0  0
  151.8236  139.2478  157.1290 H   0  0  0  0  0  0  0  0  0  0  0  0
  148.1022  134.8844  157.4771 H   0  0  0  0  0  0  0  0  0  0  0  0
  149.5202  134.2847  158.3545 H   0  0  0  0  0  0  0  0  0  0  0  0
  146.6977  133.6842  158.9027 H   0  0  0  0  0  0  0  0  0  0  0  0
  148.1208  133.0560  159.7624 H   0  0  0  0  0  0  0  0  0  0  0  0
  146.8208  134.6589  161.2636 H   0  0  0  0  0  0  0  0  0  0  0  0
  1  2  1  0  0  0  0
  1 21  1  0  0  0  0
  1 22  1  0  0  0  0
  1 23  1  0  0  0  0
  2  3  1  0  0  0  0
  2 24  1  0  0  0  0
  2 25  1  0  0  0  0
  3  4  1  0  0  0  0
  3 26  1  0  0  0  0
  3 27  1  0  0  0  0
  4  5  1  0  0  0  0
  4  6  1  0  0  0  0
  4 28  1  0  0  0  0
  5 29  1  0  0  0  0
  5 30  1  0  0  0  0
  5 31  1  0  0  0  0
  6  7  1  0  0  0  0
  6 32  1  0  0  0  0
  7  8  2  0  0  0  0
  7  9  1  0  0  0  0
  9 10  1  0  0  0  0
  9 33  1  0  0  0  0
  9 34  1  0  0  0  0
 10 20  1  0  0  0  0
 10 11  2  0  0  0  0
 11 12  1  0  0  0  0
 11 35  1  0  0  0  0
 12 13  1  0  0  0  0
 13 14  1  0  0  0  0
 13 20  2  0  0  0  0
 14 18  1  0  0  0  0
 14 15  1  0  0  0  0
 15 16  1  0  0  0  0
 15 36  1  0  0  0  0
 15 37  1  0  0  0  0
 16 17  1  0  0  0  0
 16 38  1  0  0  0  0
 16 39  1  0  0  0  0
 17 18  1  0  0  0  0
 17 40  1  0  0  0  0
 18 19  2  0  0  0  0
M  END
> <s_m_source_file>
AV-unprocessed.smi

> <i_m_source_file_index>
1340

> <i_lp_mmshare_version>
43012

> <i_f3d_flags>
0

> <s_epik_input>
W0NIM11bQ0gyXVtDSDJdW0NASF0oW0NIM10pW05IXUMoPU8pW0NIMl1jMVtjSF1zYyhuMSlOMltDSDJdW0NIMl1bTkhdQzI9Tw==

> <s_epik_cmdline>
J2VwaWtfcHl0aG9uJywgJy1waCcsICc3LjAnLCAnLXRuJywgJzgnLCAnLW1hJywgJzIwMCcsICctbWV0YWxfYmluZGluZycsICctaW1hZScsICc8aW5maWxlLm1hZT4nLCAnLW9tYWUnLCAnPG91dGZpbGUubWFlPic=

> <r_lp_tautomer_probability>
1

> <r_epik_Ionization_Penalty>
0.00012151

> <r_epik_Ionization_Penalty_Charging>
0

> <r_epik_Ionization_Penalty_Neutral>
0.00012151

> <r_epik_State_Penalty>
-0

> <r_epik_Charging_Adjusted_Penalty>
0

> <i_epik_Tot_Q>
0

> <i_epik_Tot_abs_Q>
0

> <r_epik_Metal_State_Penalty>
-0

> <b_epik_Metal_Only>
0

> <s_lp_Force_Field>
OPLS_2005

> <r_lp_Energy>
29.8855

> <b_lp_Chiralities_Consistent>
1

> <s_lp_Variant>
AV-unprocessed.smi:1340-1

> <Gold.Version>
5.8.1

> <Gold.Id.Protein>
6NUR|6NUR_protein|mol2

> <Gold.PLP.Fitness>
40.4012

> <Gold.PLP.PLP>
-37.5908

> <Gold.PLP.part.hbond>
-2.6868

> <Gold.PLP.part.metal>
0.0000

> <Gold.PLP.part.buried>
-4.7143

> <Gold.PLP.part.nonpolar>
-29.1212

> <Gold.PLP.part.repulsive>
0.1369

> <Gold.PLP.ligand.clash>
0.0000

> <Gold.PLP.ligand.torsion>
1.3202

> <Gold.PLP.Chemscore.Hbond>
1.8080

> <Gold.PLP.Chemscore.CHOScore>
0.0000

> <Gold.PLP.Chemscore.Metal>
0.0000

> <Gold.Chemscore.Hbonds>
donor molecule, donor type, donor heavy atom, donor atom, acceptor molecule, acceptor atom, score
      P1  H  6931  6943       L1    19  1.00
      P1  H  6934  6947       L1    19  0.55

> <Gold.PLP.Chemscore.Internal.Correction>
0.0270

> <Gold.Rescore>
     Score         DG    S(hbond)    S(metal)    S(lipo)     H(rot)  DE(clash)    DE(int)     intcor
     13.10     -15.81       1.78        0.00      79.39       1.92       0.00       2.71       ----

> <Gold.Chemscore.Fitness>
13.0997

> <Gold.Chemscore.DG>
-15.8124

> <Gold.Chemscore.ZeroCoef>
-5.4800

> <Gold.Chemscore.Hbond>
1.7822

> <Gold.Chemscore.Metal>
0.0000

> <Gold.Chemscore.Lipo>
79.3931

> <Gold.Chemscore.Internal_Hbond>
0.0000

> <Gold.Chemscore.DEClash>
0.0009

> <Gold.Chemscore.DEInternal>
2.7118

> <Gold.Chemscore.Rot>
1.9176

> <Gold.Chemscore.Internal.Correction>
   9.000000E+99

> <Gold.Chemscore.Hbonds>
donor molecule, donor type, donor heavy atom, donor atom, acceptor molecule, acceptor atom, score
      P1  H  6931  6943       L1    19  0.97
      P1  H  6934  6947       L1    19  0.55

> <Gold.Chemscore.Hbond.Weighted>
-5.9525

> <Gold.Chemscore.Metal.Weighted>
-0.0000

> <Gold.Chemscore.Lipo.Weighted>
-9.2890

> <Gold.Chemscore.Internal_Hbond.Weighted>
0.0000

> <Gold.Chemscore.DEClash.Weighted>
0.0009

> <Gold.Chemscore.DEInternal.Weighted>
2.7118

> <Gold.Chemscore.Rot.Weighted>
4.9091

> <Gold.Chemscore.Internal.Correction.Weighted>
   9.000000E+99

> <Gold.Protein.RotatedTorsions>
[ 6907 6896 6895 6894 ] final   38.57 input  -60.11 | X-H torsion
[ 7974 7965 7964 7962 ] final   70.86 input  175.53 | X-H torsion
[ 8008 7997 7996 7995 ] final  -93.24 input   59.86 | X-H torsion
[ 10167 10162 10161 10158 ] final  -18.34 input  -65.29 | X-H torsion
[ 10718 10713 10712 10709 ] final  -85.17 input   66.30 | X-H torsion
[ 10763 10752 10751 10750 ] final  -55.09 input  -60.55 | X-H torsion
[ 11005 11000 10999 10996 ] final -178.95 input  -57.11 | X-H torsion

> <Gold.Protein.ActiveResidues>
 VAL166  LYS551  ARG553  GLY616  TRP617  ASP618  TYR619  PRO620  LYS621  CYS622 
 ASP623  PHE694  ASN695  SER759  ASP760  ASP761  ALA762  ILE779  LEU786  VAL792 
 PHE793  MET794  SER795  GLU796  ALA797  LYS798  CYS799  TRP800  GLU811  SER814 

> <Gold.Protein.RotatedAtoms>
  152.1582  134.8933  160.0543 H   0  0  0  0  0  0  0  0  0  0  0  0  # atno 6907 bound_to 6896
  151.9939  133.3796  159.4163 H   0  0  0  0  0  0  0  0  0  0  0  0  # atno 6908 bound_to 6896
  150.6884  134.3829  159.5086 H   0  0  0  0  0  0  0  0  0  0  0  0  # atno 6909 bound_to 6896
  145.7729  139.2851  143.1310 H   0  0  0  0  0  0  0  0  0  0  0  0  # atno 7974 bound_to 7965
  154.7332  140.0501  157.0745 H   0  0  0  0  0  0  0  0  0  0  0  0  # atno 8008 bound_to 7997
  155.0275  140.3154  155.4751 H   0  0  0  0  0  0  0  0  0  0  0  0  # atno 8009 bound_to 7997
  156.2846  140.2156  156.5395 H   0  0  0  0  0  0  0  0  0  0  0  0  # atno 8010 bound_to 7997
  140.7257  143.4926  150.9972 H   0  0  0  0  0  0  0  0  0  0  0  0  # atno 10167 bound_to 10162
  155.9999  130.4722  150.4521 H   0  0  0  0  0  0  0  0  0  0  0  0  # atno 10718 bound_to 10713
  154.1853  135.6436  153.5045 H   0  0  0  0  0  0  0  0  0  0  0  0  # atno 10763 bound_to 10752
  153.0049  135.5416  154.6472 H   0  0  0  0  0  0  0  0  0  0  0  0  # atno 10764 bound_to 10752
  154.5846  135.2928  155.0670 H   0  0  0  0  0  0  0  0  0  0  0  0  # atno 10765 bound_to 10752
  140.4240  134.6579  157.4678 H   0  0  0  0  0  0  0  0  0  0  0  0  # atno 11005 bound_to 11000
  146.0151  140.8399  142.9951 LP  0  0  0  0  0  0  0  0  0  0  0  0  # atno 17320 bound_to 7965
  144.6809  140.2547  143.7327 LP  0  0  0  0  0  0  0  0  0  0  0  0  # atno 17321 bound_to 7965
  139.8631  143.7288  152.3172 LP  0  0  0  0  0  0  0  0  0  0  0  0  # atno 17342 bound_to 10162
  139.7511  144.7534  151.0505 LP  0  0  0  0  0  0  0  0  0  0  0  0  # atno 17343 bound_to 10162
  157.2553  131.0555  151.2354 LP  0  0  0  0  0  0  0  0  0  0  0  0  # atno 17370 bound_to 10713
  157.3488  130.7071  149.6428 LP  0  0  0  0  0  0  0  0  0  0  0  0  # atno 17371 bound_to 10713
  140.0180  134.6590  155.9281 LP  0  0  0  0  0  0  0  0  0  0  0  0  # atno 17394 bound_to 11000
  141.1772  133.6542  156.4877 LP  0  0  0  0  0  0  0  0  0  0  0  0  # atno 17395 bound_to 11000

$$$$
