AV-unprocessed.smi:1701|AV-procd|sdf|6838|dock4
  -GOLD-   22720 8 13D 1   1.00000     0.00000
 Structure written by MMmdl.
 54 56  0  0  0  0  0  0  0  0  4 V2000
  152.9156  142.7208  161.5832 C   0  0  0  0  0  0  0  0  0  0  0  0
  153.4771  142.7711  160.1536 C   0  0  0  0  0  0  0  0  0  0  0  0
  152.4389  142.7743  159.1230 N   0  0  0  0  0  0  0  0  0  0  0  0
  152.1812  144.0029  158.3678 C   0  0  0  0  0  0  0  0  0  0  0  0
  151.7928  145.1909  159.2600 C   0  0  0  0  0  0  0  0  0  0  0  0
  151.8247  141.5604  158.7278 C   0  0  0  0  0  0  0  0  0  0  0  0
  152.2480  140.2850  159.1803 C   0  0  0  0  0  0  0  0  0  0  0  0
  151.5822  139.1233  158.7395 C   0  0  0  0  0  0  0  0  0  0  0  0
  150.4871  139.2339  157.8595 C   0  0  0  0  0  0  0  0  0  0  0  0
  149.8579  138.0363  157.4249 N   0  0  0  0  0  0  0  0  0  0  0  0
  149.7929  136.8307  158.0421 C   0  0  0  0  0  0  0  0  0  0  0  0
  150.3846  136.6729  159.1082 O   0  0  0  0  0  0  0  0  0  0  0  0
  149.1002  135.8058  157.4606 N   0  5  0  0  0  0  0  0  0  0  0  0
  148.9039  134.4246  157.9338 C   0  0  1  0  0  0  0  0  0  0  0  0
  147.4138  134.1676  158.1908 C   0  0  0  0  0  0  0  0  0  0  0  0
  146.8222  133.7525  156.8296 C   0  0  0  0  0  0  0  0  0  0  0  0
  147.9578  133.3597  155.9554 N   0  3  1  0  0  0  0  0  0  0  0  0
  148.0101  134.1524  154.6927 C   0  0  0  0  0  0  0  0  0  0  0  0
  149.3060  133.9163  153.9082 C   0  0  0  0  0  0  0  0  0  0  0  0
  150.5123  134.3000  154.7674 C   0  0  0  0  0  0  0  0  0  0  0  0
  150.5312  133.4417  156.0392 C   0  0  0  0  0  0  0  0  0  0  0  0
  149.1798  133.4069  156.8070 C   0  0  1  0  0  0  0  0  0  0  0  0
  150.1089  140.5240  157.4222 C   0  0  0  0  0  0  0  0  0  0  0  0
  150.7764  141.6096  157.8688 N   0  3  0  0  0  0  0  0  0  0  0  0
  153.7258  142.7377  162.3122 H   0  0  0  0  0  0  0  0  0  0  0  0
  152.3413  141.8126  161.7588 H   0  0  0  0  0  0  0  0  0  0  0  0
  152.2674  143.5710  161.7944 H   0  0  0  0  0  0  0  0  0  0  0  0
  154.1305  143.6343  160.0292 H   0  0  0  0  0  0  0  0  0  0  0  0
  154.1198  141.9040  159.9994 H   0  0  0  0  0  0  0  0  0  0  0  0
  153.0477  144.2594  157.7578 H   0  0  0  0  0  0  0  0  0  0  0  0
  151.3767  143.8161  157.6559 H   0  0  0  0  0  0  0  0  0  0  0  0
  151.6617  146.0918  158.6604 H   0  0  0  0  0  0  0  0  0  0  0  0
  152.5595  145.4006  160.0061 H   0  0  0  0  0  0  0  0  0  0  0  0
  150.8545  145.0111  159.7826 H   0  0  0  0  0  0  0  0  0  0  0  0
  153.0782  140.1697  159.8597 H   0  0  0  0  0  0  0  0  0  0  0  0
  151.9097  138.1529  159.0830 H   0  0  0  0  0  0  0  0  0  0  0  0
  149.4430  138.0732  156.5055 H   0  0  0  0  0  0  0  0  0  0  0  0
  149.5008  134.1939  158.8173 H   0  0  0  0  0  0  0  0  0  0  0  0
  147.3125  133.3379  158.8918 H   0  0  0  0  0  0  0  0  0  0  0  0
  146.8959  135.0208  158.6317 H   0  0  0  0  0  0  0  0  0  0  0  0
  146.1316  132.9162  156.9430 H   0  0  0  0  0  0  0  0  0  0  0  0
  146.2525  134.5770  156.3962 H   0  0  0  0  0  0  0  0  0  0  0  0
  147.1487  133.8910  154.0774 H   0  0  0  0  0  0  0  0  0  0  0  0
  147.9213  135.2172  154.9145 H   0  0  0  0  0  0  0  0  0  0  0  0
  149.3766  132.8720  153.6015 H   0  0  0  0  0  0  0  0  0  0  0  0
  149.2988  134.5113  152.9945 H   0  0  0  0  0  0  0  0  0  0  0  0
  151.4354  134.1547  154.2062 H   0  0  0  0  0  0  0  0  0  0  0  0
  150.4692  135.3595  155.0227 H   0  0  0  0  0  0  0  0  0  0  0  0
  150.7675  132.4210  155.7349 H   0  0  0  0  0  0  0  0  0  0  0  0
  151.3560  133.7431  156.6877 H   0  0  0  0  0  0  0  0  0  0  0  0
  149.1815  132.4418  157.3176 H   0  0  0  0  0  0  0  0  0  0  0  0
  149.3108  140.7334  156.7257 H   0  0  0  0  0  0  0  0  0  0  0  0
  147.8315  132.3959  155.6831 H   0  0  0  0  0  0  0  0  0  0  0  0
  150.4734  142.5239  157.5336 H   0  0  0  0  0  0  0  0  0  0  0  0
  1  2  1  0  0  0  0
  1 25  1  0  0  0  0
  1 26  1  0  0  0  0
  1 27  1  0  0  0  0
  2  3  1  0  0  0  0
  2 28  1  0  0  0  0
  2 29  1  0  0  0  0
  3  4  1  0  0  0  0
  3  6  1  0  0  0  0
  4  5  1  0  0  0  0
  4 30  1  0  0  0  0
  4 31  1  0  0  0  0
  5 32  1  0  0  0  0
  5 33  1  0  0  0  0
  5 34  1  0  0  0  0
  6 24  1  0  0  0  0
  6  7  2  0  0  0  0
  7  8  1  0  0  0  0
  7 35  1  0  0  0  0
  8  9  2  0  0  0  0
  8 36  1  0  0  0  0
  9 10  1  0  0  0  0
  9 23  1  0  0  0  0
 10 11  1  0  0  0  0
 10 37  1  0  0  0  0
 11 12  2  0  0  0  0
 11 13  1  0  0  0  0
 13 14  1  0  0  0  0
 14 22  1  0  0  0  0
 14 15  1  0  0  0  0
 14 38  1  0  0  0  0
 15 16  1  0  0  0  0
 15 39  1  0  0  0  0
 15 40  1  0  0  0  0
 16 17  1  0  0  0  0
 16 41  1  0  0  0  0
 16 42  1  0  0  0  0
 17 22  1  0  0  0  0
 17 18  1  0  0  0  0
 17 53  1  0  0  0  0
 18 19  1  0  0  0  0
 18 43  1  0  0  0  0
 18 44  1  0  0  0  0
 19 20  1  0  0  0  0
 19 45  1  0  0  0  0
 19 46  1  0  0  0  0
 20 21  1  0  0  0  0
 20 47  1  0  0  0  0
 20 48  1  0  0  0  0
 21 22  1  0  0  0  0
 21 49  1  0  0  0  0
 21 50  1  0  0  0  0
 22 51  1  0  0  0  0
 23 24  2  0  0  0  0
 23 52  1  0  0  0  0
 24 54  1  0  0  0  0
M  CHG  1  13  -1
M  CHG  1  17   1
M  CHG  1  24   1
M  END
> <s_m_source_file>
AV-unprocessed.smi

> <i_m_source_file_index>
1701

> <i_lp_mmshare_version>
43012

> <i_f3d_flags>
0

> <s_epik_input>
W0NIM11bQ0gyXU4oW0NIMl1bQ0gzXSljMVtjSF1bY0hdYyhbY0hdbjEpW05IXUMoPU8pW05IXVtDQEhdKFtDSDJdW0NIMl0yKVtDQEBIXShOMjMpW0NIMl1bQ0gyXVtDSDJdW0NIMl0z

> <s_epik_cmdline>
J2VwaWtfcHl0aG9uJywgJy1waCcsICc3LjAnLCAnLXRuJywgJzgnLCAnLW1hJywgJzIwMCcsICctbWV0YWxfYmluZGluZycsICctaW1hZScsICc8aW5maWxlLm1hZT4nLCAnLW9tYWUnLCAnPG91dGZpbGUubWFlPic=

> <r_lp_tautomer_probability>
0.999994

> <r_epik_Ionization_Penalty>
7.37095

> <r_epik_Ionization_Penalty_Charging>
7.37095

> <r_epik_Ionization_Penalty_Neutral>
3.78969e-06

> <r_epik_State_Penalty>
6.83842

> <r_epik_Charging_Adjusted_Penalty>
14.2094

> <i_epik_Tot_Q>
1

> <i_epik_Tot_abs_Q>
3

> <r_epik_Metal_State_Penalty>
2.78552

> <b_epik_Metal_Only>
1

> <s_lp_Force_Field>
OPLS_2005

> <r_lp_Energy>
56.1591

> <b_lp_Chiralities_Consistent>
1

> <s_lp_Variant>
AV-unprocessed.smi:1701-18

> <Gold.Version>
5.8.1

> <Gold.Id.Protein>
6NUR|6NUR_protein|mol2

> <Gold.PLP.Fitness>
41.3403

> <Gold.PLP.PLP>
-39.2344

> <Gold.PLP.part.hbond>
-0.9954

> <Gold.PLP.part.metal>
0.0000

> <Gold.PLP.part.buried>
-6.1455

> <Gold.PLP.part.nonpolar>
-32.5151

> <Gold.PLP.part.repulsive>
0.0960

> <Gold.PLP.ligand.clash>
0.0000

> <Gold.PLP.ligand.torsion>
0.5389

> <Gold.PLP.Chemscore.Hbond>
1.0000

> <Gold.PLP.Chemscore.CHOScore>
0.0000

> <Gold.PLP.Chemscore.Metal>
0.0000

> <Gold.Chemscore.Hbonds>
donor molecule, donor type, donor heavy atom, donor atom, acceptor molecule, acceptor atom, score
      P1  H  6896  6907       L1    12  1.00

> <Gold.PLP.Chemscore.Internal.Correction>
0.1837

> <Gold.Rescore>
     Score         DG    S(hbond)    S(metal)    S(lipo)     H(rot)  DE(clash)    DE(int)     intcor
     14.71     -16.65       0.97        0.00      95.80       1.28       0.02       1.92       ----

> <Gold.Chemscore.Fitness>
14.7079

> <Gold.Chemscore.DG>
-16.6480

> <Gold.Chemscore.ZeroCoef>
-5.4800

> <Gold.Chemscore.Hbond>
0.9720

> <Gold.Chemscore.Metal>
0.0000

> <Gold.Chemscore.Lipo>
95.7958

> <Gold.Chemscore.Internal_Hbond>
0.0000

> <Gold.Chemscore.DEClash>
0.0233

> <Gold.Chemscore.DEInternal>
1.9169

> <Gold.Chemscore.Rot>
1.2838

> <Gold.Chemscore.Internal.Correction>
   9.000000E+99

> <Gold.Chemscore.Hbonds>
donor molecule, donor type, donor heavy atom, donor atom, acceptor molecule, acceptor atom, score
      P1  H  6896  6907       L1    12  0.99

> <Gold.Chemscore.Hbond.Weighted>
-3.2465

> <Gold.Chemscore.Metal.Weighted>
-0.0000

> <Gold.Chemscore.Lipo.Weighted>
-11.2081

> <Gold.Chemscore.Internal_Hbond.Weighted>
0.0000

> <Gold.Chemscore.DEClash.Weighted>
0.0233

> <Gold.Chemscore.DEInternal.Weighted>
1.9169

> <Gold.Chemscore.Rot.Weighted>
3.2865

> <Gold.Chemscore.Internal.Correction.Weighted>
   9.000000E+99

> <Gold.Protein.RotatedTorsions>
[ 6907 6896 6895 6894 ] final  -40.08 input  -60.11 | X-H torsion
[ 7974 7965 7964 7962 ] final -145.30 input  175.53 | X-H torsion
[ 8008 7997 7996 7995 ] final  -26.65 input   59.86 | X-H torsion
[ 10167 10162 10161 10158 ] final  179.01 input  -65.29 | X-H torsion
[ 10718 10713 10712 10709 ] final   63.45 input   66.30 | X-H torsion
[ 10763 10752 10751 10750 ] final  -60.11 input  -60.55 | X-H torsion
[ 11005 11000 10999 10996 ] final -178.89 input  -57.11 | X-H torsion

> <Gold.Protein.ActiveResidues>
 VAL166  LYS551  ARG553  GLY616  TRP617  ASP618  TYR619  PRO620  LYS621  CYS622 
 ASP623  PHE694  ASN695  SER759  ASP760  ASP761  ALA762  ILE779  LEU786  VAL792 
 PHE793  MET794  SER795  GLU796  ALA797  LYS798  CYS799  TRP800  GLU811  SER814 

> <Gold.Protein.RotatedAtoms>
  150.9827  134.9179  159.7853 H   0  0  0  0  0  0  0  0  0  0  0  0  # atno 6907 bound_to 6896
  152.5227  134.3389  159.9220 H   0  0  0  0  0  0  0  0  0  0  0  0  # atno 6908 bound_to 6896
  151.3396  133.3927  159.2704 H   0  0  0  0  0  0  0  0  0  0  0  0  # atno 6909 bound_to 6896
  144.8237  140.5600  143.5561 H   0  0  0  0  0  0  0  0  0  0  0  0  # atno 7974 bound_to 7965
  154.4414  140.1893  156.0809 H   0  0  0  0  0  0  0  0  0  0  0  0  # atno 8008 bound_to 7997
  156.0439  140.3316  155.7248 H   0  0  0  0  0  0  0  0  0  0  0  0  # atno 8009 bound_to 7997
  155.5658  140.0608  157.2809 H   0  0  0  0  0  0  0  0  0  0  0  0  # atno 8010 bound_to 7997
  139.5318  144.2612  152.0705 H   0  0  0  0  0  0  0  0  0  0  0  0  # atno 10167 bound_to 10162
  157.5972  130.9106  149.9717 H   0  0  0  0  0  0  0  0  0  0  0  0  # atno 10718 bound_to 10713
  154.2641  135.6303  153.5285 H   0  0  0  0  0  0  0  0  0  0  0  0  # atno 10763 bound_to 10752
  152.9891  135.5594  154.5672 H   0  0  0  0  0  0  0  0  0  0  0  0  # atno 10764 bound_to 10752
  154.5228  135.2883  155.1223 H   0  0  0  0  0  0  0  0  0  0  0  0  # atno 10765 bound_to 10752
  140.4247  134.6573  157.4682 H   0  0  0  0  0  0  0  0  0  0  0  0  # atno 11005 bound_to 11000
  145.5048  139.1481  143.3637 LP  0  0  0  0  0  0  0  0  0  0  0  0  # atno 17320 bound_to 7965
  146.2542  140.5189  142.8880 LP  0  0  0  0  0  0  0  0  0  0  0  0  # atno 17321 bound_to 7965
  140.2077  144.4594  150.6401 LP  0  0  0  0  0  0  0  0  0  0  0  0  # atno 17342 bound_to 10162
  140.6501  143.2223  151.6097 LP  0  0  0  0  0  0  0  0  0  0  0  0  # atno 17343 bound_to 10162
  156.1037  130.3654  150.0172 LP  0  0  0  0  0  0  0  0  0  0  0  0  # atno 17370 bound_to 10713
  156.8283  130.9383  151.3638 LP  0  0  0  0  0  0  0  0  0  0  0  0  # atno 17371 bound_to 10713
  140.0175  134.6596  155.9288 LP  0  0  0  0  0  0  0  0  0  0  0  0  # atno 17394 bound_to 11000
  141.1770  133.6541  156.4867 LP  0  0  0  0  0  0  0  0  0  0  0  0  # atno 17395 bound_to 11000

$$$$
