AV-unprocessed.smi:3252|AV-procd|sdf|12440|dock2
  -GOLD-   2272018333D 1   1.00000     0.00000
 Structure written by MMmdl.
 37 38  0  0  0  0  0  0  0  0  2 V2000
  144.8939  136.0841  151.6903 C   0  0  0  0  0  0  0  0  0  0  0  0
  144.1224  135.1539  150.7439 C   0  0  0  0  0  0  0  0  0  0  0  0
  145.0128  134.1848  150.0514 N   0  3  2  0  0  0  0  0  0  0  0  0
  144.2991  132.9949  149.5283 C   0  0  0  0  0  0  0  0  0  0  0  0
  144.0006  131.9889  150.6531 C   0  0  0  0  0  0  0  0  0  0  0  0
  145.2185  131.6270  151.2900 O   0  0  0  0  0  0  0  0  0  0  0  0
  145.8627  132.7320  151.9164 C   0  0  1  0  0  0  0  0  0  0  0  0
  147.1280  132.2311  152.6353 C   0  0  0  0  0  0  0  0  0  0  0  0
  146.9264  130.9452  153.2934 N   0  0  0  0  0  0  0  0  0  0  0  0
  147.3401  129.7405  152.7057 C   0  0  0  0  0  0  0  0  0  0  0  0
  146.5041  129.1413  151.7399 C   0  0  0  0  0  0  0  0  0  0  0  0
  146.9108  127.9312  151.1442 C   0  0  0  0  0  0  0  0  0  0  0  0
  148.1389  127.3624  151.5351 C   0  0  0  0  0  0  0  0  0  0  0  0
  148.6038  126.1170  150.9492 C   0  0  0  0  0  0  0  0  0  0  0  0
  148.9738  125.1251  150.4826 N   0  0  0  0  0  0  0  0  0  0  0  0
  148.9054  128.0324  152.5098 C   0  0  0  0  0  0  0  0  0  0  0  0
  148.5190  129.1918  153.0846 N   0  0  0  0  0  0  0  0  0  0  0  0
  146.2111  133.7718  150.8276 C   0  0  0  0  0  0  0  0  0  0  0  0
  144.2306  136.8438  152.1047 H   0  0  0  0  0  0  0  0  0  0  0  0
  145.6985  136.6006  151.1657 H   0  0  0  0  0  0  0  0  0  0  0  0
  145.3302  135.5447  152.5303 H   0  0  0  0  0  0  0  0  0  0  0  0
  143.3256  134.6399  151.2809 H   0  0  0  0  0  0  0  0  0  0  0  0
  143.6316  135.7797  149.9975 H   0  0  0  0  0  0  0  0  0  0  0  0
  143.3832  133.2866  149.0133 H   0  0  0  0  0  0  0  0  0  0  0  0
  144.9320  132.5178  148.7791 H   0  0  0  0  0  0  0  0  0  0  0  0
  143.2980  132.3987  151.3802 H   0  0  0  0  0  0  0  0  0  0  0  0
  143.5408  131.0911  150.2398 H   0  0  0  0  0  0  0  0  0  0  0  0
  145.1940  133.1763  152.6554 H   0  0  0  0  0  0  0  0  0  0  0  0
  147.9783  132.1990  151.9534 H   0  0  0  0  0  0  0  0  0  0  0  0
  147.3982  132.9419  153.4166 H   0  0  0  0  0  0  0  0  0  0  0  0
  146.3528  130.9151  154.1241 H   0  0  0  0  0  0  0  0  0  0  0  0
  145.5668  129.5977  151.4564 H   0  0  0  0  0  0  0  0  0  0  0  0
  146.2878  127.4536  150.4015 H   0  0  0  0  0  0  0  0  0  0  0  0
  149.8537  127.6334  152.8406 H   0  0  0  0  0  0  0  0  0  0  0  0
  146.9266  133.3340  150.1297 H   0  0  0  0  0  0  0  0  0  0  0  0
  146.7097  134.6358  151.2650 H   0  0  0  0  0  0  0  0  0  0  0  0
  145.3533  134.6785  149.2387 H   0  0  0  0  0  0  0  0  0  0  0  0
  1  2  1  0  0  0  0
  1 19  1  0  0  0  0
  1 20  1  0  0  0  0
  1 21  1  0  0  0  0
  2  3  1  0  0  0  0
  2 22  1  0  0  0  0
  2 23  1  0  0  0  0
  3 18  1  0  0  0  0
  3  4  1  0  0  0  0
  3 37  1  0  0  0  0
  4  5  1  0  0  0  0
  4 24  1  0  0  0  0
  4 25  1  0  0  0  0
  5  6  1  0  0  0  0
  5 26  1  0  0  0  0
  5 27  1  0  0  0  0
  6  7  1  0  0  0  0
  7  8  1  0  0  0  0
  7 18  1  0  0  0  0
  7 28  1  0  0  0  0
  8  9  1  0  0  0  0
  8 29  1  0  0  0  0
  8 30  1  0  0  0  0
  9 10  1  0  0  0  0
  9 31  1  0  0  0  0
 10 17  1  0  0  0  0
 10 11  2  0  0  0  0
 11 12  1  0  0  0  0
 11 32  1  0  0  0  0
 12 13  2  0  0  0  0
 12 33  1  0  0  0  0
 13 14  1  0  0  0  0
 13 16  1  0  0  0  0
 14 15  3  0  0  0  0
 16 17  2  0  0  0  0
 16 34  1  0  0  0  0
 18 35  1  0  0  0  0
 18 36  1  0  0  0  0
M  CHG  1   3   1
M  END
> <s_m_source_file>
AV-unprocessed.smi

> <i_m_source_file_index>
3252

> <i_lp_mmshare_version>
43012

> <i_f3d_flags>
0

> <s_epik_input>
W0NIM11bQ0gyXU4xW0NIMl1bQ0gyXU9bQ0BIXShbQ0gyXTEpW0NIMl1bTkhdYzJbY0hdW2NIXWMoQyNOKVtjSF1uMg==

> <s_epik_cmdline>
J2VwaWtfcHl0aG9uJywgJy1waCcsICc3LjAnLCAnLXRuJywgJzgnLCAnLW1hJywgJzIwMCcsICctbWV0YWxfYmluZGluZycsICctaW1hZScsICc8aW5maWxlLm1hZT4nLCAnLW9tYWUnLCAnPG91dGZpbGUubWFlPic=

> <r_epik_Ionization_Penalty>
0.178512

> <r_epik_Ionization_Penalty_Charging>
0.178504

> <r_epik_Ionization_Penalty_Neutral>
8.15545e-06

> <r_epik_State_Penalty>
0.167974

> <r_epik_Charging_Adjusted_Penalty>
0.346478

> <i_epik_Tot_Q>
1

> <i_epik_Tot_abs_Q>
1

> <r_epik_Metal_State_Penalty>
0.167974

> <b_epik_Metal_Only>
0

> <s_lp_Force_Field>
OPLS_2005

> <r_lp_Energy>
19.5584

> <b_lp_Chiralities_Consistent>
1

> <s_lp_Variant>
AV-unprocessed.smi:3252-2

> <Gold.Version>
5.8.1

> <Gold.Id.Protein>
6NUR|6NUR_protein|mol2

> <Gold.PLP.Fitness>
41.1561

> <Gold.PLP.PLP>
-37.9040

> <Gold.PLP.part.hbond>
-1.0000

> <Gold.PLP.part.metal>
0.0000

> <Gold.PLP.part.buried>
-5.1043

> <Gold.PLP.part.nonpolar>
-31.8794

> <Gold.PLP.part.repulsive>
0.4271

> <Gold.PLP.ligand.clash>
0.0000

> <Gold.PLP.ligand.torsion>
1.3592

> <Gold.PLP.Chemscore.Hbond>
1.0000

> <Gold.PLP.Chemscore.CHOScore>
0.9820

> <Gold.PLP.Chemscore.Metal>
0.0000

> <Gold.Chemscore.Hbonds>
donor molecule, donor type, donor heavy atom, donor atom, acceptor molecule, acceptor atom, score
      L1  H     3    37       P1  7921  1.00
      L1  C    16    34       P1 10737  0.97

> <Gold.PLP.Chemscore.Internal.Correction>
0.0244

> <Gold.Rescore>
     Score         DG    S(hbond)    S(metal)    S(lipo)     H(rot)  DE(clash)    DE(int)     intcor
     12.49     -15.40       0.98        0.00      88.94       1.47       0.18       2.73       ----

> <Gold.Chemscore.Fitness>
12.4919

> <Gold.Chemscore.DG>
-15.3992

> <Gold.Chemscore.ZeroCoef>
-5.4800

> <Gold.Chemscore.Hbond>
0.9795

> <Gold.Chemscore.Metal>
0.0000

> <Gold.Chemscore.Lipo>
88.9398

> <Gold.Chemscore.Internal_Hbond>
0.0000

> <Gold.Chemscore.DEClash>
0.1759

> <Gold.Chemscore.DEInternal>
2.7314

> <Gold.Chemscore.Rot>
1.4681

> <Gold.Chemscore.Internal.Correction>
   9.000000E+99

> <Gold.Chemscore.Hbonds>
donor molecule, donor type, donor heavy atom, donor atom, acceptor molecule, acceptor atom, score
      L1  H     3    37       P1  7921  0.98

> <Gold.Chemscore.Hbond.Weighted>
-3.2717

> <Gold.Chemscore.Metal.Weighted>
-0.0000

> <Gold.Chemscore.Lipo.Weighted>
-10.4060

> <Gold.Chemscore.Internal_Hbond.Weighted>
0.0000

> <Gold.Chemscore.DEClash.Weighted>
0.1759

> <Gold.Chemscore.DEInternal.Weighted>
2.7314

> <Gold.Chemscore.Rot.Weighted>
3.7584

> <Gold.Chemscore.Internal.Correction.Weighted>
   9.000000E+99

> <Gold.Protein.RotatedTorsions>
[ 6907 6896 6895 6894 ] final  106.33 input  -60.11 | X-H torsion
[ 7974 7965 7964 7962 ] final -143.60 input  175.53 | X-H torsion
[ 8008 7997 7996 7995 ] final  116.32 input   59.86 | X-H torsion
[ 10167 10162 10161 10158 ] final   91.16 input  -65.29 | X-H torsion
[ 10718 10713 10712 10709 ] final -126.47 input   66.30 | X-H torsion
[ 10763 10752 10751 10750 ] final  -96.59 input  -60.55 | X-H torsion
[ 11005 11000 10999 10996 ] final -176.96 input  -57.11 | X-H torsion

> <Gold.Protein.ActiveResidues>
 VAL166  LYS551  ARG553  GLY616  TRP617  ASP618  TYR619  PRO620  LYS621  CYS622 
 ASP623  PHE694  ASN695  SER759  ASP760  ASP761  ALA762  ILE779  LEU786  VAL792 
 PHE793  MET794  SER795  GLU796  ALA797  LYS798  CYS799  TRP800  GLU811  SER814 

> <Gold.Protein.RotatedAtoms>
  152.5198  133.9397  159.7620 H   0  0  0  0  0  0  0  0  0  0  0  0  # atno 6907 bound_to 6896
  150.9730  133.6316  159.2742 H   0  0  0  0  0  0  0  0  0  0  0  0  # atno 6908 bound_to 6896
  151.3520  135.0892  159.9459 H   0  0  0  0  0  0  0  0  0  0  0  0  # atno 6909 bound_to 6896
  144.8357  140.5814  143.5485 H   0  0  0  0  0  0  0  0  0  0  0  0  # atno 7974 bound_to 7965
  156.2432  140.2920  156.0505 H   0  0  0  0  0  0  0  0  0  0  0  0  # atno 8008 bound_to 7997
  155.1886  140.0406  157.2913 H   0  0  0  0  0  0  0  0  0  0  0  0  # atno 8009 bound_to 7997
  154.6210  140.2476  155.7557 H   0  0  0  0  0  0  0  0  0  0  0  0  # atno 8010 bound_to 7997
  139.8401  144.6645  150.9293 H   0  0  0  0  0  0  0  0  0  0  0  0  # atno 10167 bound_to 10162
  156.1768  130.6705  151.0253 H   0  0  0  0  0  0  0  0  0  0  0  0  # atno 10718 bound_to 10713
  154.7253  135.5078  153.8876 H   0  0  0  0  0  0  0  0  0  0  0  0  # atno 10763 bound_to 10752
  153.0899  135.6656  153.9883 H   0  0  0  0  0  0  0  0  0  0  0  0  # atno 10764 bound_to 10752
  153.9697  135.3039  155.3407 H   0  0  0  0  0  0  0  0  0  0  0  0  # atno 10765 bound_to 10752
  140.4462  134.6385  157.4780 H   0  0  0  0  0  0  0  0  0  0  0  0  # atno 11005 bound_to 11000
  145.4799  139.1496  143.3767 LP  0  0  0  0  0  0  0  0  0  0  0  0  # atno 17320 bound_to 7965
  146.2656  140.4935  142.8835 LP  0  0  0  0  0  0  0  0  0  0  0  0  # atno 17321 bound_to 7965
  140.7799  143.3920  151.1293 LP  0  0  0  0  0  0  0  0  0  0  0  0  # atno 17342 bound_to 10162
  139.7567  143.8697  152.3090 LP  0  0  0  0  0  0  0  0  0  0  0  0  # atno 17343 bound_to 10162
  157.6841  131.0830  150.7290 LP  0  0  0  0  0  0  0  0  0  0  0  0  # atno 17370 bound_to 10713
  156.7348  130.4721  149.5491 LP  0  0  0  0  0  0  0  0  0  0  0  0  # atno 17371 bound_to 10713
  140.0037  134.6797  155.9490 LP  0  0  0  0  0  0  0  0  0  0  0  0  # atno 17394 bound_to 11000
  141.1684  133.6537  156.4562 LP  0  0  0  0  0  0  0  0  0  0  0  0  # atno 17395 bound_to 11000

$$$$
