AV-unprocessed.smi:1959|AV-procd|sdf|7913|dock1
  -GOLD-   2272010 73D 1   1.00000     0.00000
 Structure written by MMmdl.
 44 45  0  0  0  0  0  0  0  0  1 V2000
  151.5938  144.8834  158.7736 C   0  0  0  0  0  0  0  0  0  0  0  0
  152.2098  144.0387  159.8497 C   0  0  0  0  0  0  0  0  0  0  0  0
  152.2162  144.2663  161.2544 C   0  0  0  0  0  0  0  0  0  0  0  0
  152.9058  143.2030  161.7650 C   0  0  0  0  0  0  0  0  0  0  0  0
  153.2517  142.8676  163.1785 C   0  0  0  0  0  0  0  0  0  0  0  0
  153.2733  142.4098  160.6923 N   0  0  0  0  0  0  0  0  0  0  0  0
  154.0210  141.1598  160.6872 C   0  0  0  0  0  0  0  0  0  0  0  0
  153.4936  140.1456  159.6645 C   0  0  0  0  0  0  0  0  0  0  0  0
  154.2573  139.5368  158.9134 O   0  0  0  0  0  0  0  0  0  0  0  0
  152.1626  139.9767  159.6514 N   0  0  0  0  0  0  0  0  0  0  0  0
  151.4260  139.0754  158.7682 C   0  0  1  0  0  0  0  0  0  0  0  0
  151.0146  137.8014  159.5224 C   0  0  0  0  0  0  0  0  0  0  0  0
  150.2455  139.7794  158.0537 C   0  0  0  0  0  0  0  0  0  0  0  0
  149.9801  139.3895  156.6653 N   0  0  0  0  0  0  0  0  0  0  0  0
  151.2233  139.0561  155.9768 C   0  0  0  0  0  0  0  0  0  0  0  0
  150.9818  138.6342  154.5177 C   0  0  0  0  0  0  0  0  0  0  0  0
  150.2966  139.6750  153.8303 O   0  0  0  0  0  0  0  0  0  0  0  0
  149.0527  140.0052  154.4386 C   0  0  0  0  0  0  0  0  0  0  0  0
  149.2821  140.4228  155.9020 C   0  0  0  0  0  0  0  0  0  0  0  0
  152.8435  142.9254  159.5198 N   0  0  0  0  0  0  0  0  0  0  0  0
  151.0460  145.7256  159.1974 H   0  0  0  0  0  0  0  0  0  0  0  0
  150.8943  144.3037  158.1708 H   0  0  0  0  0  0  0  0  0  0  0  0
  152.3565  145.2862  158.1069 H   0  0  0  0  0  0  0  0  0  0  0  0
  151.7805  145.0871  161.8046 H   0  0  0  0  0  0  0  0  0  0  0  0
  152.8668  143.6232  163.8635 H   0  0  0  0  0  0  0  0  0  0  0  0
  154.3323  142.8139  163.3126 H   0  0  0  0  0  0  0  0  0  0  0  0
  152.8248  141.9067  163.4658 H   0  0  0  0  0  0  0  0  0  0  0  0
  155.0679  141.3796  160.4755 H   0  0  0  0  0  0  0  0  0  0  0  0
  153.9856  140.7165  161.6839 H   0  0  0  0  0  0  0  0  0  0  0  0
  151.6127  140.5196  160.3015 H   0  0  0  0  0  0  0  0  0  0  0  0
  152.1233  138.7608  157.9893 H   0  0  0  0  0  0  0  0  0  0  0  0
  150.4963  137.1069  158.8607 H   0  0  0  0  0  0  0  0  0  0  0  0
  150.3504  138.0238  160.3582 H   0  0  0  0  0  0  0  0  0  0  0  0
  151.8873  137.2850  159.9231 H   0  0  0  0  0  0  0  0  0  0  0  0
  149.3350  139.6842  158.6472 H   0  0  0  0  0  0  0  0  0  0  0  0
  150.4784  140.8452  158.0617 H   0  0  0  0  0  0  0  0  0  0  0  0
  151.8985  139.9132  155.9965 H   0  0  0  0  0  0  0  0  0  0  0  0
  151.7323  138.2474  156.5023 H   0  0  0  0  0  0  0  0  0  0  0  0
  151.9304  138.4404  154.0167 H   0  0  0  0  0  0  0  0  0  0  0  0
  150.4003  137.7120  154.4722 H   0  0  0  0  0  0  0  0  0  0  0  0
  148.5882  140.8186  153.8809 H   0  0  0  0  0  0  0  0  0  0  0  0
  148.3764  139.1507  154.3829 H   0  0  0  0  0  0  0  0  0  0  0  0
  148.3125  140.6347  156.3494 H   0  0  0  0  0  0  0  0  0  0  0  0
  149.8525  141.3524  155.9290 H   0  0  0  0  0  0  0  0  0  0  0  0
  1  2  1  0  0  0  0
  1 21  1  0  0  0  0
  1 22  1  0  0  0  0
  1 23  1  0  0  0  0
  2 20  2  0  0  0  0
  2  3  1  0  0  0  0
  3  4  2  0  0  0  0
  3 24  1  0  0  0  0
  4  5  1  0  0  0  0
  4  6  1  0  0  0  0
  5 25  1  0  0  0  0
  5 26  1  0  0  0  0
  5 27  1  0  0  0  0
  6  7  1  0  0  0  0
  6 20  1  0  0  0  0
  7  8  1  0  0  0  0
  7 28  1  0  0  0  0
  7 29  1  0  0  0  0
  8  9  2  0  0  0  0
  8 10  1  0  0  0  0
 10 11  1  0  0  0  0
 10 30  1  0  0  0  0
 11 12  1  0  0  0  0
 11 13  1  0  0  0  0
 11 31  1  0  0  0  0
 12 32  1  0  0  0  0
 12 33  1  0  0  0  0
 12 34  1  0  0  0  0
 13 14  1  0  0  0  0
 13 35  1  0  0  0  0
 13 36  1  0  0  0  0
 14 19  1  0  0  0  0
 14 15  1  0  0  0  0
 15 16  1  0  0  0  0
 15 37  1  0  0  0  0
 15 38  1  0  0  0  0
 16 17  1  0  0  0  0
 16 39  1  0  0  0  0
 16 40  1  0  0  0  0
 17 18  1  0  0  0  0
 18 19  1  0  0  0  0
 18 41  1  0  0  0  0
 18 42  1  0  0  0  0
 19 43  1  0  0  0  0
 19 44  1  0  0  0  0
M  END
> <s_m_source_file>
AV-unprocessed.smi

> <i_m_source_file_index>
1959

> <i_lp_mmshare_version>
43012

> <i_f3d_flags>
0

> <s_epik_input>
W0NIM11jMVtjSF1jKFtDSDNdKW4objEpW0NIMl1DKD1PKVtOSF1bQ0BIXShbQ0gzXSlbQ0gyXU4yW0NIMl1bQ0gyXU9bQ0gyXVtDSDJdMg==

> <s_epik_cmdline>
J2VwaWtfcHl0aG9uJywgJy1waCcsICc3LjAnLCAnLXRuJywgJzgnLCAnLW1hJywgJzIwMCcsICctbWV0YWxfYmluZGluZycsICctaW1hZScsICc8aW5maWxlLm1hZT4nLCAnLW9tYWUnLCAnPG91dGZpbGUubWFlPic=

> <r_lp_tautomer_probability>
1

> <r_epik_Ionization_Penalty>
0.197284

> <r_epik_Ionization_Penalty_Charging>
0

> <r_epik_Ionization_Penalty_Neutral>
0.197284

> <r_epik_State_Penalty>
0.186684

> <r_epik_Charging_Adjusted_Penalty>
0.186684

> <i_epik_Tot_Q>
0

> <i_epik_Tot_abs_Q>
0

> <r_epik_Metal_State_Penalty>
0.186639

> <b_epik_Metal_Only>
0

> <s_lp_Force_Field>
OPLS_2005

> <r_lp_Energy>
28.5782

> <b_lp_Chiralities_Consistent>
1

> <s_lp_Variant>
AV-unprocessed.smi:1959-2

> <Gold.Version>
5.8.1

> <Gold.Id.Protein>
6NUR|6NUR_protein|mol2

> <Gold.PLP.Fitness>
45.5102

> <Gold.PLP.PLP>
-42.1860

> <Gold.PLP.part.hbond>
-2.0000

> <Gold.PLP.part.metal>
0.0000

> <Gold.PLP.part.buried>
-5.8554

> <Gold.PLP.part.nonpolar>
-36.6485

> <Gold.PLP.part.repulsive>
1.9216

> <Gold.PLP.ligand.clash>
0.0000

> <Gold.PLP.ligand.torsion>
1.3695

> <Gold.PLP.Chemscore.Hbond>
2.0000

> <Gold.PLP.Chemscore.CHOScore>
0.0000

> <Gold.PLP.Chemscore.Metal>
0.0000

> <Gold.Chemscore.Hbonds>
donor molecule, donor type, donor heavy atom, donor atom, acceptor molecule, acceptor atom, score
      P1  H  7989  7998       L1    17  0.98
      P1  H  7997  8010       L1     9  1.00

> <Gold.PLP.Chemscore.Internal.Correction>
0.0633

> <Gold.Rescore>
     Score         DG    S(hbond)    S(metal)    S(lipo)     H(rot)  DE(clash)    DE(int)     intcor
     18.26     -20.17       1.82        0.00     110.66       1.70       0.64       1.27       ----

> <Gold.Chemscore.Fitness>
18.2601

> <Gold.Chemscore.DG>
-20.1685

> <Gold.Chemscore.ZeroCoef>
-5.4800

> <Gold.Chemscore.Hbond>
1.8206

> <Gold.Chemscore.Metal>
0.0000

> <Gold.Chemscore.Lipo>
110.6636

> <Gold.Chemscore.Internal_Hbond>
0.0000

> <Gold.Chemscore.DEClash>
0.6426

> <Gold.Chemscore.DEInternal>
1.2658

> <Gold.Chemscore.Rot>
1.6952

> <Gold.Chemscore.Internal.Correction>
   9.000000E+99

> <Gold.Chemscore.Hbonds>
donor molecule, donor type, donor heavy atom, donor atom, acceptor molecule, acceptor atom, score
      P1  H  7989  7998       L1    17  0.37
      P1  H  7997  8010       L1     9  1.00

> <Gold.Chemscore.Hbond.Weighted>
-6.0807

> <Gold.Chemscore.Metal.Weighted>
-0.0000

> <Gold.Chemscore.Lipo.Weighted>
-12.9476

> <Gold.Chemscore.Internal_Hbond.Weighted>
0.0000

> <Gold.Chemscore.DEClash.Weighted>
0.6426

> <Gold.Chemscore.DEInternal.Weighted>
1.2658

> <Gold.Chemscore.Rot.Weighted>
4.3398

> <Gold.Chemscore.Internal.Correction.Weighted>
   9.000000E+99

> <Gold.Protein.RotatedTorsions>
[ 6907 6896 6895 6894 ] final  129.41 input  -60.11 | X-H torsion
[ 7974 7965 7964 7962 ] final   23.95 input  175.53 | X-H torsion
[ 8008 7997 7996 7995 ] final   11.41 input   59.86 | X-H torsion
[ 10167 10162 10161 10158 ] final  141.44 input  -65.29 | X-H torsion
[ 10718 10713 10712 10709 ] final  -28.76 input   66.30 | X-H torsion
[ 10763 10752 10751 10750 ] final   97.54 input  -60.55 | X-H torsion
[ 11005 11000 10999 10996 ] final  -23.39 input  -57.11 | X-H torsion

> <Gold.Protein.ActiveResidues>
 VAL166  LYS551  ARG553  GLY616  TRP617  ASP618  TYR619  PRO620  LYS621  CYS622 
 ASP623  PHE694  ASN695  SER759  ASP760  ASP761  ALA762  ILE779  LEU786  VAL792 
 PHE793  MET794  SER795  GLU796  ALA797  LYS798  CYS799  TRP800  GLU811  SER814 

> <Gold.Protein.RotatedAtoms>
  152.3626  133.6316  159.6026 H   0  0  0  0  0  0  0  0  0  0  0  0  # atno 6907 bound_to 6896
  150.7612  133.9399  159.3462 H   0  0  0  0  0  0  0  0  0  0  0  0  # atno 6908 bound_to 6896
  151.7234  135.0890  160.0339 H   0  0  0  0  0  0  0  0  0  0  0  0  # atno 6909 bound_to 6896
  146.1960  139.7672  142.8797 H   0  0  0  0  0  0  0  0  0  0  0  0  # atno 7974 bound_to 7965
  154.8066  140.2861  155.5883 H   0  0  0  0  0  0  0  0  0  0  0  0  # atno 8008 bound_to 7997
  156.2983  140.2576  156.2874 H   0  0  0  0  0  0  0  0  0  0  0  0  # atno 8009 bound_to 7997
  154.9496  140.0379  157.2127 H   0  0  0  0  0  0  0  0  0  0  0  0  # atno 8010 bound_to 7997
  139.5020  144.6171  151.6138 H   0  0  0  0  0  0  0  0  0  0  0  0  # atno 10167 bound_to 10162
  156.4212  130.4426  149.7183 H   0  0  0  0  0  0  0  0  0  0  0  0  # atno 10718 bound_to 10713
  153.2782  135.4179  155.1053 H   0  0  0  0  0  0  0  0  0  0  0  0  # atno 10763 bound_to 10752
  154.8480  135.3488  154.6149 H   0  0  0  0  0  0  0  0  0  0  0  0  # atno 10764 bound_to 10752
  153.6570  135.7050  153.5247 H   0  0  0  0  0  0  0  0  0  0  0  0  # atno 10765 bound_to 10752
  140.8747  133.7695  156.0229 H   0  0  0  0  0  0  0  0  0  0  0  0  # atno 11005 bound_to 11000
  145.3641  141.0331  143.3268 LP  0  0  0  0  0  0  0  0  0  0  0  0  # atno 17320 bound_to 7965
  144.8582  139.5217  143.6824 LP  0  0  0  0  0  0  0  0  0  0  0  0  # atno 17321 bound_to 7965
  140.5862  143.9860  150.6297 LP  0  0  0  0  0  0  0  0  0  0  0  0  # atno 17342 bound_to 10162
  140.3025  143.3251  152.0958 LP  0  0  0  0  0  0  0  0  0  0  0  0  # atno 17343 bound_to 10162
  156.4123  130.7728  151.2741 LP  0  0  0  0  0  0  0  0  0  0  0  0  # atno 17370 bound_to 10713
  157.7508  131.0208  150.3722 LP  0  0  0  0  0  0  0  0  0  0  0  0  # atno 17371 bound_to 10713
  140.8532  134.2929  157.5266 LP  0  0  0  0  0  0  0  0  0  0  0  0  # atno 17394 bound_to 11000
  139.8714  134.9479  156.3980 LP  0  0  0  0  0  0  0  0  0  0  0  0  # atno 17395 bound_to 11000

$$$$
