AV-unprocessed.smi:99|AV-procd|sdf|887|dock4
  -GOLD-   2262017373D 1   1.00000     0.00000
 Structure written by MMmdl.
 52 55  0  0  0  0  0  0  0  0  2 V2000
  144.7482  134.5932  154.8199 O   0  0  0  0  0  0  0  0  0  0  0  0
  145.5304  133.8654  154.2047 C   0  0  0  0  0  0  0  0  0  0  0  0
  146.7382  133.5024  154.6772 O   0  0  0  0  0  0  0  0  0  0  0  0
  147.0613  133.7220  156.0402 C   0  0  0  0  0  0  0  0  0  0  0  0
  147.0071  135.2235  156.3368 C   0  0  2  0  0  0  0  0  0  0  0  0
  148.0069  135.9055  155.5991 O   0  0  0  0  0  0  0  0  0  0  0  0
  148.2576  137.1292  156.2151 C   0  0  2  0  0  0  0  0  0  0  0  0
  149.7118  137.4862  155.9972 N   0  0  0  0  0  0  0  0  0  0  0  0
  150.0655  138.7604  155.5872 C   0  0  0  0  0  0  0  0  0  0  0  0
  151.3552  139.0985  155.3816 C   0  0  0  0  0  0  0  0  0  0  0  0
  152.3999  138.1001  155.5926 C   0  0  0  0  0  0  0  0  0  0  0  0
  153.5740  138.4198  155.4150 O   0  0  0  0  0  0  0  0  0  0  0  0
  152.0225  136.8468  155.9793 N   0  5  0  0  0  0  0  0  0  0  0  0
  150.7175  136.4991  156.1800 C   0  0  0  0  0  0  0  0  0  0  0  0
  150.3655  135.3650  156.5064 O   0  0  0  0  0  0  0  0  0  0  0  0
  147.8722  136.9920  157.7058 C   0  0  2  0  0  0  0  0  0  0  0  0
  148.9416  137.1755  158.6162 O   0  0  0  0  0  0  0  0  0  0  0  0
  147.3469  135.5611  157.7885 C   0  0  1  0  0  0  0  0  0  0  0  0
  146.1635  135.4859  158.5747 O   0  0  0  0  0  0  0  0  0  0  0  0
  146.1367  135.9793  159.8309 C   0  0  0  0  0  0  0  0  0  0  0  0
  147.0237  136.6917  160.3051 O   0  0  0  0  0  0  0  0  0  0  0  0
  144.9169  135.5737  160.5869 C   0  0  0  0  0  0  0  0  0  0  0  0
  144.7662  135.9862  161.9315 C   0  0  0  0  0  0  0  0  0  0  0  0
  143.6263  135.6173  162.6718 C   0  0  0  0  0  0  0  0  0  0  0  0
  142.6233  134.8299  162.0769 C   0  0  0  0  0  0  0  0  0  0  0  0
  142.7615  134.4126  160.7403 C   0  0  0  0  0  0  0  0  0  0  0  0
  143.9003  134.7817  159.9979 C   0  0  0  0  0  0  0  0  0  0  0  0
  145.2390  133.2964  152.8572 C   0  0  0  0  0  0  0  0  0  0  0  0
  146.1628  132.4016  152.2683 C   0  0  0  0  0  0  0  0  0  0  0  0
  145.9143  131.8471  150.9976 C   0  0  0  0  0  0  0  0  0  0  0  0
  144.7392  132.1817  150.2999 C   0  0  0  0  0  0  0  0  0  0  0  0
  143.8131  133.0718  150.8740 C   0  0  0  0  0  0  0  0  0  0  0  0
  144.0593  133.6265  152.1451 C   0  0  0  0  0  0  0  0  0  0  0  0
  146.3348  133.1964  156.6616 H   0  0  0  0  0  0  0  0  0  0  0  0
  148.0484  133.3211  156.2756 H   0  0  0  0  0  0  0  0  0  0  0  0
  146.0318  135.6395  156.0756 H   0  0  0  0  0  0  0  0  0  0  0  0
  147.6635  137.8819  155.6943 H   0  0  0  0  0  0  0  0  0  0  0  0
  149.2988  139.5021  155.4189 H   0  0  0  0  0  0  0  0  0  0  0  0
  151.6134  140.0964  155.0592 H   0  0  0  0  0  0  0  0  0  0  0  0
  147.0856  137.7187  157.9143 H   0  0  0  0  0  0  0  0  0  0  0  0
  148.9069  136.4883  159.2641 H   0  0  0  0  0  0  0  0  0  0  0  0
  148.1258  134.8818  158.1405 H   0  0  0  0  0  0  0  0  0  0  0  0
  145.5232  136.5906  162.4105 H   0  0  0  0  0  0  0  0  0  0  0  0
  143.5221  135.9386  163.6978 H   0  0  0  0  0  0  0  0  0  0  0  0
  141.7495  134.5463  162.6450 H   0  0  0  0  0  0  0  0  0  0  0  0
  141.9928  133.8073  160.2830 H   0  0  0  0  0  0  0  0  0  0  0  0
  143.9754  134.4432  158.9748 H   0  0  0  0  0  0  0  0  0  0  0  0
  147.0721  132.1298  152.7852 H   0  0  0  0  0  0  0  0  0  0  0  0
  146.6267  131.1644  150.5585 H   0  0  0  0  0  0  0  0  0  0  0  0
  144.5485  131.7564  149.3257 H   0  0  0  0  0  0  0  0  0  0  0  0
  142.9114  133.3307  150.3390 H   0  0  0  0  0  0  0  0  0  0  0  0
  143.3278  134.3067  152.5562 H   0  0  0  0  0  0  0  0  0  0  0  0
  1  2  2  0  0  0  0
  2  3  1  0  0  0  0
  2 28  1  0  0  0  0
  3  4  1  0  0  0  0
  4  5  1  0  0  0  0
  4 34  1  0  0  0  0
  4 35  1  0  0  0  0
  5 18  1  0  0  0  0
  5  6  1  0  0  0  0
  5 36  1  0  0  0  0
  6  7  1  0  0  0  0
  7  8  1  0  0  0  0
  7 16  1  0  0  0  0
  7 37  1  0  0  0  0
  8 14  1  0  0  0  0
  8  9  1  0  0  0  0
  9 10  2  0  0  0  0
  9 38  1  0  0  0  0
 10 11  1  0  0  0  0
 10 39  1  0  0  0  0
 11 12  2  0  0  0  0
 11 13  1  0  0  0  0
 13 14  1  0  0  0  0
 14 15  2  0  0  0  0
 16 17  1  0  0  0  0
 16 18  1  0  0  0  0
 16 40  1  0  0  0  0
 17 41  1  0  0  0  0
 18 19  1  0  0  0  0
 18 42  1  0  0  0  0
 19 20  1  0  0  0  0
 20 21  2  0  0  0  0
 20 22  1  0  0  0  0
 22 27  1  0  0  0  0
 22 23  2  0  0  0  0
 23 24  1  0  0  0  0
 23 43  1  0  0  0  0
 24 25  2  0  0  0  0
 24 44  1  0  0  0  0
 25 26  1  0  0  0  0
 25 45  1  0  0  0  0
 26 27  2  0  0  0  0
 26 46  1  0  0  0  0
 27 47  1  0  0  0  0
 28 33  1  0  0  0  0
 28 29  2  0  0  0  0
 29 30  1  0  0  0  0
 29 48  1  0  0  0  0
 30 31  2  0  0  0  0
 30 49  1  0  0  0  0
 31 32  1  0  0  0  0
 31 50  1  0  0  0  0
 32 33  2  0  0  0  0
 32 51  1  0  0  0  0
 33 52  1  0  0  0  0
M  CHG  1  13  -1
M  END
> <s_m_source_file>
AV-unprocessed.smi

> <i_m_source_file_index>
99

> <i_lp_mmshare_version>
43012

> <i_f3d_flags>
0

> <s_epik_input>
W2NIXTFbY0hdW2NIXVtjSF1bY0hdYzFDKD1PKU9bQ0gyXVtDQEBIXTJPW0NAQEhdKG4zW2NIXVtjSF1jKD1PKVtuSF1jMz1PKVtDQEBIXShbT0hdKVtDQEhdMk9DKD1PKWM0W2NIXVtjSF1bY0hdW2NIXVtjSF00

> <s_epik_cmdline>
J2VwaWtfcHl0aG9uJywgJy1waCcsICc3LjAnLCAnLXRuJywgJzgnLCAnLW1hJywgJzIwMCcsICctbWV0YWxfYmluZGluZycsICctaW1hZScsICc8aW5maWxlLm1hZT4nLCAnLW9tYWUnLCAnPG91dGZpbGUubWFlPic=

> <r_lp_tautomer_probability>
1

> <r_epik_Ionization_Penalty>
2.89159

> <r_epik_Ionization_Penalty_Charging>
2.1077e-08

> <r_epik_Ionization_Penalty_Neutral>
2.89159

> <r_epik_State_Penalty>
2.88671

> <r_epik_Charging_Adjusted_Penalty>
2.88671

> <i_epik_Tot_Q>
-1

> <i_epik_Tot_abs_Q>
1

> <r_epik_Metal_State_Penalty>
0.0727308

> <b_epik_Metal_Only>
1

> <s_epik_Chemistry_Notes>
This compound has an ester and may undergo hydrolysis at high or low pH. This compound contains an acetal/aminal-like group ( X-CH(R)-Y where X, Y are N, S, or O) that may be acid/base labile, releasing an aldehyde.

> <s_lp_Force_Field>
OPLS_2005

> <r_lp_Energy>
47.3257

> <b_lp_Chiralities_Consistent>
1

> <s_lp_Variant>
AV-unprocessed.smi:99-23

> <Gold.Version>
5.8.1

> <Gold.Id.Protein>
6NUR|6NUR_protein|mol2

> <Gold.PLP.Fitness>
44.8578

> <Gold.PLP.PLP>
-34.1479

> <Gold.PLP.part.hbond>
-3.0000

> <Gold.PLP.part.metal>
0.0000

> <Gold.PLP.part.buried>
-5.9849

> <Gold.PLP.part.nonpolar>
-25.4019

> <Gold.PLP.part.repulsive>
0.3032

> <Gold.PLP.ligand.clash>
0.0000

> <Gold.PLP.ligand.torsion>
0.6720

> <Gold.PLP.Chemscore.Hbond>
3.7680

> <Gold.PLP.Chemscore.CHOScore>
0.0000

> <Gold.PLP.Chemscore.Metal>
0.0000

> <Gold.Chemscore.Hbonds>
donor molecule, donor type, donor heavy atom, donor atom, acceptor molecule, acceptor atom, score
      P1  H  6934  6947       L1    21  0.03
      P1  H  7997  8010       L1    12  0.70
      P1  H 10752 10765       L1    13  1.98

> <Gold.PLP.Chemscore.Internal.Correction>
0.7499

> <Gold.Rescore>
     Score         DG    S(hbond)    S(metal)    S(lipo)     H(rot)  DE(clash)    DE(int)     intcor
      7.42     -14.51       2.32        0.00      79.57       3.13       0.21       6.88       ----

> <Gold.Chemscore.Fitness>
7.4163

> <Gold.Chemscore.DG>
-14.5104

> <Gold.Chemscore.ZeroCoef>
-5.4800

> <Gold.Chemscore.Hbond>
2.3189

> <Gold.Chemscore.Metal>
0.0000

> <Gold.Chemscore.Lipo>
79.5705

> <Gold.Chemscore.Internal_Hbond>
0.0000

> <Gold.Chemscore.DEClash>
0.2096

> <Gold.Chemscore.DEInternal>
6.8846

> <Gold.Chemscore.Rot>
3.1346

> <Gold.Chemscore.Internal.Correction>
   9.000000E+99

> <Gold.Chemscore.Hbonds>
donor molecule, donor type, donor heavy atom, donor atom, acceptor molecule, acceptor atom, score
      P1  H  6934  6947       L1    21  0.09
      P1  H  7997  8010       L1    12  0.66
      P1  H 10752 10765       L1    13  0.42

> <Gold.Chemscore.Hbond.Weighted>
-7.7452

> <Gold.Chemscore.Metal.Weighted>
-0.0000

> <Gold.Chemscore.Lipo.Weighted>
-9.3098

> <Gold.Chemscore.Internal_Hbond.Weighted>
0.0000

> <Gold.Chemscore.DEClash.Weighted>
0.2096

> <Gold.Chemscore.DEInternal.Weighted>
6.8846

> <Gold.Chemscore.Rot.Weighted>
8.0246

> <Gold.Chemscore.Internal.Correction.Weighted>
   9.000000E+99

> <Gold.Protein.RotatedTorsions>
[ 6907 6896 6895 6894 ] final  164.88 input  -60.11 | X-H torsion
[ 7974 7965 7964 7962 ] final   90.93 input  175.53 | X-H torsion
[ 8008 7997 7996 7995 ] final  111.51 input   59.86 | X-H torsion
[ 10167 10162 10161 10158 ] final   17.56 input  -65.29 | X-H torsion
[ 10718 10713 10712 10709 ] final   62.93 input   66.30 | X-H torsion
[ 10763 10752 10751 10750 ] final -171.38 input  -60.55 | X-H torsion
[ 11005 11000 10999 10996 ] final  134.15 input  -57.11 | X-H torsion

> <Gold.Protein.ActiveResidues>
 VAL166  LYS551  ARG553  GLY616  TRP617  ASP618  TYR619  PRO620  LYS621  CYS622 
 ASP623  PHE694  ASN695  SER759  ASP760  ASP761  ALA762  ILE779  LEU786  VAL792 
 PHE793  MET794  SER795  GLU796  ALA797  LYS798  CYS799  TRP800  GLU811  SER814 

> <Gold.Protein.RotatedAtoms>
  151.9030  133.3542  159.3836 H   0  0  0  0  0  0  0  0  0  0  0  0  # atno 6907 bound_to 6896
  150.7076  134.4809  159.5479 H   0  0  0  0  0  0  0  0  0  0  0  0  # atno 6908 bound_to 6896
  152.2401  134.8237  160.0512 H   0  0  0  0  0  0  0  0  0  0  0  0  # atno 6909 bound_to 6896
  145.5125  139.2277  143.2717 H   0  0  0  0  0  0  0  0  0  0  0  0  # atno 7974 bound_to 7965
  156.2128  140.3018  155.9772 H   0  0  0  0  0  0  0  0  0  0  0  0  # atno 8008 bound_to 7997
  155.2680  140.0432  157.3021 H   0  0  0  0  0  0  0  0  0  0  0  0  # atno 8009 bound_to 7997
  154.5725  140.2352  155.8180 H   0  0  0  0  0  0  0  0  0  0  0  0  # atno 8010 bound_to 7997
  140.5717  143.9148  150.6718 H   0  0  0  0  0  0  0  0  0  0  0  0  # atno 10167 bound_to 10162
  157.5936  130.9077  149.9651 H   0  0  0  0  0  0  0  0  0  0  0  0  # atno 10718 bound_to 10713
  154.6311  135.2886  155.0215 H   0  0  0  0  0  0  0  0  0  0  0  0  # atno 10763 bound_to 10752
  154.1375  135.6524  153.4939 H   0  0  0  0  0  0  0  0  0  0  0  0  # atno 10764 bound_to 10752
  153.0280  135.5325  154.7139 H   0  0  0  0  0  0  0  0  0  0  0  0  # atno 10765 bound_to 10752
  139.9897  134.9519  156.9826 H   0  0  0  0  0  0  0  0  0  0  0  0  # atno 11005 bound_to 11000
  146.2158  140.5932  142.9039 LP  0  0  0  0  0  0  0  0  0  0  0  0  # atno 17320 bound_to 7965
  144.7720  140.5657  143.6664 LP  0  0  0  0  0  0  0  0  0  0  0  0  # atno 17321 bound_to 7965
  140.2625  143.3513  152.1310 LP  0  0  0  0  0  0  0  0  0  0  0  0  # atno 17342 bound_to 10162
  139.5121  144.6911  151.5756 LP  0  0  0  0  0  0  0  0  0  0  0  0  # atno 17343 bound_to 10162
  156.0994  130.3657  150.0245 LP  0  0  0  0  0  0  0  0  0  0  0  0  # atno 17370 bound_to 10713
  156.8363  130.9410  151.3634 LP  0  0  0  0  0  0  0  0  0  0  0  0  # atno 17371 bound_to 10713
  140.4933  134.1171  155.7236 LP  0  0  0  0  0  0  0  0  0  0  0  0  # atno 17394 bound_to 11000
  141.1555  133.8890  157.1988 LP  0  0  0  0  0  0  0  0  0  0  0  0  # atno 17395 bound_to 11000

$$$$
