AV-unprocessed.smi:1975|AV-procd|sdf|7982|dock1
  -GOLD-   2272010163D 1   1.00000     0.00000
 Structure written by MMmdl.
 33 34  0  0  0  0  0  0  0  0  1 V2000
  152.1258  143.8090  160.9787 C   0  0  0  0  0  0  0  0  0  0  0  0
  153.1881  142.8348  160.4479 C   0  0  0  0  0  0  0  0  0  0  0  0
  152.6403  141.8226  159.5827 N   0  0  0  0  0  0  0  0  0  0  0  0
  152.7330  140.4803  159.8859 C   0  0  0  0  0  0  0  0  0  0  0  0
  152.2422  139.5177  159.0783 C   0  0  0  0  0  0  0  0  0  0  0  0
  152.3493  138.1349  159.4073 C   0  0  0  0  0  0  0  0  0  0  0  0
  152.4326  137.0064  159.6502 N   0  0  0  0  0  0  0  0  0  0  0  0
  151.5788  139.8545  157.8209 C   0  0  0  0  0  0  0  0  0  0  0  0
  151.1251  139.0113  157.0454 O   0  0  0  0  0  0  0  0  0  0  0  0
  151.4912  141.2395  157.5280 N   0  0  0  0  0  0  0  0  0  0  0  0
  150.8580  141.6591  156.2581 C   0  0  0  0  0  0  0  0  0  0  0  0
  149.3752  141.2690  156.1545 C   0  0  0  0  0  0  0  0  0  0  0  0
  148.9519  140.2381  156.6799 O   0  0  0  0  0  0  0  0  0  0  0  0
  148.5969  142.1198  155.4704 N   0  0  0  0  0  0  0  0  0  0  0  0
  147.1957  141.9664  155.2472 C   0  0  0  0  0  0  0  0  0  0  0  0
  146.7379  141.6584  153.8378 C   0  0  0  0  0  0  0  0  0  0  0  0
  146.4975  143.0238  154.4200 C   0  0  0  0  0  0  0  0  0  0  0  0
  152.0193  142.2380  158.3819 C   0  0  0  0  0  0  0  0  0  0  0  0
  151.9447  143.4321  158.0802 O   0  0  0  0  0  0  0  0  0  0  0  0
  152.5849  144.5781  161.6001 H   0  0  0  0  0  0  0  0  0  0  0  0
  151.3780  143.2983  161.5859 H   0  0  0  0  0  0  0  0  0  0  0  0
  151.6076  144.3090  160.1601 H   0  0  0  0  0  0  0  0  0  0  0  0
  153.9335  143.3650  159.8537 H   0  0  0  0  0  0  0  0  0  0  0  0
  153.7299  142.3267  161.2479 H   0  0  0  0  0  0  0  0  0  0  0  0
  153.2202  140.1867  160.8047 H   0  0  0  0  0  0  0  0  0  0  0  0
  150.9389  142.7373  156.1123 H   0  0  0  0  0  0  0  0  0  0  0  0
  151.3921  141.2385  155.4042 H   0  0  0  0  0  0  0  0  0  0  0  0
  149.0309  142.9419  155.0760 H   0  0  0  0  0  0  0  0  0  0  0  0
  146.6065  141.5238  156.0493 H   0  0  0  0  0  0  0  0  0  0  0  0
  147.4977  141.5691  153.0636 H   0  0  0  0  0  0  0  0  0  0  0  0
  145.8773  141.0028  153.7222 H   0  0  0  0  0  0  0  0  0  0  0  0
  145.4755  143.2798  154.6925 H   0  0  0  0  0  0  0  0  0  0  0  0
  147.0962  143.8465  154.0339 H   0  0  0  0  0  0  0  0  0  0  0  0
  1  2  1  0  0  0  0
  1 20  1  0  0  0  0
  1 21  1  0  0  0  0
  1 22  1  0  0  0  0
  2  3  1  0  0  0  0
  2 23  1  0  0  0  0
  2 24  1  0  0  0  0
  3 18  1  0  0  0  0
  3  4  1  0  0  0  0
  4  5  2  0  0  0  0
  4 25  1  0  0  0  0
  5  6  1  0  0  0  0
  5  8  1  0  0  0  0
  6  7  3  0  0  0  0
  8  9  2  0  0  0  0
  8 10  1  0  0  0  0
 10 11  1  0  0  0  0
 10 18  1  0  0  0  0
 11 12  1  0  0  0  0
 11 26  1  0  0  0  0
 11 27  1  0  0  0  0
 12 13  2  0  0  0  0
 12 14  1  0  0  0  0
 14 15  1  0  0  0  0
 14 28  1  0  0  0  0
 15 17  1  0  0  0  0
 15 16  1  0  0  0  0
 15 29  1  0  0  0  0
 16 17  1  0  0  0  0
 16 30  1  0  0  0  0
 16 31  1  0  0  0  0
 17 32  1  0  0  0  0
 17 33  1  0  0  0  0
 18 19  2  0  0  0  0
M  END
> <s_m_source_file>
AV-unprocessed.smi

> <i_m_source_file_index>
1975

> <i_lp_mmshare_version>
43012

> <i_f3d_flags>
0

> <s_epik_input>
W0NIM11bQ0gyXW4xW2NIXWMoQyNOKWMoPU8pbihjMT1PKVtDSDJdQyg9TylbTkhdW0NIXTJbQ0gyXVtDSDJdMg==

> <s_epik_cmdline>
J2VwaWtfcHl0aG9uJywgJy1waCcsICc3LjAnLCAnLXRuJywgJzgnLCAnLW1hJywgJzIwMCcsICctbWV0YWxfYmluZGluZycsICctaW1hZScsICc8aW5maWxlLm1hZT4nLCAnLW9tYWUnLCAnPG91dGZpbGUubWFlPic=

> <r_lp_tautomer_probability>
1

> <r_epik_Ionization_Penalty>
2.07081e-08

> <r_epik_Ionization_Penalty_Charging>
3.77987e-11

> <r_epik_Ionization_Penalty_Neutral>
2.06703e-08

> <r_epik_State_Penalty>
-0

> <r_epik_Charging_Adjusted_Penalty>
3.77987e-11

> <i_epik_Tot_Q>
0

> <i_epik_Tot_abs_Q>
0

> <r_epik_Metal_State_Penalty>
-0

> <b_epik_Metal_Only>
0

> <s_lp_Force_Field>
OPLS_2005

> <r_lp_Energy>
17.9293

> <b_lp_Chiralities_Consistent>
1

> <s_lp_Variant>
AV-unprocessed.smi:1975-1

> <Gold.Version>
5.8.1

> <Gold.Id.Protein>
6NUR|6NUR_protein|mol2

> <Gold.PLP.Fitness>
40.8444

> <Gold.PLP.PLP>
-36.8466

> <Gold.PLP.part.hbond>
-2.0000

> <Gold.PLP.part.metal>
0.0000

> <Gold.PLP.part.buried>
-5.4810

> <Gold.PLP.part.nonpolar>
-29.6564

> <Gold.PLP.part.repulsive>
0.1976

> <Gold.PLP.ligand.clash>
0.0000

> <Gold.PLP.ligand.torsion>
0.4177

> <Gold.PLP.Chemscore.Hbond>
1.5920

> <Gold.PLP.Chemscore.CHOScore>
0.0000

> <Gold.PLP.Chemscore.Metal>
0.0000

> <Gold.Chemscore.Hbonds>
donor molecule, donor type, donor heavy atom, donor atom, acceptor molecule, acceptor atom, score
      L1  H    14    28       P1  8028  0.58
      P1  H  6896  6907       L1     7  0.99

> <Gold.PLP.Chemscore.Internal.Correction>
0.0572

> <Gold.Rescore>
     Score         DG    S(hbond)    S(metal)    S(lipo)     H(rot)  DE(clash)    DE(int)     intcor
      9.44     -14.07       1.95        0.00      59.02       1.89       0.00       4.62       ----

> <Gold.Chemscore.Fitness>
9.4437

> <Gold.Chemscore.DG>
-14.0703

> <Gold.Chemscore.ZeroCoef>
-5.4800

> <Gold.Chemscore.Hbond>
1.9513

> <Gold.Chemscore.Metal>
0.0000

> <Gold.Chemscore.Lipo>
59.0186

> <Gold.Chemscore.Internal_Hbond>
0.0000

> <Gold.Chemscore.DEClash>
0.0048

> <Gold.Chemscore.DEInternal>
4.6218

> <Gold.Chemscore.Rot>
1.8876

> <Gold.Chemscore.Internal.Correction>
   9.000000E+99

> <Gold.Chemscore.Hbonds>
donor molecule, donor type, donor heavy atom, donor atom, acceptor molecule, acceptor atom, score
      L1  H    14    28       P1  8028  0.58
      P1  H  6896  6907       L1     7  0.92

> <Gold.Chemscore.Hbond.Weighted>
-6.5174

> <Gold.Chemscore.Metal.Weighted>
-0.0000

> <Gold.Chemscore.Lipo.Weighted>
-6.9052

> <Gold.Chemscore.Internal_Hbond.Weighted>
0.0000

> <Gold.Chemscore.DEClash.Weighted>
0.0048

> <Gold.Chemscore.DEInternal.Weighted>
4.6218

> <Gold.Chemscore.Rot.Weighted>
4.8323

> <Gold.Chemscore.Internal.Correction.Weighted>
   9.000000E+99

> <Gold.Protein.RotatedTorsions>
[ 6907 6896 6895 6894 ] final   27.75 input  -60.11 | X-H torsion
[ 7974 7965 7964 7962 ] final  160.06 input  175.53 | X-H torsion
[ 8008 7997 7996 7995 ] final -167.66 input   59.86 | X-H torsion
[ 10167 10162 10161 10158 ] final  -19.55 input  -65.29 | X-H torsion
[ 10718 10713 10712 10709 ] final  -78.09 input   66.30 | X-H torsion
[ 10763 10752 10751 10750 ] final   50.67 input  -60.55 | X-H torsion
[ 11005 11000 10999 10996 ] final  129.70 input  -57.11 | X-H torsion

> <Gold.Protein.ActiveResidues>
 VAL166  LYS551  ARG553  GLY616  TRP617  ASP618  TYR619  PRO620  LYS621  CYS622 
 ASP623  PHE694  ASN695  SER759  ASP760  ASP761  ALA762  ILE779  LEU786  VAL792 
 PHE793  MET794  SER795  GLU796  ALA797  LYS798  CYS799  TRP800  GLU811  SER814 

> <Gold.Protein.RotatedAtoms>
  152.0069  134.9898  160.0566 H   0  0  0  0  0  0  0  0  0  0  0  0  # atno 6907 bound_to 6896
  152.1466  133.4491  159.4801 H   0  0  0  0  0  0  0  0  0  0  0  0  # atno 6908 bound_to 6896
  150.6871  134.2158  159.4420 H   0  0  0  0  0  0  0  0  0  0  0  0  # atno 6909 bound_to 6896
  144.7757  139.7704  143.6280 H   0  0  0  0  0  0  0  0  0  0  0  0  # atno 7974 bound_to 7965
  155.8807  140.1008  157.1487 H   0  0  0  0  0  0  0  0  0  0  0  0  # atno 8008 bound_to 7997
  154.4005  140.1329  156.4256 H   0  0  0  0  0  0  0  0  0  0  0  0  # atno 8009 bound_to 7997
  155.7646  140.3462  155.5218 H   0  0  0  0  0  0  0  0  0  0  0  0  # atno 8010 bound_to 7997
  140.7269  143.4808  151.0121 H   0  0  0  0  0  0  0  0  0  0  0  0  # atno 10167 bound_to 10162
  156.0127  130.4508  150.3443 H   0  0  0  0  0  0  0  0  0  0  0  0  # atno 10718 bound_to 10713
  152.9784  135.5871  154.4291 H   0  0  0  0  0  0  0  0  0  0  0  0  # atno 10763 bound_to 10752
  154.3906  135.2768  155.2159 H   0  0  0  0  0  0  0  0  0  0  0  0  # atno 10764 bound_to 10752
  154.4033  135.6098  153.5964 H   0  0  0  0  0  0  0  0  0  0  0  0  # atno 10765 bound_to 10752
  139.9630  134.9597  156.9187 H   0  0  0  0  0  0  0  0  0  0  0  0  # atno 11005 bound_to 11000
  146.1934  139.5187  142.9790 LP  0  0  0  0  0  0  0  0  0  0  0  0  # atno 17320 bound_to 7965
  145.6194  141.0325  143.1923 LP  0  0  0  0  0  0  0  0  0  0  0  0  # atno 17321 bound_to 7965
  139.8506  143.7443  152.3178 LP  0  0  0  0  0  0  0  0  0  0  0  0  # atno 17342 bound_to 10162
  139.7624  144.7502  151.0344 LP  0  0  0  0  0  0  0  0  0  0  0  0  # atno 17343 bound_to 10162
  157.1538  131.0327  151.2873 LP  0  0  0  0  0  0  0  0  0  0  0  0  # atno 17370 bound_to 10713
  157.4370  130.7522  149.7037 LP  0  0  0  0  0  0  0  0  0  0  0  0  # atno 17371 bound_to 10713
  140.5458  134.0676  155.7354 LP  0  0  0  0  0  0  0  0  0  0  0  0  # atno 17394 bound_to 11000
  141.1309  133.9304  157.2538 LP  0  0  0  0  0  0  0  0  0  0  0  0  # atno 17395 bound_to 11000

$$$$
