#       Name:                AV-unprocessed.smi:914
#       Creating user name   scv26
#       Creation time:       Fri Mar 27 02:05:38 2020


#       File generated by GOLD software.
#

@<TRIPOS>MOLECULE
AV-unprocessed.smi:914
    41    42     1
SMALL
NO_CHARGES


@<TRIPOS>ATOM
      1 ****        -0.8435   3.4634   3.4734 O.2            1 S1                 0.0000
      2 ****        -1.1641   2.9442   2.4061 C.2            1 S1                 0.0000
      3 ****        -2.3174   2.1569   2.3337 N.am           1 S1                 0.0000
      4 ****        -2.7908   1.5129   1.1900 C.2            1 S1                 0.0000
      5 ****        -3.8119   0.8277   1.2494 O.2            1 S1                 0.0000
      6 ****        -2.0411   1.6888   0.0045 N.am           1 S1                 0.0000
      7 ****        -2.4783   0.9976  -1.1841 C.3            1 S1                 0.0000
      8 ****        -2.0070  -0.4647  -1.2193 C.3            1 S1                 0.0000
      9 ****        -0.5900  -0.4774  -1.2418 O.3            1 S1                 0.0000
     10 ****        -0.0389  -1.7787  -1.1461 C.3            1 S1                 0.0000
     11 ****         1.4884  -1.6510  -1.1122 C.3            1 S1                 0.0000
     12 ****         2.0220  -0.9022   0.1082 C.3            1 S1                 0.0000
     13 ****         3.4357  -1.4298   0.1890 C.3            1 S1                 0.0000
     14 ****         3.2466  -2.8939  -0.2002 C.3            1 S1                 0.0000
     15 ****         2.1008  -2.9358  -1.0488 O.3            1 S1                 0.0000
     16 ****        -0.8852   2.4537   0.0318 C.2            1 S1                 0.0000
     17 ****        -0.4279   3.0690   1.1487 C.2            1 S1                 0.0000
     18 ****         1.0286   3.9965   1.1047 Cl             1 S1                 0.0000
     19 ****        -2.8503   2.0399   3.1833 H              1 S1                 0.0000
     20 ****        -3.5646   1.0883  -1.2440 H              1 S1                 0.0000
     21 ****        -2.0790   1.5578  -2.0311 H              1 S1                 0.0000
     22 ****        -2.3838  -1.0096  -0.3523 H              1 S1                 0.0000
     23 ****        -2.3921  -0.9621  -2.1103 H              1 S1                 0.0000
     24 ****        -0.3960  -2.2812  -0.2458 H              1 S1                 0.0000
     25 ****        -0.3489  -2.3769  -2.0040 H              1 S1                 0.0000
     26 ****         1.8420  -1.1606  -2.0206 H              1 S1                 0.0000
     27 ****         1.9728   0.1817  -0.0023 H              1 S1                 0.0000
     28 ****         1.4671  -1.1803   1.0055 H              1 S1                 0.0000
     29 ****         4.0653  -0.9236  -0.5442 H              1 S1                 0.0000
     30 ****         3.8869  -1.3040   1.1735 H              1 S1                 0.0000
     31 ****         4.1250  -3.3053  -0.6976 H              1 S1                 0.0000
     32 ****         3.0440  -3.5003   0.6833 H              1 S1                 0.0000
     33 ****        -0.3132   2.5597  -0.8794 H              1 S1                 0.0000
     34 ****        -0.0179   4.0250   3.5281 LP             1 S1                 0.0000
     35 ****        -1.4084   3.3241   4.2867 LP             1 S1                 0.0000
     36 ****        -4.3009   0.7332   2.1165 LP             1 S1                 0.0000
     37 ****        -4.1523   0.3656   0.4305 LP             1 S1                 0.0000
     38 ****        -0.2556   0.0661  -0.4719 LP             1 S1                 0.0000
     39 ****        -0.2827  -0.0650  -2.0994 LP             1 S1                 0.0000
     40 ****         2.3802  -3.2143  -1.9677 LP             1 S1                 0.0000
     41 ****         1.4445  -3.5970  -0.6853 LP             1 S1                 0.0000
@<TRIPOS>BOND
    1    1    2 2     
    2    2   17 1     
    3    2    3 1     
    4    3   19 1     
    5    3    4 1     
    6    4    5 2     
    7    4    6 1     
    8    6    7 1     
    9    6   16 1     
   10    7    8 1     
   11    7   20 1     
   12    7   21 1     
   13    8    9 1     
   14    8   22 1     
   15    8   23 1     
   16    9   10 1     
   17   10   11 1     
   18   10   24 1     
   19   10   25 1     
   20   11   15 1     
   21   11   12 1     
   22   11   26 1     
   23   12   13 1     
   24   12   27 1     
   25   12   28 1     
   26   13   14 1     
   27   13   29 1     
   28   13   30 1     
   29   14   15 1     
   30   14   31 1     
   31   14   32 1     
   32   16   17 2     
   33   16   33 1     
   34   17   18 1     
   35    1   34 1     
   36    1   35 1     
   37    5   36 1     
   38    5   37 1     
   39    9   38 1     
   40    9   39 1     
   41   15   40 1     
   42   15   41 1     
@<TRIPOS>SUBSTRUCTURE
      1 S1             1
@<TRIPOS>SET
LONE_PAIRS      STATIC     ATOMS    <user>   **** ""
8 34 35 36 37 38 39 40 41
DONOR_HYDROGENS      STATIC     ATOMS    <user>   **** ""
1 19
ATOM$BLUE        STATIC     ATOMS    COLORGROUP SYSTEM
8 34 35 36 37 38 39 40 41
ATOM$RED        STATIC     ATOMS    COLORGROUP SYSTEM
1 19
