AV-unprocessed.smi:1261|AV-procd|sdf|5302|dock3
  -GOLD-   22720 4423D 1   1.00000     0.00000
 Structure written by MMmdl.
 49 50  0  0  0  0  0  0  0  0  3 V2000
  151.4015  145.5207  160.0028 C   0  0  0  0  0  0  0  0  0  0  0  0
  152.2301  144.2450  159.7971 C   0  0  1  0  0  0  0  0  0  0  0  0
  152.6610  143.6323  161.1401 C   0  0  0  0  0  0  0  0  0  0  0  0
  153.4740  142.3472  160.9130 C   0  0  1  0  0  0  0  0  0  0  0  0
  153.8971  141.7093  162.2438 C   0  0  0  0  0  0  0  0  0  0  0  0
  152.6740  141.3593  160.0420 C   0  0  0  0  0  0  0  0  0  0  0  0
  152.2734  141.9737  158.7494 N   0  3  1  0  0  0  0  0  0  0  0  0
  151.6261  140.9919  157.8423 C   0  0  0  0  0  0  0  0  0  0  0  0
  150.5681  140.1331  158.5566 C   0  0  0  0  0  0  0  0  0  0  0  0
  150.2026  138.8750  157.7526 C   0  0  0  0  0  0  0  0  0  0  0  0
  148.9919  138.2445  158.2633 N   0  0  0  0  0  0  0  0  0  0  0  0
  148.9510  137.0872  158.9407 C   0  0  0  0  0  0  0  0  0  0  0  0
  149.9554  136.4370  159.2322 O   0  0  0  0  0  0  0  0  0  0  0  0
  147.5624  136.6019  159.3709 C   0  0  0  0  0  0  0  0  0  0  0  0
  147.5676  136.0762  160.7416 N   0  0  0  0  0  0  0  0  0  0  0  0
  147.8745  137.0856  161.7519 N   0  5  0  0  0  0  0  0  0  0  0  0
  147.8859  136.7284  163.0635 C   0  0  0  0  0  0  0  0  0  0  0  0
  148.1250  137.5246  163.9685 O   0  0  0  0  0  0  0  0  0  0  0  0
  147.6033  135.3424  163.3978 C   0  0  0  0  0  0  0  0  0  0  0  0
  147.3335  134.4298  162.4437 C   0  0  0  0  0  0  0  0  0  0  0  0
  147.3033  134.7689  161.0259 C   0  0  0  0  0  0  0  0  0  0  0  0
  147.0562  133.9395  160.1507 O   0  0  0  0  0  0  0  0  0  0  0  0
  151.4643  143.2041  158.9578 C   0  0  0  0  0  0  0  0  0  0  0  0
  150.4809  145.3126  160.5491 H   0  0  0  0  0  0  0  0  0  0  0  0
  151.1273  145.9700  159.0479 H   0  0  0  0  0  0  0  0  0  0  0  0
  151.9620  146.2664  160.5673 H   0  0  0  0  0  0  0  0  0  0  0  0
  153.1309  144.5248  159.2485 H   0  0  0  0  0  0  0  0  0  0  0  0
  153.2540  144.3528  161.7051 H   0  0  0  0  0  0  0  0  0  0  0  0
  151.7804  143.4115  161.7457 H   0  0  0  0  0  0  0  0  0  0  0  0
  154.3841  142.6133  160.3729 H   0  0  0  0  0  0  0  0  0  0  0  0
  153.0302  141.4206  162.8390 H   0  0  0  0  0  0  0  0  0  0  0  0
  154.4936  142.4016  162.8387 H   0  0  0  0  0  0  0  0  0  0  0  0
  154.4996  140.8157  162.0781 H   0  0  0  0  0  0  0  0  0  0  0  0
  153.2864  140.4769  159.8506 H   0  0  0  0  0  0  0  0  0  0  0  0
  151.7837  141.0179  160.5731 H   0  0  0  0  0  0  0  0  0  0  0  0
  151.1292  141.5298  157.0338 H   0  0  0  0  0  0  0  0  0  0  0  0
  152.3837  140.3625  157.3728 H   0  0  0  0  0  0  0  0  0  0  0  0
  150.9291  139.8323  159.5398 H   0  0  0  0  0  0  0  0  0  0  0  0
  149.6689  140.7272  158.7246 H   0  0  0  0  0  0  0  0  0  0  0  0
  150.0302  139.1361  156.7083 H   0  0  0  0  0  0  0  0  0  0  0  0
  151.0278  138.1608  157.7613 H   0  0  0  0  0  0  0  0  0  0  0  0
  148.1129  138.6991  158.0594 H   0  0  0  0  0  0  0  0  0  0  0  0
  146.8527  137.4262  159.2817 H   0  0  0  0  0  0  0  0  0  0  0  0
  147.2086  135.8422  158.6712 H   0  0  0  0  0  0  0  0  0  0  0  0
  147.6110  135.0374  164.4338 H   0  0  0  0  0  0  0  0  0  0  0  0
  147.1304  133.4109  162.7381 H   0  0  0  0  0  0  0  0  0  0  0  0
  150.5241  142.9418  159.4460 H   0  0  0  0  0  0  0  0  0  0  0  0
  151.2059  143.6496  157.9980 H   0  0  0  0  0  0  0  0  0  0  0  0
  153.1303  142.2576  158.2963 H   0  0  0  0  0  0  0  0  0  0  0  0
  1  2  1  0  0  0  0
  1 24  1  0  0  0  0
  1 25  1  0  0  0  0
  1 26  1  0  0  0  0
  2 23  1  0  0  0  0
  2  3  1  0  0  0  0
  2 27  1  0  0  0  0
  3  4  1  0  0  0  0
  3 28  1  0  0  0  0
  3 29  1  0  0  0  0
  4  5  1  0  0  0  0
  4  6  1  0  0  0  0
  4 30  1  0  0  0  0
  5 31  1  0  0  0  0
  5 32  1  0  0  0  0
  5 33  1  0  0  0  0
  6  7  1  0  0  0  0
  6 34  1  0  0  0  0
  6 35  1  0  0  0  0
  7  8  1  0  0  0  0
  7 23  1  0  0  0  0
  7 49  1  0  0  0  0
  8  9  1  0  0  0  0
  8 36  1  0  0  0  0
  8 37  1  0  0  0  0
  9 10  1  0  0  0  0
  9 38  1  0  0  0  0
  9 39  1  0  0  0  0
 10 11  1  0  0  0  0
 10 40  1  0  0  0  0
 10 41  1  0  0  0  0
 11 12  1  0  0  0  0
 11 42  1  0  0  0  0
 12 13  2  0  0  0  0
 12 14  1  0  0  0  0
 14 43  1  0  0  0  0
 14 44  1  0  0  0  0
 14 15  1  0  0  0  0
 15 16  1  0  0  0  0
 15 21  1  0  0  0  0
 16 17  1  0  0  0  0
 17 18  2  0  0  0  0
 17 19  1  0  0  0  0
 19 45  1  0  0  0  0
 19 20  2  0  0  0  0
 20 46  1  0  0  0  0
 20 21  1  0  0  0  0
 21 22  2  0  0  0  0
 23 47  1  0  0  0  0
 23 48  1  0  0  0  0
M  CHG  1   7   1
M  CHG  1  16  -1
M  END
> <s_m_source_file>
AV-unprocessed.smi

> <i_m_source_file_index>
1261

> <i_lp_mmshare_version>
43012

> <i_f3d_flags>
0

> <s_epik_input>
W0NIM11bQ0BASF0xW0NIMl1bQ0BASF0oW0NIM10pW0NIMl1OKFtDSDJdMSlbQ0gyXVtDSDJdW0NIMl1bTkhdQyg9TylbQ0gyXW4yW25IXWMoPU8pW2NIXVtjSF1jMj1P

> <s_epik_cmdline>
J2VwaWtfcHl0aG9uJywgJy1waCcsICc3LjAnLCAnLXRuJywgJzgnLCAnLW1hJywgJzIwMCcsICctbWV0YWxfYmluZGluZycsICctaW1hZScsICc8aW5maWxlLm1hZT4nLCAnLW9tYWUnLCAnPG91dGZpbGUubWFlPic=

> <r_lp_tautomer_probability>
1

> <r_epik_Ionization_Penalty>
0.0955723

> <r_epik_Ionization_Penalty_Charging>
0.0955723

> <r_epik_Ionization_Penalty_Neutral>
2.68632e-08

> <r_epik_State_Penalty>
0.0334406

> <r_epik_Charging_Adjusted_Penalty>
0.129013

> <i_epik_Tot_Q>
0

> <i_epik_Tot_abs_Q>
2

> <r_epik_Metal_State_Penalty>
0.0334406

> <b_epik_Metal_Only>
0

> <s_lp_Force_Field>
OPLS_2005

> <r_lp_Energy>
31.5278

> <b_lp_Chiralities_Consistent>
1

> <s_lp_Variant>
AV-unprocessed.smi:1261-2

> <Gold.Version>
5.8.1

> <Gold.Id.Protein>
6NUR|6NUR_protein|mol2

> <Gold.PLP.Fitness>
60.5087

> <Gold.PLP.PLP>
-51.0040

> <Gold.PLP.part.hbond>
-4.0000

> <Gold.PLP.part.metal>
0.0000

> <Gold.PLP.part.buried>
-4.9651

> <Gold.PLP.part.nonpolar>
-42.1988

> <Gold.PLP.part.repulsive>
0.2590

> <Gold.PLP.ligand.clash>
0.0000

> <Gold.PLP.ligand.torsion>
0.5964

> <Gold.PLP.Chemscore.Hbond>
3.5274

> <Gold.PLP.Chemscore.CHOScore>
0.0000

> <Gold.PLP.Chemscore.Metal>
0.0000

> <Gold.Chemscore.Hbonds>
donor molecule, donor type, donor heavy atom, donor atom, acceptor molecule, acceptor atom, score
      P1  H  6896  6907       L1    13  1.00
      P1  H  6931  6943       L1    16  1.50
      P1  H  6934  6947       L1    16  0.75

> <Gold.PLP.Chemscore.Internal.Correction>
0.1153

> <Gold.Rescore>
     Score         DG    S(hbond)    S(metal)    S(lipo)     H(rot)  DE(clash)    DE(int)     intcor
     17.57     -18.27       1.83        0.00     111.62       2.49       0.03       0.67       ----

> <Gold.Chemscore.Fitness>
17.5727

> <Gold.Chemscore.DG>
-18.2684

> <Gold.Chemscore.ZeroCoef>
-5.4800

> <Gold.Chemscore.Hbond>
1.8303

> <Gold.Chemscore.Metal>
0.0000

> <Gold.Chemscore.Lipo>
111.6172

> <Gold.Chemscore.Internal_Hbond>
0.0000

> <Gold.Chemscore.DEClash>
0.0272

> <Gold.Chemscore.DEInternal>
0.6685

> <Gold.Chemscore.Rot>
2.4938

> <Gold.Chemscore.Internal.Correction>
   9.000000E+99

> <Gold.Chemscore.Hbonds>
donor molecule, donor type, donor heavy atom, donor atom, acceptor molecule, acceptor atom, score
      P1  H  6896  6907       L1    13  0.98
      P1  H  6931  6943       L1    16  0.09
      P1  H  6934  6947       L1    16  0.22

> <Gold.Chemscore.Hbond.Weighted>
-6.1133

> <Gold.Chemscore.Metal.Weighted>
-0.0000

> <Gold.Chemscore.Lipo.Weighted>
-13.0592

> <Gold.Chemscore.Internal_Hbond.Weighted>
0.0000

> <Gold.Chemscore.DEClash.Weighted>
0.0272

> <Gold.Chemscore.DEInternal.Weighted>
0.6685

> <Gold.Chemscore.Rot.Weighted>
6.3840

> <Gold.Chemscore.Internal.Correction.Weighted>
   9.000000E+99

> <Gold.Protein.RotatedTorsions>
[ 6907 6896 6895 6894 ] final  -58.27 input  -60.11 | X-H torsion
[ 7974 7965 7964 7962 ] final   55.88 input  175.53 | X-H torsion
[ 8008 7997 7996 7995 ] final   66.08 input   59.86 | X-H torsion
[ 10167 10162 10161 10158 ] final   60.38 input  -65.29 | X-H torsion
[ 10718 10713 10712 10709 ] final   63.57 input   66.30 | X-H torsion
[ 10763 10752 10751 10750 ] final   46.76 input  -60.55 | X-H torsion
[ 11005 11000 10999 10996 ] final   50.96 input  -57.11 | X-H torsion

> <Gold.Protein.ActiveResidues>
 VAL166  LYS551  ARG553  GLY616  TRP617  ASP618  TYR619  PRO620  LYS621  CYS622 
 ASP623  PHE694  ASN695  SER759  ASP760  ASP761  ALA762  ILE779  LEU786  VAL792 
 PHE793  MET794  SER795  GLU796  ALA797  LYS798  CYS799  TRP800  GLU811  SER814 

> <Gold.Protein.RotatedAtoms>
  150.8020  134.7120  159.6608 H   0  0  0  0  0  0  0  0  0  0  0  0  # atno 6907 bound_to 6896
  152.4137  134.6075  160.0026 H   0  0  0  0  0  0  0  0  0  0  0  0  # atno 6908 bound_to 6896
  151.6310  133.3295  159.3145 H   0  0  0  0  0  0  0  0  0  0  0  0  # atno 6909 bound_to 6896
  145.9458  139.3928  143.0336 H   0  0  0  0  0  0  0  0  0  0  0  0  # atno 7974 bound_to 7965
  155.6717  140.3497  155.4821 H   0  0  0  0  0  0  0  0  0  0  0  0  # atno 8008 bound_to 7997
  155.9682  140.1150  157.0858 H   0  0  0  0  0  0  0  0  0  0  0  0  # atno 8009 bound_to 7997
  154.4160  140.1162  156.5257 H   0  0  0  0  0  0  0  0  0  0  0  0  # atno 8010 bound_to 7997
  140.1662  144.4322  150.6684 H   0  0  0  0  0  0  0  0  0  0  0  0  # atno 10167 bound_to 10162
  157.5980  130.9112  149.9733 H   0  0  0  0  0  0  0  0  0  0  0  0  # atno 10718 bound_to 10713
  152.9807  135.5998  154.3652 H   0  0  0  0  0  0  0  0  0  0  0  0  # atno 10763 bound_to 10752
  154.3330  135.2768  155.2464 H   0  0  0  0  0  0  0  0  0  0  0  0  # atno 10764 bound_to 10752
  154.4579  135.5973  153.6291 H   0  0  0  0  0  0  0  0  0  0  0  0  # atno 10765 bound_to 10752
  140.0973  134.5129  155.8795 H   0  0  0  0  0  0  0  0  0  0  0  0  # atno 11005 bound_to 11000
  145.8239  140.9665  143.0884 LP  0  0  0  0  0  0  0  0  0  0  0  0  # atno 17320 bound_to 7965
  144.6787  140.0076  143.7484 LP  0  0  0  0  0  0  0  0  0  0  0  0  # atno 17321 bound_to 7965
  140.6611  143.2252  151.5853 LP  0  0  0  0  0  0  0  0  0  0  0  0  # atno 17342 bound_to 10162
  139.5358  144.2784  152.1249 LP  0  0  0  0  0  0  0  0  0  0  0  0  # atno 17343 bound_to 10162
  156.1047  130.3653  150.0155 LP  0  0  0  0  0  0  0  0  0  0  0  0  # atno 17370 bound_to 10713
  156.8264  130.9377  151.3639 LP  0  0  0  0  0  0  0  0  0  0  0  0  # atno 17371 bound_to 10713
  141.2095  133.6685  156.6447 LP  0  0  0  0  0  0  0  0  0  0  0  0  # atno 17394 bound_to 11000
  140.3269  134.7961  157.4296 LP  0  0  0  0  0  0  0  0  0  0  0  0  # atno 17395 bound_to 11000

$$$$
