AV-unprocessed.smi:2062|AV-procd|sdf|8402|dock8
  -GOLD-   2272011 93D 1   1.00000     0.00000
 Structure written by MMmdl.
 42 43  0  0  0  0  0  0  0  0  3 V2000
  152.7027  143.3498  160.7304 C   0  0  0  0  0  0  0  0  0  0  0  0
  152.4369  143.2793  159.2193 C   0  0  0  0  0  0  0  0  0  0  0  0
  152.0606  144.6675  158.6747 C   0  0  0  0  0  0  0  0  0  0  0  0
  151.3527  142.2243  158.9097 C   0  0  0  0  0  0  0  0  0  0  0  0
  151.8951  140.9891  158.2876 N   0  3  1  0  0  0  0  0  0  0  0  0
  153.0173  140.3843  159.0475 C   0  0  0  0  0  0  0  0  0  0  0  0
  153.5343  139.1264  158.3318 C   0  0  0  0  0  0  0  0  0  0  0  0
  152.4618  138.2127  158.1552 O   0  0  0  0  0  0  0  0  0  0  0  0
  151.4287  138.7400  157.3293 C   0  0  1  0  0  0  0  0  0  0  0  0
  150.3639  137.6530  157.0997 C   0  0  0  0  0  0  0  0  0  0  0  0
  150.2857  136.7329  158.2292 N   0  0  0  0  0  0  0  0  0  0  0  0
  149.5946  136.9319  159.3603 C   0  0  0  0  0  0  0  0  0  0  0  0
  148.9234  137.9568  159.5006 O   0  0  0  0  0  0  0  0  0  0  0  0
  149.7295  135.9325  160.2604 N   0  5  0  0  0  0  0  0  0  0  0  0
  148.8699  135.8342  161.2877 C   0  0  0  0  0  0  0  0  0  0  0  0
  148.2235  136.8876  161.8003 N   0  0  0  0  0  0  0  0  0  0  0  0
  147.3828  136.5586  162.8652 C   0  0  0  0  0  0  0  0  0  0  0  0
  147.3953  135.2245  163.1757 C   0  0  0  0  0  0  0  0  0  0  0  0
  148.4709  134.3367  162.1343 S   0  0  0  0  0  0  0  0  0  0  0  0
  150.8402  139.9796  158.0306 C   0  0  0  0  0  0  0  0  0  0  0  0
  151.8105  143.6559  161.2777 H   0  0  0  0  0  0  0  0  0  0  0  0
  153.4941  144.0648  160.9579 H   0  0  0  0  0  0  0  0  0  0  0  0
  153.0158  142.3809  161.1206 H   0  0  0  0  0  0  0  0  0  0  0  0
  153.3743  142.9790  158.7526 H   0  0  0  0  0  0  0  0  0  0  0  0
  151.1260  145.0243  159.1088 H   0  0  0  0  0  0  0  0  0  0  0  0
  151.9413  144.6533  157.5912 H   0  0  0  0  0  0  0  0  0  0  0  0
  152.8338  145.4009  158.9054 H   0  0  0  0  0  0  0  0  0  0  0  0
  150.8077  141.9563  159.8161 H   0  0  0  0  0  0  0  0  0  0  0  0
  150.6199  142.6752  158.2384 H   0  0  0  0  0  0  0  0  0  0  0  0
  153.8361  141.0944  159.1556 H   0  0  0  0  0  0  0  0  0  0  0  0
  152.6819  140.1259  160.0531 H   0  0  0  0  0  0  0  0  0  0  0  0
  153.9802  139.3776  157.3681 H   0  0  0  0  0  0  0  0  0  0  0  0
  154.3112  138.6477  158.9279 H   0  0  0  0  0  0  0  0  0  0  0  0
  151.8468  139.0329  156.3640 H   0  0  0  0  0  0  0  0  0  0  0  0
  149.3903  138.0990  156.8900 H   0  0  0  0  0  0  0  0  0  0  0  0
  150.6261  137.0625  156.2215 H   0  0  0  0  0  0  0  0  0  0  0  0
  150.8142  135.8758  158.1580 H   0  0  0  0  0  0  0  0  0  0  0  0
  146.8120  137.3391  163.3455 H   0  0  0  0  0  0  0  0  0  0  0  0
  146.8427  134.7123  163.9488 H   0  0  0  0  0  0  0  0  0  0  0  0
  150.3722  139.6931  158.9742 H   0  0  0  0  0  0  0  0  0  0  0  0
  150.0605  140.4168  157.4054 H   0  0  0  0  0  0  0  0  0  0  0  0
  152.2578  141.2545  157.3830 H   0  0  0  0  0  0  0  0  0  0  0  0
  1  2  1  0  0  0  0
  1 21  1  0  0  0  0
  1 22  1  0  0  0  0
  1 23  1  0  0  0  0
  2  3  1  0  0  0  0
  2  4  1  0  0  0  0
  2 24  1  0  0  0  0
  3 25  1  0  0  0  0
  3 26  1  0  0  0  0
  3 27  1  0  0  0  0
  4  5  1  0  0  0  0
  4 28  1  0  0  0  0
  4 29  1  0  0  0  0
  5 20  1  0  0  0  0
  5  6  1  0  0  0  0
  5 42  1  0  0  0  0
  6  7  1  0  0  0  0
  6 30  1  0  0  0  0
  6 31  1  0  0  0  0
  7  8  1  0  0  0  0
  7 32  1  0  0  0  0
  7 33  1  0  0  0  0
  8  9  1  0  0  0  0
  9 10  1  0  0  0  0
  9 20  1  0  0  0  0
  9 34  1  0  0  0  0
 10 11  1  0  0  0  0
 10 35  1  0  0  0  0
 10 36  1  0  0  0  0
 11 12  1  0  0  0  0
 11 37  1  0  0  0  0
 12 13  2  0  0  0  0
 12 14  1  0  0  0  0
 14 15  1  0  0  0  0
 15 19  1  0  0  0  0
 15 16  2  0  0  0  0
 16 17  1  0  0  0  0
 17 18  2  0  0  0  0
 17 38  1  0  0  0  0
 18 19  1  0  0  0  0
 18 39  1  0  0  0  0
 20 40  1  0  0  0  0
 20 41  1  0  0  0  0
M  CHG  1   5   1
M  CHG  1  14  -1
M  END
> <s_m_source_file>
AV-unprocessed.smi

> <i_m_source_file_index>
2062

> <i_lp_mmshare_version>
43012

> <i_f3d_flags>
0

> <s_epik_input>
W0NIM11bQ0hdKFtDSDNdKVtDSDJdTjFbQ0gyXVtDSDJdT1tDQEhdKFtDSDJdMSlbQ0gyXVtOSF1DKD1PKVtOSF1jMm5bY0hdW2NIXXMy

> <s_epik_cmdline>
J2VwaWtfcHl0aG9uJywgJy1waCcsICc3LjAnLCAnLXRuJywgJzgnLCAnLW1hJywgJzIwMCcsICctbWV0YWxfYmluZGluZycsICctaW1hZScsICc8aW5maWxlLm1hZT4nLCAnLW9tYWUnLCAnPG91dGZpbGUubWFlPic=

> <r_lp_tautomer_probability>
0.999

> <r_epik_Ionization_Penalty>
6.35835

> <r_epik_Ionization_Penalty_Charging>
5.49938

> <r_epik_Ionization_Penalty_Neutral>
0.858963

> <r_epik_State_Penalty>
5.49328

> <r_epik_Charging_Adjusted_Penalty>
10.9927

> <i_epik_Tot_Q>
0

> <i_epik_Tot_abs_Q>
2

> <r_epik_Metal_State_Penalty>
1.51523

> <b_epik_Metal_Only>
1

> <s_lp_Force_Field>
OPLS_2005

> <r_lp_Energy>
7.56536

> <b_lp_Chiralities_Consistent>
1

> <s_lp_Variant>
AV-unprocessed.smi:2062-7

> <Gold.Version>
5.8.1

> <Gold.Id.Protein>
6NUR|6NUR_protein|mol2

> <Gold.PLP.Fitness>
45.9572

> <Gold.PLP.PLP>
-36.9820

> <Gold.PLP.part.hbond>
-4.5422

> <Gold.PLP.part.metal>
0.0000

> <Gold.PLP.part.buried>
-4.0242

> <Gold.PLP.part.nonpolar>
-29.0760

> <Gold.PLP.part.repulsive>
0.1916

> <Gold.PLP.ligand.clash>
0.0000

> <Gold.PLP.ligand.torsion>
1.4451

> <Gold.PLP.Chemscore.Hbond>
3.9040

> <Gold.PLP.Chemscore.CHOScore>
0.0000

> <Gold.PLP.Chemscore.Metal>
0.0000

> <Gold.Chemscore.Hbonds>
donor molecule, donor type, donor heavy atom, donor atom, acceptor molecule, acceptor atom, score
      P1  H  6896  6907       L1    14  1.86
      P1  H  6931  6943       L1    16  1.00

> <Gold.PLP.Chemscore.Internal.Correction>
0.1534

> <Gold.Rescore>
     Score         DG    S(hbond)    S(metal)    S(lipo)     H(rot)  DE(clash)    DE(int)     intcor
     15.57     -18.79       1.88        0.00      97.84       1.72       0.14       3.08       ----

> <Gold.Chemscore.Fitness>
15.5736

> <Gold.Chemscore.DG>
-18.7926

> <Gold.Chemscore.ZeroCoef>
-5.4800

> <Gold.Chemscore.Hbond>
1.8762

> <Gold.Chemscore.Metal>
0.0000

> <Gold.Chemscore.Lipo>
97.8445

> <Gold.Chemscore.Internal_Hbond>
0.0000

> <Gold.Chemscore.DEClash>
0.1363

> <Gold.Chemscore.DEInternal>
3.0828

> <Gold.Chemscore.Rot>
1.7194

> <Gold.Chemscore.Internal.Correction>
   9.000000E+99

> <Gold.Chemscore.Hbonds>
donor molecule, donor type, donor heavy atom, donor atom, acceptor molecule, acceptor atom, score
      P1  H  6896  6907       L1    14  0.66
      P1  H  6931  6943       L1    16  0.87
      P1  H  6934  6947       L1    13  0.01

> <Gold.Chemscore.Hbond.Weighted>
-6.2665

> <Gold.Chemscore.Metal.Weighted>
-0.0000

> <Gold.Chemscore.Lipo.Weighted>
-11.4478

> <Gold.Chemscore.Internal_Hbond.Weighted>
0.0000

> <Gold.Chemscore.DEClash.Weighted>
0.1363

> <Gold.Chemscore.DEInternal.Weighted>
3.0828

> <Gold.Chemscore.Rot.Weighted>
4.4017

> <Gold.Chemscore.Internal.Correction.Weighted>
   9.000000E+99

> <Gold.Protein.RotatedTorsions>
[ 6907 6896 6895 6894 ] final  -51.37 input  -60.11 | X-H torsion
[ 7974 7965 7964 7962 ] final -152.64 input  175.53 | X-H torsion
[ 8008 7997 7996 7995 ] final  127.54 input   59.86 | X-H torsion
[ 10167 10162 10161 10158 ] final -171.29 input  -65.29 | X-H torsion
[ 10718 10713 10712 10709 ] final  162.77 input   66.30 | X-H torsion
[ 10763 10752 10751 10750 ] final  -78.62 input  -60.55 | X-H torsion
[ 11005 11000 10999 10996 ] final   67.85 input  -57.11 | X-H torsion

> <Gold.Protein.ActiveResidues>
 VAL166  LYS551  ARG553  GLY616  TRP617  ASP618  TYR619  PRO620  LYS621  CYS622 
 ASP623  PHE694  ASN695  SER759  ASP760  ASP761  ALA762  ILE779  LEU786  VAL792 
 PHE793  MET794  SER795  GLU796  ALA797  LYS798  CYS799  TRP800  GLU811  SER814 

> <Gold.Protein.RotatedAtoms>
  150.8618  134.7972  159.7088 H   0  0  0  0  0  0  0  0  0  0  0  0  # atno 6907 bound_to 6896
  152.4653  134.5087  159.9757 H   0  0  0  0  0  0  0  0  0  0  0  0  # atno 6908 bound_to 6896
  151.5190  133.3432  159.2933 H   0  0  0  0  0  0  0  0  0  0  0  0  # atno 6909 bound_to 6896
  144.7783  140.4635  143.5857 H   0  0  0  0  0  0  0  0  0  0  0  0  # atno 7974 bound_to 7965
  156.2893  140.2666  156.2289 H   0  0  0  0  0  0  0  0  0  0  0  0  # atno 8008 bound_to 7997
  155.0092  140.0387  157.2410 H   0  0  0  0  0  0  0  0  0  0  0  0  # atno 8009 bound_to 7997
  154.7533  140.2747  155.6279 H   0  0  0  0  0  0  0  0  0  0  0  0  # atno 8010 bound_to 7997
  139.5811  144.1421  152.1516 H   0  0  0  0  0  0  0  0  0  0  0  0  # atno 10167 bound_to 10162
  157.1179  131.0485  151.2428 H   0  0  0  0  0  0  0  0  0  0  0  0  # atno 10718 bound_to 10713
  154.5282  135.5724  153.6736 H   0  0  0  0  0  0  0  0  0  0  0  0  # atno 10763 bound_to 10752
  152.9933  135.6198  154.2664 H   0  0  0  0  0  0  0  0  0  0  0  0  # atno 10764 bound_to 10752
  154.2589  135.2857  155.2766 H   0  0  0  0  0  0  0  0  0  0  0  0  # atno 10765 bound_to 10752
  139.9746  134.6843  156.0378 H   0  0  0  0  0  0  0  0  0  0  0  0  # atno 11005 bound_to 11000
  145.6122  139.1514  143.3069 LP  0  0  0  0  0  0  0  0  0  0  0  0  # atno 17320 bound_to 7965
  146.1976  140.6237  142.9117 LP  0  0  0  0  0  0  0  0  0  0  0  0  # atno 17321 bound_to 7965
  140.0974  144.5568  150.7012 LP  0  0  0  0  0  0  0  0  0  0  0  0  # atno 17342 bound_to 10162
  140.7089  143.2489  151.4642 LP  0  0  0  0  0  0  0  0  0  0  0  0  # atno 17343 bound_to 10162
  157.4502  130.7594  149.7144 LP  0  0  0  0  0  0  0  0  0  0  0  0  # atno 17370 bound_to 10713
  155.9835  130.4000  150.3360 LP  0  0  0  0  0  0  0  0  0  0  0  0  # atno 17371 bound_to 10713
  141.1424  133.6562  156.3769 LP  0  0  0  0  0  0  0  0  0  0  0  0  # atno 17394 bound_to 11000
  140.5221  134.6294  157.5321 LP  0  0  0  0  0  0  0  0  0  0  0  0  # atno 17395 bound_to 11000

$$$$
