#       Name:                AV-unprocessed.smi:1948
#       Creating user name   scv26
#       Creation time:       Fri Mar 27 10:02:49 2020


#       File generated by GOLD software.
#

@<TRIPOS>MOLECULE
AV-unprocessed.smi:1948
    36    37     1
SMALL
NO_CHARGES


@<TRIPOS>ATOM
      1 ****        -1.1343   1.8992   0.5656 O.2            1 S1                 0.0000
      2 ****        -1.6684   0.8225   0.2892 C.2            1 S1                 0.0000
      3 ****        -2.9895   0.6128   0.0872 N.pl3          1 S1                -1.0000
      4 ****        -3.8545   1.6362   0.1820 C.2            1 S1                 0.0000
      5 ****        -4.3239   2.2822  -0.8977 N.2            1 S1                 0.0000
      6 ****        -5.2094   3.3035  -0.5810 N.2            1 S1                 0.0000
      7 ****        -5.3917   3.3973   0.7360 C.2            1 S1                 0.0000
      8 ****        -4.5027   2.2439   1.7082 S.3            1 S1                 0.0000
      9 ****        -0.9208  -0.2839   0.1643 N.am           1 S1                 0.0000
     10 ****         0.5277  -0.3687   0.3329 C.3            1 S1                 0.0000
     11 ****         1.2535   0.0645  -0.9567 C.3            1 S1                 0.0000
     12 ****         2.7797  -0.0767  -0.8195 C.3            1 S1                 0.0000
     13 ****         3.2013  -1.4954  -0.3919 C.3            1 S1                 0.0000
     14 ****         2.9838  -2.4078  -1.4502 O.3            1 S1                 0.0000
     15 ****         2.4437  -1.9569   0.8672 C.3            1 S1                 0.0000
     16 ****         0.9193  -1.8066   0.7188 C.3            1 S1                 0.0000
     17 ****        -6.0568   4.1471   1.1372 H              1 S1                 0.0000
     18 ****        -1.4015  -1.1412  -0.0657 H              1 S1                 0.0000
     19 ****         0.8289   0.2925   1.1480 H              1 S1                 0.0000
     20 ****         0.9045  -0.5375  -1.7969 H              1 S1                 0.0000
     21 ****         1.0057   1.0986  -1.1984 H              1 S1                 0.0000
     22 ****         3.2676   0.1985  -1.7552 H              1 S1                 0.0000
     23 ****         3.1317   0.6370  -0.0736 H              1 S1                 0.0000
     24 ****         4.2719  -1.5011  -0.1847 H              1 S1                 0.0000
     25 ****         3.4728  -2.1156  -2.2041 H              1 S1                 0.0000
     26 ****         2.6976  -2.9908   1.1039 H              1 S1                 0.0000
     27 ****         2.7747  -1.3609   1.7187 H              1 S1                 0.0000
     28 ****         0.4326  -2.0872   1.6536 H              1 S1                 0.0000
     29 ****         0.5566  -2.5046  -0.0373 H              1 S1                 0.0000
     30 ****        -1.6916   2.7241   0.6597 LP             1 S1                 0.0000
     31 ****        -0.1440   1.9472   0.6956 LP             1 S1                 0.0000
     32 ****        -3.3222  -0.3043  -0.1327 LP             1 S1                 0.0000
     33 ****        -4.0622   2.0510  -1.8348 LP             1 S1                 0.0000
     34 ****        -5.6538   3.8935  -1.2551 LP             1 S1                 0.0000
     35 ****         2.0093  -2.4404  -1.6723 LP             1 S1                 0.0000
     36 ****         3.2945  -3.3189  -1.1792 LP             1 S1                 0.0000
@<TRIPOS>BOND
    1    1    2 2     
    2    2    3 1     
    3    2    9 am    
    4    3    4 1     
    5    4    8 1     
    6    4    5 2     
    7    5    6 1     
    8    6    7 2     
    9    7    8 1     
   10    7   17 1     
   11    9   10 1     
   12    9   18 1     
   13   10   16 1     
   14   10   11 1     
   15   10   19 1     
   16   11   12 1     
   17   11   20 1     
   18   11   21 1     
   19   12   13 1     
   20   12   22 1     
   21   12   23 1     
   22   13   14 1     
   23   13   15 1     
   24   13   24 1     
   25   14   25 1     
   26   15   16 1     
   27   15   26 1     
   28   15   27 1     
   29   16   28 1     
   30   16   29 1     
   31    1   30 1     
   32    1   31 1     
   33    3   32 1     
   34    5   33 1     
   35    6   34 1     
   36   14   35 1     
   37   14   36 1     
@<TRIPOS>SUBSTRUCTURE
      1 S1             1
@<TRIPOS>SET
LONE_PAIRS      STATIC     ATOMS    <user>   **** ""
7 30 31 32 33 34 35 36
DONOR_HYDROGENS      STATIC     ATOMS    <user>   **** ""
2 18 25
ATOM$BLUE        STATIC     ATOMS    COLORGROUP SYSTEM
7 30 31 32 33 34 35 36
ATOM$RED        STATIC     ATOMS    COLORGROUP SYSTEM
2 18 25
