#       Name:                AV-unprocessed.smi:2001
#       Creating user name   scv26
#       Creation time:       Fri Mar 27 10:33:43 2020


#       File generated by GOLD software.
#

@<TRIPOS>MOLECULE
AV-unprocessed.smi:2001
    60    61     1
SMALL
NO_CHARGES


@<TRIPOS>ATOM
      1 ****        -5.9901   6.4602   2.3993 C.3            1 S1                 0.0000
      2 ****        -5.7161   5.7907   1.1813 O.3            1 S1                 0.0000
      3 ****        -5.2201   4.4780   1.3833 C.3            1 S1                 0.0000
      4 ****        -4.9572   3.8293   0.0159 C.3            1 S1                 0.0000
      5 ****        -4.4417   2.4640   0.1581 N.am           1 S1                 0.0000
      6 ****        -3.0610   2.3740   0.1065 N.2            1 S1                 0.0000
      7 ****        -2.4735   1.2269   0.2241 C.2            1 S1                 0.0000
      8 ****        -0.9793   1.1284   0.1682 C.2            1 S1                 0.0000
      9 ****        -0.3845   2.2079   0.0448 O.2            1 S1                 0.0000
     10 ****        -0.3902  -0.1028   0.2526 N.pl3          1 S1                -1.0000
     11 ****         1.0496  -0.3546   0.2397 C.3            1 S1                 0.0000
     12 ****         1.3280  -1.7367  -0.3822 C.3            1 S1                 0.0000
     13 ****         2.7765  -2.0741  -0.3705 N.4            1 S1                 1.0000
     14 ****         3.0327  -3.5082  -0.0940 C.3            1 S1                 0.0000
     15 ****         4.5465  -3.7771  -0.0004 C.3            1 S1                 0.0000
     16 ****         4.8564  -5.2635   0.2081 C.3            1 S1                 0.0000
     17 ****         5.1714  -3.3577  -1.2091 O.3            1 S1                 0.0000
     18 ****         5.0087  -1.9648  -1.4551 C.3            1 S1                 0.0000
     19 ****         5.7944  -1.6058  -2.7210 C.3            1 S1                 0.0000
     20 ****         3.5073  -1.6531  -1.5946 C.3            1 S1                 0.0000
     21 ****        -3.2584   0.0130   0.4149 C.2            1 S1                 0.0000
     22 ****        -4.6041   0.1181   0.4693 C.2            1 S1                 0.0000
     23 ****        -5.2864   1.4057   0.3414 C.2            1 S1                 0.0000
     24 ****        -6.5099   1.5274   0.3974 O.2            1 S1                 0.0000
     25 ****        -6.3689   7.4606   2.1903 H              1 S1                 0.0000
     26 ****        -5.0885   6.5614   3.0048 H              1 S1                 0.0000
     27 ****        -6.7450   5.9292   2.9805 H              1 S1                 0.0000
     28 ****        -4.2974   4.5129   1.9649 H              1 S1                 0.0000
     29 ****        -5.9452   3.8914   1.9497 H              1 S1                 0.0000
     30 ****        -5.8709   3.8315  -0.5812 H              1 S1                 0.0000
     31 ****        -4.2451   4.4392  -0.5432 H              1 S1                 0.0000
     32 ****         1.5990   0.3994  -0.3251 H              1 S1                 0.0000
     33 ****         1.4650  -0.3301   1.2476 H              1 S1                 0.0000
     34 ****         0.7772  -2.4810   0.1956 H              1 S1                 0.0000
     35 ****         0.9372  -1.7962  -1.3995 H              1 S1                 0.0000
     36 ****         2.5529  -3.7928   0.8435 H              1 S1                 0.0000
     37 ****         2.5854  -4.1156  -0.8829 H              1 S1                 0.0000
     38 ****         4.9685  -3.2149   0.8345 H              1 S1                 0.0000
     39 ****         4.4109  -5.6313   1.1328 H              1 S1                 0.0000
     40 ****         5.9318  -5.4330   0.2674 H              1 S1                 0.0000
     41 ****         4.4690  -5.8672  -0.6133 H              1 S1                 0.0000
     42 ****         5.4246  -1.4011  -0.6180 H              1 S1                 0.0000
     43 ****         5.7135  -0.5416  -2.9441 H              1 S1                 0.0000
     44 ****         5.4258  -2.1583  -3.5857 H              1 S1                 0.0000
     45 ****         6.8525  -1.8397  -2.6019 H              1 S1                 0.0000
     46 ****         3.0936  -2.1709  -2.4618 H              1 S1                 0.0000
     47 ****         3.3711  -0.5850  -1.7680 H              1 S1                 0.0000
     48 ****        -2.7925  -0.9560   0.5153 H              1 S1                 0.0000
     49 ****        -5.1956  -0.7742   0.6125 H              1 S1                 0.0000
     50 ****         3.1734  -1.5627   0.4050 H              1 S1                 0.0000
     51 ****        -5.0343   6.3165   0.6727 LP             1 S1                 0.0000
     52 ****        -6.5605   5.7361   0.6484 LP             1 S1                 0.0000
     53 ****        -2.5140   3.2011  -0.0225 LP             1 S1                 0.0000
     54 ****        -0.9032   3.0612  -0.0098 LP             1 S1                 0.0000
     55 ****         0.6143   2.2262  -0.0001 LP             1 S1                 0.0000
     56 ****        -0.9941  -0.8961   0.3295 LP             1 S1                 0.0000
     57 ****         4.7697  -3.8664  -1.9705 LP             1 S1                 0.0000
     58 ****         6.1489  -3.5607  -1.1514 LP             1 S1                 0.0000
     59 ****        -6.9271   2.4318   0.3073 LP             1 S1                 0.0000
     60 ****        -7.0868   0.7219   0.5331 LP             1 S1                 0.0000
@<TRIPOS>BOND
    1    1    2 1     
    2    1   25 1     
    3    1   26 1     
    4    1   27 1     
    5    2    3 1     
    6    3    4 1     
    7    3   28 1     
    8    3   29 1     
    9    4    5 1     
   10    4   30 1     
   11    4   31 1     
   12    5   23 am    
   13    5    6 1     
   14    6    7 2     
   15    7    8 1     
   16    7   21 1     
   17    8    9 2     
   18    8   10 1     
   19   10   11 1     
   20   11   12 1     
   21   11   32 1     
   22   11   33 1     
   23   12   13 1     
   24   12   34 1     
   25   12   35 1     
   26   13   20 1     
   27   13   14 1     
   28   13   50 1     
   29   14   15 1     
   30   14   36 1     
   31   14   37 1     
   32   15   16 1     
   33   15   17 1     
   34   15   38 1     
   35   16   39 1     
   36   16   40 1     
   37   16   41 1     
   38   17   18 1     
   39   18   19 1     
   40   18   20 1     
   41   18   42 1     
   42   19   43 1     
   43   19   44 1     
   44   19   45 1     
   45   20   46 1     
   46   20   47 1     
   47   21   22 2     
   48   21   48 1     
   49   22   23 1     
   50   22   49 1     
   51   23   24 2     
   52    2   51 1     
   53    2   52 1     
   54    6   53 1     
   55    9   54 1     
   56    9   55 1     
   57   10   56 1     
   58   17   57 1     
   59   17   58 1     
   60   24   59 1     
   61   24   60 1     
@<TRIPOS>SUBSTRUCTURE
      1 S1             1
@<TRIPOS>SET
LONE_PAIRS      STATIC     ATOMS    <user>   **** ""
10 51 52 53 54 55 56 57 58 59 60
DONOR_HYDROGENS      STATIC     ATOMS    <user>   **** ""
1 50
ATOM$BLUE        STATIC     ATOMS    COLORGROUP SYSTEM
10 51 52 53 54 55 56 57 58 59 60
ATOM$RED        STATIC     ATOMS    COLORGROUP SYSTEM
1 50
