AV-unprocessed.smi:288|AV-procd|sdf|2212|dock2
  -GOLD-   2262022 43D 1   1.00000     0.00000
 Structure written by MMmdl.
 33 34  0  0  0  0  0  0  0  0  1 V2000
  153.9102  138.4804  159.4497 O   0  0  0  0  0  0  0  0  0  0  0  0
  153.3072  139.5541  159.4083 C   0  0  0  0  0  0  0  0  0  0  0  0
  153.6033  140.6744  160.2950 C   0  0  0  0  0  0  0  0  0  0  0  0
  154.5618  140.5470  161.2283 F   0  0  0  0  0  0  0  0  0  0  0  0
  152.9313  141.8418  160.1941 C   0  0  0  0  0  0  0  0  0  0  0  0
  151.9318  142.0598  159.2594 N   0  0  0  0  0  0  0  0  0  0  0  0
  151.1994  143.3809  159.1584 C   0  0  1  0  0  0  0  0  0  0  0  0
  151.5516  144.2866  160.3529 C   0  0  0  0  0  0  0  0  0  0  0  0
  151.9249  145.5925  159.6812 C   0  0  0  0  0  0  0  0  0  0  0  0
  152.4806  145.1122  158.3491 C   0  0  0  0  0  0  0  0  0  0  0  0
  151.5946  144.0570  157.9984 O   0  0  0  0  0  0  0  0  0  0  0  0
  151.5798  141.0304  158.3598 C   0  0  0  0  0  0  0  0  0  0  0  0
  150.7079  141.2094  157.5059 O   0  0  0  0  0  0  0  0  0  0  0  0
  152.2706  139.8010  158.4757 N   0  0  0  0  0  0  0  0  0  0  0  0
  151.9167  138.7362  157.5512 C   0  0  0  0  0  0  0  0  0  0  0  0
  152.0780  139.1360  156.0670 C   0  0  1  0  0  0  0  0  0  0  0  0
  153.4570  139.1524  155.7510 O   0  0  0  0  0  0  0  0  0  0  0  0
  151.3851  138.1437  155.1127 C   0  0  0  0  0  0  0  0  0  0  0  0
  151.7220  136.8920  155.4251 F   0  0  0  0  0  0  0  0  0  0  0  0
  150.0590  138.2764  155.1644 F   0  0  0  0  0  0  0  0  0  0  0  0
  151.7876  138.3753  153.8629 F   0  0  0  0  0  0  0  0  0  0  0  0
  153.2043  142.6284  160.8803 H   0  0  0  0  0  0  0  0  0  0  0  0
  150.1397  143.1304  159.0837 H   0  0  0  0  0  0  0  0  0  0  0  0
  150.7083  144.3777  161.0380 H   0  0  0  0  0  0  0  0  0  0  0  0
  152.4078  143.8808  160.8944 H   0  0  0  0  0  0  0  0  0  0  0  0
  151.0336  146.1996  159.5178 H   0  0  0  0  0  0  0  0  0  0  0  0
  152.6410  146.1804  160.2561 H   0  0  0  0  0  0  0  0  0  0  0  0
  152.4943  145.8940  157.5897 H   0  0  0  0  0  0  0  0  0  0  0  0
  153.4950  144.7287  158.4683 H   0  0  0  0  0  0  0  0  0  0  0  0
  152.4856  137.8408  157.8073 H   0  0  0  0  0  0  0  0  0  0  0  0
  150.8848  138.4645  157.7785 H   0  0  0  0  0  0  0  0  0  0  0  0
  151.6695  140.1321  155.8915 H   0  0  0  0  0  0  0  0  0  0  0  0
  153.6435  138.4235  155.1790 H   0  0  0  0  0  0  0  0  0  0  0  0
  1  2  2  0  0  0  0
  2 14  1  0  0  0  0
  2  3  1  0  0  0  0
  3  4  1  0  0  0  0
  3  5  2  0  0  0  0
  5  6  1  0  0  0  0
  5 22  1  0  0  0  0
  6  7  1  0  0  0  0
  6 12  1  0  0  0  0
  7 11  1  0  0  0  0
  7  8  1  0  0  0  0
  7 23  1  0  0  0  0
  8  9  1  0  0  0  0
  8 24  1  0  0  0  0
  8 25  1  0  0  0  0
  9 10  1  0  0  0  0
  9 26  1  0  0  0  0
  9 27  1  0  0  0  0
 10 11  1  0  0  0  0
 10 28  1  0  0  0  0
 10 29  1  0  0  0  0
 12 13  2  0  0  0  0
 12 14  1  0  0  0  0
 14 15  1  0  0  0  0
 15 16  1  0  0  0  0
 15 30  1  0  0  0  0
 15 31  1  0  0  0  0
 16 17  1  0  0  0  0
 16 18  1  0  0  0  0
 16 32  1  0  0  0  0
 17 33  1  0  0  0  0
 18 19  1  0  0  0  0
 18 20  1  0  0  0  0
 18 21  1  0  0  0  0
M  END
> <s_m_source_file>
AV-unprocessed.smi

> <i_m_source_file_index>
288

> <i_lp_mmshare_version>
43012

> <i_f3d_flags>
0

> <s_epik_input>
TzFbQ0gyXVtDSDJdW0NIMl1bQ0BIXTFuKFtjSF1jKEYpYzI9TyljKD1PKW4yW0NIMl1bQ0BIXShbT0hdKUMoRikoRilG

> <s_epik_cmdline>
J2VwaWtfcHl0aG9uJywgJy1waCcsICc3LjAnLCAnLXRuJywgJzgnLCAnLW1hJywgJzIwMCcsICctbWV0YWxfYmluZGluZycsICctaW1hZScsICc8aW5maWxlLm1hZT4nLCAnLW9tYWUnLCAnPG91dGZpbGUubWFlPic=

> <r_lp_tautomer_probability>
1

> <r_epik_Ionization_Penalty>
0.000551119

> <r_epik_Ionization_Penalty_Charging>
2.51184e-08

> <r_epik_Ionization_Penalty_Neutral>
0.000551094

> <r_epik_State_Penalty>
0.000345115

> <r_epik_Charging_Adjusted_Penalty>
0.00034514

> <i_epik_Tot_Q>
0

> <i_epik_Tot_abs_Q>
0

> <r_epik_Metal_State_Penalty>
-0

> <b_epik_Metal_Only>
0

> <s_epik_Chemistry_Notes>
This compound contains an acetal/aminal-like group ( X-CH(R)-Y where X, Y are N, S, or O) that may be acid/base labile, releasing an aldehyde.

> <s_lp_Force_Field>
OPLS_2005

> <r_lp_Energy>
35.613

> <b_lp_Chiralities_Consistent>
1

> <s_lp_Variant>
AV-unprocessed.smi:288-4

> <Gold.Version>
5.8.1

> <Gold.Id.Protein>
6NUR|6NUR_protein|mol2

> <Gold.PLP.Fitness>
44.4359

> <Gold.PLP.PLP>
-42.4851

> <Gold.PLP.part.hbond>
-1.0000

> <Gold.PLP.part.metal>
0.0000

> <Gold.PLP.part.buried>
-7.0547

> <Gold.PLP.part.nonpolar>
-34.1329

> <Gold.PLP.part.repulsive>
0.1493

> <Gold.PLP.ligand.clash>
0.0000

> <Gold.PLP.ligand.torsion>
0.5339

> <Gold.PLP.Chemscore.Hbond>
1.0000

> <Gold.PLP.Chemscore.CHOScore>
0.0000

> <Gold.PLP.Chemscore.Metal>
0.0000

> <Gold.Chemscore.Hbonds>
donor molecule, donor type, donor heavy atom, donor atom, acceptor molecule, acceptor atom, score
      P1  H  7997  8010       L1    17  0.67

> <Gold.PLP.Chemscore.Internal.Correction>
0.0186

> <Gold.Rescore>
     Score         DG    S(hbond)    S(metal)    S(lipo)     H(rot)  DE(clash)    DE(int)     intcor
      8.56     -11.10       0.96        0.00      76.60       2.57       1.14       1.40       ----

> <Gold.Chemscore.Fitness>
8.5557

> <Gold.Chemscore.DG>
-11.0964

> <Gold.Chemscore.ZeroCoef>
-5.4800

> <Gold.Chemscore.Hbond>
0.9646

> <Gold.Chemscore.Metal>
0.0000

> <Gold.Chemscore.Lipo>
76.6027

> <Gold.Chemscore.Internal_Hbond>
0.0000

> <Gold.Chemscore.DEClash>
1.1365

> <Gold.Chemscore.DEInternal>
1.4043

> <Gold.Chemscore.Rot>
2.5656

> <Gold.Chemscore.Internal.Correction>
   9.000000E+99

> <Gold.Chemscore.Hbonds>
donor molecule, donor type, donor heavy atom, donor atom, acceptor molecule, acceptor atom, score
      P1  H  7997  8010       L1    17  0.65

> <Gold.Chemscore.Hbond.Weighted>
-3.2218

> <Gold.Chemscore.Metal.Weighted>
-0.0000

> <Gold.Chemscore.Lipo.Weighted>
-8.9625

> <Gold.Chemscore.Internal_Hbond.Weighted>
0.0000

> <Gold.Chemscore.DEClash.Weighted>
1.1365

> <Gold.Chemscore.DEInternal.Weighted>
1.4043

> <Gold.Chemscore.Rot.Weighted>
6.5679

> <Gold.Chemscore.Internal.Correction.Weighted>
   9.000000E+99

> <Gold.Protein.RotatedTorsions>
[ 6907 6896 6895 6894 ] final  123.63 input  -60.11 | X-H torsion
[ 7974 7965 7964 7962 ] final  -55.85 input  175.53 | X-H torsion
[ 8008 7997 7996 7995 ] final   85.71 input   59.86 | X-H torsion
[ 10167 10162 10161 10158 ] final   98.49 input  -65.29 | X-H torsion
[ 10718 10713 10712 10709 ] final  -56.70 input   66.30 | X-H torsion
[ 10763 10752 10751 10750 ] final -120.27 input  -60.55 | X-H torsion
[ 11005 11000 10999 10996 ] final  168.57 input  -57.11 | X-H torsion

> <Gold.Protein.ActiveResidues>
 VAL166  LYS551  ARG553  GLY616  TRP617  ASP618  TYR619  PRO620  LYS621  CYS622 
 ASP623  PHE694  ASN695  SER759  ASP760  ASP761  ALA762  ILE779  LEU786  VAL792 
 PHE793  MET794  SER795  GLU796  ALA797  LYS798  CYS799  TRP800  GLU811  SER814 

> <Gold.Protein.RotatedAtoms>
  152.4146  133.7017  159.6427 H   0  0  0  0  0  0  0  0  0  0  0  0  # atno 6907 bound_to 6896
  150.8024  133.8563  159.3228 H   0  0  0  0  0  0  0  0  0  0  0  0  # atno 6908 bound_to 6896
  151.6297  135.1026  160.0170 H   0  0  0  0  0  0  0  0  0  0  0  0  # atno 6909 bound_to 6896
  145.8694  140.8227  142.9896 H   0  0  0  0  0  0  0  0  0  0  0  0  # atno 7974 bound_to 7965
  155.9535  140.3399  155.6428 H   0  0  0  0  0  0  0  0  0  0  0  0  # atno 8008 bound_to 7997
  155.6889  140.0746  157.2474 H   0  0  0  0  0  0  0  0  0  0  0  0  # atno 8009 bound_to 7997
  154.4127  140.1661  156.2052 H   0  0  0  0  0  0  0  0  0  0  0  0  # atno 8010 bound_to 7997
  139.7704  144.6924  151.0164 H   0  0  0  0  0  0  0  0  0  0  0  0  # atno 10167 bound_to 10162
  156.1268  130.4162  150.0341 H   0  0  0  0  0  0  0  0  0  0  0  0  # atno 10718 bound_to 10713
  154.8640  135.4209  154.2433 H   0  0  0  0  0  0  0  0  0  0  0  0  # atno 10763 bound_to 10752
  153.3394  135.6993  153.6886 H   0  0  0  0  0  0  0  0  0  0  0  0  # atno 10764 bound_to 10752
  153.5870  135.3562  155.2870 H   0  0  0  0  0  0  0  0  0  0  0  0  # atno 10765 bound_to 10752
  140.2886  134.7692  157.3819 H   0  0  0  0  0  0  0  0  0  0  0  0  # atno 11005 bound_to 11000
  144.6726  140.1216  143.7449 LP  0  0  0  0  0  0  0  0  0  0  0  0  # atno 17320 bound_to 7965
  145.9154  139.2513  143.1413 LP  0  0  0  0  0  0  0  0  0  0  0  0  # atno 17321 bound_to 7965
  140.7813  143.4595  151.0298 LP  0  0  0  0  0  0  0  0  0  0  0  0  # atno 17342 bound_to 10162
  139.8279  143.7731  152.3179 LP  0  0  0  0  0  0  0  0  0  0  0  0  # atno 17343 bound_to 10162
  156.8265  130.9377  151.3639 LP  0  0  0  0  0  0  0  0  0  0  0  0  # atno 17370 bound_to 10713
  157.6449  130.8836  149.9518 LP  0  0  0  0  0  0  0  0  0  0  0  0  # atno 17371 bound_to 10713
  140.1216  134.5212  155.8179 LP  0  0  0  0  0  0  0  0  0  0  0  0  # atno 17394 bound_to 11000
  141.2150  133.6758  156.6877 LP  0  0  0  0  0  0  0  0  0  0  0  0  # atno 17395 bound_to 11000

$$$$
