AV-unprocessed.smi:714|AV-procd|sdf|3482|dock7
  -GOLD-   22720 0473D 1   1.00000     0.00000
 Structure written by MMmdl.
 38 39  0  0  0  0  0  0  0  0  1 V2000
  145.2751  145.4059  151.9165 C   0  0  0  0  0  0  0  0  0  0  0  0
  145.1971  144.6615  152.8814 C   0  0  0  0  0  0  0  0  0  0  0  0
  145.1212  143.7703  154.0512 C   0  0  0  0  0  0  0  0  0  0  0  0
  146.1942  142.7826  154.0715 N   0  0  0  0  0  0  0  0  0  0  0  0
  146.8195  142.3231  155.1705 C   0  0  0  0  0  0  0  0  0  0  0  0
  146.5080  142.7016  156.3009 O   0  0  0  0  0  0  0  0  0  0  0  0
  147.8837  141.3580  154.8824 C   0  0  0  0  0  0  0  0  0  0  0  0
  147.7605  140.3192  153.8731 C   0  0  0  0  0  0  0  0  0  0  0  0
  148.7826  139.4773  153.6319 C   0  0  0  0  0  0  0  0  0  0  0  0
  150.0476  139.5636  154.3662 C   0  0  0  0  0  0  0  0  0  0  0  0
  150.9837  138.8038  154.1156 O   0  0  0  0  0  0  0  0  0  0  0  0
  150.1195  140.5377  155.3335 N   0  0  0  0  0  0  0  0  0  0  0  0
  151.3193  140.7506  156.1830 C   0  0  2  0  0  0  0  0  0  0  0  0
  151.6808  139.5196  157.0388 C   0  0  0  0  0  0  0  0  0  0  0  0
  151.9151  140.0470  158.4624 C   0  0  0  0  0  0  0  0  0  0  0  0
  151.5077  141.4425  158.4359 N   0  0  0  0  0  0  0  0  0  0  0  0
  151.4900  142.2336  159.6645 C   0  0  0  0  0  0  0  0  0  0  0  0
  152.8961  142.7028  160.0823 C   0  0  0  0  0  0  0  0  0  0  0  0
  152.8127  143.3247  161.2577 F   0  0  0  0  0  0  0  0  0  0  0  0
  153.7334  141.6736  160.2086 F   0  0  0  0  0  0  0  0  0  0  0  0
  153.3857  143.5574  159.1838 F   0  0  0  0  0  0  0  0  0  0  0  0
  151.1841  141.8727  157.2116 C   0  0  0  0  0  0  0  0  0  0  0  0
  150.8334  143.0138  156.9130 O   0  0  0  0  0  0  0  0  0  0  0  0
  149.0447  141.4236  155.5632 C   0  0  0  0  0  0  0  0  0  0  0  0
  145.3478  146.0574  151.0747 H   0  0  0  0  0  0  0  0  0  0  0  0
  145.1196  144.3786  154.9570 H   0  0  0  0  0  0  0  0  0  0  0  0
  144.1648  143.2490  154.0138 H   0  0  0  0  0  0  0  0  0  0  0  0
  146.4978  142.4268  153.1769 H   0  0  0  0  0  0  0  0  0  0  0  0
  146.8558  140.1987  153.2954 H   0  0  0  0  0  0  0  0  0  0  0  0
  148.6686  138.7146  152.8755 H   0  0  0  0  0  0  0  0  0  0  0  0
  152.1893  141.0168  155.5812 H   0  0  0  0  0  0  0  0  0  0  0  0
  150.8881  138.7709  157.0465 H   0  0  0  0  0  0  0  0  0  0  0  0
  152.5717  139.0232  156.6524 H   0  0  0  0  0  0  0  0  0  0  0  0
  151.3337  139.4867  159.1955 H   0  0  0  0  0  0  0  0  0  0  0  0
  152.9683  139.9775  158.7373 H   0  0  0  0  0  0  0  0  0  0  0  0
  150.8441  143.1003  159.5182 H   0  0  0  0  0  0  0  0  0  0  0  0
  151.0367  141.6500  160.4673 H   0  0  0  0  0  0  0  0  0  0  0  0
  149.2278  142.1656  156.3274 H   0  0  0  0  0  0  0  0  0  0  0  0
  1  2  3  0  0  0  0
  1 25  1  0  0  0  0
  2  3  1  0  0  0  0
  3  4  1  0  0  0  0
  3 26  1  0  0  0  0
  3 27  1  0  0  0  0
  4  5  1  0  0  0  0
  4 28  1  0  0  0  0
  5  6  2  0  0  0  0
  5  7  1  0  0  0  0
  7 24  2  0  0  0  0
  7  8  1  0  0  0  0
  8  9  2  0  0  0  0
  8 29  1  0  0  0  0
  9 10  1  0  0  0  0
  9 30  1  0  0  0  0
 10 11  2  0  0  0  0
 10 12  1  0  0  0  0
 12 13  1  0  0  0  0
 12 24  1  0  0  0  0
 13 22  1  0  0  0  0
 13 14  1  0  0  0  0
 13 31  1  0  0  0  0
 14 15  1  0  0  0  0
 14 32  1  0  0  0  0
 14 33  1  0  0  0  0
 15 16  1  0  0  0  0
 15 34  1  0  0  0  0
 15 35  1  0  0  0  0
 16 17  1  0  0  0  0
 16 22  1  0  0  0  0
 17 18  1  0  0  0  0
 17 36  1  0  0  0  0
 17 37  1  0  0  0  0
 18 19  1  0  0  0  0
 18 20  1  0  0  0  0
 18 21  1  0  0  0  0
 22 23  2  0  0  0  0
 24 38  1  0  0  0  0
M  END
> <s_m_source_file>
AV-unprocessed.smi

> <i_m_source_file_index>
714

> <i_lp_mmshare_version>
43012

> <i_f3d_flags>
0

> <s_epik_input>
W0NIXSNDW0NIMl1bTkhdQyg9TyljMVtjSF1bY0hdYyg9TyluKFtjSF0xKVtDQEBIXTJbQ0gyXVtDSDJdTihDMj1PKVtDSDJdQyhGKShGKUY=

> <s_epik_cmdline>
J2VwaWtfcHl0aG9uJywgJy1waCcsICc3LjAnLCAnLXRuJywgJzgnLCAnLW1hJywgJzIwMCcsICctbWV0YWxfYmluZGluZycsICctaW1hZScsICc8aW5maWxlLm1hZT4nLCAnLW9tYWUnLCAnPG91dGZpbGUubWFlPic=

> <r_lp_tautomer_probability>
1

> <r_epik_Ionization_Penalty>
2.95503e-06

> <r_epik_Ionization_Penalty_Charging>
5.74209e-08

> <r_epik_Ionization_Penalty_Neutral>
2.89761e-06

> <r_epik_State_Penalty>
-0

> <r_epik_Charging_Adjusted_Penalty>
5.74209e-08

> <i_epik_Tot_Q>
0

> <i_epik_Tot_abs_Q>
0

> <r_epik_Metal_State_Penalty>
-0

> <b_epik_Metal_Only>
0

> <s_lp_Force_Field>
OPLS_2005

> <r_lp_Energy>
34.0974

> <b_lp_Chiralities_Consistent>
1

> <s_lp_Variant>
AV-unprocessed.smi:714-1

> <Gold.Version>
5.8.1

> <Gold.Id.Protein>
6NUR|6NUR_protein|mol2

> <Gold.PLP.Fitness>
47.1499

> <Gold.PLP.PLP>
-48.3925

> <Gold.PLP.part.hbond>
-0.4957

> <Gold.PLP.part.metal>
0.0000

> <Gold.PLP.part.buried>
1.6663

> <Gold.PLP.part.nonpolar>
-49.1766

> <Gold.PLP.part.repulsive>
1.9900

> <Gold.PLP.ligand.clash>
0.5193

> <Gold.PLP.ligand.torsion>
1.0865

> <Gold.PLP.Chemscore.Hbond>
0.0000

> <Gold.PLP.Chemscore.CHOScore>
0.4262

> <Gold.PLP.Chemscore.Metal>
0.0000

> <Gold.Chemscore.Hbonds>
donor molecule, donor type, donor heavy atom, donor atom, acceptor molecule, acceptor atom, score
      L1  C    24    38       P1  8028  0.50

> <Gold.PLP.Chemscore.Internal.Correction>
0.1712

> <Gold.Rescore>
     Score         DG    S(hbond)    S(metal)    S(lipo)     H(rot)  DE(clash)    DE(int)     intcor
      7.93     -11.35       0.00        0.00      85.46       1.61       0.86       2.56       ----

> <Gold.Chemscore.Fitness>
7.9263

> <Gold.Chemscore.DG>
-11.3478

> <Gold.Chemscore.ZeroCoef>
-5.4800

> <Gold.Chemscore.Hbond>
0.0000

> <Gold.Chemscore.Metal>
0.0000

> <Gold.Chemscore.Lipo>
85.4574

> <Gold.Chemscore.Internal_Hbond>
0.0000

> <Gold.Chemscore.DEClash>
0.8614

> <Gold.Chemscore.DEInternal>
2.5601

> <Gold.Chemscore.Rot>
1.6136

> <Gold.Chemscore.Internal.Correction>
   9.000000E+99

> <Gold.Chemscore.Hbond.Weighted>
-0.0000

> <Gold.Chemscore.Metal.Weighted>
-0.0000

> <Gold.Chemscore.Lipo.Weighted>
-9.9985

> <Gold.Chemscore.Internal_Hbond.Weighted>
0.0000

> <Gold.Chemscore.DEClash.Weighted>
0.8614

> <Gold.Chemscore.DEInternal.Weighted>
2.5601

> <Gold.Chemscore.Rot.Weighted>
4.1308

> <Gold.Chemscore.Internal.Correction.Weighted>
   9.000000E+99

> <Gold.Protein.RotatedTorsions>
[ 6907 6896 6895 6894 ] final -155.32 input  -60.11 | X-H torsion
[ 7974 7965 7964 7962 ] final -129.50 input  175.53 | X-H torsion
[ 8008 7997 7996 7995 ] final  -64.73 input   59.86 | X-H torsion
[ 10167 10162 10161 10158 ] final -177.81 input  -65.29 | X-H torsion
[ 10718 10713 10712 10709 ] final  -78.97 input   66.30 | X-H torsion
[ 10763 10752 10751 10750 ] final  -70.65 input  -60.55 | X-H torsion
[ 11005 11000 10999 10996 ] final  -47.68 input  -57.11 | X-H torsion

> <Gold.Protein.ActiveResidues>
 VAL166  LYS551  ARG553  GLY616  TRP617  ASP618  TYR619  PRO620  LYS621  CYS622 
 ASP623  PHE694  ASN695  SER759  ASP760  ASP761  ALA762  ILE779  LEU786  VAL792 
 PHE793  MET794  SER795  GLU796  ALA797  LYS798  CYS799  TRP800  GLU811  SER814 

> <Gold.Protein.RotatedAtoms>
  151.2707  133.4256  159.2620 H   0  0  0  0  0  0  0  0  0  0  0  0  # atno 6907 bound_to 6896
  151.0448  134.9632  159.8190 H   0  0  0  0  0  0  0  0  0  0  0  0  # atno 6908 bound_to 6896
  152.5372  134.2664  159.9007 H   0  0  0  0  0  0  0  0  0  0  0  0  # atno 6909 bound_to 6896
  144.9566  140.7402  143.4755 H   0  0  0  0  0  0  0  0  0  0  0  0  # atno 7974 bound_to 7965
  154.4629  140.0948  156.6941 H   0  0  0  0  0  0  0  0  0  0  0  0  # atno 8008 bound_to 7997
  155.4942  140.3471  155.4341 H   0  0  0  0  0  0  0  0  0  0  0  0  # atno 8009 bound_to 7997
  156.0903  140.1395  156.9589 H   0  0  0  0  0  0  0  0  0  0  0  0  # atno 8010 bound_to 7997
  139.5462  144.2229  152.0993 H   0  0  0  0  0  0  0  0  0  0  0  0  # atno 10167 bound_to 10162
  156.0104  130.4532  150.3577 H   0  0  0  0  0  0  0  0  0  0  0  0  # atno 10718 bound_to 10713
  154.4206  135.5987  153.6007 H   0  0  0  0  0  0  0  0  0  0  0  0  # atno 10763 bound_to 10752
  152.9794  135.5951  154.3960 H   0  0  0  0  0  0  0  0  0  0  0  0  # atno 10764 bound_to 10752
  154.3784  135.2841  155.2204 H   0  0  0  0  0  0  0  0  0  0  0  0  # atno 10765 bound_to 10752
  141.0655  133.6695  156.3331 H   0  0  0  0  0  0  0  0  0  0  0  0  # atno 11005 bound_to 11000
  145.2763  139.1935  143.4815 LP  0  0  0  0  0  0  0  0  0  0  0  0  # atno 17320 bound_to 7965
  146.3339  140.2717  142.8606 LP  0  0  0  0  0  0  0  0  0  0  0  0  # atno 17321 bound_to 7965
  140.1716  144.4930  150.6576 LP  0  0  0  0  0  0  0  0  0  0  0  0  # atno 17342 bound_to 10162
  140.6711  143.2286  151.5622 LP  0  0  0  0  0  0  0  0  0  0  0  0  # atno 17343 bound_to 10162
  157.1667  131.0358  151.2815 LP  0  0  0  0  0  0  0  0  0  0  0  0  # atno 17370 bound_to 10713
  157.4264  130.7466  149.6955 LP  0  0  0  0  0  0  0  0  0  0  0  0  # atno 17371 bound_to 10713
  140.5782  134.5772  157.5473 LP  0  0  0  0  0  0  0  0  0  0  0  0  # atno 17394 bound_to 11000
  139.9472  134.7680  156.0533 LP  0  0  0  0  0  0  0  0  0  0  0  0  # atno 17395 bound_to 11000

$$$$
