AV-unprocessed.smi:3056|AV-procd|sdf|11653|dock3
  -GOLD-   2272017 53D 1   1.00000     0.00000
 Structure written by MMmdl.
 47 48  0  0  0  0  0  0  0  0  1 V2000
  143.7291  131.8340  150.6363 C   0  0  0  0  0  0  0  0  0  0  0  0
  144.0746  133.2387  151.0382 C   0  0  0  0  0  0  0  0  0  0  0  0
  144.3509  134.3499  150.1922 C   0  0  0  0  0  0  0  0  0  0  0  0
  144.6205  135.4556  150.8666 N   0  0  0  0  0  0  0  0  0  0  0  0
  144.5241  135.0945  152.1644 N   0  0  0  0  0  0  0  0  0  0  0  0
  144.7646  136.0781  153.2127 C   0  0  2  0  0  0  0  0  0  0  0  0
  143.5748  136.0819  154.1911 C   0  0  0  0  0  0  0  0  0  0  0  0
  145.0630  137.4820  152.6220 C   0  0  2  0  0  0  0  0  0  0  0  0
  146.3131  137.5044  151.7166 C   0  0  0  0  0  0  0  0  0  0  0  0
  145.2683  138.4192  153.7284 N   0  0  0  0  0  0  0  0  0  0  0  0
  146.6165  138.3776  154.3254 C   0  0  0  0  0  0  0  0  0  0  0  0
  147.1662  139.7445  154.7829 C   0  0  0  0  0  0  0  0  0  0  0  0
  146.4389  140.4859  155.4467 O   0  0  0  0  0  0  0  0  0  0  0  0
  148.4303  140.0959  154.4463 N   0  0  0  0  0  0  0  0  0  0  0  0
  149.3715  139.1789  153.7997 C   0  0  0  0  0  0  0  0  0  0  0  0
  150.5026  138.8827  154.8012 C   0  0  0  0  0  0  0  0  0  0  0  0
  151.1250  140.1024  155.2032 O   0  0  0  0  0  0  0  0  0  0  0  0
  150.2229  141.0398  155.7922 C   0  0  1  0  0  0  0  0  0  0  0  0
  151.0181  142.2898  156.1840 C   0  0  0  0  0  0  0  0  0  0  0  0
  149.1020  141.3539  154.7817 C   0  0  0  0  0  0  0  0  0  0  0  0
  144.2004  133.7589  152.2948 C   0  0  0  0  0  0  0  0  0  0  0  0
  143.7661  131.7007  149.5550 H   0  0  0  0  0  0  0  0  0  0  0  0
  142.7250  131.5598  150.9599 H   0  0  0  0  0  0  0  0  0  0  0  0
  144.4176  131.1100  151.0727 H   0  0  0  0  0  0  0  0  0  0  0  0
  144.3634  134.3850  149.1128 H   0  0  0  0  0  0  0  0  0  0  0  0
  145.6461  135.7517  153.7690 H   0  0  0  0  0  0  0  0  0  0  0  0
  143.7648  136.7214  155.0530 H   0  0  0  0  0  0  0  0  0  0  0  0
  143.3789  135.0789  154.5713 H   0  0  0  0  0  0  0  0  0  0  0  0
  142.6635  136.4386  153.7099 H   0  0  0  0  0  0  0  0  0  0  0  0
  144.2025  137.7780  152.0217 H   0  0  0  0  0  0  0  0  0  0  0  0
  146.1959  136.8514  150.8520 H   0  0  0  0  0  0  0  0  0  0  0  0
  147.1990  137.1743  152.2601 H   0  0  0  0  0  0  0  0  0  0  0  0
  146.5174  138.5005  151.3251 H   0  0  0  0  0  0  0  0  0  0  0  0
  145.0421  139.3545  153.4204 H   0  0  0  0  0  0  0  0  0  0  0  0
  146.5853  137.7219  155.1959 H   0  0  0  0  0  0  0  0  0  0  0  0
  147.2978  137.9190  153.6102 H   0  0  0  0  0  0  0  0  0  0  0  0
  148.9082  138.2445  153.4806 H   0  0  0  0  0  0  0  0  0  0  0  0
  149.7746  139.6415  152.8977 H   0  0  0  0  0  0  0  0  0  0  0  0
  150.1171  138.3570  155.6764 H   0  0  0  0  0  0  0  0  0  0  0  0
  151.2525  138.2366  154.3449 H   0  0  0  0  0  0  0  0  0  0  0  0
  149.7932  140.6018  156.6951 H   0  0  0  0  0  0  0  0  0  0  0  0
  150.3732  143.0344  156.6512 H   0  0  0  0  0  0  0  0  0  0  0  0
  151.4852  142.7493  155.3126 H   0  0  0  0  0  0  0  0  0  0  0  0
  151.8076  142.0423  156.8939 H   0  0  0  0  0  0  0  0  0  0  0  0
  149.5274  141.7840  153.8735 H   0  0  0  0  0  0  0  0  0  0  0  0
  148.4325  142.1182  155.1730 H   0  0  0  0  0  0  0  0  0  0  0  0
  144.0843  133.2945  153.2632 H   0  0  0  0  0  0  0  0  0  0  0  0
  1  2  1  0  0  0  0
  1 22  1  0  0  0  0
  1 23  1  0  0  0  0
  1 24  1  0  0  0  0
  2 21  2  0  0  0  0
  2  3  1  0  0  0  0
  3  4  2  0  0  0  0
  3 25  1  0  0  0  0
  4  5  1  0  0  0  0
  5  6  1  0  0  0  0
  5 21  1  0  0  0  0
  6  7  1  0  0  0  0
  6  8  1  0  0  0  0
  6 26  1  0  0  0  0
  7 27  1  0  0  0  0
  7 28  1  0  0  0  0
  7 29  1  0  0  0  0
  8  9  1  0  0  0  0
  8 10  1  0  0  0  0
  8 30  1  0  0  0  0
  9 31  1  0  0  0  0
  9 32  1  0  0  0  0
  9 33  1  0  0  0  0
 10 11  1  0  0  0  0
 10 34  1  0  0  0  0
 11 12  1  0  0  0  0
 11 35  1  0  0  0  0
 11 36  1  0  0  0  0
 12 13  2  0  0  0  0
 12 14  1  0  0  0  0
 14 20  1  0  0  0  0
 14 15  1  0  0  0  0
 15 16  1  0  0  0  0
 15 37  1  0  0  0  0
 15 38  1  0  0  0  0
 16 17  1  0  0  0  0
 16 39  1  0  0  0  0
 16 40  1  0  0  0  0
 17 18  1  0  0  0  0
 18 19  1  0  0  0  0
 18 20  1  0  0  0  0
 18 41  1  0  0  0  0
 19 42  1  0  0  0  0
 19 43  1  0  0  0  0
 19 44  1  0  0  0  0
 20 45  1  0  0  0  0
 20 46  1  0  0  0  0
 21 47  1  0  0  0  0
M  END
> <s_m_source_file>
AV-unprocessed.smi

> <i_m_source_file_index>
3056

> <i_lp_mmshare_version>
43012

> <i_f3d_flags>
0

> <s_epik_input>
W0NIM11jMVtjSF1ubihbY0hdMSlbQ0BIXShbQ0gzXSlbQ0BIXShbQ0gzXSlbTkhdW0NIMl1DKD1PKU4yW0NIMl1bQ0gyXU9bQ0BASF0oW0NIM10pW0NIMl0y

> <s_epik_cmdline>
J2VwaWtfcHl0aG9uJywgJy1waCcsICc3LjAnLCAnLXRuJywgJzgnLCAnLW1hJywgJzIwMCcsICctbWV0YWxfYmluZGluZycsICctaW1hZScsICc8aW5maWxlLm1hZT4nLCAnLW9tYWUnLCAnPG91dGZpbGUubWFlPic=

> <r_lp_tautomer_probability>
1

> <r_epik_Ionization_Penalty>
0.667689

> <r_epik_Ionization_Penalty_Charging>
0

> <r_epik_Ionization_Penalty_Neutral>
0.667689

> <r_epik_State_Penalty>
0.684601

> <r_epik_Charging_Adjusted_Penalty>
0.684601

> <i_epik_Tot_Q>
0

> <i_epik_Tot_abs_Q>
0

> <r_epik_Metal_State_Penalty>
0.681448

> <b_epik_Metal_Only>
0

> <s_lp_Force_Field>
OPLS_2005

> <r_lp_Energy>
29.7123

> <b_lp_Chiralities_Consistent>
1

> <s_lp_Variant>
AV-unprocessed.smi:3056-9

> <Gold.Version>
5.8.1

> <Gold.Id.Protein>
6NUR|6NUR_protein|mol2

> <Gold.PLP.Fitness>
40.6042

> <Gold.PLP.PLP>
-30.5808

> <Gold.PLP.part.hbond>
-2.0000

> <Gold.PLP.part.metal>
0.0000

> <Gold.PLP.part.buried>
-0.2674

> <Gold.PLP.part.nonpolar>
-28.6922

> <Gold.PLP.part.repulsive>
0.3235

> <Gold.PLP.ligand.clash>
0.0000

> <Gold.PLP.ligand.torsion>
0.6507

> <Gold.PLP.Chemscore.Hbond>
1.8960

> <Gold.PLP.Chemscore.CHOScore>
1.8529

> <Gold.PLP.Chemscore.Metal>
0.0000

> <Gold.Chemscore.Hbonds>
donor molecule, donor type, donor heavy atom, donor atom, acceptor molecule, acceptor atom, score
      L1  H    10    34       P1 10175  0.88
      P1  H  7989  7998       L1    17  1.00
      L1  C     3    25       P1  7921  1.00
      L1  C    21    47       P1 10957  0.89

> <Gold.PLP.Chemscore.Internal.Correction>
0.0782

> <Gold.Rescore>
     Score         DG    S(hbond)    S(metal)    S(lipo)     H(rot)  DE(clash)    DE(int)     intcor
     12.06     -15.60       1.26        0.00      87.24       1.68       1.81       1.73       ----

> <Gold.Chemscore.Fitness>
12.0621

> <Gold.Chemscore.DG>
-15.6027

> <Gold.Chemscore.ZeroCoef>
-5.4800

> <Gold.Chemscore.Hbond>
1.2620

> <Gold.Chemscore.Metal>
0.0000

> <Gold.Chemscore.Lipo>
87.2369

> <Gold.Chemscore.Internal_Hbond>
0.0000

> <Gold.Chemscore.DEClash>
1.8133

> <Gold.Chemscore.DEInternal>
1.7273

> <Gold.Chemscore.Rot>
1.6793

> <Gold.Chemscore.Internal.Correction>
   9.000000E+99

> <Gold.Chemscore.Hbonds>
donor molecule, donor type, donor heavy atom, donor atom, acceptor molecule, acceptor atom, score
      L1  H    10    34       P1 10175  0.83
      P1  H  7989  7998       L1    17  0.19

> <Gold.Chemscore.Hbond.Weighted>
-4.2150

> <Gold.Chemscore.Metal.Weighted>
-0.0000

> <Gold.Chemscore.Lipo.Weighted>
-10.2067

> <Gold.Chemscore.Internal_Hbond.Weighted>
0.0000

> <Gold.Chemscore.DEClash.Weighted>
1.8133

> <Gold.Chemscore.DEInternal.Weighted>
1.7273

> <Gold.Chemscore.Rot.Weighted>
4.2990

> <Gold.Chemscore.Internal.Correction.Weighted>
   9.000000E+99

> <Gold.Protein.RotatedTorsions>
[ 6907 6896 6895 6894 ] final  136.84 input  -60.11 | X-H torsion
[ 7974 7965 7964 7962 ] final  112.76 input  175.53 | X-H torsion
[ 8008 7997 7996 7995 ] final   47.23 input   59.86 | X-H torsion
[ 10167 10162 10161 10158 ] final  -60.45 input  -65.29 | X-H torsion
[ 10718 10713 10712 10709 ] final   59.25 input   66.30 | X-H torsion
[ 10763 10752 10751 10750 ] final  -88.66 input  -60.55 | X-H torsion
[ 11005 11000 10999 10996 ] final  -91.78 input  -57.11 | X-H torsion

> <Gold.Protein.ActiveResidues>
 VAL166  LYS551  ARG553  GLY616  TRP617  ASP618  TYR619  PRO620  LYS621  CYS622 
 ASP623  PHE694  ASN695  SER759  ASP760  ASP761  ALA762  ILE779  LEU786  VAL792 
 PHE793  MET794  SER795  GLU796  ALA797  LYS798  CYS799  TRP800  GLU811  SER814 

> <Gold.Protein.RotatedAtoms>
  152.2849  133.5505  159.5520 H   0  0  0  0  0  0  0  0  0  0  0  0  # atno 6907 bound_to 6896
  150.7211  134.0512  159.3808 H   0  0  0  0  0  0  0  0  0  0  0  0  # atno 6908 bound_to 6896
  151.8421  135.0587  160.0500 H   0  0  0  0  0  0  0  0  0  0  0  0  # atno 6909 bound_to 6896
  145.2255  139.2843  143.4196 H   0  0  0  0  0  0  0  0  0  0  0  0  # atno 7974 bound_to 7965
  155.3655  140.3421  155.4242 H   0  0  0  0  0  0  0  0  0  0  0  0  # atno 8008 bound_to 7997
  156.1690  140.1625  156.8514 H   0  0  0  0  0  0  0  0  0  0  0  0  # atno 8009 bound_to 7997
  154.5214  140.0766  156.8161 H   0  0  0  0  0  0  0  0  0  0  0  0  # atno 8010 bound_to 7997
  140.6070  143.2376  151.5798 H   0  0  0  0  0  0  0  0  0  0  0  0  # atno 10167 bound_to 10162
  157.5661  130.8872  149.9189 H   0  0  0  0  0  0  0  0  0  0  0  0  # atno 10718 bound_to 10713
  154.6469  135.5369  153.7855 H   0  0  0  0  0  0  0  0  0  0  0  0  # atno 10763 bound_to 10752
  153.0364  135.6473  154.1075 H   0  0  0  0  0  0  0  0  0  0  0  0  # atno 10764 bound_to 10752
  154.0995  135.2934  155.3234 H   0  0  0  0  0  0  0  0  0  0  0  0  # atno 10765 bound_to 10752
  141.1537  133.7778  156.9927 H   0  0  0  0  0  0  0  0  0  0  0  0  # atno 11005 bound_to 11000
  146.3366  140.2574  142.8600 LP  0  0  0  0  0  0  0  0  0  0  0  0  # atno 17320 bound_to 7965
  144.9725  140.8383  143.5446 LP  0  0  0  0  0  0  0  0  0  0  0  0  # atno 17321 bound_to 7965
  139.5332  144.2855  152.1195 LP  0  0  0  0  0  0  0  0  0  0  0  0  # atno 17342 bound_to 10162
  140.2046  144.4623  150.6414 LP  0  0  0  0  0  0  0  0  0  0  0  0  # atno 17343 bound_to 10162
  156.0709  130.3685  150.0778 LP  0  0  0  0  0  0  0  0  0  0  0  0  # atno 17370 bound_to 10713
  156.8937  130.9597  151.3585 LP  0  0  0  0  0  0  0  0  0  0  0  0  # atno 17371 bound_to 10713
  140.0992  134.9546  157.1897 LP  0  0  0  0  0  0  0  0  0  0  0  0  # atno 17394 bound_to 11000
  140.3341  134.2777  155.7223 LP  0  0  0  0  0  0  0  0  0  0  0  0  # atno 17395 bound_to 11000

$$$$
