AV-unprocessed.smi:1900|AV-procd|sdf|7714|dock9
  -GOLD-   22720 9453D 1   1.00000     0.00000
 Structure written by MMmdl.
 43 44  0  0  0  0  0  0  0  0  1 V2000
  152.8235  138.3342  156.9298 C   0  0  0  0  0  0  0  0  0  0  0  0
  152.2182  139.4718  156.1006 C   0  0  1  0  0  0  0  0  0  0  0  0
  151.0817  138.9824  155.1833 C   0  0  0  0  0  0  0  0  0  0  0  0
  150.4574  140.0776  154.4494 N   0  0  0  0  0  0  0  0  0  0  0  0
  149.3868  139.5807  153.5863 C   0  0  0  0  0  0  0  0  0  0  0  0
  147.9842  139.5788  154.2183 C   0  0  0  0  0  0  0  0  0  0  0  0
  146.8767  139.4633  153.1590 C   0  0  0  0  0  0  0  0  0  0  0  0
  146.9398  138.1894  152.4515 N   0  0  0  0  0  0  0  0  0  0  0  0
  145.8938  137.3805  152.2302 C   0  0  0  0  0  0  0  0  0  0  0  0
  144.7508  137.6253  152.6161 O   0  0  0  0  0  0  0  0  0  0  0  0
  146.2591  136.2870  151.5415 N   0  0  0  0  0  0  0  0  0  0  0  0
  145.4218  135.2310  151.1022 C   0  0  0  0  0  0  0  0  0  0  0  0
  145.7200  133.8444  150.9545 C   0  0  0  0  0  0  0  0  0  0  0  0
  144.6648  133.1711  150.5182 N   0  0  0  0  0  0  0  0  0  0  0  0
  143.7004  134.1094  150.3873 N   0  0  0  0  0  0  0  0  0  0  0  0
  144.1184  135.3760  150.7315 C   0  0  0  0  0  0  0  0  0  0  0  0
  149.9893  141.0794  155.4047 C   0  0  0  0  0  0  0  0  0  0  0  0
  151.1201  141.5706  156.3296 C   0  0  1  0  0  0  0  0  0  0  0  0
  150.6145  142.5527  157.3917 C   0  0  0  0  0  0  0  0  0  0  0  0
  151.7006  140.4524  156.9954 O   0  0  0  0  0  0  0  0  0  0  0  0
  142.7726  133.8721  150.0657 H   0  0  0  0  0  0  0  0  0  0  0  0
  153.2450  137.5616  156.2861 H   0  0  0  0  0  0  0  0  0  0  0  0
  152.0717  137.8672  157.5670 H   0  0  0  0  0  0  0  0  0  0  0  0
  153.6226  138.7034  157.5728 H   0  0  0  0  0  0  0  0  0  0  0  0
  153.0070  139.9241  155.4969 H   0  0  0  0  0  0  0  0  0  0  0  0
  151.4786  138.2481  154.4810 H   0  0  0  0  0  0  0  0  0  0  0  0
  150.3301  138.4651  155.7819 H   0  0  0  0  0  0  0  0  0  0  0  0
  149.3421  140.2056  152.6932 H   0  0  0  0  0  0  0  0  0  0  0  0
  149.6317  138.5768  153.2360 H   0  0  0  0  0  0  0  0  0  0  0  0
  147.8854  138.7520  154.9214 H   0  0  0  0  0  0  0  0  0  0  0  0
  147.8480  140.4958  154.7933 H   0  0  0  0  0  0  0  0  0  0  0  0
  145.8940  139.5914  153.6163 H   0  0  0  0  0  0  0  0  0  0  0  0
  146.9822  140.2625  152.4249 H   0  0  0  0  0  0  0  0  0  0  0  0
  147.8432  137.9080  152.0999 H   0  0  0  0  0  0  0  0  0  0  0  0
  147.2345  136.2082  151.2945 H   0  0  0  0  0  0  0  0  0  0  0  0
  146.6381  133.3081  151.1426 H   0  0  0  0  0  0  0  0  0  0  0  0
  143.4710  136.2393  150.6843 H   0  0  0  0  0  0  0  0  0  0  0  0
  149.5752  141.9383  154.8777 H   0  0  0  0  0  0  0  0  0  0  0  0
  149.1814  140.6627  156.0086 H   0  0  0  0  0  0  0  0  0  0  0  0
  151.8895  142.0649  155.7338 H   0  0  0  0  0  0  0  0  0  0  0  0
  150.1682  143.4341  156.9306 H   0  0  0  0  0  0  0  0  0  0  0  0
  151.4311  142.8897  158.0305 H   0  0  0  0  0  0  0  0  0  0  0  0
  149.8612  142.0904  158.0303 H   0  0  0  0  0  0  0  0  0  0  0  0
  1  2  1  0  0  0  0
  1 22  1  0  0  0  0
  1 23  1  0  0  0  0
  1 24  1  0  0  0  0
  2 20  1  0  0  0  0
  2  3  1  0  0  0  0
  2 25  1  0  0  0  0
  3  4  1  0  0  0  0
  3 26  1  0  0  0  0
  3 27  1  0  0  0  0
  4  5  1  0  0  0  0
  4 17  1  0  0  0  0
  5  6  1  0  0  0  0
  5 28  1  0  0  0  0
  5 29  1  0  0  0  0
  6  7  1  0  0  0  0
  6 30  1  0  0  0  0
  6 31  1  0  0  0  0
  7  8  1  0  0  0  0
  7 32  1  0  0  0  0
  7 33  1  0  0  0  0
  8  9  1  0  0  0  0
  8 34  1  0  0  0  0
  9 10  2  0  0  0  0
  9 11  1  0  0  0  0
 11 12  1  0  0  0  0
 11 35  1  0  0  0  0
 12 16  2  0  0  0  0
 12 13  1  0  0  0  0
 13 14  2  0  0  0  0
 13 36  1  0  0  0  0
 14 15  1  0  0  0  0
 15 21  1  0  0  0  0
 15 16  1  0  0  0  0
 16 37  1  0  0  0  0
 17 18  1  0  0  0  0
 17 38  1  0  0  0  0
 17 39  1  0  0  0  0
 18 19  1  0  0  0  0
 18 20  1  0  0  0  0
 18 40  1  0  0  0  0
 19 41  1  0  0  0  0
 19 42  1  0  0  0  0
 19 43  1  0  0  0  0
M  END
> <s_m_source_file>
AV-unprocessed.smi

> <i_m_source_file_index>
1900

> <i_lp_mmshare_version>
43012

> <i_f3d_flags>
0

> <s_epik_input>
W0NIM11bQ0BASF0xW0NIMl1OKFtDSDJdW0NASF0oTzEpW0NIM10pW0NIMl1bQ0gyXVtDSDJdW05IXUMoPU8pW05IXWMyW2NIXW5bbkhdW2NIXTI=

> <s_epik_cmdline>
J2VwaWtfcHl0aG9uJywgJy1waCcsICc3LjAnLCAnLXRuJywgJzgnLCAnLW1hJywgJzIwMCcsICctbWV0YWxfYmluZGluZycsICctaW1hZScsICc8aW5maWxlLm1hZT4nLCAnLW9tYWUnLCAnPG91dGZpbGUubWFlPic=

> <r_lp_tautomer_probability>
0.5

> <r_epik_Ionization_Penalty>
0.594715

> <r_epik_Ionization_Penalty_Charging>
0

> <r_epik_Ionization_Penalty_Neutral>
0.594715

> <r_epik_State_Penalty>
0.608529

> <r_epik_Charging_Adjusted_Penalty>
0.608529

> <i_epik_Tot_Q>
0

> <i_epik_Tot_abs_Q>
0

> <r_epik_Metal_State_Penalty>
0.608528

> <b_epik_Metal_Only>
0

> <s_lp_Force_Field>
OPLS_2005

> <r_lp_Energy>
22.5064

> <b_lp_Chiralities_Consistent>
1

> <s_lp_Variant>
AV-unprocessed.smi:1900-6

> <Gold.Version>
5.8.1

> <Gold.Id.Protein>
6NUR|6NUR_protein|mol2

> <Gold.PLP.Fitness>
44.5824

> <Gold.PLP.PLP>
-31.6499

> <Gold.PLP.part.hbond>
-4.0000

> <Gold.PLP.part.metal>
0.0000

> <Gold.PLP.part.buried>
-2.2819

> <Gold.PLP.part.nonpolar>
-27.8753

> <Gold.PLP.part.repulsive>
1.6293

> <Gold.PLP.ligand.clash>
0.0000

> <Gold.PLP.ligand.torsion>
0.7544

> <Gold.PLP.Chemscore.Hbond>
3.8000

> <Gold.PLP.Chemscore.CHOScore>
1.0000

> <Gold.PLP.Chemscore.Metal>
0.0000

> <Gold.Chemscore.Hbonds>
donor molecule, donor type, donor heavy atom, donor atom, acceptor molecule, acceptor atom, score
      L1  H     8    34       P1  7948  0.82
      L1  H    11    35       P1  7948  0.98
      L1  H    15    21       P1 10186  0.99
      P1  H  7989  7998       L1     4  1.00
      L1  C    16    37       P1 10171  1.00

> <Gold.PLP.Chemscore.Internal.Correction>
0.0413

> <Gold.Rescore>
     Score         DG    S(hbond)    S(metal)    S(lipo)     H(rot)  DE(clash)    DE(int)     intcor
     17.26     -20.13       3.08        0.00      78.34       1.88       1.95       0.91       ----

> <Gold.Chemscore.Fitness>
17.2627

> <Gold.Chemscore.DG>
-20.1273

> <Gold.Chemscore.ZeroCoef>
-5.4800

> <Gold.Chemscore.Hbond>
3.0821

> <Gold.Chemscore.Metal>
0.0000

> <Gold.Chemscore.Lipo>
78.3404

> <Gold.Chemscore.Internal_Hbond>
0.0000

> <Gold.Chemscore.DEClash>
1.9516

> <Gold.Chemscore.DEInternal>
0.9131

> <Gold.Chemscore.Rot>
1.8799

> <Gold.Chemscore.Internal.Correction>
   9.000000E+99

> <Gold.Chemscore.Hbonds>
donor molecule, donor type, donor heavy atom, donor atom, acceptor molecule, acceptor atom, score
      L1  H     8    34       P1  7948  0.78
      L1  H    11    35       P1  7948  0.93
      L1  H    15    21       P1 10186  0.93
      P1  H  7989  7998       L1     4  0.29

> <Gold.Chemscore.Hbond.Weighted>
-10.2941

> <Gold.Chemscore.Metal.Weighted>
-0.0000

> <Gold.Chemscore.Lipo.Weighted>
-9.1658

> <Gold.Chemscore.Internal_Hbond.Weighted>
0.0000

> <Gold.Chemscore.DEClash.Weighted>
1.9516

> <Gold.Chemscore.DEInternal.Weighted>
0.9131

> <Gold.Chemscore.Rot.Weighted>
4.8126

> <Gold.Chemscore.Internal.Correction.Weighted>
   9.000000E+99

> <Gold.Protein.RotatedTorsions>
[ 6907 6896 6895 6894 ] final  -37.02 input  -60.11 | X-H torsion
[ 7974 7965 7964 7962 ] final  -91.94 input  175.53 | X-H torsion
[ 8008 7997 7996 7995 ] final  166.18 input   59.86 | X-H torsion
[ 10167 10162 10161 10158 ] final  -38.07 input  -65.29 | X-H torsion
[ 10718 10713 10712 10709 ] final  -30.52 input   66.30 | X-H torsion
[ 10763 10752 10751 10750 ] final  154.82 input  -60.55 | X-H torsion
[ 11005 11000 10999 10996 ] final -102.59 input  -57.11 | X-H torsion

> <Gold.Protein.ActiveResidues>
 VAL166  LYS551  ARG553  GLY616  TRP617  ASP618  TYR619  PRO620  LYS621  CYS622 
 ASP623  PHE694  ASN695  SER759  ASP760  ASP761  ALA762  ILE779  LEU786  VAL792 
 PHE793  MET794  SER795  GLU796  ALA797  LYS798  CYS799  TRP800  GLU811  SER814 

> <Gold.Protein.RotatedAtoms>
  151.0199  134.9461  159.8053 H   0  0  0  0  0  0  0  0  0  0  0  0  # atno 6907 bound_to 6896
  152.5322  134.2918  159.9056 H   0  0  0  0  0  0  0  0  0  0  0  0  # atno 6908 bound_to 6896
  151.2925  133.4117  159.2668 H   0  0  0  0  0  0  0  0  0  0  0  0  # atno 6909 bound_to 6896
  145.4064  140.9541  143.2258 H   0  0  0  0  0  0  0  0  0  0  0  0  # atno 7974 bound_to 7965
  156.1740  140.1650  156.8396 H   0  0  0  0  0  0  0  0  0  0  0  0  # atno 8008 bound_to 7997
  154.5287  140.0762  156.8339 H   0  0  0  0  0  0  0  0  0  0  0  0  # atno 8009 bound_to 7997
  155.3453  140.3387  155.4241 H   0  0  0  0  0  0  0  0  0  0  0  0  # atno 8010 bound_to 7997
  140.7102  143.3301  151.2589 H   0  0  0  0  0  0  0  0  0  0  0  0  # atno 10167 bound_to 10162
  156.3988  130.4386  149.7338 H   0  0  0  0  0  0  0  0  0  0  0  0  # atno 10718 bound_to 10713
  154.1585  135.2811  155.3115 H   0  0  0  0  0  0  0  0  0  0  0  0  # atno 10763 bound_to 10752
  154.6164  135.5482  153.7532 H   0  0  0  0  0  0  0  0  0  0  0  0  # atno 10764 bound_to 10752
  153.0199  135.6428  154.1727 H   0  0  0  0  0  0  0  0  0  0  0  0  # atno 10765 bound_to 10752
  141.1183  133.8571  157.1379 H   0  0  0  0  0  0  0  0  0  0  0  0  # atno 11005 bound_to 11000
  144.8339  139.5583  143.6931 LP  0  0  0  0  0  0  0  0  0  0  0  0  # atno 17320 bound_to 7965
  146.2727  139.6674  142.9285 LP  0  0  0  0  0  0  0  0  0  0  0  0  # atno 17321 bound_to 7965
  139.6780  143.9903  152.2792 LP  0  0  0  0  0  0  0  0  0  0  0  0  # atno 17342 bound_to 10162
  139.9524  144.6612  150.8159 LP  0  0  0  0  0  0  0  0  0  0  0  0  # atno 17343 bound_to 10162
  156.4363  130.7839  151.2860 LP  0  0  0  0  0  0  0  0  0  0  0  0  # atno 17370 bound_to 10713
  157.7503  131.0139  150.3441 LP  0  0  0  0  0  0  0  0  0  0  0  0  # atno 17371 bound_to 10713
  140.0120  134.9984  157.0415 LP  0  0  0  0  0  0  0  0  0  0  0  0  # atno 17394 bound_to 11000
  140.4583  134.1510  155.7188 LP  0  0  0  0  0  0  0  0  0  0  0  0  # atno 17395 bound_to 11000

$$$$
