AV-unprocessed.smi:2198|AV-procd|sdf|8913|dock2
  -GOLD-   2272012133D 1   1.00000     0.00000
 Structure written by MMmdl.
 43 44  0  0  0  0  0  0  0  0  1 V2000
  146.9441  139.4047  152.9009 C   0  0  0  0  0  0  0  0  0  0  0  0
  147.8631  139.0909  154.0625 C   0  0  0  0  0  0  0  0  0  0  0  0
  147.4559  138.6394  155.2030 N   0  0  0  0  0  0  0  0  0  0  0  0
  148.4037  138.3819  156.2036 C   0  0  0  0  0  0  0  0  0  0  0  0
  147.8450  137.8529  157.5137 C   0  0  0  0  0  0  0  0  0  0  0  0
  149.7366  138.5975  155.9995 C   0  0  0  0  0  0  0  0  0  0  0  0
  150.7937  138.3273  157.0683 C   0  0  0  0  0  0  0  0  0  0  0  0
  151.7509  139.4876  157.3455 C   0  0  0  0  0  0  0  0  0  0  0  0
  152.7569  139.6336  156.6517 O   0  0  0  0  0  0  0  0  0  0  0  0
  151.4220  140.3084  158.3549 N   0  0  0  0  0  0  0  0  0  0  0  0
  152.1813  141.4834  158.7703 C   0  0  2  0  0  0  0  0  0  0  0  0
  152.6761  141.3236  160.2213 C   0  0  0  0  0  0  0  0  0  0  0  0
  153.4118  142.5836  160.7013 C   0  0  0  0  0  0  0  0  0  0  0  0
  152.5321  143.8350  160.5528 C   0  0  0  0  0  0  0  0  0  0  0  0
  152.0366  144.0101  159.1044 C   0  0  2  0  0  0  0  0  0  0  0  0
  151.1509  145.2563  158.9620 C   0  0  0  0  0  0  0  0  0  0  0  0
  151.3036  142.7411  158.6269 C   0  0  0  0  0  0  0  0  0  0  0  0
  150.1897  139.1162  154.6940 C   0  0  0  0  0  0  0  0  0  0  0  0
  151.3618  139.3517  154.4047 O   0  0  0  0  0  0  0  0  0  0  0  0
  149.2084  139.3335  153.7903 N   0  0  0  0  0  0  0  0  0  0  0  0
  149.4683  139.6888  152.8818 H   0  0  0  0  0  0  0  0  0  0  0  0
  146.2165  140.1629  153.1914 H   0  0  0  0  0  0  0  0  0  0  0  0
  146.4030  138.5079  152.5982 H   0  0  0  0  0  0  0  0  0  0  0  0
  147.4980  139.7764  152.0376 H   0  0  0  0  0  0  0  0  0  0  0  0
  148.2750  136.8800  157.7523 H   0  0  0  0  0  0  0  0  0  0  0  0
  146.7621  137.7327  157.4624 H   0  0  0  0  0  0  0  0  0  0  0  0
  148.0638  138.5408  158.3303 H   0  0  0  0  0  0  0  0  0  0  0  0
  150.2904  138.0443  157.9932 H   0  0  0  0  0  0  0  0  0  0  0  0
  151.3902  137.4530  156.8056 H   0  0  0  0  0  0  0  0  0  0  0  0
  150.5757  140.1091  158.8684 H   0  0  0  0  0  0  0  0  0  0  0  0
  153.0458  141.5991  158.1135 H   0  0  0  0  0  0  0  0  0  0  0  0
  151.8301  141.1256  160.8813 H   0  0  0  0  0  0  0  0  0  0  0  0
  153.3390  140.4613  160.3015 H   0  0  0  0  0  0  0  0  0  0  0  0
  153.7143  142.4633  161.7420 H   0  0  0  0  0  0  0  0  0  0  0  0
  154.3295  142.7112  160.1259 H   0  0  0  0  0  0  0  0  0  0  0  0
  151.6790  143.7614  161.2288 H   0  0  0  0  0  0  0  0  0  0  0  0
  153.0963  144.7154  160.8629 H   0  0  0  0  0  0  0  0  0  0  0  0
  152.9097  144.1537  158.4660 H   0  0  0  0  0  0  0  0  0  0  0  0
  150.2570  145.1802  159.5818 H   0  0  0  0  0  0  0  0  0  0  0  0
  150.8292  145.3936  157.9291 H   0  0  0  0  0  0  0  0  0  0  0  0
  151.6881  146.1565  159.2615 H   0  0  0  0  0  0  0  0  0  0  0  0
  151.0028  142.8605  157.5850 H   0  0  0  0  0  0  0  0  0  0  0  0
  150.3840  142.6149  159.2003 H   0  0  0  0  0  0  0  0  0  0  0  0
  1  2  1  0  0  0  0
  1 22  1  0  0  0  0
  1 23  1  0  0  0  0
  1 24  1  0  0  0  0
  2 20  1  0  0  0  0
  2  3  2  0  0  0  0
  3  4  1  0  0  0  0
  4  5  1  0  0  0  0
  4  6  2  0  0  0  0
  5 25  1  0  0  0  0
  5 26  1  0  0  0  0
  5 27  1  0  0  0  0
  6  7  1  0  0  0  0
  6 18  1  0  0  0  0
  7  8  1  0  0  0  0
  7 28  1  0  0  0  0
  7 29  1  0  0  0  0
  8  9  2  0  0  0  0
  8 10  1  0  0  0  0
 10 11  1  0  0  0  0
 10 30  1  0  0  0  0
 11 17  1  0  0  0  0
 11 12  1  0  0  0  0
 11 31  1  0  0  0  0
 12 13  1  0  0  0  0
 12 32  1  0  0  0  0
 12 33  1  0  0  0  0
 13 14  1  0  0  0  0
 13 34  1  0  0  0  0
 13 35  1  0  0  0  0
 14 15  1  0  0  0  0
 14 36  1  0  0  0  0
 14 37  1  0  0  0  0
 15 16  1  0  0  0  0
 15 17  1  0  0  0  0
 15 38  1  0  0  0  0
 16 39  1  0  0  0  0
 16 40  1  0  0  0  0
 16 41  1  0  0  0  0
 17 42  1  0  0  0  0
 17 43  1  0  0  0  0
 18 19  2  0  0  0  0
 18 20  1  0  0  0  0
 20 21  1  0  0  0  0
M  END
> <s_m_source_file>
AV-unprocessed.smi

> <i_m_source_file_index>
2198

> <i_lp_mmshare_version>
43012

> <i_f3d_flags>
0

> <s_epik_input>
W0NIM11jMW5jKFtDSDNdKWMoYyg9TylbbkhdMSlbQ0gyXUMoPU8pW05IXVtDQEBIXTJbQ0gyXVtDSDJdW0NIMl1bQ0BASF0oW0NIM10pW0NIMl0y

> <s_epik_cmdline>
J2VwaWtfcHl0aG9uJywgJy1waCcsICc3LjAnLCAnLXRuJywgJzgnLCAnLW1hJywgJzIwMCcsICctbWV0YWxfYmluZGluZycsICctaW1hZScsICc8aW5maWxlLm1hZT4nLCAnLW9tYWUnLCAnPG91dGZpbGUubWFlPic=

> <r_lp_tautomer_probability>
0.839158

> <r_epik_Ionization_Penalty>
0.000372587

> <r_epik_Ionization_Penalty_Charging>
0.000337977

> <r_epik_Ionization_Penalty_Neutral>
3.46101e-05

> <r_epik_State_Penalty>
0.09125

> <r_epik_Charging_Adjusted_Penalty>
0.091588

> <i_epik_Tot_Q>
0

> <i_epik_Tot_abs_Q>
0

> <r_epik_Metal_State_Penalty>
0.25197

> <b_epik_Metal_Only>
0

> <s_lp_Force_Field>
OPLS_2005

> <r_lp_Energy>
10.3768

> <b_lp_Chiralities_Consistent>
1

> <s_lp_Variant>
AV-unprocessed.smi:2198-3

> <Gold.Version>
5.8.1

> <Gold.Id.Protein>
6NUR|6NUR_protein|mol2

> <Gold.PLP.Fitness>
42.0990

> <Gold.PLP.PLP>
-33.9433

> <Gold.PLP.part.hbond>
-3.0000

> <Gold.PLP.part.metal>
0.0000

> <Gold.PLP.part.buried>
-4.0913

> <Gold.PLP.part.nonpolar>
-26.6490

> <Gold.PLP.part.repulsive>
0.3924

> <Gold.PLP.ligand.clash>
0.0000

> <Gold.PLP.ligand.torsion>
0.4250

> <Gold.PLP.Chemscore.Hbond>
3.0000

> <Gold.PLP.Chemscore.CHOScore>
0.0000

> <Gold.PLP.Chemscore.Metal>
0.0000

> <Gold.Chemscore.Hbonds>
donor molecule, donor type, donor heavy atom, donor atom, acceptor molecule, acceptor atom, score
      L1  H    20    21       P1  7957  1.00
      P1  H  7989  7998       L1    19  1.00
      P1  H  7997  8010       L1     9  1.00

> <Gold.PLP.Chemscore.Internal.Correction>
0.0057

> <Gold.Rescore>
     Score         DG    S(hbond)    S(metal)    S(lipo)     H(rot)  DE(clash)    DE(int)     intcor
     20.15     -21.95       2.97        0.00      88.45       1.48       0.13       1.67       ----

> <Gold.Chemscore.Fitness>
20.1526

> <Gold.Chemscore.DG>
-21.9496

> <Gold.Chemscore.ZeroCoef>
-5.4800

> <Gold.Chemscore.Hbond>
2.9670

> <Gold.Chemscore.Metal>
0.0000

> <Gold.Chemscore.Lipo>
88.4528

> <Gold.Chemscore.Internal_Hbond>
0.0000

> <Gold.Chemscore.DEClash>
0.1300

> <Gold.Chemscore.DEInternal>
1.6670

> <Gold.Chemscore.Rot>
1.4801

> <Gold.Chemscore.Internal.Correction>
   9.000000E+99

> <Gold.Chemscore.Hbonds>
donor molecule, donor type, donor heavy atom, donor atom, acceptor molecule, acceptor atom, score
      L1  H    20    21       P1  7957  1.00
      P1  H  7989  7998       L1    19  0.92
      P1  H  7997  8010       L1     9  1.00

> <Gold.Chemscore.Hbond.Weighted>
-9.9098

> <Gold.Chemscore.Metal.Weighted>
-0.0000

> <Gold.Chemscore.Lipo.Weighted>
-10.3490

> <Gold.Chemscore.Internal_Hbond.Weighted>
0.0000

> <Gold.Chemscore.DEClash.Weighted>
0.1300

> <Gold.Chemscore.DEInternal.Weighted>
1.6670

> <Gold.Chemscore.Rot.Weighted>
3.7891

> <Gold.Chemscore.Internal.Correction.Weighted>
   9.000000E+99

> <Gold.Protein.RotatedTorsions>
[ 6907 6896 6895 6894 ] final  -98.47 input  -60.11 | X-H torsion
[ 7974 7965 7964 7962 ] final  -21.74 input  175.53 | X-H torsion
[ 8008 7997 7996 7995 ] final   63.48 input   59.86 | X-H torsion
[ 10167 10162 10161 10158 ] final -139.14 input  -65.29 | X-H torsion
[ 10718 10713 10712 10709 ] final -160.14 input   66.30 | X-H torsion
[ 10763 10752 10751 10750 ] final  -24.47 input  -60.55 | X-H torsion
[ 11005 11000 10999 10996 ] final    1.23 input  -57.11 | X-H torsion

> <Gold.Protein.ActiveResidues>
 VAL166  LYS551  ARG553  GLY616  TRP617  ASP618  TYR619  PRO620  LYS621  CYS622 
 ASP623  PHE694  ASN695  SER759  ASP760  ASP761  ALA762  ILE779  LEU786  VAL792 
 PHE793  MET794  SER795  GLU796  ALA797  LYS798  CYS799  TRP800  GLU811  SER814 

> <Gold.Protein.RotatedAtoms>
  150.7048  134.1189  159.4027 H   0  0  0  0  0  0  0  0  0  0  0  0  # atno 6907 bound_to 6896
  151.9176  135.0310  160.0529 H   0  0  0  0  0  0  0  0  0  0  0  0  # atno 6908 bound_to 6896
  152.2283  133.5003  159.5238 H   0  0  0  0  0  0  0  0  0  0  0  0  # atno 6909 bound_to 6896
  146.1716  140.4383  142.8530 H   0  0  0  0  0  0  0  0  0  0  0  0  # atno 7974 bound_to 7965
  155.6308  140.3496  155.4682 H   0  0  0  0  0  0  0  0  0  0  0  0  # atno 8008 bound_to 7997
  156.0004  140.1212  157.0576 H   0  0  0  0  0  0  0  0  0  0  0  0  # atno 8009 bound_to 7997
  154.4247  140.1101  156.5675 H   0  0  0  0  0  0  0  0  0  0  0  0  # atno 8010 bound_to 7997
  139.8408  143.7324  152.2663 H   0  0  0  0  0  0  0  0  0  0  0  0  # atno 10167 bound_to 10162
  156.5780  130.8717  151.2856 H   0  0  0  0  0  0  0  0  0  0  0  0  # atno 10718 bound_to 10713
  153.6843  135.6965  153.5109 H   0  0  0  0  0  0  0  0  0  0  0  0  # atno 10763 bound_to 10752
  153.2461  135.4290  155.0748 H   0  0  0  0  0  0  0  0  0  0  0  0  # atno 10764 bound_to 10752
  154.8391  135.3520  154.6385 H   0  0  0  0  0  0  0  0  0  0  0  0  # atno 10765 bound_to 10752
  140.6177  133.9690  155.8209 H   0  0  0  0  0  0  0  0  0  0  0  0  # atno 11005 bound_to 11000
  144.8171  140.6487  143.6377 LP  0  0  0  0  0  0  0  0  0  0  0  0  # atno 17320 bound_to 7965
  145.4326  139.1547  143.4014 LP  0  0  0  0  0  0  0  0  0  0  0  0  # atno 17321 bound_to 7965
  139.7560  144.7520  151.0434 LP  0  0  0  0  0  0  0  0  0  0  0  0  # atno 17342 bound_to 10162
  140.7798  143.4805  151.0025 LP  0  0  0  0  0  0  0  0  0  0  0  0  # atno 17343 bound_to 10162
  157.7333  130.9728  150.1971 LP  0  0  0  0  0  0  0  0  0  0  0  0  # atno 17370 bound_to 10713
  156.2656  130.3716  149.8084 LP  0  0  0  0  0  0  0  0  0  0  0  0  # atno 17371 bound_to 10713
  141.0764  134.0128  157.3451 LP  0  0  0  0  0  0  0  0  0  0  0  0  # atno 17394 bound_to 11000
  139.9166  135.0197  156.7904 LP  0  0  0  0  0  0  0  0  0  0  0  0  # atno 17395 bound_to 11000

$$$$
