AV-unprocessed.smi:1794|AV-procd|sdf|7235|dock8
  -GOLD-   22720 8483D 1   1.00000     0.00000
 Structure written by MMmdl.
 56 58  0  0  0  0  0  0  0  0  3 V2000
  155.6796  137.7634  164.9015 C   0  0  0  0  0  0  0  0  0  0  0  0
  154.7393  136.6582  164.3603 C   0  0  0  0  0  0  0  0  0  0  0  0
  153.2847  137.1990  164.4041 C   0  0  0  0  0  0  0  0  0  0  0  0
  155.0847  136.3487  162.8733 C   0  0  0  0  0  0  0  0  0  0  0  0
  154.7063  137.4214  161.9571 N   0  0  0  0  0  0  0  0  0  0  0  0
  154.0587  137.2347  160.8002 C   0  0  0  0  0  0  0  0  0  0  0  0
  153.6978  136.1300  160.3955 O   0  0  0  0  0  0  0  0  0  0  0  0
  153.8820  138.3954  160.1474 N   0  0  0  0  0  0  0  0  0  0  0  0
  153.3078  138.5976  158.8606 C   0  0  0  0  0  0  0  0  0  0  0  0
  153.2271  137.5423  157.9159 C   0  0  0  0  0  0  0  0  0  0  0  0
  152.6754  137.7793  156.6427 C   0  0  0  0  0  0  0  0  0  0  0  0
  152.2075  139.0678  156.3339 C   0  0  0  0  0  0  0  0  0  0  0  0
  152.2791  140.0452  157.2610 N   0  3  0  0  0  0  0  0  0  0  0  0
  152.7858  139.8760  158.5078 C   0  0  0  0  0  0  0  0  0  0  0  0
  152.7854  140.9901  159.3777 N   0  0  0  0  0  0  0  0  0  0  0  0
  154.0183  141.4243  160.0240 C   0  0  0  0  0  0  0  0  0  0  0  0
  153.7056  142.8121  160.5769 C   0  0  0  0  0  0  0  0  0  0  0  0
  152.7666  143.3819  159.5179 C   0  0  0  0  0  0  0  0  0  0  0  0
  151.9818  142.1586  159.0321 C   0  0  0  0  0  0  0  0  0  0  0  0
  154.8620  135.3882  165.1695 N   0  3  0  0  0  0  0  0  0  0  0  0
  153.8938  134.3083  164.8184 C   0  0  0  0  0  0  0  0  0  0  0  0
  153.9914  133.1394  165.8115 C   0  0  0  0  0  0  0  0  0  0  0  0
  155.3152  132.6272  165.8081 O   0  0  0  0  0  0  0  0  0  0  0  0
  156.2515  133.6055  166.2334 C   0  0  0  0  0  0  0  0  0  0  0  0
  156.2323  134.8066  165.2719 C   0  0  0  0  0  0  0  0  0  0  0  0
  155.5145  138.7125  164.3907 H   0  0  0  0  0  0  0  0  0  0  0  0
  156.7309  137.5125  164.7607 H   0  0  0  0  0  0  0  0  0  0  0  0
  155.5203  137.9480  165.9638 H   0  0  0  0  0  0  0  0  0  0  0  0
  153.1373  138.0472  163.7354 H   0  0  0  0  0  0  0  0  0  0  0  0
  153.0105  137.5654  165.3934 H   0  0  0  0  0  0  0  0  0  0  0  0
  152.5652  136.4322  164.1143 H   0  0  0  0  0  0  0  0  0  0  0  0
  156.1540  136.1933  162.7379 H   0  0  0  0  0  0  0  0  0  0  0  0
  154.5916  135.4267  162.5597 H   0  0  0  0  0  0  0  0  0  0  0  0
  154.9684  138.3609  162.2172 H   0  0  0  0  0  0  0  0  0  0  0  0
  154.3142  139.2075  160.5629 H   0  0  0  0  0  0  0  0  0  0  0  0
  153.5779  136.5488  158.1503 H   0  0  0  0  0  0  0  0  0  0  0  0
  152.6151  136.9840  155.9140 H   0  0  0  0  0  0  0  0  0  0  0  0
  151.7736  139.3437  155.3836 H   0  0  0  0  0  0  0  0  0  0  0  0
  154.3209  140.7332  160.8112 H   0  0  0  0  0  0  0  0  0  0  0  0
  154.8275  141.4942  159.2959 H   0  0  0  0  0  0  0  0  0  0  0  0
  153.1822  142.7259  161.5301 H   0  0  0  0  0  0  0  0  0  0  0  0
  154.5971  143.4203  160.7322 H   0  0  0  0  0  0  0  0  0  0  0  0
  152.1229  144.1744  159.9010 H   0  0  0  0  0  0  0  0  0  0  0  0
  153.3517  143.7935  158.6942 H   0  0  0  0  0  0  0  0  0  0  0  0
  151.7791  142.2168  157.9620 H   0  0  0  0  0  0  0  0  0  0  0  0
  151.0278  142.0970  159.5564 H   0  0  0  0  0  0  0  0  0  0  0  0
  152.8670  134.6659  164.8261 H   0  0  0  0  0  0  0  0  0  0  0  0
  154.0949  133.9339  163.8142 H   0  0  0  0  0  0  0  0  0  0  0  0
  153.7059  133.4527  166.8170 H   0  0  0  0  0  0  0  0  0  0  0  0
  153.3071  132.3423  165.5201 H   0  0  0  0  0  0  0  0  0  0  0  0
  156.0281  133.9208  167.2541 H   0  0  0  0  0  0  0  0  0  0  0  0
  157.2447  133.1566  166.2511 H   0  0  0  0  0  0  0  0  0  0  0  0
  156.5826  134.4969  164.2870 H   0  0  0  0  0  0  0  0  0  0  0  0
  156.9487  135.5285  165.6594 H   0  0  0  0  0  0  0  0  0  0  0  0
  154.6291  135.6626  166.1135 H   0  0  0  0  0  0  0  0  0  0  0  0
  151.9220  140.9671  157.0096 H   0  0  0  0  0  0  0  0  0  0  0  0
  1  2  1  0  0  0  0
  1 26  1  0  0  0  0
  1 27  1  0  0  0  0
  1 28  1  0  0  0  0
  2  3  1  0  0  0  0
  2  4  1  0  0  0  0
  2 20  1  0  0  0  0
  3 29  1  0  0  0  0
  3 30  1  0  0  0  0
  3 31  1  0  0  0  0
  4  5  1  0  0  0  0
  4 32  1  0  0  0  0
  4 33  1  0  0  0  0
  5  6  1  0  0  0  0
  5 34  1  0  0  0  0
  6  7  2  0  0  0  0
  6  8  1  0  0  0  0
  8  9  1  0  0  0  0
  8 35  1  0  0  0  0
  9 14  1  0  0  0  0
  9 10  2  0  0  0  0
 10 11  1  0  0  0  0
 10 36  1  0  0  0  0
 11 12  2  0  0  0  0
 11 37  1  0  0  0  0
 12 13  1  0  0  0  0
 12 38  1  0  0  0  0
 13 14  2  0  0  0  0
 13 56  1  0  0  0  0
 14 15  1  0  0  0  0
 15 19  1  0  0  0  0
 15 16  1  0  0  0  0
 16 17  1  0  0  0  0
 16 39  1  0  0  0  0
 16 40  1  0  0  0  0
 17 18  1  0  0  0  0
 17 41  1  0  0  0  0
 17 42  1  0  0  0  0
 18 19  1  0  0  0  0
 18 43  1  0  0  0  0
 18 44  1  0  0  0  0
 19 45  1  0  0  0  0
 19 46  1  0  0  0  0
 20 25  1  0  0  0  0
 20 21  1  0  0  0  0
 20 55  1  0  0  0  0
 21 22  1  0  0  0  0
 21 47  1  0  0  0  0
 21 48  1  0  0  0  0
 22 23  1  0  0  0  0
 22 49  1  0  0  0  0
 22 50  1  0  0  0  0
 23 24  1  0  0  0  0
 24 25  1  0  0  0  0
 24 51  1  0  0  0  0
 24 52  1  0  0  0  0
 25 53  1  0  0  0  0
 25 54  1  0  0  0  0
M  CHG  1  13   1
M  CHG  1  20   1
M  END
> <s_m_source_file>
AV-unprocessed.smi

> <i_m_source_file_index>
1794

> <i_lp_mmshare_version>
43012

> <i_f3d_flags>
0

> <s_epik_input>
W0NIMl0xW0NIMl1PW0NIMl1bQ0gyXU4xQyhbQ0gzXSkoW0NIM10pW0NIMl1bTkhdQyg9TylbTkhdYzJbY0hdW2NIXVtjSF1uYzJOM1tDSDJdW0NIMl1bQ0gyXVtDSDJdMw==

> <s_epik_cmdline>
J2VwaWtfcHl0aG9uJywgJy1waCcsICc3LjAnLCAnLXRuJywgJzgnLCAnLW1hJywgJzIwMCcsICctbWV0YWxfYmluZGluZycsICctaW1hZScsICc8aW5maWxlLm1hZT4nLCAnLW9tYWUnLCAnPG91dGZpbGUubWFlPic=

> <r_lp_tautomer_probability>
0.999994

> <r_epik_Ionization_Penalty>
1.80144

> <r_epik_Ionization_Penalty_Charging>
1.80142

> <r_epik_Ionization_Penalty_Neutral>
2.02981e-05

> <r_epik_State_Penalty>
1.84115

> <r_epik_Charging_Adjusted_Penalty>
3.64257

> <i_epik_Tot_Q>
2

> <i_epik_Tot_abs_Q>
2

> <r_epik_Metal_State_Penalty>
1.92426

> <b_epik_Metal_Only>
0

> <s_lp_Force_Field>
OPLS_2005

> <r_lp_Energy>
63.0658

> <b_lp_Chiralities_Consistent>
1

> <s_lp_Variant>
AV-unprocessed.smi:1794-4

> <Gold.Version>
5.8.1

> <Gold.Id.Protein>
6NUR|6NUR_protein|mol2

> <Gold.PLP.Fitness>
43.0567

> <Gold.PLP.PLP>
-40.6379

> <Gold.PLP.part.hbond>
-2.0000

> <Gold.PLP.part.metal>
0.0000

> <Gold.PLP.part.buried>
-6.5441

> <Gold.PLP.part.nonpolar>
-32.3092

> <Gold.PLP.part.repulsive>
0.2212

> <Gold.PLP.ligand.clash>
0.0000

> <Gold.PLP.ligand.torsion>
0.5298

> <Gold.PLP.Chemscore.Hbond>
1.0000

> <Gold.PLP.Chemscore.CHOScore>
0.0000

> <Gold.PLP.Chemscore.Metal>
0.0000

> <Gold.Chemscore.Hbonds>
donor molecule, donor type, donor heavy atom, donor atom, acceptor molecule, acceptor atom, score
      P1  H  6896  6908       L1     7  1.00

> <Gold.PLP.Chemscore.Internal.Correction>
0.4783

> <Gold.Rescore>
     Score         DG    S(hbond)    S(metal)    S(lipo)     H(rot)  DE(clash)    DE(int)     intcor
     16.39     -18.39       0.99        0.00     117.80       1.64       0.10       1.91       ----

> <Gold.Chemscore.Fitness>
16.3884

> <Gold.Chemscore.DG>
-18.3906

> <Gold.Chemscore.ZeroCoef>
-5.4800

> <Gold.Chemscore.Hbond>
0.9920

> <Gold.Chemscore.Metal>
0.0000

> <Gold.Chemscore.Lipo>
117.8030

> <Gold.Chemscore.Internal_Hbond>
0.0000

> <Gold.Chemscore.DEClash>
0.0969

> <Gold.Chemscore.DEInternal>
1.9054

> <Gold.Chemscore.Rot>
1.6350

> <Gold.Chemscore.Internal.Correction>
   9.000000E+99

> <Gold.Chemscore.Hbonds>
donor molecule, donor type, donor heavy atom, donor atom, acceptor molecule, acceptor atom, score
      P1  H  6896  6908       L1     7  1.00

> <Gold.Chemscore.Hbond.Weighted>
-3.3133

> <Gold.Chemscore.Metal.Weighted>
-0.0000

> <Gold.Chemscore.Lipo.Weighted>
-13.7830

> <Gold.Chemscore.Internal_Hbond.Weighted>
0.0000

> <Gold.Chemscore.DEClash.Weighted>
0.0969

> <Gold.Chemscore.DEInternal.Weighted>
1.9054

> <Gold.Chemscore.Rot.Weighted>
4.1856

> <Gold.Chemscore.Internal.Correction.Weighted>
   9.000000E+99

> <Gold.Protein.RotatedTorsions>
[ 6907 6896 6895 6894 ] final  -66.22 input  -60.11 | X-H torsion
[ 7974 7965 7964 7962 ] final  -38.37 input  175.53 | X-H torsion
[ 8008 7997 7996 7995 ] final  -31.39 input   59.86 | X-H torsion
[ 10167 10162 10161 10158 ] final  115.01 input  -65.29 | X-H torsion
[ 10718 10713 10712 10709 ] final  -86.88 input   66.30 | X-H torsion
[ 10763 10752 10751 10750 ] final -146.98 input  -60.55 | X-H torsion
[ 11005 11000 10999 10996 ] final   22.95 input  -57.11 | X-H torsion

> <Gold.Protein.ActiveResidues>
 VAL166  LYS551  ARG553  GLY616  TRP617  ASP618  TYR619  PRO620  LYS621  CYS622 
 ASP623  PHE694  ASN695  SER759  ASP760  ASP761  ALA762  ILE779  LEU786  VAL792 
 PHE793  MET794  SER795  GLU796  ALA797  LYS798  CYS799  TRP800  GLU811  SER814 

> <Gold.Protein.RotatedAtoms>
  150.7478  134.6051  159.6056 H   0  0  0  0  0  0  0  0  0  0  0  0  # atno 6907 bound_to 6896
  152.3401  134.7142  160.0275 H   0  0  0  0  0  0  0  0  0  0  0  0  # atno 6908 bound_to 6896
  151.7597  133.3297  159.3451 H   0  0  0  0  0  0  0  0  0  0  0  0  # atno 6909 bound_to 6896
  146.0493  140.6503  142.9050 H   0  0  0  0  0  0  0  0  0  0  0  0  # atno 7974 bound_to 7965
  154.4215  140.1765  156.1559 H   0  0  0  0  0  0  0  0  0  0  0  0  # atno 8008 bound_to 7997
  155.9877  140.3372  155.6699 H   0  0  0  0  0  0  0  0  0  0  0  0  # atno 8009 bound_to 7997
  155.6414  140.0680  157.2608 H   0  0  0  0  0  0  0  0  0  0  0  0  # atno 8010 bound_to 7997
  139.6347  144.7118  151.2358 H   0  0  0  0  0  0  0  0  0  0  0  0  # atno 10167 bound_to 10162
  155.9987  130.4780  150.4782 H   0  0  0  0  0  0  0  0  0  0  0  0  # atno 10718 bound_to 10713
  154.8309  135.3372  154.6747 H   0  0  0  0  0  0  0  0  0  0  0  0  # atno 10763 bound_to 10752
  153.7367  135.6948  153.4981 H   0  0  0  0  0  0  0  0  0  0  0  0  # atno 10764 bound_to 10752
  153.2273  135.4428  155.0508 H   0  0  0  0  0  0  0  0  0  0  0  0  # atno 10765 bound_to 10752
  140.3750  134.1982  155.7665 H   0  0  0  0  0  0  0  0  0  0  0  0  # atno 11005 bound_to 11000
  144.7114  140.4052  143.7078 LP  0  0  0  0  0  0  0  0  0  0  0  0  # atno 17320 bound_to 7965
  145.6752  139.1607  143.2732 LP  0  0  0  0  0  0  0  0  0  0  0  0  # atno 17321 bound_to 7965
  140.7459  143.6416  150.8329 LP  0  0  0  0  0  0  0  0  0  0  0  0  # atno 17342 bound_to 10162
  140.0046  143.5707  152.2862 LP  0  0  0  0  0  0  0  0  0  0  0  0  # atno 17343 bound_to 10162
  157.2790  131.0603  151.2210 LP  0  0  0  0  0  0  0  0  0  0  0  0  # atno 17370 bound_to 10713
  157.3263  130.6962  149.6298 LP  0  0  0  0  0  0  0  0  0  0  0  0  # atno 17371 bound_to 10713
  141.1942  133.8133  157.0766 LP  0  0  0  0  0  0  0  0  0  0  0  0  # atno 17394 bound_to 11000
  140.0522  134.9799  157.1157 LP  0  0  0  0  0  0  0  0  0  0  0  0  # atno 17395 bound_to 11000

$$$$
