#       Name:                AV-unprocessed.smi:232
#       Creating user name   scv26
#       Creation time:       Thu Mar 26 20:30:42 2020


#       File generated by GOLD software.
#

@<TRIPOS>MOLECULE
AV-unprocessed.smi:232
    60    63     1
SMALL
NO_CHARGES


@<TRIPOS>ATOM
      1 ****        -4.4661  -2.6662   3.4174 C.3            1 S1                 0.0000
      2 ****        -3.7158  -2.0454   2.2328 C.3            1 S1                 0.0000
      3 ****        -3.7807  -0.5044   2.2174 C.3            1 S1                 0.0000
      4 ****        -5.1932   0.0580   2.0122 C.3            1 S1                 0.0000
      5 ****        -4.9789   1.3907   1.2856 C.3            1 S1                 0.0000
      6 ****        -3.4656   1.4665   1.0432 C.3            1 S1                 0.0000
      7 ****        -3.0965   2.1548  -0.2820 C.3            1 S1                 0.0000
      8 ****        -2.9989   0.0879   1.1363 N.3            1 S1                 0.0000
      9 ****        -1.6522  -0.0417   1.2101 C.ar           1 S1                 0.0000
     10 ****        -0.9971   0.1999   2.3770 N.ar           1 S1                 0.0000
     11 ****         0.3333   0.0849   2.4333 C.ar           1 S1                 0.0000
     12 ****         1.1851  -0.2468   1.4602 N.ar           1 S1                 0.0000
     13 ****         0.5282  -0.4855   0.2887 C.ar           1 S1                 0.0000
     14 ****        -0.8764  -0.4082   0.0791 C.ar           1 S1                 0.0000
     15 ****        -1.1805  -0.7175  -1.2407 N.2            1 S1                 0.0000
     16 ****        -0.0180  -0.9592  -1.7838 C.2            1 S1                 0.0000
     17 ****         1.0612  -0.8397  -0.9372 N.pl3          1 S1                 0.0000
     18 ****         2.4597  -1.0401  -1.2721 C.3            1 S1                 0.0000
     19 ****         3.2103   0.2924  -1.4607 C.3            1 S1                 0.0000
     20 ****         2.6202   1.0538  -2.4978 O.3            1 S1                 0.0000
     21 ****         4.7188   0.0985  -1.7153 C.3            1 S1                 0.0000
     22 ****         5.5368   1.3673  -1.9716 C.3            1 S1                 0.0000
     23 ****         6.7245   0.8040  -2.7193 C.3            1 S1                 0.0000
     24 ****         6.0668  -0.2698  -3.5830 C.3            1 S1                 0.0000
     25 ****         4.9711  -0.7675  -2.8196 O.3            1 S1                 0.0000
     26 ****        -4.3713  -3.7522   3.4097 H              1 S1                 0.0000
     27 ****        -5.5296  -2.4282   3.3858 H              1 S1                 0.0000
     28 ****        -4.0687  -2.3047   4.3661 H              1 S1                 0.0000
     29 ****        -2.6759  -2.3699   2.2813 H              1 S1                 0.0000
     30 ****        -4.1140  -2.4433   1.2987 H              1 S1                 0.0000
     31 ****        -3.4052  -0.1247   3.1692 H              1 S1                 0.0000
     32 ****        -5.7867  -0.6063   1.3826 H              1 S1                 0.0000
     33 ****        -5.7226   0.1798   2.9576 H              1 S1                 0.0000
     34 ****        -5.5313   1.3887   0.3448 H              1 S1                 0.0000
     35 ****        -5.3278   2.2408   1.8725 H              1 S1                 0.0000
     36 ****        -3.0179   2.0307   1.8636 H              1 S1                 0.0000
     37 ****        -3.5158   3.1601  -0.3260 H              1 S1                 0.0000
     38 ****        -3.4774   1.5967  -1.1378 H              1 S1                 0.0000
     39 ****        -2.0166   2.2478  -0.3984 H              1 S1                 0.0000
     40 ****         0.7794   0.2925   3.3947 H              1 S1                 0.0000
     41 ****         0.0863  -1.2277  -2.8252 H              1 S1                 0.0000
     42 ****         2.9200  -1.6249  -0.4749 H              1 S1                 0.0000
     43 ****         2.5182  -1.6454  -2.1777 H              1 S1                 0.0000
     44 ****         3.1027   0.8804  -0.5484 H              1 S1                 0.0000
     45 ****         3.0704   1.8826  -2.5539 H              1 S1                 0.0000
     46 ****         5.1484  -0.4001  -0.8449 H              1 S1                 0.0000
     47 ****         5.0037   2.0702  -2.6126 H              1 S1                 0.0000
     48 ****         5.8153   1.8862  -1.0540 H              1 S1                 0.0000
     49 ****         7.2608   1.5525  -3.3033 H              1 S1                 0.0000
     50 ****         7.4260   0.3473  -2.0197 H              1 S1                 0.0000
     51 ****         5.6755   0.1701  -4.5011 H              1 S1                 0.0000
     52 ****         6.7581  -1.0668  -3.8573 H              1 S1                 0.0000
     53 ****        -3.1586  -0.4243   0.2924 LP             1 S1                 0.0000
     54 ****        -1.5110   0.4637   3.1933 LP             1 S1                 0.0000
     55 ****         2.1763  -0.3118   1.5752 LP             1 S1                 0.0000
     56 ****        -2.0811  -0.7479  -1.6743 LP             1 S1                 0.0000
     57 ****         1.6532   1.2081  -2.2950 LP             1 S1                 0.0000
     58 ****         2.7047   0.5644  -3.3658 LP             1 S1                 0.0000
     59 ****         4.1569  -0.8133  -3.3984 LP             1 S1                 0.0000
     60 ****         5.1910  -1.6822  -2.4807 LP             1 S1                 0.0000
@<TRIPOS>BOND
    1    1    2 1     
    2    1   26 1     
    3    1   27 1     
    4    1   28 1     
    5    2    3 1     
    6    2   29 1     
    7    2   30 1     
    8    3    8 1     
    9    3    4 1     
   10    3   31 1     
   11    4    5 1     
   12    4   32 1     
   13    4   33 1     
   14    5    6 1     
   15    5   34 1     
   16    5   35 1     
   17    6    7 1     
   18    6    8 1     
   19    6   36 1     
   20    7   37 1     
   21    7   38 1     
   22    7   39 1     
   23    8    9 1     
   24    9   14 ar    
   25    9   10 ar    
   26   10   11 ar    
   27   11   12 ar    
   28   11   40 1     
   29   12   13 ar    
   30   13   17 1     
   31   13   14 ar    
   32   14   15 1     
   33   15   16 2     
   34   16   17 1     
   35   16   41 1     
   36   17   18 1     
   37   18   19 1     
   38   18   42 1     
   39   18   43 1     
   40   19   20 1     
   41   19   21 1     
   42   19   44 1     
   43   20   45 1     
   44   21   25 1     
   45   21   22 1     
   46   21   46 1     
   47   22   23 1     
   48   22   47 1     
   49   22   48 1     
   50   23   24 1     
   51   23   49 1     
   52   23   50 1     
   53   24   25 1     
   54   24   51 1     
   55   24   52 1     
   56    8   53 1     
   57   10   54 1     
   58   12   55 1     
   59   15   56 1     
   60   20   57 1     
   61   20   58 1     
   62   25   59 1     
   63   25   60 1     
@<TRIPOS>SUBSTRUCTURE
      1 S1             1
@<TRIPOS>SET
LONE_PAIRS      STATIC     ATOMS    <user>   **** ""
8 53 54 55 56 57 58 59 60
DONOR_HYDROGENS      STATIC     ATOMS    <user>   **** ""
1 45
ATOM$BLUE        STATIC     ATOMS    COLORGROUP SYSTEM
8 53 54 55 56 57 58 59 60
ATOM$RED        STATIC     ATOMS    COLORGROUP SYSTEM
1 45
