AV-unprocessed.smi:2102|AV-procd|sdf|8581|dock6
  -GOLD-   2272011313D 1   1.00000     0.00000
 Structure written by MMmdl.
 29 30  0  0  0  0  0  0  0  0  1 V2000
  151.5694  137.5668  154.4616 C   0  0  0  0  0  0  0  0  0  0  0  0
  151.2009  138.1847  155.7183 N   0  0  0  0  0  0  0  0  0  0  0  0
  151.2399  137.4152  156.9065 C   0  0  0  0  0  0  0  0  0  0  0  0
  151.5799  136.2318  156.9219 O   0  0  0  0  0  0  0  0  0  0  0  0
  150.8413  138.1402  158.1072 C   0  0  0  0  0  0  0  0  0  0  0  0
  150.4726  139.4385  158.0449 C   0  0  0  0  0  0  0  0  0  0  0  0
  150.4444  140.1673  156.8698 N   0  0  0  0  0  0  0  0  0  0  0  0
  150.0515  141.5820  156.8983 C   0  0  0  0  0  0  0  0  0  0  0  0
  151.0604  142.4661  157.6444 C   0  0  0  0  0  0  0  0  0  0  0  0
  151.9049  141.9641  158.3878 O   0  0  0  0  0  0  0  0  0  0  0  0
  150.9429  143.7872  157.4476 N   0  0  0  0  0  0  0  0  0  0  0  0
  151.7679  144.7898  158.0403 C   0  0  0  0  0  0  0  0  0  0  0  0
  152.3268  144.5163  159.4197 C   0  0  0  0  0  0  0  0  0  0  0  0
  151.2242  145.5243  159.2468 C   0  0  0  0  0  0  0  0  0  0  0  0
  150.8141  139.5414  155.6601 C   0  0  0  0  0  0  0  0  0  0  0  0
  150.7975  140.1663  154.5963 O   0  0  0  0  0  0  0  0  0  0  0  0
  151.8833  136.5333  154.6031 H   0  0  0  0  0  0  0  0  0  0  0  0
  152.3949  138.1462  154.0439 H   0  0  0  0  0  0  0  0  0  0  0  0
  150.6907  137.6036  153.8155 H   0  0  0  0  0  0  0  0  0  0  0  0
  150.8433  137.6305  159.0594 H   0  0  0  0  0  0  0  0  0  0  0  0
  150.1899  139.9313  158.9638 H   0  0  0  0  0  0  0  0  0  0  0  0
  149.9123  141.9530  155.8810 H   0  0  0  0  0  0  0  0  0  0  0  0
  149.0810  141.6887  157.3852 H   0  0  0  0  0  0  0  0  0  0  0  0
  150.2170  144.1075  156.8232 H   0  0  0  0  0  0  0  0  0  0  0  0
  152.4050  145.3711  157.3748 H   0  0  0  0  0  0  0  0  0  0  0  0
  152.0722  143.5707  159.8949 H   0  0  0  0  0  0  0  0  0  0  0  0
  153.3229  144.8947  159.6406 H   0  0  0  0  0  0  0  0  0  0  0  0
  151.4830  146.5761  159.3510 H   0  0  0  0  0  0  0  0  0  0  0  0
  150.2342  145.2510  159.6074 H   0  0  0  0  0  0  0  0  0  0  0  0
  1  2  1  0  0  0  0
  1 17  1  0  0  0  0
  1 18  1  0  0  0  0
  1 19  1  0  0  0  0
  2 15  1  0  0  0  0
  2  3  1  0  0  0  0
  3  4  2  0  0  0  0
  3  5  1  0  0  0  0
  5  6  2  0  0  0  0
  5 20  1  0  0  0  0
  6  7  1  0  0  0  0
  6 21  1  0  0  0  0
  7  8  1  0  0  0  0
  7 15  1  0  0  0  0
  8  9  1  0  0  0  0
  8 22  1  0  0  0  0
  8 23  1  0  0  0  0
  9 10  2  0  0  0  0
  9 11  1  0  0  0  0
 11 12  1  0  0  0  0
 11 24  1  0  0  0  0
 12 14  1  0  0  0  0
 12 13  1  0  0  0  0
 12 25  1  0  0  0  0
 13 14  1  0  0  0  0
 13 26  1  0  0  0  0
 13 27  1  0  0  0  0
 14 28  1  0  0  0  0
 14 29  1  0  0  0  0
 15 16  2  0  0  0  0
M  END
> <s_m_source_file>
AV-unprocessed.smi

> <i_m_source_file_index>
2102

> <i_lp_mmshare_version>
43012

> <i_f3d_flags>
0

> <s_epik_input>
W0NIM11uMWMoPU8pW2NIXVtjSF1uKGMxPU8pW0NIMl1DKD1PKVtOSF1bQ0hdMltDSDJdW0NIMl0y

> <s_epik_cmdline>
J2VwaWtfcHl0aG9uJywgJy1waCcsICc3LjAnLCAnLXRuJywgJzgnLCAnLW1hJywgJzIwMCcsICctbWV0YWxfYmluZGluZycsICctaW1hZScsICc8aW5maWxlLm1hZT4nLCAnLW9tYWUnLCAnPG91dGZpbGUubWFlPic=

> <r_lp_tautomer_probability>
1

> <r_epik_Ionization_Penalty>
3.25544e-08

> <r_epik_Ionization_Penalty_Charging>
1.18841e-08

> <r_epik_Ionization_Penalty_Neutral>
2.06703e-08

> <r_epik_State_Penalty>
-0

> <r_epik_Charging_Adjusted_Penalty>
1.18841e-08

> <i_epik_Tot_Q>
0

> <i_epik_Tot_abs_Q>
0

> <r_epik_Metal_State_Penalty>
-0

> <b_epik_Metal_Only>
0

> <s_lp_Force_Field>
OPLS_2005

> <r_lp_Energy>
23.1094

> <b_lp_Chiralities_Consistent>
1

> <s_lp_Variant>
AV-unprocessed.smi:2102-1

> <Gold.Version>
5.8.1

> <Gold.Id.Protein>
6NUR|6NUR_protein|mol2

> <Gold.PLP.Fitness>
39.4687

> <Gold.PLP.PLP>
-31.6126

> <Gold.PLP.part.hbond>
-2.9329

> <Gold.PLP.part.metal>
0.0000

> <Gold.PLP.part.buried>
-5.0320

> <Gold.PLP.part.nonpolar>
-23.8504

> <Gold.PLP.part.repulsive>
0.0966

> <Gold.PLP.ligand.clash>
0.0000

> <Gold.PLP.ligand.torsion>
0.5776

> <Gold.PLP.Chemscore.Hbond>
2.9913

> <Gold.PLP.Chemscore.CHOScore>
0.0000

> <Gold.PLP.Chemscore.Metal>
0.0000

> <Gold.Chemscore.Hbonds>
donor molecule, donor type, donor heavy atom, donor atom, acceptor molecule, acceptor atom, score
      L1  H    11    24       P1  8028  1.00
      P1  H  7989  7998       L1    16  1.00

> <Gold.PLP.Chemscore.Internal.Correction>
0.0375

> <Gold.Rescore>
     Score         DG    S(hbond)    S(metal)    S(lipo)     H(rot)  DE(clash)    DE(int)     intcor
     15.07     -18.43       2.97        0.00      61.34       1.62       0.07       3.29       ----

> <Gold.Chemscore.Fitness>
15.0710

> <Gold.Chemscore.DG>
-18.4307

> <Gold.Chemscore.ZeroCoef>
-5.4800

> <Gold.Chemscore.Hbond>
2.9698

> <Gold.Chemscore.Metal>
0.0000

> <Gold.Chemscore.Lipo>
61.3392

> <Gold.Chemscore.Internal_Hbond>
0.0000

> <Gold.Chemscore.DEClash>
0.0670

> <Gold.Chemscore.DEInternal>
3.2928

> <Gold.Chemscore.Rot>
1.6192

> <Gold.Chemscore.Internal.Correction>
   9.000000E+99

> <Gold.Chemscore.Hbonds>
donor molecule, donor type, donor heavy atom, donor atom, acceptor molecule, acceptor atom, score
      L1  H    11    24       P1  8028  0.98
      P1  H  7989  7998       L1    16  0.95

> <Gold.Chemscore.Hbond.Weighted>
-9.9193

> <Gold.Chemscore.Metal.Weighted>
-0.0000

> <Gold.Chemscore.Lipo.Weighted>
-7.1767

> <Gold.Chemscore.Internal_Hbond.Weighted>
0.0000

> <Gold.Chemscore.DEClash.Weighted>
0.0670

> <Gold.Chemscore.DEInternal.Weighted>
3.2928

> <Gold.Chemscore.Rot.Weighted>
4.1452

> <Gold.Chemscore.Internal.Correction.Weighted>
   9.000000E+99

> <Gold.Protein.RotatedTorsions>
[ 6907 6896 6895 6894 ] final   -3.86 input  -60.11 | X-H torsion
[ 7974 7965 7964 7962 ] final  -21.17 input  175.53 | X-H torsion
[ 8008 7997 7996 7995 ] final -157.52 input   59.86 | X-H torsion
[ 10167 10162 10161 10158 ] final -127.23 input  -65.29 | X-H torsion
[ 10718 10713 10712 10709 ] final   35.31 input   66.30 | X-H torsion
[ 10763 10752 10751 10750 ] final -146.49 input  -60.55 | X-H torsion
[ 11005 11000 10999 10996 ] final  -34.36 input  -57.11 | X-H torsion

> <Gold.Protein.ActiveResidues>
 VAL166  LYS551  ARG553  GLY616  TRP617  ASP618  TYR619  PRO620  LYS621  CYS622 
 ASP623  PHE694  ASN695  SER759  ASP760  ASP761  ALA762  ILE779  LEU786  VAL792 
 PHE793  MET794  SER795  GLU796  ALA797  LYS798  CYS799  TRP800  GLU811  SER814 

> <Gold.Protein.RotatedAtoms>
  151.5070  135.1064  159.9843 H   0  0  0  0  0  0  0  0  0  0  0  0  # atno 6907 bound_to 6896
  152.4678  133.7957  159.6936 H   0  0  0  0  0  0  0  0  0  0  0  0  # atno 6908 bound_to 6896
  150.8670  133.7496  159.2999 H   0  0  0  0  0  0  0  0  0  0  0  0  # atno 6909 bound_to 6896
  146.1748  140.4303  142.8518 H   0  0  0  0  0  0  0  0  0  0  0  0  # atno 7974 bound_to 7965
  155.7337  140.0805  157.2277 H   0  0  0  0  0  0  0  0  0  0  0  0  # atno 8008 bound_to 7997
  154.4030  140.1590  156.2593 H   0  0  0  0  0  0  0  0  0  0  0  0  # atno 8009 bound_to 7997
  155.9085  140.3405  155.6083 H   0  0  0  0  0  0  0  0  0  0  0  0  # atno 8010 bound_to 7997
  139.9630  143.5928  152.2438 H   0  0  0  0  0  0  0  0  0  0  0  0  # atno 10167 bound_to 10162
  157.3211  130.7449  149.6786 H   0  0  0  0  0  0  0  0  0  0  0  0  # atno 10718 bound_to 10713
  154.8333  135.3385  154.6669 H   0  0  0  0  0  0  0  0  0  0  0  0  # atno 10763 bound_to 10752
  153.7287  135.6953  153.4999 H   0  0  0  0  0  0  0  0  0  0  0  0  # atno 10764 bound_to 10752
  153.2328  135.4410  155.0566 H   0  0  0  0  0  0  0  0  0  0  0  0  # atno 10765 bound_to 10752
  140.9710  133.7110  156.1523 H   0  0  0  0  0  0  0  0  0  0  0  0  # atno 11005 bound_to 11000
  144.8219  140.6564  143.6347 LP  0  0  0  0  0  0  0  0  0  0  0  0  # atno 17320 bound_to 7965
  145.4242  139.1559  143.4057 LP  0  0  0  0  0  0  0  0  0  0  0  0  # atno 17321 bound_to 7965
  139.6539  144.7661  151.2094 LP  0  0  0  0  0  0  0  0  0  0  0  0  # atno 17342 bound_to 10162
  140.7547  143.6117  150.8599 LP  0  0  0  0  0  0  0  0  0  0  0  0  # atno 17343 bound_to 10162
  155.9686  130.4223  150.4509 LP  0  0  0  0  0  0  0  0  0  0  0  0  # atno 17370 bound_to 10713
  157.2524  131.0549  151.2371 LP  0  0  0  0  0  0  0  0  0  0  0  0  # atno 17371 bound_to 10713
  140.7329  134.4234  157.5564 LP  0  0  0  0  0  0  0  0  0  0  0  0  # atno 17394 bound_to 11000
  139.8912  134.8785  156.2331 LP  0  0  0  0  0  0  0  0  0  0  0  0  # atno 17395 bound_to 11000

$$$$
