AV-unprocessed.smi:265|AV-procd|sdf|2025|dock1
  -GOLD-   2262021233D 1   1.00000     0.00000
 Structure written by MMmdl.
 52 56  0  0  0  0  0  0  0  0  1 V2000
  150.1552  138.3569  154.3706 C   0  0  0  0  0  0  0  0  0  0  0  0
  149.8252  139.7202  154.9996 C   0  0  2  0  0  0  0  0  0  0  0  0
  150.9974  140.5135  155.1189 O   0  0  0  0  0  0  0  0  0  0  0  0
  150.7030  141.5517  156.0356 C   0  0  0  0  0  0  0  0  0  0  0  0
  149.9673  140.8172  157.1498 C   0  0  0  0  0  0  0  0  0  0  0  0
  149.1983  139.7115  156.4197 C   0  0  2  0  0  0  0  0  0  0  0  0
  149.4405  138.4876  157.0947 O   0  0  0  0  0  0  0  0  0  0  0  0
  147.6712  139.9693  156.4156 C   0  0  0  0  0  0  0  0  0  0  0  0
  146.9190  138.9911  155.6437 N   0  0  0  0  0  0  0  0  0  0  0  0
  146.1905  137.9327  156.1387 C   0  0  0  0  0  0  0  0  0  0  0  0
  145.6103  137.1867  155.2392 N   0  0  0  0  0  0  0  0  0  0  0  0
  145.9507  137.7836  154.0314 C   0  0  0  0  0  0  0  0  0  0  0  0
  145.6656  137.4929  152.6671 C   0  0  0  0  0  0  0  0  0  0  0  0
  144.8906  136.4450  152.2883 N   0  0  0  0  0  0  0  0  0  0  0  0
  144.2443  135.6608  153.3403 C   0  0  0  0  0  0  0  0  0  0  0  0
  143.1135  134.7987  152.7586 C   0  0  0  0  0  0  0  0  0  0  0  0
  143.6001  133.9306  151.5866 C   0  0  2  0  0  0  0  0  0  0  0  0
  144.4949  132.9292  152.0533 O   0  0  0  0  0  0  0  0  0  0  0  0
  144.8533  131.9681  151.0587 C   0  0  0  0  0  0  0  0  0  0  0  0
  145.2973  132.6273  149.7395 C   0  0  0  0  0  0  0  0  0  0  0  0
  145.9040  131.9680  148.8987 O   0  0  0  0  0  0  0  0  0  0  0  0
  144.9648  133.9112  149.5301 N   0  0  0  0  0  0  0  0  0  0  0  0
  144.3518  134.7744  150.5342 C   0  0  2  0  0  0  0  0  0  0  0  0
  145.4360  135.6567  151.1852 C   0  0  0  0  0  0  0  0  0  0  0  0
  146.2029  138.3161  151.7272 N   0  0  0  0  0  0  0  0  0  0  0  0
  146.9574  139.3565  152.0926 C   0  0  0  0  0  0  0  0  0  0  0  0
  147.2985  139.7487  153.3212 N   0  0  0  0  0  0  0  0  0  0  0  0
  146.7725  138.9214  154.2689 C   0  0  0  0  0  0  0  0  0  0  0  0
  142.7349  133.4436  151.1323 H   0  0  0  0  0  0  0  0  0  0  0  0
  143.6352  135.4220  150.0272 H   0  0  0  0  0  0  0  0  0  0  0  0
  149.2624  137.7373  154.2830 H   0  0  0  0  0  0  0  0  0  0  0  0
  150.8906  137.8095  154.9606 H   0  0  0  0  0  0  0  0  0  0  0  0
  150.5678  138.4845  153.3698 H   0  0  0  0  0  0  0  0  0  0  0  0
  149.1686  140.2633  154.3191 H   0  0  0  0  0  0  0  0  0  0  0  0
  151.6070  142.0514  156.3842 H   0  0  0  0  0  0  0  0  0  0  0  0
  150.0577  142.2927  155.5608 H   0  0  0  0  0  0  0  0  0  0  0  0
  150.7042  140.3961  157.8361 H   0  0  0  0  0  0  0  0  0  0  0  0
  149.3277  141.4834  157.7301 H   0  0  0  0  0  0  0  0  0  0  0  0
  149.8745  137.8966  156.4989 H   0  0  0  0  0  0  0  0  0  0  0  0
  147.2822  139.9722  157.4347 H   0  0  0  0  0  0  0  0  0  0  0  0
  147.4615  140.9597  156.0094 H   0  0  0  0  0  0  0  0  0  0  0  0
  146.1102  137.7237  157.1956 H   0  0  0  0  0  0  0  0  0  0  0  0
  144.9872  135.0253  153.8249 H   0  0  0  0  0  0  0  0  0  0  0  0
  143.8355  136.3215  154.1061 H   0  0  0  0  0  0  0  0  0  0  0  0
  142.6808  134.1708  153.5376 H   0  0  0  0  0  0  0  0  0  0  0  0
  142.3133  135.4523  152.4095 H   0  0  0  0  0  0  0  0  0  0  0  0
  145.6555  131.3393  151.4459 H   0  0  0  0  0  0  0  0  0  0  0  0
  144.0008  131.3180  150.8586 H   0  0  0  0  0  0  0  0  0  0  0  0
  145.2234  134.3355  148.6513 H   0  0  0  0  0  0  0  0  0  0  0  0
  145.8864  136.2936  150.4243 H   0  0  0  0  0  0  0  0  0  0  0  0
  146.2395  135.0321  151.5786 H   0  0  0  0  0  0  0  0  0  0  0  0
  147.3425  139.9611  151.2846 H   0  0  0  0  0  0  0  0  0  0  0  0
  1  2  1  0  0  0  0
  1 31  1  0  0  0  0
  1 32  1  0  0  0  0
  1 33  1  0  0  0  0
  2  6  1  0  0  0  0
  2  3  1  0  0  0  0
  2 34  1  0  0  0  0
  3  4  1  0  0  0  0
  4  5  1  0  0  0  0
  4 35  1  0  0  0  0
  4 36  1  0  0  0  0
  5  6  1  0  0  0  0
  5 37  1  0  0  0  0
  5 38  1  0  0  0  0
  6  7  1  0  0  0  0
  6  8  1  0  0  0  0
  7 39  1  0  0  0  0
  8  9  1  0  0  0  0
  8 40  1  0  0  0  0
  8 41  1  0  0  0  0
  9 28  1  0  0  0  0
  9 10  1  0  0  0  0
 10 11  2  0  0  0  0
 10 42  1  0  0  0  0
 11 12  1  0  0  0  0
 12 28  2  0  0  0  0
 12 13  1  0  0  0  0
 13 14  1  0  0  0  0
 13 25  2  0  0  0  0
 14 24  1  0  0  0  0
 14 15  1  0  0  0  0
 15 16  1  0  0  0  0
 15 43  1  0  0  0  0
 15 44  1  0  0  0  0
 16 17  1  0  0  0  0
 16 45  1  0  0  0  0
 16 46  1  0  0  0  0
 17 29  1  0  0  0  0
 17 23  1  0  0  0  0
 17 18  1  0  0  0  0
 18 19  1  0  0  0  0
 19 20  1  0  0  0  0
 19 47  1  0  0  0  0
 19 48  1  0  0  0  0
 20 21  2  0  0  0  0
 20 22  1  0  0  0  0
 22 23  1  0  0  0  0
 22 49  1  0  0  0  0
 23 30  1  0  0  0  0
 23 24  1  0  0  0  0
 24 50  1  0  0  0  0
 24 51  1  0  0  0  0
 25 26  1  0  0  0  0
 26 27  2  0  0  0  0
 26 52  1  0  0  0  0
 27 28  1  0  0  0  0
M  END
> <s_m_source_file>
AV-unprocessed.smi

> <i_m_source_file_index>
265

> <i_lp_mmshare_version>
43012

> <i_f3d_flags>
0

> <s_epik_input>
W0NIMl0xW0NIMl1PW0NAQEhdKFtDSDNdKVtDQEBdMShbT0hdKVtDSDJdbihbY0hdbjIpYyhjMjMpbltjSF1uYzNOKFtDSDJdW0NIMl00KVtDSDJdW0NAQEhdKFtDQEhdNDUpW05IXUMoPU8pW0NIMl1PNQ==

> <s_epik_cmdline>
J2VwaWtfcHl0aG9uJywgJy1waCcsICc3LjAnLCAnLXRuJywgJzgnLCAnLW1hJywgJzIwMCcsICctbWV0YWxfYmluZGluZycsICctaW1hZScsICc8aW5maWxlLm1hZT4nLCAnLW9tYWUnLCAnPG91dGZpbGUubWFlPic=

> <r_lp_tautomer_probability>
1

> <r_epik_Ionization_Penalty>
0.00221504

> <r_epik_Ionization_Penalty_Charging>
0

> <r_epik_Ionization_Penalty_Neutral>
0.00221504

> <r_epik_State_Penalty>
-0

> <r_epik_Charging_Adjusted_Penalty>
0

> <i_epik_Tot_Q>
0

> <i_epik_Tot_abs_Q>
0

> <r_epik_Metal_State_Penalty>
-0

> <b_epik_Metal_Only>
0

> <s_lp_Force_Field>
OPLS_2005

> <r_lp_Energy>
44.0403

> <b_lp_Chiralities_Consistent>
1

> <s_lp_Variant>
AV-unprocessed.smi:265-11

> <Gold.Version>
5.8.1

> <Gold.Id.Protein>
6NUR|6NUR_protein|mol2

> <Gold.PLP.Fitness>
41.8729

> <Gold.PLP.PLP>
-34.2037

> <Gold.PLP.part.hbond>
-1.9314

> <Gold.PLP.part.metal>
0.0000

> <Gold.PLP.part.buried>
-6.7161

> <Gold.PLP.part.nonpolar>
-27.6330

> <Gold.PLP.part.repulsive>
2.3809

> <Gold.PLP.ligand.clash>
0.0000

> <Gold.PLP.ligand.torsion>
0.4568

> <Gold.PLP.Chemscore.Hbond>
1.9920

> <Gold.PLP.Chemscore.CHOScore>
0.7415

> <Gold.PLP.Chemscore.Metal>
0.0000

> <Gold.Chemscore.Hbonds>
donor molecule, donor type, donor heavy atom, donor atom, acceptor molecule, acceptor atom, score
      L1  H    22    49       P1  7921  0.78
      P1  H  7989  7998       L1     3  0.99
      L1  C    26    52       P1  7957  0.72

> <Gold.PLP.Chemscore.Internal.Correction>
0.3822

> <Gold.Rescore>
     Score         DG    S(hbond)    S(metal)    S(lipo)     H(rot)  DE(clash)    DE(int)     intcor
      9.83     -12.46       1.62        0.00      62.46       2.25       0.75       1.88       ----

> <Gold.Chemscore.Fitness>
9.8273

> <Gold.Chemscore.DG>
-12.4555

> <Gold.Chemscore.ZeroCoef>
-5.4800

> <Gold.Chemscore.Hbond>
1.6215

> <Gold.Chemscore.Metal>
0.0000

> <Gold.Chemscore.Lipo>
62.4597

> <Gold.Chemscore.Internal_Hbond>
0.0000

> <Gold.Chemscore.DEClash>
0.7529

> <Gold.Chemscore.DEInternal>
1.8753

> <Gold.Chemscore.Rot>
2.2453

> <Gold.Chemscore.Internal.Correction>
   9.000000E+99

> <Gold.Chemscore.Hbonds>
donor molecule, donor type, donor heavy atom, donor atom, acceptor molecule, acceptor atom, score
      L1  H    22    49       P1  7921  0.75
      P1  H  7989  7998       L1     3  0.68

> <Gold.Chemscore.Hbond.Weighted>
-5.4157

> <Gold.Chemscore.Metal.Weighted>
-0.0000

> <Gold.Chemscore.Lipo.Weighted>
-7.3078

> <Gold.Chemscore.Internal_Hbond.Weighted>
0.0000

> <Gold.Chemscore.DEClash.Weighted>
0.7529

> <Gold.Chemscore.DEInternal.Weighted>
1.8753

> <Gold.Chemscore.Rot.Weighted>
5.7479

> <Gold.Chemscore.Internal.Correction.Weighted>
   9.000000E+99

> <Gold.Protein.RotatedTorsions>
[ 6907 6896 6895 6894 ] final  -43.21 input  -60.11 | X-H torsion
[ 7974 7965 7964 7962 ] final -152.64 input  175.53 | X-H torsion
[ 8008 7997 7996 7995 ] final -108.63 input   59.86 | X-H torsion
[ 10167 10162 10161 10158 ] final   60.79 input  -65.29 | X-H torsion
[ 10718 10713 10712 10709 ] final -153.02 input   66.30 | X-H torsion
[ 10763 10752 10751 10750 ] final  138.29 input  -60.55 | X-H torsion
[ 11005 11000 10999 10996 ] final  153.97 input  -57.11 | X-H torsion

> <Gold.Protein.ActiveResidues>
 VAL166  LYS551  ARG553  GLY616  TRP617  ASP618  TYR619  PRO620  LYS621  CYS622 
 ASP623  PHE694  ASN695  SER759  ASP760  ASP761  ALA762  ILE779  LEU786  VAL792 
 PHE793  MET794  SER795  GLU796  ALA797  LYS798  CYS799  TRP800  GLU811  SER814 

> <Gold.Protein.RotatedAtoms>
  150.9465  134.8869  159.7644 H   0  0  0  0  0  0  0  0  0  0  0  0  # atno 6907 bound_to 6896
  152.5102  134.3868  159.9380 H   0  0  0  0  0  0  0  0  0  0  0  0  # atno 6908 bound_to 6896
  151.3886  133.3756  159.2753 H   0  0  0  0  0  0  0  0  0  0  0  0  # atno 6909 bound_to 6896
  144.7783  140.4635  143.5857 H   0  0  0  0  0  0  0  0  0  0  0  0  # atno 7974 bound_to 7965
  154.9471  140.0401  157.2126 H   0  0  0  0  0  0  0  0  0  0  0  0  # atno 8008 bound_to 7997
  154.8014  140.2852  155.5897 H   0  0  0  0  0  0  0  0  0  0  0  0  # atno 8009 bound_to 7997
  156.2962  140.2554  156.2882 H   0  0  0  0  0  0  0  0  0  0  0  0  # atno 8010 bound_to 7997
  140.1618  144.4363  150.6705 H   0  0  0  0  0  0  0  0  0  0  0  0  # atno 10167 bound_to 10162
  156.4803  130.8300  151.2527 H   0  0  0  0  0  0  0  0  0  0  0  0  # atno 10718 bound_to 10713
  153.8871  135.3037  155.3446 H   0  0  0  0  0  0  0  0  0  0  0  0  # atno 10763 bound_to 10752
  154.7734  135.4874  153.9697 H   0  0  0  0  0  0  0  0  0  0  0  0  # atno 10764 bound_to 10752
  153.1318  135.6805  153.9264 H   0  0  0  0  0  0  0  0  0  0  0  0  # atno 10765 bound_to 10752
  140.1446  134.8716  157.2376 H   0  0  0  0  0  0  0  0  0  0  0  0  # atno 11005 bound_to 11000
  145.6122  139.1514  143.3069 LP  0  0  0  0  0  0  0  0  0  0  0  0  # atno 17320 bound_to 7965
  146.1977  140.6237  142.9117 LP  0  0  0  0  0  0  0  0  0  0  0  0  # atno 17321 bound_to 7965
  140.6638  143.2261  151.5792 LP  0  0  0  0  0  0  0  0  0  0  0  0  # atno 17342 bound_to 10162
  139.5377  144.2733  152.1287 LP  0  0  0  0  0  0  0  0  0  0  0  0  # atno 17343 bound_to 10162
  157.7484  131.0047  150.3086 LP  0  0  0  0  0  0  0  0  0  0  0  0  # atno 17370 bound_to 10713
  156.3529  130.3834  149.7314 LP  0  0  0  0  0  0  0  0  0  0  0  0  # atno 17371 bound_to 10713
  140.2679  134.3494  155.7383 LP  0  0  0  0  0  0  0  0  0  0  0  0  # atno 17394 bound_to 11000
  141.2191  133.7406  156.9178 LP  0  0  0  0  0  0  0  0  0  0  0  0  # atno 17395 bound_to 11000

$$$$
