AV-unprocessed.smi:723|AV-procd|sdf|3506|dock9
  -GOLD-   22720 0503D 1   1.00000     0.00000
 Structure written by MMmdl.
 42 44  0  0  0  0  0  0  0  0  1 V2000
  150.1733  131.6516  157.8251 C   0  0  0  0  0  0  0  0  0  0  0  0
  150.6253  132.9748  157.5955 O   0  0  0  0  0  0  0  0  0  0  0  0
  150.3028  133.4383  156.2953 C   0  0  0  0  0  0  0  0  0  0  0  0
  149.5515  134.7709  156.4106 C   0  0  0  0  0  0  0  0  0  0  0  0
  150.4335  135.8510  156.8082 N   0  0  0  0  0  0  0  0  0  0  0  0
  150.1841  136.8694  157.7071 C   0  0  0  0  0  0  0  0  0  0  0  0
  151.3199  137.6285  157.7291 C   0  0  0  0  0  0  0  0  0  0  0  0
  151.6064  138.7982  158.4772 N   0  0  0  0  0  0  0  0  0  0  0  0
  152.8019  139.3865  158.6468 C   0  0  0  0  0  0  0  0  0  0  0  0
  153.8609  138.9902  158.1595 O   0  0  0  0  0  0  0  0  0  0  0  0
  152.6996  140.4727  159.4237 N   0  0  0  0  0  0  0  0  0  0  0  0
  153.7782  141.3294  159.8047 C   0  0  2  0  0  0  0  0  0  0  0  0
  153.5490  142.3690  160.8879 C   0  0  2  0  0  0  0  0  0  0  0  0
  152.1964  142.6653  161.5185 C   0  0  0  0  0  0  0  0  0  0  0  0
  151.7643  144.1201  161.2481 C   0  0  0  0  0  0  0  0  0  0  0  0
  151.9420  144.5765  159.7769 C   0  0  0  0  0  0  0  0  0  0  0  0
  152.4938  143.4857  158.8385 C   0  0  0  0  0  0  0  0  0  0  0  0
  153.7078  142.8052  159.4527 C   0  0  2  0  0  0  0  0  0  0  0  0
  152.2158  137.0117  156.8175 C   0  0  0  0  0  0  0  0  0  0  0  0
  151.6735  135.9369  156.2658 N   0  0  0  0  0  0  0  0  0  0  0  0
  150.4365  131.3443  158.8371 H   0  0  0  0  0  0  0  0  0  0  0  0
  150.6358  130.9504  157.1290 H   0  0  0  0  0  0  0  0  0  0  0  0
  149.0893  131.5820  157.7240 H   0  0  0  0  0  0  0  0  0  0  0  0
  151.2142  133.5684  155.7092 H   0  0  0  0  0  0  0  0  0  0  0  0
  149.6817  132.7026  155.7816 H   0  0  0  0  0  0  0  0  0  0  0  0
  149.0948  135.0299  155.4544 H   0  0  0  0  0  0  0  0  0  0  0  0
  148.7421  134.6917  157.1379 H   0  0  0  0  0  0  0  0  0  0  0  0
  149.2433  136.9551  158.2306 H   0  0  0  0  0  0  0  0  0  0  0  0
  150.8169  139.2333  158.9316 H   0  0  0  0  0  0  0  0  0  0  0  0
  151.7859  140.7173  159.7761 H   0  0  0  0  0  0  0  0  0  0  0  0
  154.7762  140.8942  159.7777 H   0  0  0  0  0  0  0  0  0  0  0  0
  154.3943  142.5961  161.5350 H   0  0  0  0  0  0  0  0  0  0  0  0
  151.4418  141.9889  161.1183 H   0  0  0  0  0  0  0  0  0  0  0  0
  152.2459  142.4693  162.5900 H   0  0  0  0  0  0  0  0  0  0  0  0
  150.7256  144.2508  161.5531 H   0  0  0  0  0  0  0  0  0  0  0  0
  152.3452  144.7831  161.8903 H   0  0  0  0  0  0  0  0  0  0  0  0
  150.9940  144.9476  159.3863 H   0  0  0  0  0  0  0  0  0  0  0  0
  152.6226  145.4287  159.7579 H   0  0  0  0  0  0  0  0  0  0  0  0
  151.7121  142.7522  158.6421 H   0  0  0  0  0  0  0  0  0  0  0  0
  152.7675  143.9097  157.8719 H   0  0  0  0  0  0  0  0  0  0  0  0
  154.6501  143.3001  159.2246 H   0  0  0  0  0  0  0  0  0  0  0  0
  153.2200  137.3007  156.5439 H   0  0  0  0  0  0  0  0  0  0  0  0
  1  2  1  0  0  0  0
  1 21  1  0  0  0  0
  1 22  1  0  0  0  0
  1 23  1  0  0  0  0
  2  3  1  0  0  0  0
  3  4  1  0  0  0  0
  3 24  1  0  0  0  0
  3 25  1  0  0  0  0
  4  5  1  0  0  0  0
  4 26  1  0  0  0  0
  4 27  1  0  0  0  0
  5 20  1  0  0  0  0
  5  6  1  0  0  0  0
  6  7  2  0  0  0  0
  6 28  1  0  0  0  0
  7  8  1  0  0  0  0
  7 19  1  0  0  0  0
  8  9  1  0  0  0  0
  8 29  1  0  0  0  0
  9 10  2  0  0  0  0
  9 11  1  0  0  0  0
 11 12  1  0  0  0  0
 11 30  1  0  0  0  0
 12 18  1  0  0  0  0
 12 13  1  0  0  0  0
 12 31  1  0  0  0  0
 13 18  1  0  0  0  0
 13 14  1  0  0  0  0
 13 32  1  0  0  0  0
 14 15  1  0  0  0  0
 14 33  1  0  0  0  0
 14 34  1  0  0  0  0
 15 16  1  0  0  0  0
 15 35  1  0  0  0  0
 15 36  1  0  0  0  0
 16 17  1  0  0  0  0
 16 37  1  0  0  0  0
 16 38  1  0  0  0  0
 17 18  1  0  0  0  0
 17 39  1  0  0  0  0
 17 40  1  0  0  0  0
 18 41  1  0  0  0  0
 19 20  2  0  0  0  0
 19 42  1  0  0  0  0
M  END
> <s_m_source_file>
AV-unprocessed.smi

> <i_m_source_file_index>
723

> <i_lp_mmshare_version>
43012

> <i_f3d_flags>
0

> <s_epik_input>
W0NIM11PW0NIMl1bQ0gyXW4xW2NIXWMoW2NIXW4xKVtOSF1DKD1PKVtOSF1bQ0BIXTJbQ0BASF0oW0NAQEhdMjMpW0NIMl1bQ0gyXVtDSDJdW0NIMl0z

> <s_epik_cmdline>
J2VwaWtfcHl0aG9uJywgJy1waCcsICc3LjAnLCAnLXRuJywgJzgnLCAnLW1hJywgJzIwMCcsICctbWV0YWxfYmluZGluZycsICctaW1hZScsICc8aW5maWxlLm1hZT4nLCAnLW9tYWUnLCAnPG91dGZpbGUubWFlPic=

> <r_lp_tautomer_probability>
1

> <r_epik_Ionization_Penalty>
0.00031755

> <r_epik_Ionization_Penalty_Charging>
0

> <r_epik_Ionization_Penalty_Neutral>
0.00031755

> <r_epik_State_Penalty>
-0

> <r_epik_Charging_Adjusted_Penalty>
0

> <i_epik_Tot_Q>
0

> <i_epik_Tot_abs_Q>
0

> <r_epik_Metal_State_Penalty>
-0

> <b_epik_Metal_Only>
0

> <s_lp_Force_Field>
OPLS_2005

> <r_lp_Energy>
44.2387

> <b_lp_Chiralities_Consistent>
1

> <s_lp_Variant>
AV-unprocessed.smi:723-2

> <Gold.Version>
5.8.1

> <Gold.Id.Protein>
6NUR|6NUR_protein|mol2

> <Gold.PLP.Fitness>
42.4751

> <Gold.PLP.PLP>
-34.9181

> <Gold.PLP.part.hbond>
-3.0000

> <Gold.PLP.part.metal>
0.0000

> <Gold.PLP.part.buried>
-4.7357

> <Gold.PLP.part.nonpolar>
-27.9879

> <Gold.PLP.part.repulsive>
0.2067

> <Gold.PLP.ligand.clash>
0.0000

> <Gold.PLP.ligand.torsion>
0.7503

> <Gold.PLP.Chemscore.Hbond>
3.0000

> <Gold.PLP.Chemscore.CHOScore>
0.0000

> <Gold.PLP.Chemscore.Metal>
0.0000

> <Gold.Chemscore.Hbonds>
donor molecule, donor type, donor heavy atom, donor atom, acceptor molecule, acceptor atom, score
      P1  H  6896  6907       L1     2  1.00
      P1  H  7997  8010       L1    10  1.00
      P1  H 10752 10764       L1    20  1.00

> <Gold.PLP.Chemscore.Internal.Correction>
0.0577

> <Gold.Rescore>
     Score         DG    S(hbond)    S(metal)    S(lipo)     H(rot)  DE(clash)    DE(int)     intcor
     20.27     -22.33       2.55        0.00     105.53       1.56       0.02       2.05       ----

> <Gold.Chemscore.Fitness>
20.2661

> <Gold.Chemscore.DG>
-22.3308

> <Gold.Chemscore.ZeroCoef>
-5.4800

> <Gold.Chemscore.Hbond>
2.5464

> <Gold.Chemscore.Metal>
0.0000

> <Gold.Chemscore.Lipo>
105.5253

> <Gold.Chemscore.Internal_Hbond>
0.0000

> <Gold.Chemscore.DEClash>
0.0192

> <Gold.Chemscore.DEInternal>
2.0455

> <Gold.Chemscore.Rot>
1.5627

> <Gold.Chemscore.Internal.Correction>
   9.000000E+99

> <Gold.Chemscore.Hbonds>
donor molecule, donor type, donor heavy atom, donor atom, acceptor molecule, acceptor atom, score
      P1  H  6896  6907       L1     2  0.48
      P1  H  7997  8010       L1    10  0.99
      P1  H 10752 10764       L1    20  0.29

> <Gold.Chemscore.Hbond.Weighted>
-8.5048

> <Gold.Chemscore.Metal.Weighted>
-0.0000

> <Gold.Chemscore.Lipo.Weighted>
-12.3465

> <Gold.Chemscore.Internal_Hbond.Weighted>
0.0000

> <Gold.Chemscore.DEClash.Weighted>
0.0192

> <Gold.Chemscore.DEInternal.Weighted>
2.0455

> <Gold.Chemscore.Rot.Weighted>
4.0005

> <Gold.Chemscore.Internal.Correction.Weighted>
   9.000000E+99

> <Gold.Protein.RotatedTorsions>
[ 6907 6896 6895 6894 ] final -130.03 input  -60.11 | X-H torsion
[ 7974 7965 7964 7962 ] final  145.38 input  175.53 | X-H torsion
[ 8008 7997 7996 7995 ] final   13.56 input   59.86 | X-H torsion
[ 10167 10162 10161 10158 ] final   97.59 input  -65.29 | X-H torsion
[ 10718 10713 10712 10709 ] final -135.03 input   66.30 | X-H torsion
[ 10763 10752 10751 10750 ] final  -44.25 input  -60.55 | X-H torsion
[ 11005 11000 10999 10996 ] final -118.49 input  -57.11 | X-H torsion

> <Gold.Protein.ActiveResidues>
 VAL166  LYS551  ARG553  GLY616  TRP617  ASP618  TYR619  PRO620  LYS621  CYS622 
 ASP623  PHE694  ASN695  SER759  ASP760  ASP761  ALA762  ILE779  LEU786  VAL792 
 PHE793  MET794  SER795  GLU796  ALA797  LYS798  CYS799  TRP800  GLU811  SER814 

> <Gold.Protein.RotatedAtoms>
  150.9352  133.6720  159.2801 H   0  0  0  0  0  0  0  0  0  0  0  0  # atno 6907 bound_to 6896
  151.4128  135.0986  159.9600 H   0  0  0  0  0  0  0  0  0  0  0  0  # atno 6908 bound_to 6896
  152.5044  133.8822  159.7407 H   0  0  0  0  0  0  0  0  0  0  0  0  # atno 6909 bound_to 6896
  144.8757  139.5777  143.5866 H   0  0  0  0  0  0  0  0  0  0  0  0  # atno 7974 bound_to 7965
  154.8362  140.2907  155.5689 H   0  0  0  0  0  0  0  0  0  0  0  0  # atno 8008 bound_to 7997
  156.3009  140.2522  156.3227 H   0  0  0  0  0  0  0  0  0  0  0  0  # atno 8009 bound_to 7997
  154.9176  140.0387  157.1970 H   0  0  0  0  0  0  0  0  0  0  0  0  # atno 8010 bound_to 7997
  139.7787  144.6896  151.0053 H   0  0  0  0  0  0  0  0  0  0  0  0  # atno 10167 bound_to 10162
  156.2618  130.7214  151.1150 H   0  0  0  0  0  0  0  0  0  0  0  0  # atno 10718 bound_to 10713
  154.0089  135.6684  153.4764 H   0  0  0  0  0  0  0  0  0  0  0  0  # atno 10763 bound_to 10752
  153.0629  135.5017  154.8131 H   0  0  0  0  0  0  0  0  0  0  0  0  # atno 10764 bound_to 10752
  154.7007  135.3078  154.9308 H   0  0  0  0  0  0  0  0  0  0  0  0  # atno 10765 bound_to 10752
  141.0282  134.0022  157.3183 H   0  0  0  0  0  0  0  0  0  0  0  0  # atno 11005 bound_to 11000
  146.2961  139.7282  142.9126 LP  0  0  0  0  0  0  0  0  0  0  0  0  # atno 17320 bound_to 7965
  145.4047  141.0389  143.3050 LP  0  0  0  0  0  0  0  0  0  0  0  0  # atno 17321 bound_to 7965
  140.7817  143.4507  151.0417 LP  0  0  0  0  0  0  0  0  0  0  0  0  # atno 17342 bound_to 10162
  139.8188  143.7848  152.3176 LP  0  0  0  0  0  0  0  0  0  0  0  0  # atno 17343 bound_to 10162
  157.7253  131.0654  150.5959 LP  0  0  0  0  0  0  0  0  0  0  0  0  # atno 17370 bound_to 10713
  156.6047  130.4364  149.5883 LP  0  0  0  0  0  0  0  0  0  0  0  0  # atno 17371 bound_to 10713
  139.9190  135.0199  156.7991 LP  0  0  0  0  0  0  0  0  0  0  0  0  # atno 17394 bound_to 11000
  140.6454  133.9780  155.7728 LP  0  0  0  0  0  0  0  0  0  0  0  0  # atno 17395 bound_to 11000

$$$$
