#       Name:                AV-unprocessed.smi:2837
#       Creating user name   scv26
#       Creation time:       Fri Mar 27 15:37:10 2020


#       File generated by GOLD software.
#

@<TRIPOS>MOLECULE
AV-unprocessed.smi:2837
    37    39     1
SMALL
NO_CHARGES


@<TRIPOS>ATOM
      1 ****        -5.5489   2.5767  -0.5224 F              1 S1                 0.0000
      2 ****        -5.4453   1.5876   0.3988 C.3            1 S1                 0.0000
      3 ****        -6.6970   1.1420   0.6630 F              1 S1                 0.0000
      4 ****        -4.6866   0.5675  -0.0828 O.3            1 S1                 0.0000
      5 ****        -3.3301   0.5721   0.1496 C.ar           1 S1                 0.0000
      6 ****        -2.5617   1.7516   0.2912 C.ar           1 S1                 0.0000
      7 ****        -1.1756   1.6422   0.5136 C.ar           1 S1                 0.0000
      8 ****        -0.5957   0.3589   0.5804 C.ar           1 S1                 0.0000
      9 ****         0.7840   0.2580   0.8091 N.pl3          1 S1                 0.0000
     10 ****         1.4851  -1.0136   0.6575 C.3            1 S1                 0.0000
     11 ****         2.9434  -0.9508   1.1177 C.3            1 S1                 0.0000
     12 ****         3.6880  -1.4703  -0.1200 C.3            1 S1                 0.0000
     13 ****         3.7234  -0.4198  -1.2376 C.3            1 S1                 0.0000
     14 ****         2.2783  -0.4437  -1.7318 C.3            1 S1                 0.0000
     15 ****         1.6409  -1.4897  -0.8013 C.3            1 S1                 0.0000
     16 ****         2.7350  -2.3783  -0.6471 O.3            1 S1                 0.0000
     17 ****        -1.3237  -0.7729   0.4368 N.ar           1 S1                 0.0000
     18 ****        -2.6516  -0.6610   0.2221 C.ar           1 S1                 0.0000
     19 ****        -5.0344   1.9939   1.3235 H              1 S1                 0.0000
     20 ****        -3.0144   2.7298   0.2277 H              1 S1                 0.0000
     21 ****        -0.5717   2.5309   0.6267 H              1 S1                 0.0000
     22 ****         1.3343   1.1023   0.8706 H              1 S1                 0.0000
     23 ****         0.9727  -1.7814   1.2391 H              1 S1                 0.0000
     24 ****         3.2740   0.0488   1.4039 H              1 S1                 0.0000
     25 ****         3.0973  -1.6133   1.9702 H              1 S1                 0.0000
     26 ****         4.6594  -1.9130   0.1016 H              1 S1                 0.0000
     27 ****         4.0310   0.5617  -0.8753 H              1 S1                 0.0000
     28 ****         4.4048  -0.7206  -2.0339 H              1 S1                 0.0000
     29 ****         1.7922   0.5307  -1.6797 H              1 S1                 0.0000
     30 ****         2.2392  -0.7810  -2.7681 H              1 S1                 0.0000
     31 ****         0.7459  -1.9568  -1.2129 H              1 S1                 0.0000
     32 ****        -3.1933  -1.5885   0.1088 H              1 S1                 0.0000
     33 ****        -4.8130   0.5523  -1.0746 LP             1 S1                 0.0000
     34 ****        -5.0478  -0.2771   0.3123 LP             1 S1                 0.0000
     35 ****         2.5291  -3.1187  -0.0072 LP             1 S1                 0.0000
     36 ****         3.0295  -2.7652  -1.5209 LP             1 S1                 0.0000
     37 ****        -0.8878  -1.6714   0.4886 LP             1 S1                 0.0000
@<TRIPOS>BOND
    1    1    2 1     
    2    2    3 1     
    3    2    4 1     
    4    2   19 1     
    5    4    5 1     
    6    5   18 ar    
    7    5    6 ar    
    8    6    7 ar    
    9    6   20 1     
   10    7    8 ar    
   11    7   21 1     
   12    8    9 1     
   13    8   17 ar    
   14    9   10 1     
   15    9   22 1     
   16   10   15 1     
   17   10   11 1     
   18   10   23 1     
   19   11   12 1     
   20   11   24 1     
   21   11   25 1     
   22   12   16 1     
   23   12   13 1     
   24   12   26 1     
   25   13   14 1     
   26   13   27 1     
   27   13   28 1     
   28   14   15 1     
   29   14   29 1     
   30   14   30 1     
   31   15   16 1     
   32   15   31 1     
   33   17   18 ar    
   34   18   32 1     
   35    4   33 1     
   36    4   34 1     
   37   16   35 1     
   38   16   36 1     
   39   17   37 1     
@<TRIPOS>SUBSTRUCTURE
      1 S1             1
@<TRIPOS>SET
LONE_PAIRS      STATIC     ATOMS    <user>   **** ""
5 33 34 35 36 37
DONOR_HYDROGENS      STATIC     ATOMS    <user>   **** ""
1 22
ATOM$BLUE        STATIC     ATOMS    COLORGROUP SYSTEM
5 33 34 35 36 37
ATOM$RED        STATIC     ATOMS    COLORGROUP SYSTEM
1 22
