AV-unprocessed.smi:1561|AV-procd|sdf|6283|dock3
  -GOLD-   22720 6483D 1   1.00000     0.00000
 Structure written by MMmdl.
 33 34  0  0  0  0  0  0  0  0  1 V2000
  151.9852  145.6156  159.5189 C   0  0  0  0  0  0  0  0  0  0  0  0
  152.0987  144.1072  159.2164 C   0  0  2  0  0  0  0  0  0  0  0  0
  150.7866  143.5062  158.6901 C   0  0  0  0  0  0  0  0  0  0  0  0
  149.7517  143.5753  159.3544 O   0  0  0  0  0  0  0  0  0  0  0  0
  150.8541  142.8959  157.4958 N   0  0  0  0  0  0  0  0  0  0  0  0
  149.7635  142.1715  156.8525 C   0  0  0  0  0  0  0  0  0  0  0  0
  150.2649  141.3536  155.6474 C   0  0  2  0  0  0  0  0  0  0  0  0
  149.1716  140.5664  154.9361 C   0  0  0  0  0  0  0  0  0  0  0  0
  149.8659  139.2782  154.4799 C   0  0  0  0  0  0  0  0  0  0  0  0
  151.2336  139.4308  154.8350 O   0  0  0  0  0  0  0  0  0  0  0  0
  151.2889  140.2680  155.9766 C   0  0  0  0  0  0  0  0  0  0  0  0
  152.5683  143.3432  160.3672 N   0  0  0  0  0  0  0  0  0  0  0  0
  153.0297  142.0424  160.3895 C   0  0  0  0  0  0  0  0  0  0  0  0
  153.3110  141.7275  161.6879 C   0  0  0  0  0  0  0  0  0  0  0  0
  152.9718  142.9091  162.4029 C   0  0  0  0  0  0  0  0  0  0  0  0
  152.5202  143.8695  161.6135 N   0  0  0  0  0  0  0  0  0  0  0  0
  151.6843  146.1719  158.6306 H   0  0  0  0  0  0  0  0  0  0  0  0
  152.9439  146.0185  159.8465 H   0  0  0  0  0  0  0  0  0  0  0  0
  151.2547  145.8251  160.3015 H   0  0  0  0  0  0  0  0  0  0  0  0
  152.8468  143.9942  158.4300 H   0  0  0  0  0  0  0  0  0  0  0  0
  151.7435  142.8928  157.0179 H   0  0  0  0  0  0  0  0  0  0  0  0
  149.2454  141.5283  157.5660 H   0  0  0  0  0  0  0  0  0  0  0  0
  149.0301  142.9045  156.5155 H   0  0  0  0  0  0  0  0  0  0  0  0
  150.7183  142.0304  154.9213 H   0  0  0  0  0  0  0  0  0  0  0  0
  148.3475  140.3252  155.6089 H   0  0  0  0  0  0  0  0  0  0  0  0
  148.7616  141.1295  154.0971 H   0  0  0  0  0  0  0  0  0  0  0  0
  149.4523  138.4147  155.0027 H   0  0  0  0  0  0  0  0  0  0  0  0
  149.7634  139.1072  153.4080 H   0  0  0  0  0  0  0  0  0  0  0  0
  152.2924  140.6654  156.1321 H   0  0  0  0  0  0  0  0  0  0  0  0
  150.9993  139.7010  156.8631 H   0  0  0  0  0  0  0  0  0  0  0  0
  153.1170  141.4536  159.4883 H   0  0  0  0  0  0  0  0  0  0  0  0
  153.6943  140.7929  162.0698 H   0  0  0  0  0  0  0  0  0  0  0  0
  153.0349  143.0946  163.4651 H   0  0  0  0  0  0  0  0  0  0  0  0
  1  2  1  0  0  0  0
  1 17  1  0  0  0  0
  1 18  1  0  0  0  0
  1 19  1  0  0  0  0
  2  3  1  0  0  0  0
  2 12  1  0  0  0  0
  2 20  1  0  0  0  0
  3  4  2  0  0  0  0
  3  5  1  0  0  0  0
  5  6  1  0  0  0  0
  5 21  1  0  0  0  0
  6  7  1  0  0  0  0
  6 22  1  0  0  0  0
  6 23  1  0  0  0  0
  7 11  1  0  0  0  0
  7  8  1  0  0  0  0
  7 24  1  0  0  0  0
  8  9  1  0  0  0  0
  8 25  1  0  0  0  0
  8 26  1  0  0  0  0
  9 10  1  0  0  0  0
  9 27  1  0  0  0  0
  9 28  1  0  0  0  0
 10 11  1  0  0  0  0
 11 29  1  0  0  0  0
 11 30  1  0  0  0  0
 12 16  1  0  0  0  0
 12 13  1  0  0  0  0
 13 14  2  0  0  0  0
 13 31  1  0  0  0  0
 14 15  1  0  0  0  0
 14 32  1  0  0  0  0
 15 16  2  0  0  0  0
 15 33  1  0  0  0  0
M  END
> <s_m_source_file>
AV-unprocessed.smi

> <i_m_source_file_index>
1561

> <i_lp_mmshare_version>
43012

> <i_f3d_flags>
0

> <s_epik_input>
bjFbY0hdW2NIXVtjSF1uMVtDQEhdKFtDSDNdKUMoPU8pW05IXVtDSDJdW0NAQEhdMltDSDJdW0NIMl1PW0NIMl0y

> <s_epik_cmdline>
J2VwaWtfcHl0aG9uJywgJy1waCcsICc3LjAnLCAnLXRuJywgJzgnLCAnLW1hJywgJzIwMCcsICctbWV0YWxfYmluZGluZycsICctaW1hZScsICc8aW5maWxlLm1hZT4nLCAnLW9tYWUnLCAnPG91dGZpbGUubWFlPic=

> <r_lp_tautomer_probability>
1

> <r_epik_Ionization_Penalty>
3.82077e-05

> <r_epik_Ionization_Penalty_Charging>
0

> <r_epik_Ionization_Penalty_Neutral>
3.82077e-05

> <r_epik_State_Penalty>
-0

> <r_epik_Charging_Adjusted_Penalty>
0

> <i_epik_Tot_Q>
0

> <i_epik_Tot_abs_Q>
0

> <r_epik_Metal_State_Penalty>
-0

> <b_epik_Metal_Only>
0

> <s_lp_Force_Field>
OPLS_2005

> <r_lp_Energy>
22.2594

> <b_lp_Chiralities_Consistent>
1

> <s_lp_Variant>
AV-unprocessed.smi:1561-1

> <Gold.Version>
5.8.1

> <Gold.Id.Protein>
6NUR|6NUR_protein|mol2

> <Gold.PLP.Fitness>
44.9388

> <Gold.PLP.PLP>
-42.5563

> <Gold.PLP.part.hbond>
-2.1739

> <Gold.PLP.part.metal>
0.0000

> <Gold.PLP.part.buried>
-5.4083

> <Gold.PLP.part.nonpolar>
-35.5666

> <Gold.PLP.part.repulsive>
0.3319

> <Gold.PLP.ligand.clash>
0.0000

> <Gold.PLP.ligand.torsion>
0.4272

> <Gold.PLP.Chemscore.Hbond>
1.0416

> <Gold.PLP.Chemscore.CHOScore>
0.0000

> <Gold.PLP.Chemscore.Metal>
0.0000

> <Gold.Chemscore.Hbonds>
donor molecule, donor type, donor heavy atom, donor atom, acceptor molecule, acceptor atom, score
      P1  H  7989  7998       L1    10  0.64

> <Gold.PLP.Chemscore.Internal.Correction>
0.1121

> <Gold.Rescore>
     Score         DG    S(hbond)    S(metal)    S(lipo)     H(rot)  DE(clash)    DE(int)     intcor
     14.36     -14.64       0.91        0.00      87.55       1.61       0.00       0.28       ----

> <Gold.Chemscore.Fitness>
14.3577

> <Gold.Chemscore.DG>
-14.6406

> <Gold.Chemscore.ZeroCoef>
-5.4800

> <Gold.Chemscore.Hbond>
0.9094

> <Gold.Chemscore.Metal>
0.0000

> <Gold.Chemscore.Lipo>
87.5492

> <Gold.Chemscore.Internal_Hbond>
0.0000

> <Gold.Chemscore.DEClash>
0.0000

> <Gold.Chemscore.DEInternal>
0.2829

> <Gold.Chemscore.Rot>
1.6094

> <Gold.Chemscore.Internal.Correction>
   9.000000E+99

> <Gold.Chemscore.Hbonds>
donor molecule, donor type, donor heavy atom, donor atom, acceptor molecule, acceptor atom, score
      P1  H  7989  7998       L1    10  0.01

> <Gold.Chemscore.Hbond.Weighted>
-3.0374

> <Gold.Chemscore.Metal.Weighted>
-0.0000

> <Gold.Chemscore.Lipo.Weighted>
-10.2433

> <Gold.Chemscore.Internal_Hbond.Weighted>
0.0000

> <Gold.Chemscore.DEClash.Weighted>
0.0000

> <Gold.Chemscore.DEInternal.Weighted>
0.2829

> <Gold.Chemscore.Rot.Weighted>
4.1201

> <Gold.Chemscore.Internal.Correction.Weighted>
   9.000000E+99

> <Gold.Protein.RotatedTorsions>
[ 6907 6896 6895 6894 ] final   -2.64 input  -60.11 | X-H torsion
[ 7974 7965 7964 7962 ] final -174.01 input  175.53 | X-H torsion
[ 8008 7997 7996 7995 ] final  -42.75 input   59.86 | X-H torsion
[ 10167 10162 10161 10158 ] final   16.03 input  -65.29 | X-H torsion
[ 10718 10713 10712 10709 ] final  -40.89 input   66.30 | X-H torsion
[ 10763 10752 10751 10750 ] final -117.58 input  -60.55 | X-H torsion
[ 11005 11000 10999 10996 ] final  123.44 input  -57.11 | X-H torsion

> <Gold.Protein.ActiveResidues>
 VAL166  LYS551  ARG553  GLY616  TRP617  ASP618  TYR619  PRO620  LYS621  CYS622 
 ASP623  PHE694  ASN695  SER759  ASP760  ASP761  ALA762  ILE779  LEU786  VAL792 
 PHE793  MET794  SER795  GLU796  ALA797  LYS798  CYS799  TRP800  GLU811  SER814 

> <Gold.Protein.RotatedAtoms>
  151.5266  135.1068  159.9891 H   0  0  0  0  0  0  0  0  0  0  0  0  # atno 6907 bound_to 6896
  152.4597  133.7792  159.6852 H   0  0  0  0  0  0  0  0  0  0  0  0  # atno 6908 bound_to 6896
  150.8554  133.7658  159.3035 H   0  0  0  0  0  0  0  0  0  0  0  0  # atno 6909 bound_to 6896
  144.7134  140.1535  143.6382 H   0  0  0  0  0  0  0  0  0  0  0  0  # atno 7974 bound_to 7965
  154.3998  140.1465  156.3406 H   0  0  0  0  0  0  0  0  0  0  0  0  # atno 8008 bound_to 7997
  155.8360  140.3464  155.5581 H   0  0  0  0  0  0  0  0  0  0  0  0  # atno 8009 bound_to 7997
  155.8138  140.0888  157.1879 H   0  0  0  0  0  0  0  0  0  0  0  0  # atno 8010 bound_to 7997
  140.5826  143.8952  150.6802 H   0  0  0  0  0  0  0  0  0  0  0  0  # atno 10167 bound_to 10162
  156.2763  130.4212  149.8384 H   0  0  0  0  0  0  0  0  0  0  0  0  # atno 10718 bound_to 10713
  154.8559  135.4304  154.2002 H   0  0  0  0  0  0  0  0  0  0  0  0  # atno 10763 bound_to 10752
  153.3051  135.6971  153.7173 H   0  0  0  0  0  0  0  0  0  0  0  0  # atno 10764 bound_to 10752
  153.6288  135.3488  155.3009 H   0  0  0  0  0  0  0  0  0  0  0  0  # atno 10765 bound_to 10752
  139.9312  134.9641  156.8259 H   0  0  0  0  0  0  0  0  0  0  0  0  # atno 11005 bound_to 11000
  145.9095  139.2478  143.1446 LP  0  0  0  0  0  0  0  0  0  0  0  0  # atno 17320 bound_to 7965
  145.9731  140.8744  143.0152 LP  0  0  0  0  0  0  0  0  0  0  0  0  # atno 17321 bound_to 7965
  140.2455  143.3632  152.1450 LP  0  0  0  0  0  0  0  0  0  0  0  0  # atno 17342 bound_to 10162
  139.5178  144.6997  151.5528 LP  0  0  0  0  0  0  0  0  0  0  0  0  # atno 17343 bound_to 10162
  156.5847  130.8481  151.3392 LP  0  0  0  0  0  0  0  0  0  0  0  0  # atno 17370 bound_to 10713
  157.7300  130.9679  150.1814 LP  0  0  0  0  0  0  0  0  0  0  0  0  # atno 17371 bound_to 10713
  140.6196  134.0006  155.7612 LP  0  0  0  0  0  0  0  0  0  0  0  0  # atno 17394 bound_to 11000
  141.0902  133.9928  157.3249 LP  0  0  0  0  0  0  0  0  0  0  0  0  # atno 17395 bound_to 11000

$$$$
