AV-unprocessed.smi:1453|AV-procd|sdf|5912|dock10
  -GOLD-   22720 5593D 1   1.00000     0.00000
 Structure written by MMmdl.
 43 44  0  0  0  0  0  0  0  0  1 V2000
  148.9026  134.4501  154.4409 C   0  0  0  0  0  0  0  0  0  0  0  0
  149.4864  135.1506  155.6785 C   0  0  1  0  0  0  0  0  0  0  0  0
  150.3154  136.3839  155.2949 C   0  0  0  0  0  0  0  0  0  0  0  0
  151.4790  136.4999  155.6803 O   0  0  0  0  0  0  0  0  0  0  0  0
  149.7001  137.3062  154.5375 N   0  0  0  0  0  0  0  0  0  0  0  0
  150.3120  138.5465  154.0711 C   0  0  0  0  0  0  0  0  0  0  0  0
  150.7592  139.4857  155.1827 C   0  0  0  0  0  0  0  0  0  0  0  0
  150.0161  140.6473  155.4685 C   0  0  0  0  0  0  0  0  0  0  0  0
  150.4415  141.4948  156.5092 C   0  0  0  0  0  0  0  0  0  0  0  0
  151.6012  141.1561  157.2462 C   0  0  0  0  0  0  0  0  0  0  0  0
  152.0444  141.9891  158.2968 N   0  0  0  0  0  0  0  0  0  0  0  0
  151.3874  143.2904  158.3922 C   0  0  0  0  0  0  0  0  0  0  0  0
  152.1533  144.2083  159.3604 C   0  0  0  0  0  0  0  0  0  0  0  0
  152.2944  143.5671  160.6236 O   0  0  0  0  0  0  0  0  0  0  0  0
  153.0379  142.3573  160.5219 C   0  0  0  0  0  0  0  0  0  0  0  0
  152.3021  141.3730  159.5973 C   0  0  0  0  0  0  0  0  0  0  0  0
  152.3154  140.0374  156.9672 N   0  0  0  0  0  0  0  0  0  0  0  0
  151.9028  139.2284  155.9689 C   0  0  0  0  0  0  0  0  0  0  0  0
  148.1191  135.6359  156.8337 S   0  0  0  0  0  0  0  0  0  0  0  0
  146.6096  135.0251  155.9716 C   0  0  0  0  0  0  0  0  0  0  0  0
  148.2625  134.8828  158.0891 O   0  0  0  0  0  0  0  0  0  0  0  0
  148.0594  137.1048  156.8775 O   0  0  0  0  0  0  0  0  0  0  0  0
  149.6844  134.1860  153.7278 H   0  0  0  0  0  0  0  0  0  0  0  0
  148.1788  135.0830  153.9259 H   0  0  0  0  0  0  0  0  0  0  0  0
  148.3915  133.5293  154.7220 H   0  0  0  0  0  0  0  0  0  0  0  0
  150.1211  134.4415  156.2111 H   0  0  0  0  0  0  0  0  0  0  0  0
  148.7423  137.1398  154.2649 H   0  0  0  0  0  0  0  0  0  0  0  0
  151.1562  138.3175  153.4182 H   0  0  0  0  0  0  0  0  0  0  0  0
  149.5819  139.0722  153.4556 H   0  0  0  0  0  0  0  0  0  0  0  0
  149.1327  140.8911  154.8968 H   0  0  0  0  0  0  0  0  0  0  0  0
  149.8844  142.3955  156.7188 H   0  0  0  0  0  0  0  0  0  0  0  0
  151.3175  143.7804  157.4223 H   0  0  0  0  0  0  0  0  0  0  0  0
  150.3668  143.1434  158.7477 H   0  0  0  0  0  0  0  0  0  0  0  0
  153.1350  144.4645  158.9587 H   0  0  0  0  0  0  0  0  0  0  0  0
  151.6117  145.1445  159.4964 H   0  0  0  0  0  0  0  0  0  0  0  0
  154.0423  142.5646  160.1488 H   0  0  0  0  0  0  0  0  0  0  0  0
  153.1509  141.9252  161.5162 H   0  0  0  0  0  0  0  0  0  0  0  0
  151.3559  141.0728  160.0494 H   0  0  0  0  0  0  0  0  0  0  0  0
  152.9062  140.4733  159.4752 H   0  0  0  0  0  0  0  0  0  0  0  0
  152.5066  138.3488  155.8018 H   0  0  0  0  0  0  0  0  0  0  0  0
  145.7271  135.3375  156.5294 H   0  0  0  0  0  0  0  0  0  0  0  0
  146.6275  133.9371  155.9160 H   0  0  0  0  0  0  0  0  0  0  0  0
  146.5667  135.4439  154.9667 H   0  0  0  0  0  0  0  0  0  0  0  0
  1  2  1  0  0  0  0
  1 23  1  0  0  0  0
  1 24  1  0  0  0  0
  1 25  1  0  0  0  0
  2  3  1  0  0  0  0
  2 19  1  0  0  0  0
  2 26  1  0  0  0  0
  3  4  2  0  0  0  0
  3  5  1  0  0  0  0
  5  6  1  0  0  0  0
  5 27  1  0  0  0  0
  6  7  1  0  0  0  0
  6 28  1  0  0  0  0
  6 29  1  0  0  0  0
  7 18  1  0  0  0  0
  7  8  2  0  0  0  0
  8  9  1  0  0  0  0
  8 30  1  0  0  0  0
  9 10  2  0  0  0  0
  9 31  1  0  0  0  0
 10 11  1  0  0  0  0
 10 17  1  0  0  0  0
 11 16  1  0  0  0  0
 11 12  1  0  0  0  0
 12 13  1  0  0  0  0
 12 32  1  0  0  0  0
 12 33  1  0  0  0  0
 13 14  1  0  0  0  0
 13 34  1  0  0  0  0
 13 35  1  0  0  0  0
 14 15  1  0  0  0  0
 15 16  1  0  0  0  0
 15 36  1  0  0  0  0
 15 37  1  0  0  0  0
 16 38  1  0  0  0  0
 16 39  1  0  0  0  0
 17 18  2  0  0  0  0
 18 40  1  0  0  0  0
 19 20  1  0  0  0  0
 19 21  2  0  0  0  0
 19 22  2  0  0  0  0
 20 41  1  0  0  0  0
 20 42  1  0  0  0  0
 20 43  1  0  0  0  0
M  END
> <s_m_source_file>
AV-unprocessed.smi

> <i_m_source_file_index>
1453

> <i_lp_mmshare_version>
43012

> <i_f3d_flags>
0

> <s_epik_input>
W0NIM11TKD1PKSg9TylbQ0BIXShbQ0gzXSlDKD1PKVtOSF1bQ0gyXWMxW2NIXVtjSF1jKG5bY0hdMSlOMltDSDJdW0NIMl1PW0NIMl1bQ0gyXTI=

> <s_epik_cmdline>
J2VwaWtfcHl0aG9uJywgJy1waCcsICc3LjAnLCAnLXRuJywgJzgnLCAnLW1hJywgJzIwMCcsICctbWV0YWxfYmluZGluZycsICctaW1hZScsICc8aW5maWxlLm1hZT4nLCAnLW9tYWUnLCAnPG91dGZpbGUubWFlPic=

> <r_lp_tautomer_probability>
1

> <r_epik_Ionization_Penalty>
0.00349781

> <r_epik_Ionization_Penalty_Charging>
0

> <r_epik_Ionization_Penalty_Neutral>
0.00349781

> <r_epik_State_Penalty>
0.00248024

> <r_epik_Charging_Adjusted_Penalty>
0.00248024

> <i_epik_Tot_Q>
0

> <i_epik_Tot_abs_Q>
0

> <r_epik_Metal_State_Penalty>
-0

> <b_epik_Metal_Only>
0

> <s_lp_Force_Field>
OPLS_2005

> <r_lp_Energy>
14.4852

> <b_lp_Chiralities_Consistent>
1

> <s_lp_Variant>
AV-unprocessed.smi:1453-2

> <Gold.Version>
5.8.1

> <Gold.Id.Protein>
6NUR|6NUR_protein|mol2

> <Gold.PLP.Fitness>
46.5844

> <Gold.PLP.PLP>
-38.1235

> <Gold.PLP.part.hbond>
-4.0000

> <Gold.PLP.part.metal>
0.0000

> <Gold.PLP.part.buried>
-4.5739

> <Gold.PLP.part.nonpolar>
-29.9119

> <Gold.PLP.part.repulsive>
0.1575

> <Gold.PLP.ligand.clash>
0.0000

> <Gold.PLP.ligand.torsion>
0.5209

> <Gold.PLP.Chemscore.Hbond>
3.0000

> <Gold.PLP.Chemscore.CHOScore>
0.0000

> <Gold.PLP.Chemscore.Metal>
0.0000

> <Gold.Chemscore.Hbonds>
donor molecule, donor type, donor heavy atom, donor atom, acceptor molecule, acceptor atom, score
      P1  H  7997  8010       L1    17  0.86
      P1  H 10752 10764       L1     4  1.00

> <Gold.PLP.Chemscore.Internal.Correction>
0.5027

> <Gold.Rescore>
     Score         DG    S(hbond)    S(metal)    S(lipo)     H(rot)  DE(clash)    DE(int)     intcor
     16.69     -19.23       2.76        0.00      84.02       2.08       0.10       2.43       ----

> <Gold.Chemscore.Fitness>
16.6918

> <Gold.Chemscore.DG>
-19.2251

> <Gold.Chemscore.ZeroCoef>
-5.4800

> <Gold.Chemscore.Hbond>
2.7636

> <Gold.Chemscore.Metal>
0.0000

> <Gold.Chemscore.Lipo>
84.0175

> <Gold.Chemscore.Internal_Hbond>
0.0000

> <Gold.Chemscore.DEClash>
0.1036

> <Gold.Chemscore.DEInternal>
2.4297

> <Gold.Chemscore.Rot>
2.0764

> <Gold.Chemscore.Internal.Correction>
   9.000000E+99

> <Gold.Chemscore.Hbonds>
donor molecule, donor type, donor heavy atom, donor atom, acceptor molecule, acceptor atom, score
      P1  H  7997  8010       L1    17  0.28
      P1  H 10752 10764       L1     4  0.94

> <Gold.Chemscore.Hbond.Weighted>
-9.2306

> <Gold.Chemscore.Metal.Weighted>
-0.0000

> <Gold.Chemscore.Lipo.Weighted>
-9.8300

> <Gold.Chemscore.Internal_Hbond.Weighted>
0.0000

> <Gold.Chemscore.DEClash.Weighted>
0.1036

> <Gold.Chemscore.DEInternal.Weighted>
2.4297

> <Gold.Chemscore.Rot.Weighted>
5.3155

> <Gold.Chemscore.Internal.Correction.Weighted>
   9.000000E+99

> <Gold.Protein.RotatedTorsions>
[ 6907 6896 6895 6894 ] final   27.98 input  -60.11 | X-H torsion
[ 7974 7965 7964 7962 ] final   67.71 input  175.53 | X-H torsion
[ 8008 7997 7996 7995 ] final   59.60 input   59.86 | X-H torsion
[ 10167 10162 10161 10158 ] final   -6.15 input  -65.29 | X-H torsion
[ 10718 10713 10712 10709 ] final  149.91 input   66.30 | X-H torsion
[ 10763 10752 10751 10750 ] final  -34.41 input  -60.55 | X-H torsion
[ 11005 11000 10999 10996 ] final -140.11 input  -57.11 | X-H torsion

> <Gold.Protein.ActiveResidues>
 VAL166  LYS551  ARG553  GLY616  TRP617  ASP618  TYR619  PRO620  LYS621  CYS622 
 ASP623  PHE694  ASN695  SER759  ASP760  ASP761  ALA762  ILE779  LEU786  VAL792 
 PHE793  MET794  SER795  GLU796  ALA797  LYS798  CYS799  TRP800  GLU811  SER814 

> <Gold.Protein.RotatedAtoms>
  152.0102  134.9880  160.0567 H   0  0  0  0  0  0  0  0  0  0  0  0  # atno 6907 bound_to 6896
  152.1436  133.4474  159.4787 H   0  0  0  0  0  0  0  0  0  0  0  0  # atno 6908 bound_to 6896
  150.6867  134.2194  159.4434 H   0  0  0  0  0  0  0  0  0  0  0  0  # atno 6909 bound_to 6896
  145.8113  139.3034  143.1097 H   0  0  0  0  0  0  0  0  0  0  0  0  # atno 7974 bound_to 7965
  155.5688  140.3489  155.4510 H   0  0  0  0  0  0  0  0  0  0  0  0  # atno 8008 bound_to 7997
  156.0460  140.1306  157.0129 H   0  0  0  0  0  0  0  0  0  0  0  0  # atno 8009 bound_to 7997
  154.4412  140.1014  156.6291 H   0  0  0  0  0  0  0  0  0  0  0  0  # atno 8010 bound_to 7997
  140.6987  143.6227  150.8597 H   0  0  0  0  0  0  0  0  0  0  0  0  # atno 10167 bound_to 10162
  157.2902  131.0852  151.1468 H   0  0  0  0  0  0  0  0  0  0  0  0  # atno 10718 bound_to 10713
  153.8463  135.6853  153.4797 H   0  0  0  0  0  0  0  0  0  0  0  0  # atno 10763 bound_to 10752
  153.1424  135.4652  154.9513 H   0  0  0  0  0  0  0  0  0  0  0  0  # atno 10764 bound_to 10752
  154.7822  135.3273  154.7911 H   0  0  0  0  0  0  0  0  0  0  0  0  # atno 10765 bound_to 10752
  140.8454  134.2351  157.4788 H   0  0  0  0  0  0  0  0  0  0  0  0  # atno 11005 bound_to 11000
  145.9774  140.8711  143.0132 LP  0  0  0  0  0  0  0  0  0  0  0  0  # atno 17320 bound_to 7965
  144.6757  140.2031  143.7385 LP  0  0  0  0  0  0  0  0  0  0  0  0  # atno 17321 bound_to 7965
  139.9947  143.5809  152.2897 LP  0  0  0  0  0  0  0  0  0  0  0  0  # atno 17342 bound_to 10162
  139.6477  144.7659  151.2211 LP  0  0  0  0  0  0  0  0  0  0  0  0  # atno 17343 bound_to 10162
  157.2867  130.6776  149.6093 LP  0  0  0  0  0  0  0  0  0  0  0  0  # atno 17370 bound_to 10713
  155.9667  130.4433  150.5416 LP  0  0  0  0  0  0  0  0  0  0  0  0  # atno 17371 bound_to 10713
  139.8703  134.9657  156.4536 LP  0  0  0  0  0  0  0  0  0  0  0  0  # atno 17394 bound_to 11000
  140.8849  133.7891  155.9507 LP  0  0  0  0  0  0  0  0  0  0  0  0  # atno 17395 bound_to 11000

$$$$
