AV-unprocessed.smi:1|AV-procd|sdf|12|dock5
  -GOLD-   2262015103D 1   1.00000     0.00000
 Structure written by MMmdl.
 57 62  0  0  0  0  0  0  0  0  1 V2000
  141.9148  134.5530  158.9972 O   0  0  0  0  0  0  0  0  0  0  0  0
  142.8941  133.9454  159.4387 C   0  0  0  0  0  0  0  0  0  0  0  0
  144.1958  134.3984  159.6092 N   0  0  0  0  0  0  0  0  0  0  0  0
  144.6127  135.4435  158.9607 C   0  0  0  0  0  0  0  0  0  0  0  0
  143.9902  136.2959  158.0401 N   0  0  0  0  0  0  0  0  0  0  0  0
  144.5803  137.4062  157.4183 C   0  0  0  0  0  0  0  0  0  0  0  0
  145.8082  137.8057  157.6133 N   0  0  0  0  0  0  0  0  0  0  0  0
  146.4768  136.9923  158.5172 C   0  0  0  0  0  0  0  0  0  0  0  0
  146.0075  135.8816  159.1867 C   0  0  0  0  0  0  0  0  0  0  0  0
  146.9944  135.3410  160.0029 N   0  0  0  0  0  0  0  0  0  0  0  0
  148.0247  136.1544  159.7897 C   0  0  0  0  0  0  0  0  0  0  0  0
  147.7994  137.1634  158.9275 N   0  0  0  0  0  0  0  0  0  0  0  0
  148.7999  138.1988  158.5163 C   0  0  1  0  0  0  0  0  0  0  0  0
  149.8910  138.1558  159.3880 O   0  0  0  0  0  0  0  0  0  0  0  0
  151.0830  137.8034  158.6903 C   0  0  2  0  0  0  0  0  0  0  0  0
  152.3104  138.4634  159.3293 C   0  0  0  0  0  0  0  0  0  0  0  0
  152.0557  139.8486  159.4926 O   0  0  0  0  0  0  0  0  0  0  0  0
  152.9140  140.6152  160.1915 C   0  0  0  0  0  0  0  0  0  0  0  0
  153.9374  140.1815  160.7247 O   0  0  0  0  0  0  0  0  0  0  0  0
  152.4965  142.0458  160.2512 C   0  0  0  0  0  0  0  0  0  0  0  0
  152.3597  142.6758  161.5103 C   0  0  0  0  0  0  0  0  0  0  0  0
  151.9717  144.0268  161.5981 C   0  0  0  0  0  0  0  0  0  0  0  0
  151.7155  144.7646  160.4277 C   0  0  0  0  0  0  0  0  0  0  0  0
  151.8473  144.1492  159.1693 C   0  0  0  0  0  0  0  0  0  0  0  0
  152.2351  142.7981  159.0793 C   0  0  0  0  0  0  0  0  0  0  0  0
  150.8135  138.2284  157.2479 C   0  0  2  0  0  0  0  0  0  0  0  0
  151.0396  139.6167  157.0673 O   0  0  0  0  0  0  0  0  0  0  0  0
  149.7945  140.2372  156.1430 S   0  0  0  0  0  0  0  0  0  0  0  0
  149.1648  141.3332  156.8950 O   0  0  0  0  0  0  0  0  0  0  0  0
  150.2784  140.3977  154.7634 O   0  0  0  0  0  0  0  0  0  0  0  0
  148.7748  138.9131  156.1885 O   0  0  0  0  0  0  0  0  0  0  0  0
  149.3142  137.9608  157.0886 C   0  0  2  0  0  0  0  0  0  0  0  0
  142.7098  132.5167  159.8345 C   0  0  0  0  0  0  0  0  0  0  0  0
  141.5004  131.8515  159.5413 C   0  0  0  0  0  0  0  0  0  0  0  0
  141.3293  130.5026  159.9095 C   0  0  0  0  0  0  0  0  0  0  0  0
  142.3662  129.8150  160.5692 C   0  0  0  0  0  0  0  0  0  0  0  0
  143.5753  130.4758  160.8606 C   0  0  0  0  0  0  0  0  0  0  0  0
  143.7481  131.8247  160.4931 C   0  0  0  0  0  0  0  0  0  0  0  0
  143.9170  137.9355  156.7327 H   0  0  0  0  0  0  0  0  0  0  0  0
  148.9766  136.0109  160.2794 H   0  0  0  0  0  0  0  0  0  0  0  0
  148.2853  139.1534  158.6360 H   0  0  0  0  0  0  0  0  0  0  0  0
  151.2001  136.7205  158.7142 H   0  0  0  0  0  0  0  0  0  0  0  0
  152.5030  138.0195  160.3071 H   0  0  0  0  0  0  0  0  0  0  0  0
  153.1971  138.3064  158.7134 H   0  0  0  0  0  0  0  0  0  0  0  0
  152.5521  142.1300  162.4228 H   0  0  0  0  0  0  0  0  0  0  0  0
  151.8716  144.4972  162.5652 H   0  0  0  0  0  0  0  0  0  0  0  0
  151.4193  145.8009  160.4958 H   0  0  0  0  0  0  0  0  0  0  0  0
  151.6517  144.7147  158.2700 H   0  0  0  0  0  0  0  0  0  0  0  0
  152.3278  142.3572  158.0975 H   0  0  0  0  0  0  0  0  0  0  0  0
  151.4161  137.6722  156.5289 H   0  0  0  0  0  0  0  0  0  0  0  0
  149.1226  136.9381  156.7633 H   0  0  0  0  0  0  0  0  0  0  0  0
  140.7008  132.3720  159.0344 H   0  0  0  0  0  0  0  0  0  0  0  0
  140.4026  129.9951  159.6853 H   0  0  0  0  0  0  0  0  0  0  0  0
  142.2342  128.7808  160.8510 H   0  0  0  0  0  0  0  0  0  0  0  0
  144.3706  129.9480  161.3658 H   0  0  0  0  0  0  0  0  0  0  0  0
  144.6792  132.3245  160.7183 H   0  0  0  0  0  0  0  0  0  0  0  0
  143.0295  136.0911  157.8048 H   0  0  0  0  0  0  0  0  0  0  0  0
  1  2  2  0  0  0  0
  2  3  1  0  0  0  0
  2 33  1  0  0  0  0
  3  4  2  0  0  0  0
  4  9  1  0  0  0  0
  4  5  1  0  0  0  0
  5  6  1  0  0  0  0
  5 57  1  0  0  0  0
  6  7  2  0  0  0  0
  6 39  1  0  0  0  0
  7  8  1  0  0  0  0
  8 12  1  0  0  0  0
  8  9  2  0  0  0  0
  9 10  1  0  0  0  0
 10 11  2  0  0  0  0
 11 12  1  0  0  0  0
 11 40  1  0  0  0  0
 12 13  1  0  0  0  0
 13 32  1  0  0  0  0
 13 14  1  0  0  0  0
 13 41  1  0  0  0  0
 14 15  1  0  0  0  0
 15 16  1  0  0  0  0
 15 26  1  0  0  0  0
 15 42  1  0  0  0  0
 16 17  1  0  0  0  0
 16 43  1  0  0  0  0
 16 44  1  0  0  0  0
 17 18  1  0  0  0  0
 18 19  2  0  0  0  0
 18 20  1  0  0  0  0
 20 25  1  0  0  0  0
 20 21  2  0  0  0  0
 21 22  1  0  0  0  0
 21 45  1  0  0  0  0
 22 23  2  0  0  0  0
 22 46  1  0  0  0  0
 23 24  1  0  0  0  0
 23 47  1  0  0  0  0
 24 25  2  0  0  0  0
 24 48  1  0  0  0  0
 25 49  1  0  0  0  0
 26 32  1  0  0  0  0
 26 27  1  0  0  0  0
 26 50  1  0  0  0  0
 27 28  1  0  0  0  0
 28 29  2  0  0  0  0
 28 30  2  0  0  0  0
 28 31  1  0  0  0  0
 31 32  1  0  0  0  0
 32 51  1  0  0  0  0
 33 38  1  0  0  0  0
 33 34  2  0  0  0  0
 34 35  1  0  0  0  0
 34 52  1  0  0  0  0
 35 36  2  0  0  0  0
 35 53  1  0  0  0  0
 36 37  1  0  0  0  0
 36 54  1  0  0  0  0
 37 38  2  0  0  0  0
 37 55  1  0  0  0  0
 38 56  1  0  0  0  0
M  END
> <s_m_source_file>
AV-unprocessed.smi

> <i_m_source_file_index>
1

> <i_lp_mmshare_version>
43012

> <i_f3d_flags>
0

> <s_epik_input>
W2NIXTFbY0hdW2NIXVtjSF1bY0hdYzFDKD1PKVtOSF1jKG5bY0hdbjIpYyhjMjMpbltjSF1uM1tDQEBIXShbQ0BIXShbQ0BIXTQ1KU9TKE81KSg9Tyk9TylPW0NASF00W0NIMl1PQyg9TyljNltjSF1bY0hdW2NIXVtjSF1bY0hdNg==

> <s_epik_cmdline>
J2VwaWtfcHl0aG9uJywgJy1waCcsICc3LjAnLCAnLXRuJywgJzgnLCAnLW1hJywgJzIwMCcsICctbWV0YWxfYmluZGluZycsICctaW1hZScsICc8aW5maWxlLm1hZT4nLCAnLW9tYWUnLCAnPG91dGZpbGUubWFlPic=

> <r_epik_Ionization_Penalty>
0.122545

> <r_epik_Ionization_Penalty_Charging>
0.122545

> <r_epik_Ionization_Penalty_Neutral>
7.8935e-16

> <r_epik_State_Penalty>
2.69178

> <r_epik_Charging_Adjusted_Penalty>
2.81433

> <i_epik_Tot_Q>
0

> <i_epik_Tot_abs_Q>
0

> <r_epik_Metal_State_Penalty>
3.02665

> <b_epik_Metal_Only>
0

> <s_epik_Chemistry_Notes>
This compound has an ester and may undergo hydrolysis at high or low pH. This compound contains an acetal/aminal-like group ( X-CH(R)-Y where X, Y are N, S, or O) that may be acid/base labile, releasing an aldehyde.

> <s_lp_Force_Field>
OPLS_2005

> <r_lp_Energy>
62.4663

> <b_lp_Chiralities_Consistent>
1

> <s_lp_Variant>
AV-unprocessed.smi:1-12

> <Gold.Version>
5.8.1

> <Gold.Id.Protein>
6NUR|6NUR_protein|mol2

> <Gold.PLP.Fitness>
54.4810

> <Gold.PLP.PLP>
-51.2936

> <Gold.PLP.part.hbond>
-3.0000

> <Gold.PLP.part.metal>
0.0000

> <Gold.PLP.part.buried>
-9.7371

> <Gold.PLP.part.nonpolar>
-39.4451

> <Gold.PLP.part.repulsive>
0.1860

> <Gold.PLP.ligand.clash>
0.0000

> <Gold.PLP.ligand.torsion>
1.4911

> <Gold.PLP.Chemscore.Hbond>
1.9760

> <Gold.PLP.Chemscore.CHOScore>
0.0000

> <Gold.PLP.Chemscore.Metal>
0.0000

> <Gold.Chemscore.Hbonds>
donor molecule, donor type, donor heavy atom, donor atom, acceptor molecule, acceptor atom, score
      P1  H  7989  7998       L1    30  1.00
      P1  H 11000 11005       L1     1  1.00

> <Gold.PLP.Chemscore.Internal.Correction>
0.2416

> <Gold.Rescore>
     Score         DG    S(hbond)    S(metal)    S(lipo)     H(rot)  DE(clash)    DE(int)     intcor
     17.44     -20.29       1.98        0.00     116.75       2.13       0.07       2.78       ----

> <Gold.Chemscore.Fitness>
17.4415

> <Gold.Chemscore.DG>
-20.2934

> <Gold.Chemscore.ZeroCoef>
-5.4800

> <Gold.Chemscore.Hbond>
1.9806

> <Gold.Chemscore.Metal>
0.0000

> <Gold.Chemscore.Lipo>
116.7474

> <Gold.Chemscore.Internal_Hbond>
0.0000

> <Gold.Chemscore.DEClash>
0.0689

> <Gold.Chemscore.DEInternal>
2.7830

> <Gold.Chemscore.Rot>
2.1333

> <Gold.Chemscore.Internal.Correction>
   9.000000E+99

> <Gold.Chemscore.Hbonds>
donor molecule, donor type, donor heavy atom, donor atom, acceptor molecule, acceptor atom, score
      P1  H  7989  7998       L1    30  0.95
      P1  H 11000 11005       L1     1  1.00

> <Gold.Chemscore.Hbond.Weighted>
-6.6153

> <Gold.Chemscore.Metal.Weighted>
-0.0000

> <Gold.Chemscore.Lipo.Weighted>
-13.6595

> <Gold.Chemscore.Internal_Hbond.Weighted>
0.0000

> <Gold.Chemscore.DEClash.Weighted>
0.0689

> <Gold.Chemscore.DEInternal.Weighted>
2.7830

> <Gold.Chemscore.Rot.Weighted>
5.4614

> <Gold.Chemscore.Internal.Correction.Weighted>
   9.000000E+99

> <Gold.Protein.RotatedTorsions>
[ 6907 6896 6895 6894 ] final   63.76 input  -60.11 | X-H torsion
[ 7974 7965 7964 7962 ] final -165.36 input  175.53 | X-H torsion
[ 8008 7997 7996 7995 ] final  -10.22 input   59.86 | X-H torsion
[ 10167 10162 10161 10158 ] final   70.08 input  -65.29 | X-H torsion
[ 10718 10713 10712 10709 ] final   84.29 input   66.30 | X-H torsion
[ 10763 10752 10751 10750 ] final -118.37 input  -60.55 | X-H torsion
[ 11005 11000 10999 10996 ] final -137.09 input  -57.11 | X-H torsion

> <Gold.Protein.ActiveResidues>
 VAL166  LYS551  ARG553  GLY616  TRP617  ASP618  TYR619  PRO620  LYS621  CYS622 
 ASP623  PHE694  ASN695  SER759  ASP760  ASP761  ALA762  ILE779  LEU786  VAL792 
 PHE793  MET794  SER795  GLU796  ALA797  LYS798  CYS799  TRP800  GLU811  SER814 

> <Gold.Protein.RotatedAtoms>
  152.4278  134.5835  159.9954 H   0  0  0  0  0  0  0  0  0  0  0  0  # atno 6907 bound_to 6896
  151.5967  133.3355  159.3047 H   0  0  0  0  0  0  0  0  0  0  0  0  # atno 6908 bound_to 6896
  150.8169  134.7392  159.6803 H   0  0  0  0  0  0  0  0  0  0  0  0  # atno 6909 bound_to 6896
  144.7272  140.2825  143.6233 H   0  0  0  0  0  0  0  0  0  0  0  0  # atno 7974 bound_to 7965
  154.5574  140.2334  155.8388 H   0  0  0  0  0  0  0  0  0  0  0  0  # atno 8008 bound_to 7997
  156.2000  140.3055  155.9467 H   0  0  0  0  0  0  0  0  0  0  0  0  # atno 8009 bound_to 7997
  155.2953  140.0428  157.3016 H   0  0  0  0  0  0  0  0  0  0  0  0  # atno 8010 bound_to 7997
  140.0608  144.5234  150.7295 H   0  0  0  0  0  0  0  0  0  0  0  0  # atno 10167 bound_to 10162
  157.6895  131.0127  150.2651 H   0  0  0  0  0  0  0  0  0  0  0  0  # atno 10718 bound_to 10713
  154.8585  135.4276  154.2128 H   0  0  0  0  0  0  0  0  0  0  0  0  # atno 10763 bound_to 10752
  153.3150  135.6978  153.7087 H   0  0  0  0  0  0  0  0  0  0  0  0  # atno 10764 bound_to 10752
  153.6165  135.3510  155.2970 H   0  0  0  0  0  0  0  0  0  0  0  0  # atno 10765 bound_to 10752
  140.8744  134.2010  157.4631 H   0  0  0  0  0  0  0  0  0  0  0  0  # atno 11005 bound_to 11000
  145.7935  139.1936  143.2089 LP  0  0  0  0  0  0  0  0  0  0  0  0  # atno 17320 bound_to 7965
  146.0736  140.7842  142.9676 LP  0  0  0  0  0  0  0  0  0  0  0  0  # atno 17321 bound_to 7965
  140.7173  143.2556  151.4394 LP  0  0  0  0  0  0  0  0  0  0  0  0  # atno 17342 bound_to 10162
  139.5895  144.1531  152.2070 LP  0  0  0  0  0  0  0  0  0  0  0  0  # atno 17343 bound_to 10162
  156.3224  130.3788  149.7564 LP  0  0  0  0  0  0  0  0  0  0  0  0  # atno 17370 bound_to 10713
  156.5130  130.8180  151.3175 LP  0  0  0  0  0  0  0  0  0  0  0  0  # atno 17371 bound_to 10713
  139.8714  134.9789  156.5015 LP  0  0  0  0  0  0  0  0  0  0  0  0  # atno 17394 bound_to 11000
  140.8535  133.8114  155.9192 LP  0  0  0  0  0  0  0  0  0  0  0  0  # atno 17395 bound_to 11000

$$$$
