AV-unprocessed.smi:1|AV-procd|sdf|24|dock1
  -GOLD-   2262015133D 1   1.00000     0.00000
 Structure written by MMmdl.
 56 61  0  0  0  0  0  0  0  0  2 V2000
  152.8092  140.0375  158.1278 O   0  0  0  0  0  0  0  0  0  0  0  0
  152.0030  140.9113  157.8012 C   0  0  0  0  0  0  0  0  0  0  0  0
  151.0478  140.8471  156.8393 N   0  5  0  0  0  0  0  0  0  0  0  0
  150.8823  139.7179  156.1342 C   0  0  0  0  0  0  0  0  0  0  0  0
  150.9652  139.7354  154.7794 N   0  0  0  0  0  0  0  0  0  0  0  0
  150.7894  138.6101  154.0771 C   0  0  0  0  0  0  0  0  0  0  0  0
  150.5181  137.3783  154.5183 N   0  0  0  0  0  0  0  0  0  0  0  0
  150.4271  137.3473  155.8803 C   0  0  0  0  0  0  0  0  0  0  0  0
  150.5923  138.4677  156.7461 C   0  0  0  0  0  0  0  0  0  0  0  0
  150.4311  138.0942  158.0722 N   0  0  0  0  0  0  0  0  0  0  0  0
  150.1865  136.7912  157.9562 C   0  0  0  0  0  0  0  0  0  0  0  0
  150.1681  136.2698  156.7138 N   0  0  0  0  0  0  0  0  0  0  0  0
  149.9319  134.8417  156.3398 C   0  0  1  0  0  0  0  0  0  0  0  0
  150.9050  134.0510  156.9468 O   0  0  0  0  0  0  0  0  0  0  0  0
  150.3692  132.7669  157.2419 C   0  0  2  0  0  0  0  0  0  0  0  0
  150.5088  131.8614  156.0079 C   0  0  0  0  0  0  0  0  0  0  0  0
  149.5366  132.2355  155.0459 O   0  0  0  0  0  0  0  0  0  0  0  0
  149.0047  131.3079  154.2266 C   0  0  0  0  0  0  0  0  0  0  0  0
  149.3507  130.1246  154.2198 O   0  0  0  0  0  0  0  0  0  0  0  0
  147.9523  131.8636  153.3276 C   0  0  0  0  0  0  0  0  0  0  0  0
  146.9804  130.9950  152.7787 C   0  0  0  0  0  0  0  0  0  0  0  0
  145.9753  131.4906  151.9253 C   0  0  0  0  0  0  0  0  0  0  0  0
  145.9304  132.8610  151.6100 C   0  0  0  0  0  0  0  0  0  0  0  0
  146.8908  133.7358  152.1506 C   0  0  0  0  0  0  0  0  0  0  0  0
  147.8962  133.2421  153.0047 C   0  0  0  0  0  0  0  0  0  0  0  0
  148.9108  133.0591  157.5982 C   0  0  1  0  0  0  0  0  0  0  0  0
  148.7964  133.3311  158.9835 O   0  0  0  0  0  0  0  0  0  0  0  0
  147.7620  134.6254  159.1789 S   0  0  0  0  0  0  0  0  0  0  0  0
  146.4012  134.0963  159.3589 O   0  0  0  0  0  0  0  0  0  0  0  0
  148.3690  135.5762  160.1220 O   0  0  0  0  0  0  0  0  0  0  0  0
  147.8697  135.2555  157.6363 O   0  0  0  0  0  0  0  0  0  0  0  0
  148.5573  134.3293  156.8058 C   0  0  1  0  0  0  0  0  0  0  0  0
  152.0804  142.2570  158.4715 C   0  0  0  0  0  0  0  0  0  0  0  0
  152.5364  142.3496  159.8065 C   0  0  0  0  0  0  0  0  0  0  0  0
  152.5924  143.5963  160.4597 C   0  0  0  0  0  0  0  0  0  0  0  0
  152.1840  144.7636  159.7876 C   0  0  0  0  0  0  0  0  0  0  0  0
  151.7148  144.6823  158.4632 C   0  0  0  0  0  0  0  0  0  0  0  0
  151.6587  143.4360  157.8092 C   0  0  0  0  0  0  0  0  0  0  0  0
  150.8779  138.7118  153.0059 H   0  0  0  0  0  0  0  0  0  0  0  0
  150.0158  136.1764  158.8277 H   0  0  0  0  0  0  0  0  0  0  0  0
  150.0488  134.8129  155.2554 H   0  0  0  0  0  0  0  0  0  0  0  0
  150.8946  132.3181  158.0860 H   0  0  0  0  0  0  0  0  0  0  0  0
  151.4987  131.9819  155.5659 H   0  0  0  0  0  0  0  0  0  0  0  0
  150.3999  130.8114  156.2835 H   0  0  0  0  0  0  0  0  0  0  0  0
  146.9950  129.9386  153.0060 H   0  0  0  0  0  0  0  0  0  0  0  0
  145.2383  130.8178  151.5125 H   0  0  0  0  0  0  0  0  0  0  0  0
  145.1603  133.2406  150.9547 H   0  0  0  0  0  0  0  0  0  0  0  0
  146.8571  134.7882  151.9098 H   0  0  0  0  0  0  0  0  0  0  0  0
  148.6174  133.9411  153.4028 H   0  0  0  0  0  0  0  0  0  0  0  0
  148.2482  132.2268  157.3583 H   0  0  0  0  0  0  0  0  0  0  0  0
  147.9562  134.0959  155.9266 H   0  0  0  0  0  0  0  0  0  0  0  0
  152.8523  141.4628  160.3369 H   0  0  0  0  0  0  0  0  0  0  0  0
  152.9483  143.6558  161.4775 H   0  0  0  0  0  0  0  0  0  0  0  0
  152.2267  145.7194  160.2882 H   0  0  0  0  0  0  0  0  0  0  0  0
  151.3946  145.5760  157.9480 H   0  0  0  0  0  0  0  0  0  0  0  0
  151.2858  143.3943  156.7958 H   0  0  0  0  0  0  0  0  0  0  0  0
  1  2  2  0  0  0  0
  2  3  1  0  0  0  0
  2 33  1  0  0  0  0
  3  4  1  0  0  0  0
  4  9  1  0  0  0  0
  4  5  2  0  0  0  0
  5  6  1  0  0  0  0
  6  7  2  0  0  0  0
  6 39  1  0  0  0  0
  7  8  1  0  0  0  0
  8 12  1  0  0  0  0
  8  9  2  0  0  0  0
  9 10  1  0  0  0  0
 10 11  2  0  0  0  0
 11 12  1  0  0  0  0
 11 40  1  0  0  0  0
 12 13  1  0  0  0  0
 13 32  1  0  0  0  0
 13 14  1  0  0  0  0
 13 41  1  0  0  0  0
 14 15  1  0  0  0  0
 15 16  1  0  0  0  0
 15 26  1  0  0  0  0
 15 42  1  0  0  0  0
 16 17  1  0  0  0  0
 16 43  1  0  0  0  0
 16 44  1  0  0  0  0
 17 18  1  0  0  0  0
 18 19  2  0  0  0  0
 18 20  1  0  0  0  0
 20 25  1  0  0  0  0
 20 21  2  0  0  0  0
 21 22  1  0  0  0  0
 21 45  1  0  0  0  0
 22 23  2  0  0  0  0
 22 46  1  0  0  0  0
 23 24  1  0  0  0  0
 23 47  1  0  0  0  0
 24 25  2  0  0  0  0
 24 48  1  0  0  0  0
 25 49  1  0  0  0  0
 26 32  1  0  0  0  0
 26 27  1  0  0  0  0
 26 50  1  0  0  0  0
 27 28  1  0  0  0  0
 28 29  2  0  0  0  0
 28 30  2  0  0  0  0
 28 31  1  0  0  0  0
 31 32  1  0  0  0  0
 32 51  1  0  0  0  0
 33 38  1  0  0  0  0
 33 34  2  0  0  0  0
 34 35  1  0  0  0  0
 34 52  1  0  0  0  0
 35 36  2  0  0  0  0
 35 53  1  0  0  0  0
 36 37  1  0  0  0  0
 36 54  1  0  0  0  0
 37 38  2  0  0  0  0
 37 55  1  0  0  0  0
 38 56  1  0  0  0  0
M  CHG  1   3  -1
M  END
> <s_m_source_file>
AV-unprocessed.smi

> <i_m_source_file_index>
1

> <i_lp_mmshare_version>
43012

> <i_f3d_flags>
0

> <s_epik_input>
W2NIXTFbY0hdW2NIXVtjSF1bY0hdYzFDKD1PKVtOSF1jKG5bY0hdbjIpYyhjMjMpbltjSF1uM1tDQEBIXShbQ0BIXShbQ0BIXTQ1KU9TKE81KSg9Tyk9TylPW0NASF00W0NIMl1PQyg9TyljNltjSF1bY0hdW2NIXVtjSF1bY0hdNg==

> <s_epik_cmdline>
J2VwaWtfcHl0aG9uJywgJy1waCcsICc3LjAnLCAnLXRuJywgJzgnLCAnLW1hJywgJzIwMCcsICctbWV0YWxfYmluZGluZycsICctaW1hZScsICc8aW5maWxlLm1hZT4nLCAnLW9tYWUnLCAnPG91dGZpbGUubWFlPic=

> <r_lp_tautomer_probability>
1

> <r_epik_Ionization_Penalty>
4.39121

> <r_epik_Ionization_Penalty_Charging>
3.39398

> <r_epik_Ionization_Penalty_Neutral>
0.997232

> <r_epik_State_Penalty>
3.39839

> <r_epik_Charging_Adjusted_Penalty>
6.79237

> <i_epik_Tot_Q>
-1

> <i_epik_Tot_abs_Q>
1

> <r_epik_Metal_State_Penalty>
0.497663

> <b_epik_Metal_Only>
1

> <s_epik_Chemistry_Notes>
This compound has an ester and may undergo hydrolysis at high or low pH. This compound contains an acetal/aminal-like group ( X-CH(R)-Y where X, Y are N, S, or O) that may be acid/base labile, releasing an aldehyde.

> <s_lp_Force_Field>
OPLS_2005

> <r_lp_Energy>
44.7553

> <b_lp_Chiralities_Consistent>
1

> <s_lp_Variant>
AV-unprocessed.smi:1-24

> <Gold.Version>
5.8.1

> <Gold.Id.Protein>
6NUR|6NUR_protein|mol2

> <Gold.PLP.Fitness>
62.5167

> <Gold.PLP.PLP>
-54.8339

> <Gold.PLP.part.hbond>
-3.4993

> <Gold.PLP.part.metal>
0.0000

> <Gold.PLP.part.buried>
-8.9811

> <Gold.PLP.part.nonpolar>
-43.1073

> <Gold.PLP.part.repulsive>
0.4847

> <Gold.PLP.ligand.clash>
0.0000

> <Gold.PLP.ligand.torsion>
1.4670

> <Gold.PLP.Chemscore.Hbond>
2.0000

> <Gold.PLP.Chemscore.CHOScore>
1.0000

> <Gold.PLP.Chemscore.Metal>
0.0000

> <Gold.Chemscore.Hbonds>
donor molecule, donor type, donor heavy atom, donor atom, acceptor molecule, acceptor atom, score
      P1  H  7989  7998       L1     5  1.00
      P1  H  7997  8009       L1     1  0.78
      L1  C     6    39       P1  7957  0.77

> <Gold.PLP.Chemscore.Internal.Correction>
1.6167

> <Gold.Rescore>
     Score         DG    S(hbond)    S(metal)    S(lipo)     H(rot)  DE(clash)    DE(int)     intcor
     12.67     -19.83       1.53        0.00     125.09       2.11       1.25       5.91       ----

> <Gold.Chemscore.Fitness>
12.6707

> <Gold.Chemscore.DG>
-19.8316

> <Gold.Chemscore.ZeroCoef>
-5.4800

> <Gold.Chemscore.Hbond>
1.5349

> <Gold.Chemscore.Metal>
0.0000

> <Gold.Chemscore.Lipo>
125.0914

> <Gold.Chemscore.Internal_Hbond>
0.0000

> <Gold.Chemscore.DEClash>
1.2522

> <Gold.Chemscore.DEInternal>
5.9087

> <Gold.Chemscore.Rot>
2.1136

> <Gold.Chemscore.Internal.Correction>
   9.000000E+99

> <Gold.Chemscore.Hbonds>
donor molecule, donor type, donor heavy atom, donor atom, acceptor molecule, acceptor atom, score
      P1  H  7989  7998       L1     5  0.30
      P1  H  7997  8009       L1     1  0.48

> <Gold.Chemscore.Hbond.Weighted>
-5.1267

> <Gold.Chemscore.Metal.Weighted>
-0.0000

> <Gold.Chemscore.Lipo.Weighted>
-14.6357

> <Gold.Chemscore.Internal_Hbond.Weighted>
0.0000

> <Gold.Chemscore.DEClash.Weighted>
1.2522

> <Gold.Chemscore.DEInternal.Weighted>
5.9087

> <Gold.Chemscore.Rot.Weighted>
5.4107

> <Gold.Chemscore.Internal.Correction.Weighted>
   9.000000E+99

> <Gold.Protein.RotatedTorsions>
[ 6907 6896 6895 6894 ] final -125.45 input  -60.11 | X-H torsion
[ 7974 7965 7964 7962 ] final  -96.63 input  175.53 | X-H torsion
[ 8008 7997 7996 7995 ] final  173.95 input   59.86 | X-H torsion
[ 10167 10162 10161 10158 ] final  148.83 input  -65.29 | X-H torsion
[ 10718 10713 10712 10709 ] final   -6.99 input   66.30 | X-H torsion
[ 10763 10752 10751 10750 ] final  -90.01 input  -60.55 | X-H torsion
[ 11005 11000 10999 10996 ] final  162.09 input  -57.11 | X-H torsion

> <Gold.Protein.ActiveResidues>
 VAL166  LYS551  ARG553  GLY616  TRP617  ASP618  TYR619  PRO620  LYS621  CYS622 
 ASP623  PHE694  ASN695  SER759  ASP760  ASP761  ALA762  ILE779  LEU786  VAL792 
 PHE793  MET794  SER795  GLU796  ALA797  LYS798  CYS799  TRP800  GLU811  SER814 

> <Gold.Protein.RotatedAtoms>
  150.8869  133.7295  159.2915 H   0  0  0  0  0  0  0  0  0  0  0  0  # atno 6907 bound_to 6896
  151.4858  135.1053  159.9800 H   0  0  0  0  0  0  0  0  0  0  0  0  # atno 6908 bound_to 6896
  152.4796  133.8174  159.7091 H   0  0  0  0  0  0  0  0  0  0  0  0  # atno 6909 bound_to 6896
  145.3443  140.9465  143.2590 H   0  0  0  0  0  0  0  0  0  0  0  0  # atno 7974 bound_to 7965
  156.1024  140.1447  156.9450 H   0  0  0  0  0  0  0  0  0  0  0  0  # atno 8008 bound_to 7997
  154.4711  140.0909  156.7191 H   0  0  0  0  0  0  0  0  0  0  0  0  # atno 8009 bound_to 7997
  155.4738  140.3442  155.4332 H   0  0  0  0  0  0  0  0  0  0  0  0  # atno 8010 bound_to 7997
  139.4869  144.5649  151.7163 H   0  0  0  0  0  0  0  0  0  0  0  0  # atno 10167 bound_to 10162
  156.7237  130.5159  149.5862 H   0  0  0  0  0  0  0  0  0  0  0  0  # atno 10718 bound_to 10713
  154.6613  135.5320  153.8021 H   0  0  0  0  0  0  0  0  0  0  0  0  # atno 10763 bound_to 10752
  153.0443  135.6506  154.0868 H   0  0  0  0  0  0  0  0  0  0  0  0  # atno 10764 bound_to 10752
  154.0776  135.2949  155.3276 H   0  0  0  0  0  0  0  0  0  0  0  0  # atno 10765 bound_to 10752
  140.2222  134.8187  157.3232 H   0  0  0  0  0  0  0  0  0  0  0  0  # atno 11005 bound_to 11000
  144.8766  139.4963  143.6743 LP  0  0  0  0  0  0  0  0  0  0  0  0  # atno 17320 bound_to 7965
  146.2994  139.7380  142.9102 LP  0  0  0  0  0  0  0  0  0  0  0  0  # atno 17321 bound_to 7965
  140.5225  144.0856  150.6027 LP  0  0  0  0  0  0  0  0  0  0  0  0  # atno 17342 bound_to 10162
  140.3819  143.2798  152.0160 LP  0  0  0  0  0  0  0  0  0  0  0  0  # atno 17343 bound_to 10162
  156.1576  130.6352  151.0678 LP  0  0  0  0  0  0  0  0  0  0  0  0  # atno 17370 bound_to 10713
  157.6887  131.0817  150.7169 LP  0  0  0  0  0  0  0  0  0  0  0  0  # atno 17371 bound_to 10713
  140.1837  134.4457  155.7756 LP  0  0  0  0  0  0  0  0  0  0  0  0  # atno 17394 bound_to 11000
  141.2222  133.6995  156.7912 LP  0  0  0  0  0  0  0  0  0  0  0  0  # atno 17395 bound_to 11000

$$$$
