AV-unprocessed.smi:1644|AV-procd|sdf|6598|dock3
  -GOLD-   22720 7303D 1   1.00000     0.00000
 Structure written by MMmdl.
 49 51  0  0  0  0  0  0  0  0  3 V2000
  152.5405  144.1660  159.4408 C   0  0  0  0  0  0  0  0  0  0  0  0
  151.8960  143.0871  158.5633 C   0  0  0  0  0  0  0  0  0  0  0  0
  152.2546  141.6640  159.0213 C   0  0  0  0  0  0  0  0  0  0  0  0
  151.6143  140.5630  158.1490 C   0  0  2  0  0  0  0  0  0  0  0  0
  152.4683  140.2029  157.0357 N   0  5  0  0  0  0  0  0  0  0  0  0
  151.7989  140.4322  155.8825 C   0  0  0  0  0  0  0  0  0  0  0  0
  152.2108  140.2264  154.7414 O   0  0  0  0  0  0  0  0  0  0  0  0
  150.5698  140.9267  156.1266 N   0  0  0  0  0  0  0  0  0  0  0  0
  149.5786  141.2860  155.1055 C   0  0  0  0  0  0  0  0  0  0  0  0
  149.0153  140.0541  154.3678 C   0  0  1  0  0  0  0  0  0  0  0  0
  149.0387  138.9632  155.2669 O   0  0  0  0  0  0  0  0  0  0  0  0
  147.5878  140.2669  153.8204 C   0  0  0  0  0  0  0  0  0  0  0  0
  146.6324  140.6827  154.8560 N   0  0  0  0  0  0  0  0  0  0  0  0
  146.3189  140.0852  156.0369 C   0  0  0  0  0  0  0  0  0  0  0  0
  145.3718  140.8514  156.6457 N   0  3  0  0  0  0  0  0  0  0  0  0
  145.0772  141.9545  155.8412 C   0  0  0  0  0  0  0  0  0  0  0  0
  144.1879  143.0062  156.0283 C   0  0  0  0  0  0  0  0  0  0  0  0
  144.1236  143.9855  155.0113 C   0  0  0  0  0  0  0  0  0  0  0  0
  143.1607  145.1482  155.1833 C   0  0  0  0  0  0  0  0  0  0  0  0
  144.9393  143.8909  153.8541 C   0  0  0  0  0  0  0  0  0  0  0  0
  144.8662  144.9514  152.7690 C   0  0  0  0  0  0  0  0  0  0  0  0
  145.8365  142.8130  153.6825 C   0  0  0  0  0  0  0  0  0  0  0  0
  145.8847  141.8543  154.6918 C   0  0  0  0  0  0  0  0  0  0  0  0
  150.3646  141.0470  157.4419 C   0  0  0  0  0  0  0  0  0  0  0  0
  149.3541  141.4622  158.0105 O   0  0  0  0  0  0  0  0  0  0  0  0
  152.2714  145.1629  159.0911 H   0  0  0  0  0  0  0  0  0  0  0  0
  153.6279  144.0893  159.4244 H   0  0  0  0  0  0  0  0  0  0  0  0
  152.2128  144.0772  160.4769 H   0  0  0  0  0  0  0  0  0  0  0  0
  150.8134  143.2181  158.5755 H   0  0  0  0  0  0  0  0  0  0  0  0
  152.2115  143.2283  157.5291 H   0  0  0  0  0  0  0  0  0  0  0  0
  153.3403  141.5589  158.9938 H   0  0  0  0  0  0  0  0  0  0  0  0
  151.9672  141.5311  160.0659 H   0  0  0  0  0  0  0  0  0  0  0  0
  151.3476  139.7037  158.7657 H   0  0  0  0  0  0  0  0  0  0  0  0
  148.7641  141.8297  155.5878 H   0  0  0  0  0  0  0  0  0  0  0  0
  150.0064  141.9874  154.3872 H   0  0  0  0  0  0  0  0  0  0  0  0
  149.6768  139.7970  153.5395 H   0  0  0  0  0  0  0  0  0  0  0  0
  149.2915  138.1883  154.7883 H   0  0  0  0  0  0  0  0  0  0  0  0
  147.5802  140.9937  153.0081 H   0  0  0  0  0  0  0  0  0  0  0  0
  147.2054  139.3371  153.3981 H   0  0  0  0  0  0  0  0  0  0  0  0
  146.7442  139.1688  156.4200 H   0  0  0  0  0  0  0  0  0  0  0  0
  143.5721  143.0730  156.9131 H   0  0  0  0  0  0  0  0  0  0  0  0
  142.4512  145.1839  154.3562 H   0  0  0  0  0  0  0  0  0  0  0  0
  143.7037  146.0931  155.2153 H   0  0  0  0  0  0  0  0  0  0  0  0
  142.5889  145.0600  156.1076 H   0  0  0  0  0  0  0  0  0  0  0  0
  145.5671  144.7429  151.9600 H   0  0  0  0  0  0  0  0  0  0  0  0
  145.1097  145.9335  153.1752 H   0  0  0  0  0  0  0  0  0  0  0  0
  143.8646  144.9911  152.3400 H   0  0  0  0  0  0  0  0  0  0  0  0
  146.4614  142.7441  152.8042 H   0  0  0  0  0  0  0  0  0  0  0  0
  144.9594  140.6347  157.5439 H   0  0  0  0  0  0  0  0  0  0  0  0
  1  2  1  0  0  0  0
  1 26  1  0  0  0  0
  1 27  1  0  0  0  0
  1 28  1  0  0  0  0
  2  3  1  0  0  0  0
  2 29  1  0  0  0  0
  2 30  1  0  0  0  0
  3  4  1  0  0  0  0
  3 31  1  0  0  0  0
  3 32  1  0  0  0  0
  4 24  1  0  0  0  0
  4  5  1  0  0  0  0
  4 33  1  0  0  0  0
  5  6  1  0  0  0  0
  6  7  2  0  0  0  0
  6  8  1  0  0  0  0
  8  9  1  0  0  0  0
  8 24  1  0  0  0  0
  9 10  1  0  0  0  0
  9 34  1  0  0  0  0
  9 35  1  0  0  0  0
 10 11  1  0  0  0  0
 10 12  1  0  0  0  0
 10 36  1  0  0  0  0
 11 37  1  0  0  0  0
 12 13  1  0  0  0  0
 12 38  1  0  0  0  0
 12 39  1  0  0  0  0
 13 23  1  0  0  0  0
 13 14  1  0  0  0  0
 14 15  2  0  0  0  0
 14 40  1  0  0  0  0
 15 16  1  0  0  0  0
 15 49  1  0  0  0  0
 16 23  2  0  0  0  0
 16 17  1  0  0  0  0
 17 18  2  0  0  0  0
 17 41  1  0  0  0  0
 18 19  1  0  0  0  0
 18 20  1  0  0  0  0
 19 42  1  0  0  0  0
 19 43  1  0  0  0  0
 19 44  1  0  0  0  0
 20 21  1  0  0  0  0
 20 22  2  0  0  0  0
 21 45  1  0  0  0  0
 21 46  1  0  0  0  0
 21 47  1  0  0  0  0
 22 23  1  0  0  0  0
 22 48  1  0  0  0  0
 24 25  2  0  0  0  0
M  CHG  1   5  -1
M  CHG  1  15   1
M  END
> <s_m_source_file>
AV-unprocessed.smi

> <i_m_source_file_index>
1644

> <i_lp_mmshare_version>
43012

> <i_f3d_flags>
0

> <s_epik_input>
W0NIM11bQ0gyXVtDSDJdW0NAQEhdMVtOSF1DKD1PKU4oQzE9TylbQ0gyXVtDQEhdKFtPSF0pW0NIMl1uKFtjSF1uMiljKGMyMylbY0hdYyhbQ0gzXSljKFtjSF0zKVtDSDNd

> <s_epik_cmdline>
J2VwaWtfcHl0aG9uJywgJy1waCcsICc3LjAnLCAnLXRuJywgJzgnLCAnLW1hJywgJzIwMCcsICctbWV0YWxfYmluZGluZycsICctaW1hZScsICc8aW5maWxlLm1hZT4nLCAnLW9tYWUnLCAnPG91dGZpbGUubWFlPic=

> <r_lp_tautomer_probability>
1

> <r_epik_Ionization_Penalty>
6.86868

> <r_epik_Ionization_Penalty_Charging>
6.86868

> <r_epik_Ionization_Penalty_Neutral>
5.84798e-07

> <r_epik_State_Penalty>
6.92818

> <r_epik_Charging_Adjusted_Penalty>
13.7969

> <i_epik_Tot_Q>
0

> <i_epik_Tot_abs_Q>
2

> <r_epik_Metal_State_Penalty>
2.98017

> <b_epik_Metal_Only>
1

> <s_lp_Force_Field>
OPLS_2005

> <r_lp_Energy>
19.1239

> <b_lp_Chiralities_Consistent>
1

> <s_lp_Variant>
AV-unprocessed.smi:1644-15

> <Gold.Version>
5.8.1

> <Gold.Id.Protein>
6NUR|6NUR_protein|mol2

> <Gold.PLP.Fitness>
55.2141

> <Gold.PLP.PLP>
-48.6516

> <Gold.PLP.part.hbond>
-1.9720

> <Gold.PLP.part.metal>
0.0000

> <Gold.PLP.part.buried>
-7.2344

> <Gold.PLP.part.nonpolar>
-40.2763

> <Gold.PLP.part.repulsive>
0.1386

> <Gold.PLP.ligand.clash>
0.0000

> <Gold.PLP.ligand.torsion>
0.8914

> <Gold.PLP.Chemscore.Hbond>
2.7520

> <Gold.PLP.Chemscore.CHOScore>
0.0000

> <Gold.PLP.Chemscore.Metal>
0.0000

> <Gold.Chemscore.Hbonds>
donor molecule, donor type, donor heavy atom, donor atom, acceptor molecule, acceptor atom, score
      P1  H  7989  7998       L1     7  0.57
      P1  H  7997  8009       L1     5  2.00

> <Gold.PLP.Chemscore.Internal.Correction>
0.0895

> <Gold.Rescore>
     Score         DG    S(hbond)    S(metal)    S(lipo)     H(rot)  DE(clash)    DE(int)     intcor
     15.11     -16.68       1.73        0.00     105.99       2.72       0.06       1.51       ----

> <Gold.Chemscore.Fitness>
15.1133

> <Gold.Chemscore.DG>
-16.6794

> <Gold.Chemscore.ZeroCoef>
-5.4800

> <Gold.Chemscore.Hbond>
1.7286

> <Gold.Chemscore.Metal>
0.0000

> <Gold.Chemscore.Lipo>
105.9897

> <Gold.Chemscore.Internal_Hbond>
0.0000

> <Gold.Chemscore.DEClash>
0.0562

> <Gold.Chemscore.DEInternal>
1.5100

> <Gold.Chemscore.Rot>
2.7245

> <Gold.Chemscore.Internal.Correction>
   9.000000E+99

> <Gold.Chemscore.Hbonds>
donor molecule, donor type, donor heavy atom, donor atom, acceptor molecule, acceptor atom, score
      P1  H  7989  7998       L1     7  0.56
      P1  H  7997  8009       L1     5  0.71

> <Gold.Chemscore.Hbond.Weighted>
-5.7734

> <Gold.Chemscore.Metal.Weighted>
-0.0000

> <Gold.Chemscore.Lipo.Weighted>
-12.4008

> <Gold.Chemscore.Internal_Hbond.Weighted>
0.0000

> <Gold.Chemscore.DEClash.Weighted>
0.0562

> <Gold.Chemscore.DEInternal.Weighted>
1.5100

> <Gold.Chemscore.Rot.Weighted>
6.9748

> <Gold.Chemscore.Internal.Correction.Weighted>
   9.000000E+99

> <Gold.Protein.RotatedTorsions>
[ 6907 6896 6895 6894 ] final   35.45 input  -60.11 | X-H torsion
[ 7974 7965 7964 7962 ] final  112.32 input  175.53 | X-H torsion
[ 8008 7997 7996 7995 ] final  177.84 input   59.86 | X-H torsion
[ 10167 10162 10161 10158 ] final   68.10 input  -65.29 | X-H torsion
[ 10718 10713 10712 10709 ] final  149.39 input   66.30 | X-H torsion
[ 10763 10752 10751 10750 ] final   47.59 input  -60.55 | X-H torsion
[ 11005 11000 10999 10996 ] final   75.23 input  -57.11 | X-H torsion

> <Gold.Protein.ActiveResidues>
 VAL166  LYS551  ARG553  GLY616  TRP617  ASP618  TYR619  PRO620  LYS621  CYS622 
 ASP623  PHE694  ASN695  SER759  ASP760  ASP761  ALA762  ILE779  LEU786  VAL792 
 PHE793  MET794  SER795  GLU796  ALA797  LYS798  CYS799  TRP800  GLU811  SER814 

> <Gold.Protein.RotatedAtoms>
  152.1163  134.9238  160.0564 H   0  0  0  0  0  0  0  0  0  0  0  0  # atno 6907 bound_to 6896
  152.0396  133.3967  159.4339 H   0  0  0  0  0  0  0  0  0  0  0  0  # atno 6908 bound_to 6896
  150.6846  134.3350  159.4887 H   0  0  0  0  0  0  0  0  0  0  0  0  # atno 6909 bound_to 6896
  145.2310  139.2819  143.4168 H   0  0  0  0  0  0  0  0  0  0  0  0  # atno 7974 bound_to 7965
  156.0612  140.1348  156.9939 H   0  0  0  0  0  0  0  0  0  0  0  0  # atno 8008 bound_to 7997
  154.4483  140.0991  156.6591 H   0  0  0  0  0  0  0  0  0  0  0  0  # atno 8009 bound_to 7997
  155.5374  140.3460  155.4441 H   0  0  0  0  0  0  0  0  0  0  0  0  # atno 8010 bound_to 7997
  140.0824  144.5059  150.7153 H   0  0  0  0  0  0  0  0  0  0  0  0  # atno 10167 bound_to 10162
  157.2967  131.0863  151.1421 H   0  0  0  0  0  0  0  0  0  0  0  0  # atno 10718 bound_to 10713
  152.9798  135.5971  154.3788 H   0  0  0  0  0  0  0  0  0  0  0  0  # atno 10763 bound_to 10752
  154.3455  135.2767  155.2402 H   0  0  0  0  0  0  0  0  0  0  0  0  # atno 10764 bound_to 10752
  154.4465  135.6000  153.6218 H   0  0  0  0  0  0  0  0  0  0  0  0  # atno 10765 bound_to 10752
  139.9353  134.7500  156.1245 H   0  0  0  0  0  0  0  0  0  0  0  0  # atno 11005 bound_to 11000
  146.3353  140.2645  142.8603 LP  0  0  0  0  0  0  0  0  0  0  0  0  # atno 17320 bound_to 7965
  144.9677  140.8338  143.5475 LP  0  0  0  0  0  0  0  0  0  0  0  0  # atno 17321 bound_to 7965
  140.7071  143.2476  151.4694 LP  0  0  0  0  0  0  0  0  0  0  0  0  # atno 17342 bound_to 10162
  139.5772  144.1792  152.1919 LP  0  0  0  0  0  0  0  0  0  0  0  0  # atno 17343 bound_to 10162
  157.2796  130.6744  149.6059 LP  0  0  0  0  0  0  0  0  0  0  0  0  # atno 17370 bound_to 10713
  155.9669  130.4454  150.5498 LP  0  0  0  0  0  0  0  0  0  0  0  0  # atno 17371 bound_to 10713
  141.0964  133.6694  156.2654 LP  0  0  0  0  0  0  0  0  0  0  0  0  # atno 17394 bound_to 11000
  140.6092  134.5476  157.5530 LP  0  0  0  0  0  0  0  0  0  0  0  0  # atno 17395 bound_to 11000

$$$$
