#       Name:                AV-unprocessed.smi:2190
#       Creating user name   scv26
#       Creation time:       Fri Mar 27 12:09:03 2020


#       File generated by GOLD software.
#

@<TRIPOS>MOLECULE
AV-unprocessed.smi:2190
    53    55     1
SMALL
NO_CHARGES


@<TRIPOS>ATOM
      1 ****        -6.1210  -0.6407  -0.2629 C.3            1 S1                 0.0000
      2 ****        -5.1734   0.5131  -0.0067 C.ar           1 S1                 0.0000
      3 ****        -5.6764   1.7993   0.2677 C.ar           1 S1                 0.0000
      4 ****        -4.7891   2.8641   0.5059 C.ar           1 S1                 0.0000
      5 ****        -3.3954   2.6504   0.4720 C.ar           1 S1                 0.0000
      6 ****        -2.4530   3.8104   0.7328 C.3            1 S1                 0.0000
      7 ****        -2.8764   1.3635   0.1984 C.ar           1 S1                 0.0000
      8 ****        -1.5037   1.2222   0.1820 O.3            1 S1                 0.0000
      9 ****        -0.9553  -0.0556  -0.1125 C.3            1 S1                 0.0000
     10 ****         0.5783   0.0383  -0.0702 C.3            1 S1                 0.0000
     11 ****         1.0304   0.5800  -1.2959 O.3            1 S1                 0.0000
     12 ****         1.2303  -1.3435   0.1439 C.3            1 S1                 0.0000
     13 ****         2.6850  -1.2825   0.2110 N.pl3          1 S1                 0.0000
     14 ****         3.4610  -1.0403   1.2977 C.2            1 S1                 0.0000
     15 ****         2.8562  -0.7959   2.6517 C.3            1 S1                 0.0000
     16 ****         3.7978  -0.4571   3.6499 O.3            1 S1                 0.0000
     17 ****         4.7781  -1.0461   1.0781 N.2            1 S1                 0.0000
     18 ****         4.8630  -1.3172  -0.2730 C.ar           1 S1                 0.0000
     19 ****         5.9915  -1.4556  -1.1124 C.ar           1 S1                 0.0000
     20 ****         5.8302  -1.7404  -2.4842 C.ar           1 S1                 0.0000
     21 ****         4.5411  -1.8911  -3.0348 C.ar           1 S1                 0.0000
     22 ****         3.4034  -1.7578  -2.2157 C.ar           1 S1                 0.0000
     23 ****         3.5698  -1.4728  -0.8468 C.ar           1 S1                 0.0000
     24 ****        -3.7811   0.2972  -0.0400 C.ar           1 S1                 0.0000
     25 ****        -7.1504  -0.2953  -0.3628 H              1 S1                 0.0000
     26 ****        -6.0778  -1.3534   0.5610 H              1 S1                 0.0000
     27 ****        -5.8475  -1.1602  -1.1816 H              1 S1                 0.0000
     28 ****        -6.7419   1.9749   0.2972 H              1 S1                 0.0000
     29 ****        -5.1844   3.8472   0.7155 H              1 S1                 0.0000
     30 ****        -1.7857   3.9559  -0.1172 H              1 S1                 0.0000
     31 ****        -1.8459   3.6115   1.6164 H              1 S1                 0.0000
     32 ****        -2.9983   4.7400   0.8982 H              1 S1                 0.0000
     33 ****        -1.2933  -0.7566   0.6525 H              1 S1                 0.0000
     34 ****        -1.2947  -0.4281  -1.0809 H              1 S1                 0.0000
     35 ****         0.8783   0.7063   0.7373 H              1 S1                 0.0000
     36 ****         0.7615   0.0057  -1.9964 H              1 S1                 0.0000
     37 ****         0.8576  -1.8002   1.0610 H              1 S1                 0.0000
     38 ****         0.9486  -2.0219  -0.6626 H              1 S1                 0.0000
     39 ****         2.1277   0.0113   2.5830 H              1 S1                 0.0000
     40 ****         2.3233  -1.6922   2.9697 H              1 S1                 0.0000
     41 ****         3.3374  -0.3195   4.4634 H              1 S1                 0.0000
     42 ****         6.9829  -1.3422  -0.6994 H              1 S1                 0.0000
     43 ****         6.6997  -1.8431  -3.1167 H              1 S1                 0.0000
     44 ****         4.4261  -2.1087  -4.0866 H              1 S1                 0.0000
     45 ****         2.4153  -1.8707  -2.6357 H              1 S1                 0.0000
     46 ****        -3.4291  -0.7012  -0.2504 H              1 S1                 0.0000
     47 ****        -1.1694   1.4851   1.0870 LP             1 S1                 0.0000
     48 ****        -1.1498   1.8598  -0.5023 LP             1 S1                 0.0000
     49 ****         2.0276   0.6534  -1.2844 LP             1 S1                 0.0000
     50 ****         0.6309   1.4866  -1.4314 LP             1 S1                 0.0000
     51 ****         4.2790   0.3798   3.3892 LP             1 S1                 0.0000
     52 ****         4.4573  -1.2011   3.7575 LP             1 S1                 0.0000
     53 ****         5.5197  -0.8922   1.7309 LP             1 S1                 0.0000
@<TRIPOS>BOND
    1    1    2 1     
    2    1   25 1     
    3    1   26 1     
    4    1   27 1     
    5    2   24 ar    
    6    2    3 ar    
    7    3    4 ar    
    8    3   28 1     
    9    4    5 ar    
   10    4   29 1     
   11    5    6 1     
   12    5    7 ar    
   13    6   30 1     
   14    6   31 1     
   15    6   32 1     
   16    7    8 1     
   17    7   24 ar    
   18    8    9 1     
   19    9   10 1     
   20    9   33 1     
   21    9   34 1     
   22   10   11 1     
   23   10   12 1     
   24   10   35 1     
   25   11   36 1     
   26   12   13 1     
   27   12   37 1     
   28   12   38 1     
   29   13   23 1     
   30   13   14 1     
   31   14   15 1     
   32   14   17 2     
   33   15   16 1     
   34   15   39 1     
   35   15   40 1     
   36   16   41 1     
   37   17   18 1     
   38   18   23 ar    
   39   18   19 ar    
   40   19   20 ar    
   41   19   42 1     
   42   20   21 ar    
   43   20   43 1     
   44   21   22 ar    
   45   21   44 1     
   46   22   23 ar    
   47   22   45 1     
   48   24   46 1     
   49    8   47 1     
   50    8   48 1     
   51   11   49 1     
   52   11   50 1     
   53   16   51 1     
   54   16   52 1     
   55   17   53 1     
@<TRIPOS>SUBSTRUCTURE
      1 S1             1
@<TRIPOS>SET
LONE_PAIRS      STATIC     ATOMS    <user>   **** ""
7 47 48 49 50 51 52 53
DONOR_HYDROGENS      STATIC     ATOMS    <user>   **** ""
2 36 41
ATOM$BLUE        STATIC     ATOMS    COLORGROUP SYSTEM
7 47 48 49 50 51 52 53
ATOM$RED        STATIC     ATOMS    COLORGROUP SYSTEM
2 36 41
