AV-unprocessed.smi:699|AV-procd|sdf|3403|dock4
  -GOLD-   22720 0383D 1   1.00000     0.00000
 Structure written by MMmdl.
 35 36  0  0  0  0  0  0  0  0  2 V2000
  150.2232  126.5609  153.7972 N   0  0  0  0  0  0  0  0  0  0  0  0
  149.4683  127.5717  154.2342 C   0  0  0  0  0  0  0  0  0  0  0  0
  148.4412  127.3860  154.8841 O   0  0  0  0  0  0  0  0  0  0  0  0
  149.9353  128.9942  153.8883 C   0  0  2  0  0  0  0  0  0  0  0  0
  151.1663  129.4260  154.7028 C   0  0  0  0  0  0  0  0  0  0  0  0
  151.0422  130.9416  154.8209 C   0  0  0  0  0  0  0  0  0  0  0  0
  149.5432  131.1815  154.9810 C   0  0  0  0  0  0  0  0  0  0  0  0
  148.8527  130.0724  154.1688 C   0  0  1  0  0  0  0  0  0  0  0  0
  148.2881  130.6137  152.9333 N   0  0  0  0  0  0  0  0  0  0  0  0
  147.0631  131.1442  152.8093 C   0  0  0  0  0  0  0  0  0  0  0  0
  146.2565  131.2145  153.7360 O   0  0  0  0  0  0  0  0  0  0  0  0
  146.8372  131.5604  151.5511 N   0  0  0  0  0  0  0  0  0  0  0  0
  145.6810  132.1977  151.0236 C   0  0  0  0  0  0  0  0  0  0  0  0
  144.8236  132.8555  151.9336 C   0  0  0  0  0  0  0  0  0  0  0  0
  143.6558  133.4865  151.4582 C   0  0  0  0  0  0  0  0  0  0  0  0
  143.3605  133.4498  150.1412 N   0  3  0  0  0  0  0  0  0  0  0  0
  144.1409  132.8222  149.2355 C   0  0  0  0  0  0  0  0  0  0  0  0
  145.3210  132.1730  149.6517 C   0  0  0  0  0  0  0  0  0  0  0  0
  149.9507  125.6099  153.9995 H   0  0  0  0  0  0  0  0  0  0  0  0
  151.0600  126.7478  153.2645 H   0  0  0  0  0  0  0  0  0  0  0  0
  150.2134  129.0306  152.8329 H   0  0  0  0  0  0  0  0  0  0  0  0
  151.1581  128.9845  155.7008 H   0  0  0  0  0  0  0  0  0  0  0  0
  152.1006  129.1328  154.2230 H   0  0  0  0  0  0  0  0  0  0  0  0
  151.6235  131.3476  155.6494 H   0  0  0  0  0  0  0  0  0  0  0  0
  151.3944  131.4123  153.9022 H   0  0  0  0  0  0  0  0  0  0  0  0
  149.2770  131.0729  156.0334 H   0  0  0  0  0  0  0  0  0  0  0  0
  149.2509  132.1884  154.6800 H   0  0  0  0  0  0  0  0  0  0  0  0
  148.0318  129.6769  154.7714 H   0  0  0  0  0  0  0  0  0  0  0  0
  148.8827  130.5899  152.1178 H   0  0  0  0  0  0  0  0  0  0  0  0
  147.5631  131.3544  150.8803 H   0  0  0  0  0  0  0  0  0  0  0  0
  145.0583  132.8827  152.9880 H   0  0  0  0  0  0  0  0  0  0  0  0
  142.9533  134.0128  152.0878 H   0  0  0  0  0  0  0  0  0  0  0  0
  143.7972  132.8512  148.2117 H   0  0  0  0  0  0  0  0  0  0  0  0
  145.9177  131.6595  148.9135 H   0  0  0  0  0  0  0  0  0  0  0  0
  142.5095  133.9107  149.8172 H   0  0  0  0  0  0  0  0  0  0  0  0
  1  2  1  0  0  0  0
  1 19  1  0  0  0  0
  1 20  1  0  0  0  0
  2  3  2  0  0  0  0
  2  4  1  0  0  0  0
  4  8  1  0  0  0  0
  4  5  1  0  0  0  0
  4 21  1  0  0  0  0
  5  6  1  0  0  0  0
  5 22  1  0  0  0  0
  5 23  1  0  0  0  0
  6  7  1  0  0  0  0
  6 24  1  0  0  0  0
  6 25  1  0  0  0  0
  7  8  1  0  0  0  0
  7 26  1  0  0  0  0
  7 27  1  0  0  0  0
  8  9  1  0  0  0  0
  8 28  1  0  0  0  0
  9 10  1  0  0  0  0
  9 29  1  0  0  0  0
 10 11  2  0  0  0  0
 10 12  1  0  0  0  0
 12 13  1  0  0  0  0
 12 30  1  0  0  0  0
 13 18  1  0  0  0  0
 13 14  2  0  0  0  0
 14 15  1  0  0  0  0
 14 31  1  0  0  0  0
 15 16  2  0  0  0  0
 15 32  1  0  0  0  0
 16 17  1  0  0  0  0
 16 35  1  0  0  0  0
 17 18  2  0  0  0  0
 17 33  1  0  0  0  0
 18 34  1  0  0  0  0
M  CHG  1  16   1
M  END
> <s_m_source_file>
AV-unprocessed.smi

> <i_m_source_file_index>
699

> <i_lp_mmshare_version>
43012

> <i_f3d_flags>
0

> <s_epik_input>
W05IMl1DKD1PKVtDQEBIXTFbQ0gyXVtDSDJdW0NIMl1bQ0BIXTFbTkhdQyg9TylbTkhdYzJbY0hdW2NIXW5bY0hdW2NIXTI=

> <s_epik_cmdline>
J2VwaWtfcHl0aG9uJywgJy1waCcsICc3LjAnLCAnLXRuJywgJzgnLCAnLW1hJywgJzIwMCcsICctbWV0YWxfYmluZGluZycsICctaW1hZScsICc8aW5maWxlLm1hZT4nLCAnLW9tYWUnLCAnPG91dGZpbGUubWFlPic=

> <r_epik_Ionization_Penalty>
1.0332

> <r_epik_Ionization_Penalty_Charging>
1.03318

> <r_epik_Ionization_Penalty_Neutral>
1.91967e-05

> <r_epik_State_Penalty>
1.08452

> <r_epik_Charging_Adjusted_Penalty>
2.11769

> <i_epik_Tot_Q>
1

> <i_epik_Tot_abs_Q>
1

> <r_epik_Metal_State_Penalty>
1.18144

> <b_epik_Metal_Only>
0

> <s_lp_Force_Field>
OPLS_2005

> <r_lp_Energy>
26.3794

> <b_lp_Chiralities_Consistent>
1

> <s_lp_Variant>
AV-unprocessed.smi:699-5

> <Gold.Version>
5.8.1

> <Gold.Id.Protein>
6NUR|6NUR_protein|mol2

> <Gold.PLP.Fitness>
44.7507

> <Gold.PLP.PLP>
-31.4953

> <Gold.PLP.part.hbond>
-4.0000

> <Gold.PLP.part.metal>
0.0000

> <Gold.PLP.part.buried>
-4.1942

> <Gold.PLP.part.nonpolar>
-22.3346

> <Gold.PLP.part.repulsive>
0.3006

> <Gold.PLP.ligand.clash>
0.0000

> <Gold.PLP.ligand.torsion>
0.7535

> <Gold.PLP.Chemscore.Hbond>
4.9200

> <Gold.PLP.Chemscore.CHOScore>
0.0000

> <Gold.PLP.Chemscore.Metal>
0.0000

> <Gold.Chemscore.Hbonds>
donor molecule, donor type, donor heavy atom, donor atom, acceptor molecule, acceptor atom, score
      L1  H     1    20       P1 10737  0.91
      L1  H     9    29       P1 10747  0.94
      L1  H    12    30       P1 10747  1.00
      L1  H    16    35       P1 10186  2.00

> <Gold.PLP.Chemscore.Internal.Correction>
0.0024

> <Gold.Rescore>
     Score         DG    S(hbond)    S(metal)    S(lipo)     H(rot)  DE(clash)    DE(int)     intcor
     19.74     -21.91       3.48        0.00      73.86       1.50       0.09       2.08       ----

> <Gold.Chemscore.Fitness>
19.7369

> <Gold.Chemscore.DG>
-21.9087

> <Gold.Chemscore.ZeroCoef>
-5.4800

> <Gold.Chemscore.Hbond>
3.4841

> <Gold.Chemscore.Metal>
0.0000

> <Gold.Chemscore.Lipo>
73.8595

> <Gold.Chemscore.Internal_Hbond>
0.0000

> <Gold.Chemscore.DEClash>
0.0880

> <Gold.Chemscore.DEInternal>
2.0838

> <Gold.Chemscore.Rot>
1.5038

> <Gold.Chemscore.Internal.Correction>
   9.000000E+99

> <Gold.Chemscore.Hbonds>
donor molecule, donor type, donor heavy atom, donor atom, acceptor molecule, acceptor atom, score
      L1  H     1    20       P1 10737  0.85
      L1  H     9    29       P1 10747  0.36
      L1  H    12    30       P1 10747  0.99
      L1  H    16    35       P1 10186  0.99

> <Gold.Chemscore.Hbond.Weighted>
-11.6368

> <Gold.Chemscore.Metal.Weighted>
-0.0000

> <Gold.Chemscore.Lipo.Weighted>
-8.6416

> <Gold.Chemscore.Internal_Hbond.Weighted>
0.0000

> <Gold.Chemscore.DEClash.Weighted>
0.0880

> <Gold.Chemscore.DEInternal.Weighted>
2.0838

> <Gold.Chemscore.Rot.Weighted>
3.8496

> <Gold.Chemscore.Internal.Correction.Weighted>
   9.000000E+99

> <Gold.Protein.RotatedTorsions>
[ 6907 6896 6895 6894 ] final  -27.70 input  -60.11 | X-H torsion
[ 7974 7965 7964 7962 ] final   33.18 input  175.53 | X-H torsion
[ 8008 7997 7996 7995 ] final  124.00 input   59.86 | X-H torsion
[ 10167 10162 10161 10158 ] final   33.55 input  -65.29 | X-H torsion
[ 10718 10713 10712 10709 ] final   69.88 input   66.30 | X-H torsion
[ 10763 10752 10751 10750 ] final  118.65 input  -60.55 | X-H torsion
[ 11005 11000 10999 10996 ] final -151.10 input  -57.11 | X-H torsion

> <Gold.Protein.ActiveResidues>
 VAL166  LYS551  ARG553  GLY616  TRP617  ASP618  TYR619  PRO620  LYS621  CYS622 
 ASP623  PHE694  ASN695  SER759  ASP760  ASP761  ALA762  ILE779  LEU786  VAL792 
 PHE793  MET794  SER795  GLU796  ALA797  LYS798  CYS799  TRP800  GLU811  SER814 

> <Gold.Protein.RotatedAtoms>
  151.1432  135.0190  159.8634 H   0  0  0  0  0  0  0  0  0  0  0  0  # atno 6907 bound_to 6896
  152.5452  134.1474  159.8514 H   0  0  0  0  0  0  0  0  0  0  0  0  # atno 6908 bound_to 6896
  151.1552  133.4835  159.2627 H   0  0  0  0  0  0  0  0  0  0  0  0  # atno 6909 bound_to 6896
  146.1438  139.6430  142.9145 H   0  0  0  0  0  0  0  0  0  0  0  0  # atno 7974 bound_to 7965
  156.2786  140.2750  156.1718 H   0  0  0  0  0  0  0  0  0  0  0  0  # atno 8008 bound_to 7997
  155.0647  140.0387  157.2606 H   0  0  0  0  0  0  0  0  0  0  0  0  # atno 8009 bound_to 7997
  154.7088  140.2664  155.6654 H   0  0  0  0  0  0  0  0  0  0  0  0  # atno 8010 bound_to 7997
  140.4397  144.1206  150.6172 H   0  0  0  0  0  0  0  0  0  0  0  0  # atno 10167 bound_to 10162
  157.6370  130.9448  150.0574 H   0  0  0  0  0  0  0  0  0  0  0  0  # atno 10718 bound_to 10713
  153.5709  135.3502  155.2837 H   0  0  0  0  0  0  0  0  0  0  0  0  # atno 10763 bound_to 10752
  154.8682  135.4159  154.2726 H   0  0  0  0  0  0  0  0  0  0  0  0  # atno 10764 bound_to 10752
  153.3492  135.7054  153.6873 H   0  0  0  0  0  0  0  0  0  0  0  0  # atno 10765 bound_to 10752
  140.7331  134.3598  157.5162 H   0  0  0  0  0  0  0  0  0  0  0  0  # atno 11005 bound_to 11000
  145.4986  141.0438  143.2553 LP  0  0  0  0  0  0  0  0  0  0  0  0  # atno 17320 bound_to 7965
  144.7822  139.6501  143.7149 LP  0  0  0  0  0  0  0  0  0  0  0  0  # atno 17321 bound_to 7965
  140.4333  143.2558  151.9567 LP  0  0  0  0  0  0  0  0  0  0  0  0  # atno 17342 bound_to 10162
  139.4789  144.5723  151.8067 LP  0  0  0  0  0  0  0  0  0  0  0  0  # atno 17343 bound_to 10162
  156.1617  130.3644  149.9290 LP  0  0  0  0  0  0  0  0  0  0  0  0  # atno 17370 bound_to 10713
  156.7286  130.9034  151.3624 LP  0  0  0  0  0  0  0  0  0  0  0  0  # atno 17371 bound_to 10713
  139.8822  134.9032  156.2849 LP  0  0  0  0  0  0  0  0  0  0  0  0  # atno 17394 bound_to 11000
  140.9903  133.7213  156.0804 LP  0  0  0  0  0  0  0  0  0  0  0  0  # atno 17395 bound_to 11000

$$$$
