AV-unprocessed.smi:2855|AV-procd|sdf|10981|dock9
  -GOLD-   2272015433D 1   1.00000     0.00000
 Structure written by MMmdl.
 47 48  0  0  0  0  0  0  0  0  1 V2000
  152.5072  144.0126  159.8996 C   0  0  0  0  0  0  0  0  0  0  0  0
  152.4400  142.4793  159.9408 C   0  0  2  0  0  0  0  0  0  0  0  0
  153.8449  141.8540  159.9682 C   0  0  0  0  0  0  0  0  0  0  0  0
  153.7790  140.3196  160.0134 C   0  0  0  0  0  0  0  0  0  0  0  0
  152.9738  139.7408  158.8259 C   0  0  1  0  0  0  0  0  0  0  0  0
  152.9692  138.1823  158.7840 C   0  0  0  0  0  0  0  0  0  0  0  0
  152.4357  137.5196  160.0673 C   0  0  0  0  0  0  0  0  0  0  0  0
  154.3408  137.5999  158.4022 C   0  0  0  0  0  0  0  0  0  0  0  0
  151.5572  140.3793  158.7902 C   0  0  2  0  0  0  0  0  0  0  0  0
  150.8068  139.9189  157.6231 N   0  0  0  0  0  0  0  0  0  0  0  0
  151.2451  139.9185  156.3547 C   0  0  0  0  0  0  0  0  0  0  0  0
  152.3828  140.2583  156.0276 O   0  0  0  0  0  0  0  0  0  0  0  0
  150.2401  139.4533  155.2929 C   0  0  0  0  0  0  0  0  0  0  0  0
  149.0550  140.3204  155.2254 N   0  0  0  0  0  0  0  0  0  0  0  0
  148.8142  141.0953  154.0997 C   0  0  0  0  0  0  0  0  0  0  0  0
  147.7491  141.9226  153.9782 C   0  0  0  0  0  0  0  0  0  0  0  0
  146.7771  142.0396  155.0602 C   0  0  0  0  0  0  0  0  0  0  0  0
  145.7807  142.7589  155.0438 O   0  0  0  0  0  0  0  0  0  0  0  0
  147.0555  141.2464  156.1765 N   0  0  0  0  0  0  0  0  0  0  0  0
  148.1518  140.3929  156.3090 C   0  0  0  0  0  0  0  0  0  0  0  0
  148.3056  139.7393  157.3405 O   0  0  0  0  0  0  0  0  0  0  0  0
  151.6347  141.9180  158.7557 C   0  0  0  0  0  0  0  0  0  0  0  0
  146.4111  141.2958  156.9521 H   0  0  0  0  0  0  0  0  0  0  0  0
  153.0133  144.3637  158.9999 H   0  0  0  0  0  0  0  0  0  0  0  0
  153.0487  144.4048  160.7609 H   0  0  0  0  0  0  0  0  0  0  0  0
  151.5083  144.4496  159.9121 H   0  0  0  0  0  0  0  0  0  0  0  0
  151.9267  142.1974  160.8615 H   0  0  0  0  0  0  0  0  0  0  0  0
  154.4078  142.1680  159.0880 H   0  0  0  0  0  0  0  0  0  0  0  0
  154.3984  142.2195  160.8340 H   0  0  0  0  0  0  0  0  0  0  0  0
  154.7961  139.9297  160.0152 H   0  0  0  0  0  0  0  0  0  0  0  0
  153.3290  140.0124  160.9577 H   0  0  0  0  0  0  0  0  0  0  0  0
  153.4816  140.0673  157.9165 H   0  0  0  0  0  0  0  0  0  0  0  0
  152.3009  137.8777  157.9787 H   0  0  0  0  0  0  0  0  0  0  0  0
  153.0741  137.7264  160.9259 H   0  0  0  0  0  0  0  0  0  0  0  0
  152.3893  136.4365  159.9509 H   0  0  0  0  0  0  0  0  0  0  0  0
  151.4281  137.8557  160.3086 H   0  0  0  0  0  0  0  0  0  0  0  0
  155.0803  137.7483  159.1888 H   0  0  0  0  0  0  0  0  0  0  0  0
  154.7245  138.0562  157.4892 H   0  0  0  0  0  0  0  0  0  0  0  0
  154.2699  136.5266  158.2242 H   0  0  0  0  0  0  0  0  0  0  0  0
  151.0334  140.1043  159.7066 H   0  0  0  0  0  0  0  0  0  0  0  0
  149.8599  139.6112  157.7905 H   0  0  0  0  0  0  0  0  0  0  0  0
  150.7525  139.4273  154.3303 H   0  0  0  0  0  0  0  0  0  0  0  0
  149.9340  138.4227  155.4860 H   0  0  0  0  0  0  0  0  0  0  0  0
  149.5102  141.0449  153.2745 H   0  0  0  0  0  0  0  0  0  0  0  0
  147.6161  142.5018  153.0760 H   0  0  0  0  0  0  0  0  0  0  0  0
  150.6266  142.3349  158.7688 H   0  0  0  0  0  0  0  0  0  0  0  0
  152.0896  142.2433  157.8186 H   0  0  0  0  0  0  0  0  0  0  0  0
  1  2  1  0  0  0  0
  1 24  1  0  0  0  0
  1 25  1  0  0  0  0
  1 26  1  0  0  0  0
  2 22  1  0  0  0  0
  2  3  1  0  0  0  0
  2 27  1  0  0  0  0
  3  4  1  0  0  0  0
  3 28  1  0  0  0  0
  3 29  1  0  0  0  0
  4  5  1  0  0  0  0
  4 30  1  0  0  0  0
  4 31  1  0  0  0  0
  5  6  1  0  0  0  0
  5  9  1  0  0  0  0
  5 32  1  0  0  0  0
  6  7  1  0  0  0  0
  6  8  1  0  0  0  0
  6 33  1  0  0  0  0
  7 34  1  0  0  0  0
  7 35  1  0  0  0  0
  7 36  1  0  0  0  0
  8 37  1  0  0  0  0
  8 38  1  0  0  0  0
  8 39  1  0  0  0  0
  9 10  1  0  0  0  0
  9 22  1  0  0  0  0
  9 40  1  0  0  0  0
 10 11  1  0  0  0  0
 10 41  1  0  0  0  0
 11 12  2  0  0  0  0
 11 13  1  0  0  0  0
 13 14  1  0  0  0  0
 13 42  1  0  0  0  0
 13 43  1  0  0  0  0
 14 20  1  0  0  0  0
 14 15  1  0  0  0  0
 15 16  2  0  0  0  0
 15 44  1  0  0  0  0
 16 17  1  0  0  0  0
 16 45  1  0  0  0  0
 17 18  2  0  0  0  0
 17 19  1  0  0  0  0
 19 23  1  0  0  0  0
 19 20  1  0  0  0  0
 20 21  2  0  0  0  0
 22 46  1  0  0  0  0
 22 47  1  0  0  0  0
M  END
> <s_m_source_file>
AV-unprocessed.smi

> <i_m_source_file_index>
2855

> <i_lp_mmshare_version>
43012

> <i_f3d_flags>
0

> <s_epik_input>
W0NIM11bQ0BASF0xW0NIMl1bQ0gyXVtDQEBIXShbQ0hdKFtDSDNdKVtDSDNdKVtDQEhdKFtDSDJdMSlbTkhdQyg9TylbQ0gyXW4yW2NIXVtjSF1jKD1PKVtuSF1jMj1P

> <s_epik_cmdline>
J2VwaWtfcHl0aG9uJywgJy1waCcsICc3LjAnLCAnLXRuJywgJzgnLCAnLW1hJywgJzIwMCcsICctbWV0YWxfYmluZGluZycsICctaW1hZScsICc8aW5maWxlLm1hZT4nLCAnLW9tYWUnLCAnPG91dGZpbGUubWFlPic=

> <r_lp_tautomer_probability>
0.999537

> <r_epik_Ionization_Penalty>
0.00306256

> <r_epik_Ionization_Penalty_Charging>
0.00306254

> <r_epik_Ionization_Penalty_Neutral>
2.0223e-08

> <r_epik_State_Penalty>
0.0021533

> <r_epik_Charging_Adjusted_Penalty>
0.00521583

> <i_epik_Tot_Q>
0

> <i_epik_Tot_abs_Q>
0

> <r_epik_Metal_State_Penalty>
0.362116

> <b_epik_Metal_Only>
0

> <s_lp_Force_Field>
OPLS_2005

> <r_lp_Energy>
14.402

> <b_lp_Chiralities_Consistent>
1

> <s_lp_Variant>
AV-unprocessed.smi:2855-5

> <Gold.Version>
5.8.1

> <Gold.Id.Protein>
6NUR|6NUR_protein|mol2

> <Gold.PLP.Fitness>
41.8516

> <Gold.PLP.PLP>
-36.3730

> <Gold.PLP.part.hbond>
-1.0000

> <Gold.PLP.part.metal>
0.0000

> <Gold.PLP.part.buried>
-2.9812

> <Gold.PLP.part.nonpolar>
-32.5208

> <Gold.PLP.part.repulsive>
0.2508

> <Gold.PLP.ligand.clash>
0.0000

> <Gold.PLP.ligand.torsion>
0.2901

> <Gold.PLP.Chemscore.Hbond>
1.0000

> <Gold.PLP.Chemscore.CHOScore>
1.0000

> <Gold.PLP.Chemscore.Metal>
0.0000

> <Gold.Chemscore.Hbonds>
donor molecule, donor type, donor heavy atom, donor atom, acceptor molecule, acceptor atom, score
      P1  H  7997  8010       L1    12  1.00
      L1  C    15    44       P1  7957  1.00

> <Gold.PLP.Chemscore.Internal.Correction>
0.0589

> <Gold.Rescore>
     Score         DG    S(hbond)    S(metal)    S(lipo)     H(rot)  DE(clash)    DE(int)     intcor
     11.72     -15.72       0.89        0.00     102.80       1.85       0.33       3.67       ----

> <Gold.Chemscore.Fitness>
11.7190

> <Gold.Chemscore.DG>
-15.7206

> <Gold.Chemscore.ZeroCoef>
-5.4800

> <Gold.Chemscore.Hbond>
0.8860

> <Gold.Chemscore.Metal>
0.0000

> <Gold.Chemscore.Lipo>
102.7976

> <Gold.Chemscore.Internal_Hbond>
0.0000

> <Gold.Chemscore.DEClash>
0.3344

> <Gold.Chemscore.DEInternal>
3.6672

> <Gold.Chemscore.Rot>
1.8539

> <Gold.Chemscore.Internal.Correction>
   9.000000E+99

> <Gold.Chemscore.Hbonds>
donor molecule, donor type, donor heavy atom, donor atom, acceptor molecule, acceptor atom, score
      P1  H  7997  8010       L1    12  0.95

> <Gold.Chemscore.Hbond.Weighted>
-2.9593

> <Gold.Chemscore.Metal.Weighted>
-0.0000

> <Gold.Chemscore.Lipo.Weighted>
-12.0273

> <Gold.Chemscore.Internal_Hbond.Weighted>
0.0000

> <Gold.Chemscore.DEClash.Weighted>
0.3344

> <Gold.Chemscore.DEInternal.Weighted>
3.6672

> <Gold.Chemscore.Rot.Weighted>
4.7460

> <Gold.Chemscore.Internal.Correction.Weighted>
   9.000000E+99

> <Gold.Protein.RotatedTorsions>
[ 6907 6896 6895 6894 ] final   15.19 input  -60.11 | X-H torsion
[ 7974 7965 7964 7962 ] final -111.94 input  175.53 | X-H torsion
[ 8008 7997 7996 7995 ] final   88.87 input   59.86 | X-H torsion
[ 10167 10162 10161 10158 ] final -143.67 input  -65.29 | X-H torsion
[ 10718 10713 10712 10709 ] final -156.02 input   66.30 | X-H torsion
[ 10763 10752 10751 10750 ] final  -84.63 input  -60.55 | X-H torsion
[ 11005 11000 10999 10996 ] final -155.22 input  -57.11 | X-H torsion

> <Gold.Protein.ActiveResidues>
 VAL166  LYS551  ARG553  GLY616  TRP617  ASP618  TYR619  PRO620  LYS621  CYS622 
 ASP623  PHE694  ASN695  SER759  ASP760  ASP761  ALA762  ILE779  LEU786  VAL792 
 PHE793  MET794  SER795  GLU796  ALA797  LYS798  CYS799  TRP800  GLU811  SER814 

> <Gold.Protein.RotatedAtoms>
  151.8141  135.0672  160.0416 H   0  0  0  0  0  0  0  0  0  0  0  0  # atno 6907 bound_to 6896
  152.2999  133.5640  159.5620 H   0  0  0  0  0  0  0  0  0  0  0  0  # atno 6908 bound_to 6896
  150.7268  134.0223  159.3747 H   0  0  0  0  0  0  0  0  0  0  0  0  # atno 6909 bound_to 6896
  145.1500  140.8824  143.3652 H   0  0  0  0  0  0  0  0  0  0  0  0  # atno 7974 bound_to 7965
  155.9930  140.3367  155.6771 H   0  0  0  0  0  0  0  0  0  0  0  0  # atno 8008 bound_to 7997
  155.6394  140.0693  157.2641 H   0  0  0  0  0  0  0  0  0  0  0  0  # atno 8009 bound_to 7997
  154.4225  140.1745  156.1545 H   0  0  0  0  0  0  0  0  0  0  0  0  # atno 8010 bound_to 7997
  139.7971  143.7885  152.2655 H   0  0  0  0  0  0  0  0  0  0  0  0  # atno 10167 bound_to 10162
  156.5208  130.8477  151.2681 H   0  0  0  0  0  0  0  0  0  0  0  0  # atno 10718 bound_to 10713
  154.6018  135.5513  153.7382 H   0  0  0  0  0  0  0  0  0  0  0  0  # atno 10763 bound_to 10752
  153.0158  135.6368  154.1704 H   0  0  0  0  0  0  0  0  0  0  0  0  # atno 10764 bound_to 10752
  154.1643  135.2895  155.3079 H   0  0  0  0  0  0  0  0  0  0  0  0  # atno 10765 bound_to 10752
  140.6888  134.4064  157.5221 H   0  0  0  0  0  0  0  0  0  0  0  0  # atno 11005 bound_to 11000
  145.0441  139.3235  143.5962 LP  0  0  0  0  0  0  0  0  0  0  0  0  # atno 17320 bound_to 7965
  146.3495  139.9825  142.8694 LP  0  0  0  0  0  0  0  0  0  0  0  0  # atno 17321 bound_to 7965
  139.7994  144.7380  150.9845 LP  0  0  0  0  0  0  0  0  0  0  0  0  # atno 17342 bound_to 10162
  140.7820  143.4360  151.0622 LP  0  0  0  0  0  0  0  0  0  0  0  0  # atno 17343 bound_to 10162
  157.7437  130.9918  150.2614 LP  0  0  0  0  0  0  0  0  0  0  0  0  # atno 17370 bound_to 10713
  156.3151  130.3777  149.7625 LP  0  0  0  0  0  0  0  0  0  0  0  0  # atno 17371 bound_to 10713
  139.8929  134.8742  156.2247 LP  0  0  0  0  0  0  0  0  0  0  0  0  # atno 17394 bound_to 11000
  141.0258  133.7016  156.1345 LP  0  0  0  0  0  0  0  0  0  0  0  0  # atno 17395 bound_to 11000

$$$$
