AV-unprocessed.smi:783|AV-procd|sdf|3717|dock3
  -GOLD-   22720 1143D 1   1.00000     0.00000
 Structure written by MMmdl.
 45 46  0  0  0  0  0  0  0  0  1 V2000
  143.6476  137.2982  153.8053 C   0  0  0  0  0  0  0  0  0  0  0  0
  142.9960  135.9060  153.6762 C   0  0  1  0  0  0  0  0  0  0  0  0
  141.4610  135.9696  153.6635 C   0  0  0  0  0  0  0  0  0  0  0  0
  140.7881  134.9503  153.8210 O   0  0  0  0  0  0  0  0  0  0  0  0
  140.9224  137.1836  153.4680 N   0  0  0  0  0  0  0  0  0  0  0  0
  139.4931  137.4878  153.3957 C   0  0  0  0  0  0  0  0  0  0  0  0
  139.0975  138.7944  154.1508 C   0  0  0  0  0  0  0  0  0  0  0  0
  138.7315  138.5122  155.6489 C   0  0  0  0  0  0  0  0  0  0  0  0
  139.4651  138.9886  156.5188 O   0  0  0  0  0  0  0  0  0  0  0  0
  137.6530  137.7673  156.0156 N   0  0  0  0  0  0  0  0  0  0  0  0
  136.8219  137.1448  154.9792 C   0  0  0  0  0  0  0  0  0  0  0  0
  137.1653  137.4861  157.3687 C   0  0  0  0  0  0  0  0  0  0  0  0
  140.2750  139.8048  154.0520 C   0  0  0  0  0  0  0  0  0  0  0  0
  139.6867  141.2029  154.2690 C   0  0  0  0  0  0  0  0  0  0  0  0
  138.2211  141.0927  153.8431 C   0  0  0  0  0  0  0  0  0  0  0  0
  138.0164  139.6319  153.4200 C   0  0  0  0  0  0  0  0  0  0  0  0
  143.4808  135.1690  152.5148 N   0  0  0  0  0  0  0  0  0  0  0  0
  143.1749  133.8747  152.1455 C   0  0  0  0  0  0  0  0  0  0  0  0
  143.8205  133.6183  150.9699 C   0  0  0  0  0  0  0  0  0  0  0  0
  144.4965  134.8365  150.6836 C   0  0  0  0  0  0  0  0  0  0  0  0
  144.2844  135.7642  151.6023 N   0  0  0  0  0  0  0  0  0  0  0  0
  143.3044  137.8095  154.7054 H   0  0  0  0  0  0  0  0  0  0  0  0
  143.4191  137.9411  152.9543 H   0  0  0  0  0  0  0  0  0  0  0  0
  144.7325  137.2131  153.8727 H   0  0  0  0  0  0  0  0  0  0  0  0
  143.2888  135.3362  154.5599 H   0  0  0  0  0  0  0  0  0  0  0  0
  141.5550  137.9611  153.3473 H   0  0  0  0  0  0  0  0  0  0  0  0
  139.1773  137.5472  152.3527 H   0  0  0  0  0  0  0  0  0  0  0  0
  138.9702  136.6176  153.7815 H   0  0  0  0  0  0  0  0  0  0  0  0
  137.4261  136.5174  154.3218 H   0  0  0  0  0  0  0  0  0  0  0  0
  136.3339  137.9072  154.3704 H   0  0  0  0  0  0  0  0  0  0  0  0
  136.0401  136.5084  155.3961 H   0  0  0  0  0  0  0  0  0  0  0  0
  137.6061  138.0843  158.1576 H   0  0  0  0  0  0  0  0  0  0  0  0
  137.3478  136.4392  157.6131 H   0  0  0  0  0  0  0  0  0  0  0  0
  136.0893  137.6557  157.4243 H   0  0  0  0  0  0  0  0  0  0  0  0
  141.1044  139.5992  154.7299 H   0  0  0  0  0  0  0  0  0  0  0  0
  140.7019  139.7714  153.0484 H   0  0  0  0  0  0  0  0  0  0  0  0
  139.7493  141.4836  155.3212 H   0  0  0  0  0  0  0  0  0  0  0  0
  140.2262  141.9575  153.6959 H   0  0  0  0  0  0  0  0  0  0  0  0
  137.5723  141.3380  154.6850 H   0  0  0  0  0  0  0  0  0  0  0  0
  137.9776  141.7790  153.0314 H   0  0  0  0  0  0  0  0  0  0  0  0
  138.1699  139.5532  152.3427 H   0  0  0  0  0  0  0  0  0  0  0  0
  136.9873  139.3330  153.5987 H   0  0  0  0  0  0  0  0  0  0  0  0
  142.5289  133.2497  152.7442 H   0  0  0  0  0  0  0  0  0  0  0  0
  143.8075  132.7021  150.3984 H   0  0  0  0  0  0  0  0  0  0  0  0
  145.1264  135.0747  149.8393 H   0  0  0  0  0  0  0  0  0  0  0  0
  1  2  1  0  0  0  0
  1 22  1  0  0  0  0
  1 23  1  0  0  0  0
  1 24  1  0  0  0  0
  2  3  1  0  0  0  0
  2 17  1  0  0  0  0
  2 25  1  0  0  0  0
  3  4  2  0  0  0  0
  3  5  1  0  0  0  0
  5  6  1  0  0  0  0
  5 26  1  0  0  0  0
  6  7  1  0  0  0  0
  6 27  1  0  0  0  0
  6 28  1  0  0  0  0
  7 16  1  0  0  0  0
  7  8  1  0  0  0  0
  7 13  1  0  0  0  0
  8  9  2  0  0  0  0
  8 10  1  0  0  0  0
 10 11  1  0  0  0  0
 10 12  1  0  0  0  0
 11 29  1  0  0  0  0
 11 30  1  0  0  0  0
 11 31  1  0  0  0  0
 12 32  1  0  0  0  0
 12 33  1  0  0  0  0
 12 34  1  0  0  0  0
 13 14  1  0  0  0  0
 13 35  1  0  0  0  0
 13 36  1  0  0  0  0
 14 15  1  0  0  0  0
 14 37  1  0  0  0  0
 14 38  1  0  0  0  0
 15 16  1  0  0  0  0
 15 39  1  0  0  0  0
 15 40  1  0  0  0  0
 16 41  1  0  0  0  0
 16 42  1  0  0  0  0
 17 21  1  0  0  0  0
 17 18  1  0  0  0  0
 18 19  2  0  0  0  0
 18 43  1  0  0  0  0
 19 20  1  0  0  0  0
 19 44  1  0  0  0  0
 20 21  2  0  0  0  0
 20 45  1  0  0  0  0
M  END
> <s_m_source_file>
AV-unprocessed.smi

> <i_m_source_file_index>
783

> <i_lp_mmshare_version>
43012

> <i_f3d_flags>
0

> <s_epik_input>
bjFbY0hdW2NIXVtjSF1uMVtDQEhdKFtDSDNdKUMoPU8pW05IXVtDSDJdQzIoQyg9TylOKFtDSDNdKVtDSDNdKVtDSDJdW0NIMl1bQ0gyXVtDSDJdMg==

> <s_epik_cmdline>
J2VwaWtfcHl0aG9uJywgJy1waCcsICc3LjAnLCAnLXRuJywgJzgnLCAnLW1hJywgJzIwMCcsICctbWV0YWxfYmluZGluZycsICctaW1hZScsICc8aW5maWxlLm1hZT4nLCAnLW9tYWUnLCAnPG91dGZpbGUubWFlPic=

> <r_lp_tautomer_probability>
1

> <r_epik_Ionization_Penalty>
3.31274e-05

> <r_epik_Ionization_Penalty_Charging>
0

> <r_epik_Ionization_Penalty_Neutral>
3.31274e-05

> <r_epik_State_Penalty>
-0

> <r_epik_Charging_Adjusted_Penalty>
0

> <i_epik_Tot_Q>
0

> <i_epik_Tot_abs_Q>
0

> <r_epik_Metal_State_Penalty>
-0

> <b_epik_Metal_Only>
0

> <s_lp_Force_Field>
OPLS_2005

> <r_lp_Energy>
40.1786

> <b_lp_Chiralities_Consistent>
1

> <s_lp_Variant>
AV-unprocessed.smi:783-2

> <Gold.Version>
5.8.1

> <Gold.Id.Protein>
6NUR|6NUR_protein|mol2

> <Gold.PLP.Fitness>
39.3814

> <Gold.PLP.PLP>
-32.2693

> <Gold.PLP.part.hbond>
-1.5734

> <Gold.PLP.part.metal>
0.0000

> <Gold.PLP.part.buried>
-5.8710

> <Gold.PLP.part.nonpolar>
-26.3852

> <Gold.PLP.part.repulsive>
0.3764

> <Gold.PLP.ligand.clash>
0.0581

> <Gold.PLP.ligand.torsion>
1.0987

> <Gold.PLP.Chemscore.Hbond>
1.0000

> <Gold.PLP.Chemscore.CHOScore>
2.0000

> <Gold.PLP.Chemscore.Metal>
0.0000

> <Gold.Chemscore.Hbonds>
donor molecule, donor type, donor heavy atom, donor atom, acceptor molecule, acceptor atom, score
      P1  H 11000 11005       L1     4  0.94
      L1  C    18    43       P1 10957  1.00
      L1  C    20    45       P1  7921  1.00

> <Gold.PLP.Chemscore.Internal.Correction>
0.3676

> <Gold.Rescore>
     Score         DG    S(hbond)    S(metal)    S(lipo)     H(rot)  DE(clash)    DE(int)     intcor
     11.76     -13.09       1.00        0.00      77.01       1.84       0.26       1.08       ----

> <Gold.Chemscore.Fitness>
11.7561

> <Gold.Chemscore.DG>
-13.0932

> <Gold.Chemscore.ZeroCoef>
-5.4800

> <Gold.Chemscore.Hbond>
0.9957

> <Gold.Chemscore.Metal>
0.0000

> <Gold.Chemscore.Lipo>
77.0121

> <Gold.Chemscore.Internal_Hbond>
0.0000

> <Gold.Chemscore.DEClash>
0.2589

> <Gold.Chemscore.DEInternal>
1.0783

> <Gold.Chemscore.Rot>
1.8449

> <Gold.Chemscore.Internal.Correction>
   9.000000E+99

> <Gold.Chemscore.Hbonds>
donor molecule, donor type, donor heavy atom, donor atom, acceptor molecule, acceptor atom, score
      P1  H 11000 11005       L1     4  0.88

> <Gold.Chemscore.Hbond.Weighted>
-3.3257

> <Gold.Chemscore.Metal.Weighted>
-0.0000

> <Gold.Chemscore.Lipo.Weighted>
-9.0104

> <Gold.Chemscore.Internal_Hbond.Weighted>
0.0000

> <Gold.Chemscore.DEClash.Weighted>
0.2589

> <Gold.Chemscore.DEInternal.Weighted>
1.0783

> <Gold.Chemscore.Rot.Weighted>
4.7229

> <Gold.Chemscore.Internal.Correction.Weighted>
   9.000000E+99

> <Gold.Protein.RotatedTorsions>
[ 6907 6896 6895 6894 ] final   -4.06 input  -60.11 | X-H torsion
[ 7974 7965 7964 7962 ] final  -41.08 input  175.53 | X-H torsion
[ 8008 7997 7996 7995 ] final -160.58 input   59.86 | X-H torsion
[ 10167 10162 10161 10158 ] final  -33.43 input  -65.29 | X-H torsion
[ 10718 10713 10712 10709 ] final   15.13 input   66.30 | X-H torsion
[ 10763 10752 10751 10750 ] final   13.83 input  -60.55 | X-H torsion
[ 11005 11000 10999 10996 ] final   25.94 input  -57.11 | X-H torsion

> <Gold.Protein.ActiveResidues>
 VAL166  LYS551  ARG553  GLY616  TRP617  ASP618  TYR619  PRO620  LYS621  CYS622 
 ASP623  PHE694  ASN695  SER759  ASP760  ASP761  ALA762  ILE779  LEU786  VAL792 
 PHE793  MET794  SER795  GLU796  ALA797  LYS798  CYS799  TRP800  GLU811  SER814 

> <Gold.Protein.RotatedAtoms>
  151.5038  135.1063  159.9835 H   0  0  0  0  0  0  0  0  0  0  0  0  # atno 6907 bound_to 6896
  152.4690  133.7984  159.6950 H   0  0  0  0  0  0  0  0  0  0  0  0  # atno 6908 bound_to 6896
  150.8689  133.7470  159.2993 H   0  0  0  0  0  0  0  0  0  0  0  0  # atno 6909 bound_to 6896
  146.0245  140.6809  142.9162 H   0  0  0  0  0  0  0  0  0  0  0  0  # atno 7974 bound_to 7965
  155.7795  140.0863  157.2066 H   0  0  0  0  0  0  0  0  0  0  0  0  # atno 8008 bound_to 7997
  154.3991  140.1510  156.3093 H   0  0  0  0  0  0  0  0  0  0  0  0  # atno 8009 bound_to 7997
  155.8667  140.3427  155.5796 H   0  0  0  0  0  0  0  0  0  0  0  0  # atno 8010 bound_to 7997
  140.7204  143.3621  151.1942 H   0  0  0  0  0  0  0  0  0  0  0  0  # atno 10167 bound_to 10162
  157.0490  130.6262  149.5764 H   0  0  0  0  0  0  0  0  0  0  0  0  # atno 10718 bound_to 10713
  153.1682  135.6808  153.8645 H   0  0  0  0  0  0  0  0  0  0  0  0  # atno 10763 bound_to 10752
  153.8017  135.3155  155.3392 H   0  0  0  0  0  0  0  0  0  0  0  0  # atno 10764 bound_to 10752
  154.7980  135.4795  154.0298 H   0  0  0  0  0  0  0  0  0  0  0  0  # atno 10765 bound_to 10752
  140.3424  134.2318  155.7688 H   0  0  0  0  0  0  0  0  0  0  0  0  # atno 11005 bound_to 11000
  144.7003  140.3624  143.7161 LP  0  0  0  0  0  0  0  0  0  0  0  0  # atno 17320 bound_to 7965
  145.7141  139.1692  143.2522 LP  0  0  0  0  0  0  0  0  0  0  0  0  # atno 17321 bound_to 7965
  139.7175  143.9276  152.2972 LP  0  0  0  0  0  0  0  0  0  0  0  0  # atno 17342 bound_to 10162
  139.9022  144.6905  150.8653 LP  0  0  0  0  0  0  0  0  0  0  0  0  # atno 17343 bound_to 10162
  156.0013  130.5093  150.7674 LP  0  0  0  0  0  0  0  0  0  0  0  0  # atno 17370 bound_to 10713
  157.5045  131.0921  151.0274 LP  0  0  0  0  0  0  0  0  0  0  0  0  # atno 17371 bound_to 10713
  141.2035  133.7911  157.0337 LP  0  0  0  0  0  0  0  0  0  0  0  0  # atno 17394 bound_to 11000
  140.0770  134.9670  157.1562 LP  0  0  0  0  0  0  0  0  0  0  0  0  # atno 17395 bound_to 11000

$$$$
