AV-unprocessed.smi:3340|AV-procd|sdf|12880|dock10
  -GOLD-   2272019283D 1   1.00000     0.00000
 Structure written by MMmdl.
 42 43  0  0  0  0  0  0  0  0  2 V2000
  150.7417  140.9986  155.4935 C   0  0  0  0  0  0  0  0  0  0  0  0
  151.4684  139.6553  155.3981 C   0  0  0  0  0  0  0  0  0  0  0  0
  152.6394  139.6054  155.7750 O   0  0  0  0  0  0  0  0  0  0  0  0
  150.8105  138.5773  154.9073 N   0  0  0  0  0  0  0  0  0  0  0  0
  149.3968  138.6244  154.5033 C   0  0  0  0  0  0  0  0  0  0  0  0
  148.5822  137.6793  155.4093 C   0  0  0  0  0  0  0  0  0  0  0  0
  149.1310  136.3147  155.2917 N   0  0  0  0  0  0  0  0  0  0  0  0
  148.5275  135.2550  154.6971 C   0  0  0  0  0  0  0  0  0  0  0  0
  148.9360  134.0990  154.8092 O   0  0  0  0  0  0  0  0  0  0  0  0
  147.4069  135.5600  154.0165 N   0  0  0  0  0  0  0  0  0  0  0  0
  146.5212  134.6474  153.2870 C   0  0  1  0  0  0  0  0  0  0  0  0
  145.1102  134.6303  153.8988 C   0  0  0  0  0  0  0  0  0  0  0  0
  146.4929  134.9151  151.7643 C   0  0  0  0  0  0  0  0  0  0  0  0
  145.3391  134.3030  151.0983 N   0  0  0  0  0  0  0  0  0  0  0  0
  145.0131  132.9717  151.0575 C   0  0  0  0  0  0  0  0  0  0  0  0
  143.8581  132.8747  150.3251 C   0  0  0  0  0  0  0  0  0  0  0  0
  143.5298  134.1495  149.9481 N   0  3  0  0  0  0  0  0  0  0  0  0
  144.4333  135.0164  150.4172 C   0  0  0  0  0  0  0  0  0  0  0  0
  150.5403  136.2767  155.7107 C   0  0  0  0  0  0  0  0  0  0  0  0
  151.3600  137.2159  154.8038 C   0  0  0  0  0  0  0  0  0  0  0  0
  150.4192  141.3348  154.5078 H   0  0  0  0  0  0  0  0  0  0  0  0
  151.4009  141.7633  155.9058 H   0  0  0  0  0  0  0  0  0  0  0  0
  149.8721  140.9231  156.1467 H   0  0  0  0  0  0  0  0  0  0  0  0
  148.9753  139.6292  154.5553 H   0  0  0  0  0  0  0  0  0  0  0  0
  149.3106  138.3169  153.4599 H   0  0  0  0  0  0  0  0  0  0  0  0
  148.6544  138.0037  156.4486 H   0  0  0  0  0  0  0  0  0  0  0  0
  147.5264  137.7585  155.1519 H   0  0  0  0  0  0  0  0  0  0  0  0
  147.1458  136.5353  153.9938 H   0  0  0  0  0  0  0  0  0  0  0  0
  146.9430  133.6533  153.4384 H   0  0  0  0  0  0  0  0  0  0  0  0
  144.4934  133.8619  153.4324 H   0  0  0  0  0  0  0  0  0  0  0  0
  144.5992  135.5843  153.7667 H   0  0  0  0  0  0  0  0  0  0  0  0
  145.1471  134.4167  154.9676 H   0  0  0  0  0  0  0  0  0  0  0  0
  146.4505  135.9883  151.5725 H   0  0  0  0  0  0  0  0  0  0  0  0
  147.3976  134.5530  151.2753 H   0  0  0  0  0  0  0  0  0  0  0  0
  145.6109  132.2132  151.5428 H   0  0  0  0  0  0  0  0  0  0  0  0
  143.2614  132.0169  150.0508 H   0  0  0  0  0  0  0  0  0  0  0  0
  144.4303  136.0826  150.2762 H   0  0  0  0  0  0  0  0  0  0  0  0
  150.6154  136.5971  156.7508 H   0  0  0  0  0  0  0  0  0  0  0  0
  150.9633  135.2718  155.6796 H   0  0  0  0  0  0  0  0  0  0  0  0
  151.2983  136.8849  153.7659 H   0  0  0  0  0  0  0  0  0  0  0  0
  152.4130  137.1468  155.0715 H   0  0  0  0  0  0  0  0  0  0  0  0
  142.7217  134.4024  149.3930 H   0  0  0  0  0  0  0  0  0  0  0  0
  1  2  1  0  0  0  0
  1 21  1  0  0  0  0
  1 22  1  0  0  0  0
  1 23  1  0  0  0  0
  2  3  2  0  0  0  0
  2  4  1  0  0  0  0
  4 20  1  0  0  0  0
  4  5  1  0  0  0  0
  5  6  1  0  0  0  0
  5 24  1  0  0  0  0
  5 25  1  0  0  0  0
  6  7  1  0  0  0  0
  6 26  1  0  0  0  0
  6 27  1  0  0  0  0
  7  8  1  0  0  0  0
  7 19  1  0  0  0  0
  8  9  2  0  0  0  0
  8 10  1  0  0  0  0
 10 11  1  0  0  0  0
 10 28  1  0  0  0  0
 11 12  1  0  0  0  0
 11 13  1  0  0  0  0
 11 29  1  0  0  0  0
 12 30  1  0  0  0  0
 12 31  1  0  0  0  0
 12 32  1  0  0  0  0
 13 14  1  0  0  0  0
 13 33  1  0  0  0  0
 13 34  1  0  0  0  0
 14 18  1  0  0  0  0
 14 15  1  0  0  0  0
 15 16  2  0  0  0  0
 15 35  1  0  0  0  0
 16 17  1  0  0  0  0
 16 36  1  0  0  0  0
 17 18  2  0  0  0  0
 17 42  1  0  0  0  0
 18 37  1  0  0  0  0
 19 20  1  0  0  0  0
 19 38  1  0  0  0  0
 19 39  1  0  0  0  0
 20 40  1  0  0  0  0
 20 41  1  0  0  0  0
M  CHG  1  17   1
M  END
> <s_m_source_file>
AV-unprocessed.smi

> <i_m_source_file_index>
3340

> <i_lp_mmshare_version>
43012

> <i_f3d_flags>
0

> <s_epik_input>
W0NIM11DKD1PKU4xW0NIMl1bQ0gyXU4oW0NIMl1bQ0gyXTEpQyg9TylbTkhdW0NASF0oW0NIM10pW0NIMl1uMltjSF1bY0hdbltjSF0y

> <s_epik_cmdline>
J2VwaWtfcHl0aG9uJywgJy1waCcsICc3LjAnLCAnLXRuJywgJzgnLCAnLW1hJywgJzIwMCcsICctbWV0YWxfYmluZGluZycsICctaW1hZScsICc8aW5maWxlLm1hZT4nLCAnLW9tYWUnLCAnPG91dGZpbGUubWFlPic=

> <r_lp_tautomer_probability>
1

> <r_epik_Ionization_Penalty>
0.254791

> <r_epik_Ionization_Penalty_Charging>
0

> <r_epik_Ionization_Penalty_Neutral>
0.254791

> <r_epik_State_Penalty>
0.246235

> <r_epik_Charging_Adjusted_Penalty>
0.246235

> <i_epik_Tot_Q>
1

> <i_epik_Tot_abs_Q>
1

> <r_epik_Metal_State_Penalty>
0.536161

> <b_epik_Metal_Only>
0

> <s_lp_Force_Field>
OPLS_2005

> <r_lp_Energy>
52.654

> <b_lp_Chiralities_Consistent>
1

> <s_lp_Variant>
AV-unprocessed.smi:3340-2

> <Gold.Version>
5.8.1

> <Gold.Id.Protein>
6NUR|6NUR_protein|mol2

> <Gold.PLP.Fitness>
40.2140

> <Gold.PLP.PLP>
-30.1696

> <Gold.PLP.part.hbond>
-3.0000

> <Gold.PLP.part.metal>
0.0000

> <Gold.PLP.part.buried>
1.2804

> <Gold.PLP.part.nonpolar>
-27.4374

> <Gold.PLP.part.repulsive>
0.1499

> <Gold.PLP.ligand.clash>
0.0000

> <Gold.PLP.ligand.torsion>
0.3407

> <Gold.PLP.Chemscore.Hbond>
2.9840

> <Gold.PLP.Chemscore.CHOScore>
0.5656

> <Gold.PLP.Chemscore.Metal>
0.0000

> <Gold.Chemscore.Hbonds>
donor molecule, donor type, donor heavy atom, donor atom, acceptor molecule, acceptor atom, score
      L1  H    17    42       P1 10186  1.57
      P1  H  7997  8009       L1     3  1.00
      L1  C    18    37       P1 10171  0.85

> <Gold.PLP.Chemscore.Internal.Correction>
0.0773

> <Gold.Rescore>
     Score         DG    S(hbond)    S(metal)    S(lipo)     H(rot)  DE(clash)    DE(int)     intcor
     11.97     -13.67       1.99        0.00      50.20       1.70       1.30       0.40       ----

> <Gold.Chemscore.Fitness>
11.9668

> <Gold.Chemscore.DG>
-13.6708

> <Gold.Chemscore.ZeroCoef>
-5.4800

> <Gold.Chemscore.Hbond>
1.9950

> <Gold.Chemscore.Metal>
0.0000

> <Gold.Chemscore.Lipo>
50.1980

> <Gold.Chemscore.Internal_Hbond>
0.0000

> <Gold.Chemscore.DEClash>
1.3024

> <Gold.Chemscore.DEInternal>
0.4016

> <Gold.Chemscore.Rot>
1.6975

> <Gold.Chemscore.Internal.Correction>
   9.000000E+99

> <Gold.Chemscore.Hbonds>
donor molecule, donor type, donor heavy atom, donor atom, acceptor molecule, acceptor atom, score
      L1  H    17    42       P1 10186  0.77
      P1  H  7997  8009       L1     3  1.00

> <Gold.Chemscore.Hbond.Weighted>
-6.6632

> <Gold.Chemscore.Metal.Weighted>
-0.0000

> <Gold.Chemscore.Lipo.Weighted>
-5.8732

> <Gold.Chemscore.Internal_Hbond.Weighted>
0.0000

> <Gold.Chemscore.DEClash.Weighted>
1.3024

> <Gold.Chemscore.DEInternal.Weighted>
0.4016

> <Gold.Chemscore.Rot.Weighted>
4.3455

> <Gold.Chemscore.Internal.Correction.Weighted>
   9.000000E+99

> <Gold.Protein.RotatedTorsions>
[ 6907 6896 6895 6894 ] final  147.16 input  -60.11 | X-H torsion
[ 7974 7965 7964 7962 ] final -165.41 input  175.53 | X-H torsion
[ 8008 7997 7996 7995 ] final -150.38 input   59.86 | X-H torsion
[ 10167 10162 10161 10158 ] final  125.61 input  -65.29 | X-H torsion
[ 10718 10713 10712 10709 ] final  -37.88 input   66.30 | X-H torsion
[ 10763 10752 10751 10750 ] final   -7.39 input  -60.55 | X-H torsion
[ 11005 11000 10999 10996 ] final   94.98 input  -57.11 | X-H torsion

> <Gold.Protein.ActiveResidues>
 VAL166  LYS551  ARG553  GLY616  TRP617  ASP618  TYR619  PRO620  LYS621  CYS622 
 ASP623  PHE694  ASN695  SER759  ASP760  ASP761  ALA762  ILE779  LEU786  VAL792 
 PHE793  MET794  SER795  GLU796  ALA797  LYS798  CYS799  TRP800  GLU811  SER814 

> <Gold.Protein.RotatedAtoms>
  152.1584  133.4566  159.4848 H   0  0  0  0  0  0  0  0  0  0  0  0  # atno 6907 bound_to 6896
  150.6904  134.2102  159.4365 H   0  0  0  0  0  0  0  0  0  0  0  0  # atno 6908 bound_to 6896
  152.0003  134.9931  160.0615 H   0  0  0  0  0  0  0  0  0  0  0  0  # atno 6909 bound_to 6896
  144.7271  140.2819  143.6234 H   0  0  0  0  0  0  0  0  0  0  0  0  # atno 7974 bound_to 7965
  155.6226  140.0683  157.2673 H   0  0  0  0  0  0  0  0  0  0  0  0  # atno 8008 bound_to 7997
  154.4225  140.1782  156.1436 H   0  0  0  0  0  0  0  0  0  0  0  0  # atno 8009 bound_to 7997
  155.9997  140.3337  155.6837 H   0  0  0  0  0  0  0  0  0  0  0  0  # atno 8010 bound_to 7997
  139.5676  144.6920  151.3867 H   0  0  0  0  0  0  0  0  0  0  0  0  # atno 10167 bound_to 10162
  156.3101  130.4251  149.8059 H   0  0  0  0  0  0  0  0  0  0  0  0  # atno 10718 bound_to 10713
  153.4257  135.7011  153.6264 H   0  0  0  0  0  0  0  0  0  0  0  0  # atno 10763 bound_to 10752
  153.4700  135.3717  155.2386 H   0  0  0  0  0  0  0  0  0  0  0  0  # atno 10764 bound_to 10752
  154.8724  135.4040  154.3633 H   0  0  0  0  0  0  0  0  0  0  0  0  # atno 10765 bound_to 10752
  139.8793  134.8874  156.3944 H   0  0  0  0  0  0  0  0  0  0  0  0  # atno 11005 bound_to 11000
  145.7941  139.1938  143.2086 LP  0  0  0  0  0  0  0  0  0  0  0  0  # atno 17320 bound_to 7965
  146.0731  140.7847  142.9678 LP  0  0  0  0  0  0  0  0  0  0  0  0  # atno 17321 bound_to 7965
  140.6960  143.7748  150.7327 LP  0  0  0  0  0  0  0  0  0  0  0  0  # atno 17342 bound_to 10162
  140.1244  143.4582  152.2293 LP  0  0  0  0  0  0  0  0  0  0  0  0  # atno 17343 bound_to 10162
  156.5405  130.8298  151.3267 LP  0  0  0  0  0  0  0  0  0  0  0  0  # atno 17370 bound_to 10713
  157.7389  130.9821  150.2279 LP  0  0  0  0  0  0  0  0  0  0  0  0  # atno 17371 bound_to 10713
  140.9311  133.7579  156.0025 LP  0  0  0  0  0  0  0  0  0  0  0  0  # atno 17394 bound_to 11000
  140.8330  134.3156  157.5342 LP  0  0  0  0  0  0  0  0  0  0  0  0  # atno 17395 bound_to 11000

$$$$
