AV-unprocessed.smi:1382|AV-procd|sdf|5621|dock6
  -GOLD-   22720 5233D 1   1.00000     0.00000
 Structure written by MMmdl.
 44 45  0  0  0  0  0  0  0  0  1 V2000
  143.7259  133.4836  151.4310 C   0  0  0  0  0  0  0  0  0  0  0  0
  144.9537  133.9611  150.6485 C   0  0  0  0  0  0  0  0  0  0  0  0
  145.8427  134.9093  151.4692 C   0  0  0  0  0  0  0  0  0  0  0  0
  145.4449  136.3961  151.3636 C   0  0  0  0  0  0  0  0  0  0  0  0
  145.6272  137.1491  152.5918 N   0  0  0  0  0  0  0  0  0  0  0  0
  146.5813  138.1587  152.7614 C   0  0  0  0  0  0  0  0  0  0  0  0
  147.4149  138.4594  151.6940 N   0  0  0  0  0  0  0  0  0  0  0  0
  146.6959  138.8476  153.9367 C   0  0  0  0  0  0  0  0  0  0  0  0
  147.6816  139.8346  154.1188 N   0  0  0  0  0  0  0  0  0  0  0  0
  147.4916  141.1057  153.4143 C   0  0  0  0  0  0  0  0  0  0  0  0
  148.7443  139.6724  154.9490 C   0  0  0  0  0  0  0  0  0  0  0  0
  148.8772  138.6563  155.6338 O   0  0  0  0  0  0  0  0  0  0  0  0
  149.8349  140.7736  155.0189 C   0  0  1  0  0  0  0  0  0  0  0  0
  150.0011  141.4342  156.3934 C   0  0  0  0  0  0  0  0  0  0  0  0
  150.9083  140.4798  157.1575 C   0  0  0  0  0  0  0  0  0  0  0  0
  151.5807  139.6471  156.0615 C   0  0  0  0  0  0  0  0  0  0  0  0
  151.1277  140.2050  154.8314 O   0  0  0  0  0  0  0  0  0  0  0  0
  145.8451  138.5116  155.0862 C   0  0  0  0  0  0  0  0  0  0  0  0
  145.8922  139.0440  156.1946 O   0  0  0  0  0  0  0  0  0  0  0  0
  144.9271  137.4906  154.8569 N   0  0  0  0  0  0  0  0  0  0  0  0
  144.7752  136.7923  153.6646 C   0  0  0  0  0  0  0  0  0  0  0  0
  143.9257  135.9037  153.5905 O   0  0  0  0  0  0  0  0  0  0  0  0
  144.3236  137.2313  155.6235 H   0  0  0  0  0  0  0  0  0  0  0  0
  143.1165  132.8123  150.8258 H   0  0  0  0  0  0  0  0  0  0  0  0
  143.0985  134.3236  151.7304 H   0  0  0  0  0  0  0  0  0  0  0  0
  144.0188  132.9450  152.3327 H   0  0  0  0  0  0  0  0  0  0  0  0
  145.5302  133.0917  150.3316 H   0  0  0  0  0  0  0  0  0  0  0  0
  144.6248  134.4642  149.7387 H   0  0  0  0  0  0  0  0  0  0  0  0
  145.7990  134.6160  152.5186 H   0  0  0  0  0  0  0  0  0  0  0  0
  146.8827  134.7810  151.1678 H   0  0  0  0  0  0  0  0  0  0  0  0
  146.0086  136.8996  150.5797 H   0  0  0  0  0  0  0  0  0  0  0  0
  144.3999  136.5094  151.0685 H   0  0  0  0  0  0  0  0  0  0  0  0
  147.3466  137.9713  150.8122 H   0  0  0  0  0  0  0  0  0  0  0  0
  148.0918  139.2072  151.7410 H   0  0  0  0  0  0  0  0  0  0  0  0
  147.3626  141.9247  154.1234 H   0  0  0  0  0  0  0  0  0  0  0  0
  146.6108  141.0822  152.7708 H   0  0  0  0  0  0  0  0  0  0  0  0
  148.3510  141.3300  152.7806 H   0  0  0  0  0  0  0  0  0  0  0  0
  149.6346  141.5296  154.2601 H   0  0  0  0  0  0  0  0  0  0  0  0
  150.5047  142.3937  156.2699 H   0  0  0  0  0  0  0  0  0  0  0  0
  149.0613  141.6316  156.9106 H   0  0  0  0  0  0  0  0  0  0  0  0
  151.6331  141.0214  157.7661 H   0  0  0  0  0  0  0  0  0  0  0  0
  150.3283  139.8356  157.8195 H   0  0  0  0  0  0  0  0  0  0  0  0
  152.6686  139.6831  156.1201 H   0  0  0  0  0  0  0  0  0  0  0  0
  151.2730  138.6024  156.1256 H   0  0  0  0  0  0  0  0  0  0  0  0
  1  2  1  0  0  0  0
  1 24  1  0  0  0  0
  1 25  1  0  0  0  0
  1 26  1  0  0  0  0
  2  3  1  0  0  0  0
  2 27  1  0  0  0  0
  2 28  1  0  0  0  0
  3  4  1  0  0  0  0
  3 29  1  0  0  0  0
  3 30  1  0  0  0  0
  4  5  1  0  0  0  0
  4 31  1  0  0  0  0
  4 32  1  0  0  0  0
  5 21  1  0  0  0  0
  5  6  1  0  0  0  0
  6  7  1  0  0  0  0
  6  8  2  0  0  0  0
  7 33  1  0  0  0  0
  7 34  1  0  0  0  0
  8  9  1  0  0  0  0
  8 18  1  0  0  0  0
  9 10  1  0  0  0  0
  9 11  1  0  0  0  0
 10 35  1  0  0  0  0
 10 36  1  0  0  0  0
 10 37  1  0  0  0  0
 11 12  2  0  0  0  0
 11 13  1  0  0  0  0
 13 17  1  0  0  0  0
 13 14  1  0  0  0  0
 13 38  1  0  0  0  0
 14 15  1  0  0  0  0
 14 39  1  0  0  0  0
 14 40  1  0  0  0  0
 15 16  1  0  0  0  0
 15 41  1  0  0  0  0
 15 42  1  0  0  0  0
 16 17  1  0  0  0  0
 16 43  1  0  0  0  0
 16 44  1  0  0  0  0
 18 19  2  0  0  0  0
 18 20  1  0  0  0  0
 20 23  1  0  0  0  0
 20 21  1  0  0  0  0
 21 22  2  0  0  0  0
M  END
> <s_m_source_file>
AV-unprocessed.smi

> <i_m_source_file_index>
1382

> <i_lp_mmshare_version>
43012

> <i_f3d_flags>
0

> <s_epik_input>
W0NIM11bQ0gyXVtDSDJdW0NIMl1uMWMoW05IMl0pYyhjKD1PKVtuSF1jMT1PKU4oW0NIM10pQyg9TylbQ0BASF0yW0NIMl1bQ0gyXVtDSDJdTzI=

> <s_epik_cmdline>
J2VwaWtfcHl0aG9uJywgJy1waCcsICc3LjAnLCAnLXRuJywgJzgnLCAnLW1hJywgJzIwMCcsICctbWV0YWxfYmluZGluZycsICctaW1hZScsICc8aW5maWxlLm1hZT4nLCAnLW9tYWUnLCAnPG91dGZpbGUubWFlPic=

> <r_lp_tautomer_probability>
1

> <r_epik_Ionization_Penalty>
1.19634e-05

> <r_epik_Ionization_Penalty_Charging>
6.01811e-06

> <r_epik_Ionization_Penalty_Neutral>
5.94533e-06

> <r_epik_State_Penalty>
-0

> <r_epik_Charging_Adjusted_Penalty>
6.01811e-06

> <i_epik_Tot_Q>
0

> <i_epik_Tot_abs_Q>
0

> <r_epik_Metal_State_Penalty>
-0

> <b_epik_Metal_Only>
0

> <s_epik_Chemistry_Notes>
This compound has an imine and may undergo hydrolysis.

> <s_lp_Force_Field>
OPLS_2005

> <r_lp_Energy>
42.8449

> <b_lp_Chiralities_Consistent>
1

> <s_lp_Variant>
AV-unprocessed.smi:1382-2

> <Gold.Version>
5.8.1

> <Gold.Id.Protein>
6NUR|6NUR_protein|mol2

> <Gold.PLP.Fitness>
35.6381

> <Gold.PLP.PLP>
-31.1600

> <Gold.PLP.part.hbond>
-2.9346

> <Gold.PLP.part.metal>
0.0000

> <Gold.PLP.part.buried>
-3.7859

> <Gold.PLP.part.nonpolar>
-25.0784

> <Gold.PLP.part.repulsive>
1.1863

> <Gold.PLP.ligand.clash>
0.0000

> <Gold.PLP.ligand.torsion>
1.8708

> <Gold.PLP.Chemscore.Hbond>
1.9920

> <Gold.PLP.Chemscore.CHOScore>
0.0000

> <Gold.PLP.Chemscore.Metal>
0.0000

> <Gold.Chemscore.Hbonds>
donor molecule, donor type, donor heavy atom, donor atom, acceptor molecule, acceptor atom, score
      L1  H     7    34       P1  7957  1.00
      P1  H  7989  7998       L1    17  1.00

> <Gold.PLP.Chemscore.Internal.Correction>
2.2436

> <Gold.Rescore>
     Score         DG    S(hbond)    S(metal)    S(lipo)     H(rot)  DE(clash)    DE(int)     intcor
     10.82     -13.96       1.80        0.00      58.18       1.69       0.03       3.11       ----

> <Gold.Chemscore.Fitness>
10.8194

> <Gold.Chemscore.DG>
-13.9636

> <Gold.Chemscore.ZeroCoef>
-5.4800

> <Gold.Chemscore.Hbond>
1.8005

> <Gold.Chemscore.Metal>
0.0000

> <Gold.Chemscore.Lipo>
58.1807

> <Gold.Chemscore.Internal_Hbond>
0.0000

> <Gold.Chemscore.DEClash>
0.0330

> <Gold.Chemscore.DEInternal>
3.1112

> <Gold.Chemscore.Rot>
1.6942

> <Gold.Chemscore.Internal.Correction>
   9.000000E+99

> <Gold.Chemscore.Hbonds>
donor molecule, donor type, donor heavy atom, donor atom, acceptor molecule, acceptor atom, score
      L1  H     7    34       P1  7957  0.92
      P1  H  7989  7998       L1    17  0.43

> <Gold.Chemscore.Hbond.Weighted>
-6.0137

> <Gold.Chemscore.Metal.Weighted>
-0.0000

> <Gold.Chemscore.Lipo.Weighted>
-6.8071

> <Gold.Chemscore.Internal_Hbond.Weighted>
0.0000

> <Gold.Chemscore.DEClash.Weighted>
0.0330

> <Gold.Chemscore.DEInternal.Weighted>
3.1112

> <Gold.Chemscore.Rot.Weighted>
4.3372

> <Gold.Chemscore.Internal.Correction.Weighted>
   9.000000E+99

> <Gold.Protein.RotatedTorsions>
[ 6907 6896 6895 6894 ] final -123.19 input  -60.11 | X-H torsion
[ 7974 7965 7964 7962 ] final  -22.98 input  175.53 | X-H torsion
[ 8008 7997 7996 7995 ] final   56.37 input   59.86 | X-H torsion
[ 10167 10162 10161 10158 ] final  132.39 input  -65.29 | X-H torsion
[ 10718 10713 10712 10709 ] final  139.27 input   66.30 | X-H torsion
[ 10763 10752 10751 10750 ] final -173.37 input  -60.55 | X-H torsion
[ 11005 11000 10999 10996 ] final -144.57 input  -57.11 | X-H torsion

> <Gold.Protein.ActiveResidues>
 VAL166  LYS551  ARG553  GLY616  TRP617  ASP618  TYR619  PRO620  LYS621  CYS622 
 ASP623  PHE694  ASN695  SER759  ASP760  ASP761  ALA762  ILE779  LEU786  VAL792 
 PHE793  MET794  SER795  GLU796  ALA797  LYS798  CYS799  TRP800  GLU811  SER814 

> <Gold.Protein.RotatedAtoms>
  150.8647  133.7592  159.2980 H   0  0  0  0  0  0  0  0  0  0  0  0  # atno 6907 bound_to 6896
  151.5223  135.1066  159.9891 H   0  0  0  0  0  0  0  0  0  0  0  0  # atno 6908 bound_to 6896
  152.4652  133.7863  159.6933 H   0  0  0  0  0  0  0  0  0  0  0  0  # atno 6909 bound_to 6896
  146.1643  140.4554  142.8558 H   0  0  0  0  0  0  0  0  0  0  0  0  # atno 7974 bound_to 7965
  155.5164  140.3478  155.4398 H   0  0  0  0  0  0  0  0  0  0  0  0  # atno 8008 bound_to 7997
  156.0814  140.1387  156.9734 H   0  0  0  0  0  0  0  0  0  0  0  0  # atno 8009 bound_to 7997
  154.4582  140.0945  156.6794 H   0  0  0  0  0  0  0  0  0  0  0  0  # atno 8010 bound_to 7997
  139.5342  144.6664  151.4845 H   0  0  0  0  0  0  0  0  0  0  0  0  # atno 10167 bound_to 10162
  157.4162  131.1033  151.0402 H   0  0  0  0  0  0  0  0  0  0  0  0  # atno 10718 bound_to 10713
  154.6086  135.2862  155.0457 H   0  0  0  0  0  0  0  0  0  0  0  0  # atno 10763 bound_to 10752
  154.1695  135.6475  153.5009 H   0  0  0  0  0  0  0  0  0  0  0  0  # atno 10764 bound_to 10752
  153.0186  135.5397  154.6832 H   0  0  0  0  0  0  0  0  0  0  0  0  # atno 10765 bound_to 10752
  140.8011  134.2856  157.4978 H   0  0  0  0  0  0  0  0  0  0  0  0  # atno 11005 bound_to 11000
  144.8071  140.6318  143.6440 LP  0  0  0  0  0  0  0  0  0  0  0  0  # atno 17320 bound_to 7965
  145.4507  139.1524  143.3920 LP  0  0  0  0  0  0  0  0  0  0  0  0  # atno 17321 bound_to 7965
  140.6538  143.8641  150.6813 LP  0  0  0  0  0  0  0  0  0  0  0  0  # atno 17342 bound_to 10162
  140.2014  143.3956  152.1788 LP  0  0  0  0  0  0  0  0  0  0  0  0  # atno 17343 bound_to 10162
  157.1348  130.6118  149.5539 LP  0  0  0  0  0  0  0  0  0  0  0  0  # atno 17370 bound_to 10713
  155.9866  130.4901  150.7086 LP  0  0  0  0  0  0  0  0  0  0  0  0  # atno 17371 bound_to 10713
  139.8721  134.9430  156.3840 LP  0  0  0  0  0  0  0  0  0  0  0  0  # atno 17394 bound_to 11000
  140.9294  133.7590  156.0005 LP  0  0  0  0  0  0  0  0  0  0  0  0  # atno 17395 bound_to 11000

$$$$
