AV-unprocessed.smi:2065|AV-procd|sdf|8418|dock5
  -GOLD-   2272011113D 1   1.00000     0.00000
 Structure written by MMmdl.
 38 39  0  0  0  0  0  0  0  0  1 V2000
  146.7483  142.3130  154.8158 C   0  0  0  0  0  0  0  0  0  0  0  0
  147.2143  140.9423  154.4224 C   0  0  0  0  0  0  0  0  0  0  0  0
  146.5409  139.9871  153.6064 C   0  0  0  0  0  0  0  0  0  0  0  0
  147.4178  138.9372  153.5863 C   0  0  0  0  0  0  0  0  0  0  0  0
  147.3013  137.7369  152.9584 N   0  0  0  0  0  0  0  0  0  0  0  0
  146.1917  137.0151  152.7238 C   0  0  0  0  0  0  0  0  0  0  0  0
  145.0486  137.3338  153.0520 O   0  0  0  0  0  0  0  0  0  0  0  0
  146.4840  135.8805  152.0715 N   0  0  0  0  0  0  0  0  0  0  0  0
  145.5239  134.8486  151.6756 C   0  0  1  0  0  0  0  0  0  0  0  0
  146.2026  133.8203  150.7431 C   0  0  0  0  0  0  0  0  0  0  0  0
  145.2214  133.0409  149.8527 C   0  0  0  0  0  0  0  0  0  0  0  0
  144.2187  132.1606  150.6136 C   0  0  0  0  0  0  0  0  0  0  0  0
  143.2292  132.9588  151.4801 C   0  0  0  0  0  0  0  0  0  0  0  0
  143.8136  133.3923  152.7431 N   0  0  0  0  0  0  0  0  0  0  0  0
  144.8478  134.2298  152.9138 C   0  0  0  0  0  0  0  0  0  0  0  0
  145.2561  134.4951  154.0444 O   0  0  0  0  0  0  0  0  0  0  0  0
  148.5220  139.2649  154.3410 N   0  0  0  0  0  0  0  0  0  0  0  0
  149.7112  138.4837  154.6195 C   0  0  0  0  0  0  0  0  0  0  0  0
  148.3920  140.5069  154.8556 N   0  0  0  0  0  0  0  0  0  0  0  0
  145.7375  142.5040  154.4548 H   0  0  0  0  0  0  0  0  0  0  0  0
  147.3994  143.0825  154.4004 H   0  0  0  0  0  0  0  0  0  0  0  0
  146.7407  142.4301  155.8996 H   0  0  0  0  0  0  0  0  0  0  0  0
  145.5776  140.0783  153.1277 H   0  0  0  0  0  0  0  0  0  0  0  0
  148.1673  137.3418  152.6224 H   0  0  0  0  0  0  0  0  0  0  0  0
  147.4514  135.6977  151.8472 H   0  0  0  0  0  0  0  0  0  0  0  0
  144.7323  135.3518  151.1169 H   0  0  0  0  0  0  0  0  0  0  0  0
  146.9007  134.3336  150.0803 H   0  0  0  0  0  0  0  0  0  0  0  0
  146.8092  133.1271  151.3277 H   0  0  0  0  0  0  0  0  0  0  0  0
  144.6805  133.7381  149.2115 H   0  0  0  0  0  0  0  0  0  0  0  0
  145.7972  132.4057  149.1789 H   0  0  0  0  0  0  0  0  0  0  0  0
  143.6476  131.5913  149.8794 H   0  0  0  0  0  0  0  0  0  0  0  0
  144.7445  131.4217  151.2201 H   0  0  0  0  0  0  0  0  0  0  0  0
  142.8256  133.8125  150.9340 H   0  0  0  0  0  0  0  0  0  0  0  0
  142.3780  132.3233  151.7255 H   0  0  0  0  0  0  0  0  0  0  0  0
  143.3956  133.0086  153.5784 H   0  0  0  0  0  0  0  0  0  0  0  0
  150.2081  138.2271  153.6833 H   0  0  0  0  0  0  0  0  0  0  0  0
  149.4324  137.5663  155.1384 H   0  0  0  0  0  0  0  0  0  0  0  0
  150.4050  139.0476  155.2448 H   0  0  0  0  0  0  0  0  0  0  0  0
  1  2  1  0  0  0  0
  1 20  1  0  0  0  0
  1 21  1  0  0  0  0
  1 22  1  0  0  0  0
  2 19  2  0  0  0  0
  2  3  1  0  0  0  0
  3  4  2  0  0  0  0
  3 23  1  0  0  0  0
  4  5  1  0  0  0  0
  4 17  1  0  0  0  0
  5  6  1  0  0  0  0
  5 24  1  0  0  0  0
  6  7  2  0  0  0  0
  6  8  1  0  0  0  0
  8  9  1  0  0  0  0
  8 25  1  0  0  0  0
  9 15  1  0  0  0  0
  9 10  1  0  0  0  0
  9 26  1  0  0  0  0
 10 11  1  0  0  0  0
 10 27  1  0  0  0  0
 10 28  1  0  0  0  0
 11 12  1  0  0  0  0
 11 29  1  0  0  0  0
 11 30  1  0  0  0  0
 12 13  1  0  0  0  0
 12 31  1  0  0  0  0
 12 32  1  0  0  0  0
 13 14  1  0  0  0  0
 13 33  1  0  0  0  0
 13 34  1  0  0  0  0
 14 15  1  0  0  0  0
 14 35  1  0  0  0  0
 15 16  2  0  0  0  0
 17 18  1  0  0  0  0
 17 19  1  0  0  0  0
 18 36  1  0  0  0  0
 18 37  1  0  0  0  0
 18 38  1  0  0  0  0
M  END
> <s_m_source_file>
AV-unprocessed.smi

> <i_m_source_file_index>
2065

> <i_lp_mmshare_version>
43012

> <i_f3d_flags>
0

> <s_epik_input>
W0NIM11jMVtjSF1jKG4objEpW0NIM10pW05IXUMoPU8pW05IXVtDQEBIXTJbQ0gyXVtDSDJdW0NIMl1bQ0gyXVtOSF1DMj1P

> <s_epik_cmdline>
J2VwaWtfcHl0aG9uJywgJy1waCcsICc3LjAnLCAnLXRuJywgJzgnLCAnLW1hJywgJzIwMCcsICctbWV0YWxfYmluZGluZycsICctaW1hZScsICc8aW5maWxlLm1hZT4nLCAnLW9tYWUnLCAnPG91dGZpbGUubWFlPic=

> <r_lp_tautomer_probability>
1

> <r_epik_Ionization_Penalty>
8.1752e-05

> <r_epik_Ionization_Penalty_Charging>
0

> <r_epik_Ionization_Penalty_Neutral>
8.1752e-05

> <r_epik_State_Penalty>
-0

> <r_epik_Charging_Adjusted_Penalty>
0

> <i_epik_Tot_Q>
0

> <i_epik_Tot_abs_Q>
0

> <r_epik_Metal_State_Penalty>
-0

> <b_epik_Metal_Only>
0

> <s_lp_Force_Field>
OPLS_2005

> <r_lp_Energy>
11.1948

> <b_lp_Chiralities_Consistent>
1

> <s_lp_Variant>
AV-unprocessed.smi:2065-2

> <Gold.Version>
5.8.1

> <Gold.Id.Protein>
6NUR|6NUR_protein|mol2

> <Gold.PLP.Fitness>
38.0493

> <Gold.PLP.PLP>
-29.6857

> <Gold.PLP.part.hbond>
-2.6674

> <Gold.PLP.part.metal>
0.0000

> <Gold.PLP.part.buried>
0.4803

> <Gold.PLP.part.nonpolar>
-27.8276

> <Gold.PLP.part.repulsive>
0.5313

> <Gold.PLP.ligand.clash>
0.0000

> <Gold.PLP.ligand.torsion>
0.2707

> <Gold.PLP.Chemscore.Hbond>
2.9593

> <Gold.PLP.Chemscore.CHOScore>
0.0000

> <Gold.PLP.Chemscore.Metal>
0.0000

> <Gold.Chemscore.Hbonds>
donor molecule, donor type, donor heavy atom, donor atom, acceptor molecule, acceptor atom, score
      L1  H     5    24       P1  7948  1.00
      L1  H     8    25       P1  7948  0.98
      L1  H    14    35       P1 10957  1.00

> <Gold.PLP.Chemscore.Internal.Correction>
0.0271

> <Gold.Rescore>
     Score         DG    S(hbond)    S(metal)    S(lipo)     H(rot)  DE(clash)    DE(int)     intcor
     17.77     -19.60       2.80        0.00      62.48       1.00       1.41       0.41       ----

> <Gold.Chemscore.Fitness>
17.7714

> <Gold.Chemscore.DG>
-19.5961

> <Gold.Chemscore.ZeroCoef>
-5.4800

> <Gold.Chemscore.Hbond>
2.8040

> <Gold.Chemscore.Metal>
0.0000

> <Gold.Chemscore.Lipo>
62.4847

> <Gold.Chemscore.Internal_Hbond>
0.0000

> <Gold.Chemscore.DEClash>
1.4142

> <Gold.Chemscore.DEInternal>
0.4105

> <Gold.Chemscore.Rot>
1.0000

> <Gold.Chemscore.Internal.Correction>
   9.000000E+99

> <Gold.Chemscore.Hbonds>
donor molecule, donor type, donor heavy atom, donor atom, acceptor molecule, acceptor atom, score
      L1  H     5    24       P1  7948  0.92
      L1  H     8    25       P1  7948  0.90
      L1  H    14    35       P1 10957  0.92

> <Gold.Chemscore.Hbond.Weighted>
-9.3654

> <Gold.Chemscore.Metal.Weighted>
-0.0000

> <Gold.Chemscore.Lipo.Weighted>
-7.3107

> <Gold.Chemscore.Internal_Hbond.Weighted>
0.0000

> <Gold.Chemscore.DEClash.Weighted>
1.4142

> <Gold.Chemscore.DEInternal.Weighted>
0.4105

> <Gold.Chemscore.Rot.Weighted>
2.5600

> <Gold.Chemscore.Internal.Correction.Weighted>
   9.000000E+99

> <Gold.Protein.RotatedTorsions>
[ 6907 6896 6895 6894 ] final  120.20 input  -60.11 | X-H torsion
[ 7974 7965 7964 7962 ] final   60.07 input  175.53 | X-H torsion
[ 8008 7997 7996 7995 ] final  112.32 input   59.86 | X-H torsion
[ 10167 10162 10161 10158 ] final   49.84 input  -65.29 | X-H torsion
[ 10718 10713 10712 10709 ] final -156.38 input   66.30 | X-H torsion
[ 10763 10752 10751 10750 ] final   51.27 input  -60.55 | X-H torsion
[ 11005 11000 10999 10996 ] final   -8.75 input  -57.11 | X-H torsion

> <Gold.Protein.ActiveResidues>
 VAL166  LYS551  ARG553  GLY616  TRP617  ASP618  TYR619  PRO620  LYS621  CYS622 
 ASP623  PHE694  ASN695  SER759  ASP760  ASP761  ALA762  ILE779  LEU786  VAL792 
 PHE793  MET794  SER795  GLU796  ALA797  LYS798  CYS799  TRP800  GLU811  SER814 

> <Gold.Protein.RotatedAtoms>
  152.4415  133.7457  159.6665 H   0  0  0  0  0  0  0  0  0  0  0  0  # atno 6907 bound_to 6896
  150.8307  133.8085  159.3106 H   0  0  0  0  0  0  0  0  0  0  0  0  # atno 6908 bound_to 6896
  151.5740  135.1064  160.0053 H   0  0  0  0  0  0  0  0  0  0  0  0  # atno 6909 bound_to 6896
  145.9001  139.3575  143.0598 H   0  0  0  0  0  0  0  0  0  0  0  0  # atno 7974 bound_to 7965
  156.2184  140.3002  155.9894 H   0  0  0  0  0  0  0  0  0  0  0  0  # atno 8008 bound_to 7997
  155.2545  140.0427  157.3007 H   0  0  0  0  0  0  0  0  0  0  0  0  # atno 8009 bound_to 7997
  154.5803  140.2373  155.8071 H   0  0  0  0  0  0  0  0  0  0  0  0  # atno 8010 bound_to 7997
  140.2787  144.3182  150.6270 H   0  0  0  0  0  0  0  0  0  0  0  0  # atno 10167 bound_to 10162
  156.5257  130.8498  151.2698 H   0  0  0  0  0  0  0  0  0  0  0  0  # atno 10718 bound_to 10713
  152.9785  135.5851  154.4387 H   0  0  0  0  0  0  0  0  0  0  0  0  # atno 10763 bound_to 10752
  154.3991  135.2768  155.2109 H   0  0  0  0  0  0  0  0  0  0  0  0  # atno 10764 bound_to 10752
  154.3948  135.6117  153.5918 H   0  0  0  0  0  0  0  0  0  0  0  0  # atno 10765 bound_to 10752
  140.7268  133.8782  155.8862 H   0  0  0  0  0  0  0  0  0  0  0  0  # atno 11005 bound_to 11000
  145.8802  140.9367  143.0605 LP  0  0  0  0  0  0  0  0  0  0  0  0  # atno 17320 bound_to 7965
  144.6735  140.0769  143.7471 LP  0  0  0  0  0  0  0  0  0  0  0  0  # atno 17321 bound_to 7965
  140.5830  143.2171  151.7394 LP  0  0  0  0  0  0  0  0  0  0  0  0  # atno 17342 bound_to 10162
  139.4968  144.4052  152.0139 LP  0  0  0  0  0  0  0  0  0  0  0  0  # atno 17343 bound_to 10162
  157.7430  130.9902  150.2557 LP  0  0  0  0  0  0  0  0  0  0  0  0  # atno 17370 bound_to 10713
  156.3107  130.3771  149.7664 LP  0  0  0  0  0  0  0  0  0  0  0  0  # atno 17371 bound_to 10713
  140.9956  134.1220  157.4367 LP  0  0  0  0  0  0  0  0  0  0  0  0  # atno 17394 bound_to 11000
  139.8835  135.0053  156.6307 LP  0  0  0  0  0  0  0  0  0  0  0  0  # atno 17395 bound_to 11000

$$$$
