#       Name:                AV-unprocessed.smi:102
#       Creating user name   scv26
#       Creation time:       Thu Mar 26 17:50:57 2020


#       File generated by GOLD software.
#

@<TRIPOS>MOLECULE
AV-unprocessed.smi:102
    56    57     1
SMALL
NO_CHARGES


@<TRIPOS>ATOM
      1 ****        -4.2110   3.6000   1.7900 C.3            1 S1                 0.0000
      2 ****        -3.8068   2.1400   1.6285 C.2            1 S1                 0.0000
      3 ****        -4.6335   1.2327   1.7232 O.2            1 S1                 0.0000
      4 ****        -2.4963   1.9909   1.3827 O.3            1 S1                 0.0000
      5 ****        -1.9619   0.6902   1.2001 C.3            1 S1                 0.0000
      6 ****        -0.4427   0.7852   0.9911 C.3            1 S1                 0.0000
      7 ****        -0.1720   1.3019  -0.3047 O.3            1 S1                 0.0000
      8 ****        -0.0818   0.2452  -1.2052 C.3            1 S1                 0.0000
      9 ****         0.8238   0.6404  -2.3442 N.am           1 S1                 0.0000
     10 ****         1.8731   1.5182  -2.1340 C.2            1 S1                 0.0000
     11 ****         2.7085   1.8599  -3.1359 C.2            1 S1                 0.0000
     12 ****         3.7192   2.7148  -2.9031 F              1 S1                 0.0000
     13 ****         2.5106   1.2908  -4.4678 C.2            1 S1                 0.0000
     14 ****         3.2686   1.6146  -5.3805 O.2            1 S1                 0.0000
     15 ****         1.4814   0.4110  -4.6392 N.pl3          1 S1                -1.0000
     16 ****         0.6384   0.0552  -3.6256 C.2            1 S1                 0.0000
     17 ****        -0.2750  -0.7584  -3.7643 O.2            1 S1                 0.0000
     18 ****         0.5048  -0.9449  -0.4464 C.3            1 S1                 0.0000
     19 ****        -0.1508  -2.1444  -0.8323 O.3            1 S1                 0.0000
     20 ****         0.4472  -3.3308  -0.6349 C.2            1 S1                 0.0000
     21 ****        -0.3906  -4.4956  -1.1451 C.3            1 S1                 0.0000
     22 ****         1.5415  -3.5115  -0.1003 O.2            1 S1                 0.0000
     23 ****         0.2304  -0.5969   1.0139 C.3            1 S1                 0.0000
     24 ****         1.4642  -0.5703   1.7206 O.3            1 S1                 0.0000
     25 ****         1.4909  -0.7790   3.0479 C.2            1 S1                 0.0000
     26 ****         2.9042  -0.7386   3.6137 C.3            1 S1                 0.0000
     27 ****         0.5144  -0.9776   3.7709 O.2            1 S1                 0.0000
     28 ****        -3.3414   4.2553   1.7346 H              1 S1                 0.0000
     29 ****        -4.6961   3.7519   2.7542 H              1 S1                 0.0000
     30 ****        -4.9090   3.8863   1.0032 H              1 S1                 0.0000
     31 ****        -2.1707   0.0978   2.0922 H              1 S1                 0.0000
     32 ****        -2.4434   0.1916   0.3578 H              1 S1                 0.0000
     33 ****        -0.0160   1.4448   1.7479 H              1 S1                 0.0000
     34 ****        -1.0754   0.0644  -1.6199 H              1 S1                 0.0000
     35 ****         2.0372   1.9361  -1.1519 H              1 S1                 0.0000
     36 ****         1.5781  -0.9896  -0.6414 H              1 S1                 0.0000
     37 ****        -0.8941  -4.2258  -2.0736 H              1 S1                 0.0000
     38 ****        -1.1448  -4.7697  -0.4075 H              1 S1                 0.0000
     39 ****         0.2403  -5.3639  -1.3357 H              1 S1                 0.0000
     40 ****        -0.4350  -1.3398   1.4572 H              1 S1                 0.0000
     41 ****         3.5999  -1.2398   2.9405 H              1 S1                 0.0000
     42 ****         2.9424  -1.2379   4.5820 H              1 S1                 0.0000
     43 ****         3.2288   0.2937   3.7433 H              1 S1                 0.0000
     44 ****        -5.5922   1.4473   1.9096 LP             1 S1                 0.0000
     45 ****        -4.3463   0.2812   1.6136 LP             1 S1                 0.0000
     46 ****         0.6921   1.8052  -0.2910 LP             1 S1                 0.0000
     47 ****        -0.9110   1.9160  -0.5817 LP             1 S1                 0.0000
     48 ****         4.0115   2.2614  -5.2078 LP             1 S1                 0.0000
     49 ****         3.1420   1.2312  -6.2954 LP             1 S1                 0.0000
     50 ****         1.3388   0.0105  -5.5444 LP             1 S1                 0.0000
     51 ****        -0.8606  -0.9898  -2.9875 LP             1 S1                 0.0000
     52 ****        -0.4313  -1.1878  -4.6538 LP             1 S1                 0.0000
     53 ****         2.0699  -2.7308   0.2334 LP             1 S1                 0.0000
     54 ****         1.9019  -4.4389   0.0001 LP             1 S1                 0.0000
     55 ****        -0.4045  -0.9937   3.3767 LP             1 S1                 0.0000
     56 ****         0.6402  -1.1228   4.7522 LP             1 S1                 0.0000
@<TRIPOS>BOND
    1    1    2 1     
    2    1   28 1     
    3    1   29 1     
    4    1   30 1     
    5    2    3 2     
    6    2    4 1     
    7    4    5 1     
    8    5    6 1     
    9    5   31 1     
   10    5   32 1     
   11    6   23 1     
   12    6    7 1     
   13    6   33 1     
   14    7    8 1     
   15    8    9 1     
   16    8   18 1     
   17    8   34 1     
   18    9   16 am    
   19    9   10 1     
   20   10   11 2     
   21   10   35 1     
   22   11   12 1     
   23   11   13 1     
   24   13   14 2     
   25   13   15 1     
   26   15   16 1     
   27   16   17 2     
   28   18   19 1     
   29   18   23 1     
   30   18   36 1     
   31   19   20 1     
   32   20   21 1     
   33   20   22 2     
   34   21   37 1     
   35   21   38 1     
   36   21   39 1     
   37   23   24 1     
   38   23   40 1     
   39   24   25 1     
   40   25   26 1     
   41   25   27 2     
   42   26   41 1     
   43   26   42 1     
   44   26   43 1     
   45    3   44 1     
   46    3   45 1     
   47    7   46 1     
   48    7   47 1     
   49   14   48 1     
   50   14   49 1     
   51   15   50 1     
   52   17   51 1     
   53   17   52 1     
   54   22   53 1     
   55   22   54 1     
   56   27   55 1     
   57   27   56 1     
@<TRIPOS>SUBSTRUCTURE
      1 S1             1
@<TRIPOS>SET
LONE_PAIRS      STATIC     ATOMS    <user>   **** ""
13 44 45 46 47 48 49 50 51 52 53 54 55 56
ATOM$BLUE        STATIC     ATOMS    COLORGROUP SYSTEM
13 44 45 46 47 48 49 50 51 52 53 54 55 56
