AV-unprocessed.smi:175|AV-procd|sdf|1429|dock6
  -GOLD-   2262019203D 1   1.00000     0.00000
 Structure written by MMmdl.
 47 50  0  0  0  0  0  0  0  0  1 V2000
  145.7032  135.5474  150.7544 C   0  0  0  0  0  0  0  0  0  0  0  0
  145.1170  134.3084  151.4492 C   0  0  2  0  0  0  0  0  0  0  0  0
  144.4716  133.5224  150.4498 O   0  0  0  0  0  0  0  0  0  0  0  0
  143.3657  132.8529  151.0292 C   0  0  0  0  0  0  0  0  0  0  0  0
  142.7946  133.9083  151.9633 C   0  0  0  0  0  0  0  0  0  0  0  0
  144.0440  134.5630  152.5456 C   0  0  1  0  0  0  0  0  0  0  0  0
  144.4236  133.8262  153.6965 O   0  0  0  0  0  0  0  0  0  0  0  0
  143.8315  136.0384  152.9751 C   0  0  0  0  0  0  0  0  0  0  0  0
  145.0540  136.6942  153.4147 N   0  0  0  0  0  0  0  0  0  0  0  0
  145.6278  137.8180  152.8669 C   0  0  0  0  0  0  0  0  0  0  0  0
  146.7295  138.2148  153.4418 N   0  0  0  0  0  0  0  0  0  0  0  0
  146.9325  137.3018  154.4716 C   0  0  0  0  0  0  0  0  0  0  0  0
  147.9251  137.1347  155.4832 C   0  0  0  0  0  0  0  0  0  0  0  0
  149.0007  137.9464  155.6543 N   0  0  0  0  0  0  0  0  0  0  0  0
  149.8016  138.4811  154.5627 C   0  0  0  0  0  0  0  0  0  0  0  0
  150.7524  139.3993  155.3089 C   0  0  0  0  0  0  0  0  0  0  0  0
  151.6389  140.0441  154.7512 O   0  0  0  0  0  0  0  0  0  0  0  0
  150.4825  139.3883  156.6191 N   0  0  0  0  0  0  0  0  0  0  0  0
  151.1813  140.1349  157.6629 C   0  0  0  0  0  0  0  0  0  0  0  0
  150.7347  141.6064  157.7319 C   0  0  0  0  0  0  0  0  0  0  0  0
  151.4564  142.2352  158.6587 F   0  0  0  0  0  0  0  0  0  0  0  0
  150.9189  142.2220  156.5645 F   0  0  0  0  0  0  0  0  0  0  0  0
  149.4478  141.6853  158.0706 F   0  0  0  0  0  0  0  0  0  0  0  0
  149.3870  138.4924  156.9504 C   0  0  0  0  0  0  0  0  0  0  0  0
  147.7765  136.0824  156.3308 N   0  0  0  0  0  0  0  0  0  0  0  0
  146.7353  135.2544  156.2118 C   0  0  0  0  0  0  0  0  0  0  0  0
  145.7390  135.2914  155.3269 N   0  0  0  0  0  0  0  0  0  0  0  0
  145.8811  136.3393  154.4662 C   0  0  0  0  0  0  0  0  0  0  0  0
  146.2238  136.1931  151.4619 H   0  0  0  0  0  0  0  0  0  0  0  0
  144.9281  136.1342  150.2609 H   0  0  0  0  0  0  0  0  0  0  0  0
  146.4243  135.2537  149.9916 H   0  0  0  0  0  0  0  0  0  0  0  0
  145.9423  133.7188  151.8533 H   0  0  0  0  0  0  0  0  0  0  0  0
  142.6511  132.5259  150.2738 H   0  0  0  0  0  0  0  0  0  0  0  0
  143.7106  131.9788  151.5839 H   0  0  0  0  0  0  0  0  0  0  0  0
  142.2342  134.6306  151.3688 H   0  0  0  0  0  0  0  0  0  0  0  0
  142.1178  133.4991  152.7149 H   0  0  0  0  0  0  0  0  0  0  0  0
  143.7965  133.1312  153.8265 H   0  0  0  0  0  0  0  0  0  0  0  0
  143.4133  136.6182  152.1511 H   0  0  0  0  0  0  0  0  0  0  0  0
  143.1119  136.0999  153.7916 H   0  0  0  0  0  0  0  0  0  0  0  0
  145.2029  138.3341  152.0181 H   0  0  0  0  0  0  0  0  0  0  0  0
  150.3496  137.6950  154.0421 H   0  0  0  0  0  0  0  0  0  0  0  0
  149.1960  139.0494  153.8556 H   0  0  0  0  0  0  0  0  0  0  0  0
  151.0000  139.6526  158.6242 H   0  0  0  0  0  0  0  0  0  0  0  0
  152.2578  140.0779  157.4935 H   0  0  0  0  0  0  0  0  0  0  0  0
  148.5665  139.0438  157.4120 H   0  0  0  0  0  0  0  0  0  0  0  0
  149.7196  137.7028  157.6258 H   0  0  0  0  0  0  0  0  0  0  0  0
  146.6953  134.4472  156.9281 H   0  0  0  0  0  0  0  0  0  0  0  0
  1  2  1  0  0  0  0
  1 29  1  0  0  0  0
  1 30  1  0  0  0  0
  1 31  1  0  0  0  0
  2  6  1  0  0  0  0
  2  3  1  0  0  0  0
  2 32  1  0  0  0  0
  3  4  1  0  0  0  0
  4  5  1  0  0  0  0
  4 33  1  0  0  0  0
  4 34  1  0  0  0  0
  5  6  1  0  0  0  0
  5 35  1  0  0  0  0
  5 36  1  0  0  0  0
  6  7  1  0  0  0  0
  6  8  1  0  0  0  0
  7 37  1  0  0  0  0
  8  9  1  0  0  0  0
  8 38  1  0  0  0  0
  8 39  1  0  0  0  0
  9 28  1  0  0  0  0
  9 10  1  0  0  0  0
 10 11  2  0  0  0  0
 10 40  1  0  0  0  0
 11 12  1  0  0  0  0
 12 28  2  0  0  0  0
 12 13  1  0  0  0  0
 13 14  1  0  0  0  0
 13 25  2  0  0  0  0
 14 24  1  0  0  0  0
 14 15  1  0  0  0  0
 15 16  1  0  0  0  0
 15 41  1  0  0  0  0
 15 42  1  0  0  0  0
 16 17  2  0  0  0  0
 16 18  1  0  0  0  0
 18 19  1  0  0  0  0
 18 24  1  0  0  0  0
 19 20  1  0  0  0  0
 19 43  1  0  0  0  0
 19 44  1  0  0  0  0
 20 21  1  0  0  0  0
 20 22  1  0  0  0  0
 20 23  1  0  0  0  0
 24 45  1  0  0  0  0
 24 46  1  0  0  0  0
 25 26  1  0  0  0  0
 26 27  2  0  0  0  0
 26 47  1  0  0  0  0
 27 28  1  0  0  0  0
M  END
> <s_m_source_file>
AV-unprocessed.smi

> <i_m_source_file_index>
175

> <i_lp_mmshare_version>
43012

> <i_f3d_flags>
0

> <s_epik_input>
W0NIMl0xW0NIMl1PW0NAQEhdKFtDSDNdKVtDQEBdMShbT0hdKVtDSDJdbihbY0hdbjIpYyhjMjMpbltjSF1uYzNONFtDSDJdQyg9TylOKFtDSDJdNClbQ0gyXUMoRikoRilG

> <s_epik_cmdline>
J2VwaWtfcHl0aG9uJywgJy1waCcsICc3LjAnLCAnLXRuJywgJzgnLCAnLW1hJywgJzIwMCcsICctbWV0YWxfYmluZGluZycsICctaW1hZScsICc8aW5maWxlLm1hZT4nLCAnLW9tYWUnLCAnPG91dGZpbGUubWFlPic=

> <r_lp_tautomer_probability>
1

> <r_epik_Ionization_Penalty>
0.000307802

> <r_epik_Ionization_Penalty_Charging>
0

> <r_epik_Ionization_Penalty_Neutral>
0.000307802

> <r_epik_State_Penalty>
-0

> <r_epik_Charging_Adjusted_Penalty>
0

> <i_epik_Tot_Q>
0

> <i_epik_Tot_abs_Q>
0

> <r_epik_Metal_State_Penalty>
-0

> <b_epik_Metal_Only>
0

> <s_epik_Chemistry_Notes>
This compound contains an acetal/aminal-like group ( X-CH(R)-Y where X, Y are N, S, or O) that may be acid/base labile, releasing an aldehyde.

> <s_lp_Force_Field>
OPLS_2005

> <r_lp_Energy>
32.9701

> <b_lp_Chiralities_Consistent>
1

> <s_lp_Variant>
AV-unprocessed.smi:175-1

> <Gold.Version>
5.8.1

> <Gold.Id.Protein>
6NUR|6NUR_protein|mol2

> <Gold.PLP.Fitness>
40.5509

> <Gold.PLP.PLP>
-32.7937

> <Gold.PLP.part.hbond>
-1.8228

> <Gold.PLP.part.metal>
0.0000

> <Gold.PLP.part.buried>
-5.6202

> <Gold.PLP.part.nonpolar>
-25.3963

> <Gold.PLP.part.repulsive>
0.4511

> <Gold.PLP.ligand.clash>
0.0000

> <Gold.PLP.ligand.torsion>
1.0348

> <Gold.PLP.Chemscore.Hbond>
2.0000

> <Gold.PLP.Chemscore.CHOScore>
1.2108

> <Gold.PLP.Chemscore.Metal>
0.0000

> <Gold.Chemscore.Hbonds>
donor molecule, donor type, donor heavy atom, donor atom, acceptor molecule, acceptor atom, score
      L1  H     7    37       P1 10957  1.00
      P1  H  7989  7998       L1    17  0.91
      L1  C    10    40       P1 10171  0.87
      L1  C    10    40       P1 10175  0.56

> <Gold.PLP.Chemscore.Internal.Correction>
0.1945

> <Gold.Rescore>
     Score         DG    S(hbond)    S(metal)    S(lipo)     H(rot)  DE(clash)    DE(int)     intcor
      7.49     -11.49       1.98        0.00      50.44       2.54       0.14       3.87       ----

> <Gold.Chemscore.Fitness>
7.4880

> <Gold.Chemscore.DG>
-11.4918

> <Gold.Chemscore.ZeroCoef>
-5.4800

> <Gold.Chemscore.Hbond>
1.9779

> <Gold.Chemscore.Metal>
0.0000

> <Gold.Chemscore.Lipo>
50.4408

> <Gold.Chemscore.Internal_Hbond>
0.0000

> <Gold.Chemscore.DEClash>
0.1376

> <Gold.Chemscore.DEInternal>
3.8662

> <Gold.Chemscore.Rot>
2.5375

> <Gold.Chemscore.Internal.Correction>
   9.000000E+99

> <Gold.Chemscore.Hbonds>
donor molecule, donor type, donor heavy atom, donor atom, acceptor molecule, acceptor atom, score
      L1  H     7    37       P1 10957  0.93
      P1  H  7989  7998       L1    17  0.85

> <Gold.Chemscore.Hbond.Weighted>
-6.6063

> <Gold.Chemscore.Metal.Weighted>
-0.0000

> <Gold.Chemscore.Lipo.Weighted>
-5.9016

> <Gold.Chemscore.Internal_Hbond.Weighted>
0.0000

> <Gold.Chemscore.DEClash.Weighted>
0.1376

> <Gold.Chemscore.DEInternal.Weighted>
3.8662

> <Gold.Chemscore.Rot.Weighted>
6.4961

> <Gold.Chemscore.Internal.Correction.Weighted>
   9.000000E+99

> <Gold.Protein.RotatedTorsions>
[ 6907 6896 6895 6894 ] final  169.31 input  -60.11 | X-H torsion
[ 7974 7965 7964 7962 ] final  131.74 input  175.53 | X-H torsion
[ 8008 7997 7996 7995 ] final   51.14 input   59.86 | X-H torsion
[ 10167 10162 10161 10158 ] final  -37.48 input  -65.29 | X-H torsion
[ 10718 10713 10712 10709 ] final  -41.93 input   66.30 | X-H torsion
[ 10763 10752 10751 10750 ] final  129.10 input  -60.55 | X-H torsion
[ 11005 11000 10999 10996 ] final   65.81 input  -57.11 | X-H torsion

> <Gold.Protein.ActiveResidues>
 VAL166  LYS551  ARG553  GLY616  TRP617  ASP618  TYR619  PRO620  LYS621  CYS622 
 ASP623  PHE694  ASN695  SER759  ASP760  ASP761  ALA762  ILE779  LEU786  VAL792 
 PHE793  MET794  SER795  GLU796  ALA797  LYS798  CYS799  TRP800  GLU811  SER814 

> <Gold.Protein.RotatedAtoms>
  151.8339  133.3413  159.3621 H   0  0  0  0  0  0  0  0  0  0  0  0  # atno 6907 bound_to 6896
  150.7256  134.5457  159.5778 H   0  0  0  0  0  0  0  0  0  0  0  0  # atno 6908 bound_to 6896
  152.2915  134.7716  160.0428 H   0  0  0  0  0  0  0  0  0  0  0  0  # atno 6909 bound_to 6896
  145.0042  139.4282  143.5277 H   0  0  0  0  0  0  0  0  0  0  0  0  # atno 7974 bound_to 7965
  155.4304  140.3450  155.4279 H   0  0  0  0  0  0  0  0  0  0  0  0  # atno 8008 bound_to 7997
  156.1340  140.1522  156.9053 H   0  0  0  0  0  0  0  0  0  0  0  0  # atno 8009 bound_to 7997
  154.4917  140.0839  156.7589 H   0  0  0  0  0  0  0  0  0  0  0  0  # atno 8010 bound_to 7997
  140.7117  143.3339  151.2507 H   0  0  0  0  0  0  0  0  0  0  0  0  # atno 10167 bound_to 10162
  156.2651  130.4201  149.8500 H   0  0  0  0  0  0  0  0  0  0  0  0  # atno 10718 bound_to 10713
  153.7363  135.3231  155.3295 H   0  0  0  0  0  0  0  0  0  0  0  0  # atno 10763 bound_to 10752
  154.8310  135.4534  154.1072 H   0  0  0  0  0  0  0  0  0  0  0  0  # atno 10764 bound_to 10752
  153.2233  135.6951  153.8055 H   0  0  0  0  0  0  0  0  0  0  0  0  # atno 10765 bound_to 10752
  139.9871  134.6650  156.0156 H   0  0  0  0  0  0  0  0  0  0  0  0  # atno 11005 bound_to 11000
  146.3458  139.9448  142.8736 LP  0  0  0  0  0  0  0  0  0  0  0  0  # atno 17320 bound_to 7965
  145.2112  140.9896  143.4100 LP  0  0  0  0  0  0  0  0  0  0  0  0  # atno 17321 bound_to 7965
  139.6828  143.9824  152.2818 LP  0  0  0  0  0  0  0  0  0  0  0  0  # atno 17342 bound_to 10162
  139.9460  144.6651  150.8219 LP  0  0  0  0  0  0  0  0  0  0  0  0  # atno 17343 bound_to 10162
  156.6001  130.8543  151.3429 LP  0  0  0  0  0  0  0  0  0  0  0  0  # atno 17370 bound_to 10713
  157.7264  130.9629  150.1656 LP  0  0  0  0  0  0  0  0  0  0  0  0  # atno 17371 bound_to 10713
  141.1534  133.6545  156.4085 LP  0  0  0  0  0  0  0  0  0  0  0  0  # atno 17394 bound_to 11000
  140.4980  134.6512  157.5237 LP  0  0  0  0  0  0  0  0  0  0  0  0  # atno 17395 bound_to 11000

$$$$
