AV-unprocessed.smi:2226|AV-procd|sdf|9002|dock5
  -GOLD-   2272012213D 1   1.00000     0.00000
 Structure written by MMmdl.
 40 42  0  0  0  0  0  0  0  0  2 V2000
  146.1659  143.2565  153.9661 C   0  0  0  0  0  0  0  0  0  0  0  0
  147.0953  142.4871  154.8274 N   0  3  2  0  0  0  0  0  0  0  0  0
  148.1961  141.8048  154.1045 C   0  0  1  0  0  0  0  0  0  0  0  0
  149.3033  141.4310  155.1181 C   0  0  0  0  0  0  0  0  0  0  0  0
  148.7946  140.6241  156.3306 C   0  0  0  0  0  0  0  0  0  0  0  0
  147.4510  141.1558  156.8712 C   0  0  0  0  0  0  0  0  0  0  0  0
  146.4402  141.5441  155.7663 C   0  0  2  0  0  0  0  0  0  0  0  0
  145.8084  140.3467  155.0128 C   0  0  0  0  0  0  0  0  0  0  0  0
  146.7604  139.6327  154.0257 C   0  0  1  0  0  0  0  0  0  0  0  0
  145.9730  138.8525  153.0712 N   0  0  0  0  0  0  0  0  0  0  0  0
  145.9997  137.5177  152.9323 C   0  0  0  0  0  0  0  0  0  0  0  0
  146.7093  136.7745  153.6104 O   0  0  0  0  0  0  0  0  0  0  0  0
  145.1584  137.1106  151.9663 N   0  0  0  0  0  0  0  0  0  0  0  0
  144.9168  135.7809  151.5361 C   0  0  0  0  0  0  0  0  0  0  0  0
  143.8448  135.3414  150.8749 N   0  0  0  0  0  0  0  0  0  0  0  0
  144.0796  133.9867  150.6882 C   0  0  0  0  0  0  0  0  0  0  0  0
  145.2916  133.6813  151.2525 C   0  0  0  0  0  0  0  0  0  0  0  0
  145.8360  134.8139  151.7961 O   0  0  0  0  0  0  0  0  0  0  0  0
  147.6651  140.6223  153.2557 C   0  0  0  0  0  0  0  0  0  0  0  0
  145.6115  142.6171  153.2798 H   0  0  0  0  0  0  0  0  0  0  0  0
  146.7156  143.9898  153.3752 H   0  0  0  0  0  0  0  0  0  0  0  0
  145.4455  143.8010  154.5771 H   0  0  0  0  0  0  0  0  0  0  0  0
  148.6392  142.5254  153.4155 H   0  0  0  0  0  0  0  0  0  0  0  0
  150.1092  140.8902  154.6206 H   0  0  0  0  0  0  0  0  0  0  0  0
  149.7502  142.3547  155.4886 H   0  0  0  0  0  0  0  0  0  0  0  0
  148.7124  139.5703  156.0783 H   0  0  0  0  0  0  0  0  0  0  0  0
  149.5416  140.6542  157.1247 H   0  0  0  0  0  0  0  0  0  0  0  0
  147.0092  140.4297  157.5543 H   0  0  0  0  0  0  0  0  0  0  0  0
  147.6544  142.0433  157.4720 H   0  0  0  0  0  0  0  0  0  0  0  0
  145.6296  142.0784  156.2638 H   0  0  0  0  0  0  0  0  0  0  0  0
  145.4099  139.6250  155.7271 H   0  0  0  0  0  0  0  0  0  0  0  0
  144.9405  140.7146  154.4640 H   0  0  0  0  0  0  0  0  0  0  0  0
  147.3961  138.9571  154.5913 H   0  0  0  0  0  0  0  0  0  0  0  0
  145.3555  139.3732  152.4652 H   0  0  0  0  0  0  0  0  0  0  0  0
  144.6335  137.8260  151.4855 H   0  0  0  0  0  0  0  0  0  0  0  0
  143.3732  133.3518  150.1736 H   0  0  0  0  0  0  0  0  0  0  0  0
  145.8672  132.7723  151.3459 H   0  0  0  0  0  0  0  0  0  0  0  0
  147.1036  141.0358  152.4169 H   0  0  0  0  0  0  0  0  0  0  0  0
  148.4990  140.0837  152.8039 H   0  0  0  0  0  0  0  0  0  0  0  0
  147.5413  143.1832  155.4079 H   0  0  0  0  0  0  0  0  0  0  0  0
  1  2  1  0  0  0  0
  1 20  1  0  0  0  0
  1 21  1  0  0  0  0
  1 22  1  0  0  0  0
  2  7  1  0  0  0  0
  2  3  1  0  0  0  0
  2 40  1  0  0  0  0
  3 19  1  0  0  0  0
  3  4  1  0  0  0  0
  3 23  1  0  0  0  0
  4  5  1  0  0  0  0
  4 24  1  0  0  0  0
  4 25  1  0  0  0  0
  5  6  1  0  0  0  0
  5 26  1  0  0  0  0
  5 27  1  0  0  0  0
  6  7  1  0  0  0  0
  6 28  1  0  0  0  0
  6 29  1  0  0  0  0
  7  8  1  0  0  0  0
  7 30  1  0  0  0  0
  8  9  1  0  0  0  0
  8 31  1  0  0  0  0
  8 32  1  0  0  0  0
  9 10  1  0  0  0  0
  9 19  1  0  0  0  0
  9 33  1  0  0  0  0
 10 11  1  0  0  0  0
 10 34  1  0  0  0  0
 11 12  2  0  0  0  0
 11 13  1  0  0  0  0
 13 14  1  0  0  0  0
 13 35  1  0  0  0  0
 14 18  1  0  0  0  0
 14 15  2  0  0  0  0
 15 16  1  0  0  0  0
 16 17  2  0  0  0  0
 16 36  1  0  0  0  0
 17 18  1  0  0  0  0
 17 37  1  0  0  0  0
 19 38  1  0  0  0  0
 19 39  1  0  0  0  0
M  CHG  1   2   1
M  END
> <s_m_source_file>
AV-unprocessed.smi

> <i_m_source_file_index>
2226

> <i_lp_mmshare_version>
43012

> <i_f3d_flags>
0

> <s_epik_input>
W0NIMl0xW0NIMl1bQ0gyXVtDQEhdKE4oW0NIM10pW0NIXTEyKVtDSDJdW0NASF0oW0NIMl0yKVtOSF1DKD1PKVtOSF1jM25bY0hdW2NIXW8z

> <s_epik_cmdline>
J2VwaWtfcHl0aG9uJywgJy1waCcsICc3LjAnLCAnLXRuJywgJzgnLCAnLW1hJywgJzIwMCcsICctbWV0YWxfYmluZGluZycsICctaW1hZScsICc8aW5maWxlLm1hZT4nLCAnLW9tYWUnLCAnPG91dGZpbGUubWFlPic=

> <r_lp_tautomer_probability>
0.785861

> <r_epik_Ionization_Penalty>
0.000929358

> <r_epik_Ionization_Penalty_Charging>
0.000890041

> <r_epik_Ionization_Penalty_Neutral>
3.93161e-05

> <r_epik_State_Penalty>
0.0312137

> <r_epik_Charging_Adjusted_Penalty>
0.0321037

> <i_epik_Tot_Q>
1

> <i_epik_Tot_abs_Q>
1

> <r_epik_Metal_State_Penalty>
0.0605703

> <b_epik_Metal_Only>
0

> <s_lp_Force_Field>
OPLS_2005

> <r_lp_Energy>
35.273

> <b_lp_Chiralities_Consistent>
1

> <s_lp_Variant>
AV-unprocessed.smi:2226-2

> <Gold.Version>
5.8.1

> <Gold.Id.Protein>
6NUR|6NUR_protein|mol2

> <Gold.PLP.Fitness>
38.6629

> <Gold.PLP.PLP>
-25.5658

> <Gold.PLP.part.hbond>
-3.0000

> <Gold.PLP.part.metal>
0.0000

> <Gold.PLP.part.buried>
-3.3886

> <Gold.PLP.part.nonpolar>
-21.9872

> <Gold.PLP.part.repulsive>
1.8099

> <Gold.PLP.ligand.clash>
0.0000

> <Gold.PLP.ligand.torsion>
0.0993

> <Gold.PLP.Chemscore.Hbond>
3.8800

> <Gold.PLP.Chemscore.CHOScore>
0.5497

> <Gold.PLP.Chemscore.Metal>
0.0000

> <Gold.Chemscore.Hbonds>
donor molecule, donor type, donor heavy atom, donor atom, acceptor molecule, acceptor atom, score
      L1  H     2    40       P1  8028  2.00
      L1  H    10    34       P1 10175  0.86
      L1  H    13    35       P1 10171  1.00
      L1  C    16    36       P1 10186  0.48

> <Gold.PLP.Chemscore.Internal.Correction>
0.0066

> <Gold.Rescore>
     Score         DG    S(hbond)    S(metal)    S(lipo)     H(rot)  DE(clash)    DE(int)     intcor
     14.24     -17.24       2.27        0.00      57.58       1.00       1.53       1.47       ----

> <Gold.Chemscore.Fitness>
14.2354

> <Gold.Chemscore.DG>
-17.2419

> <Gold.Chemscore.ZeroCoef>
-5.4800

> <Gold.Chemscore.Hbond>
2.2710

> <Gold.Chemscore.Metal>
0.0000

> <Gold.Chemscore.Lipo>
57.5797

> <Gold.Chemscore.Internal_Hbond>
0.0000

> <Gold.Chemscore.DEClash>
1.5335

> <Gold.Chemscore.DEInternal>
1.4730

> <Gold.Chemscore.Rot>
1.0000

> <Gold.Chemscore.Internal.Correction>
   9.000000E+99

> <Gold.Chemscore.Hbonds>
donor molecule, donor type, donor heavy atom, donor atom, acceptor molecule, acceptor atom, score
      L1  H     2    40       P1  8028  0.23
      L1  H    10    34       P1 10175  0.82
      L1  H    13    35       P1 10171  0.92

> <Gold.Chemscore.Hbond.Weighted>
-7.5851

> <Gold.Chemscore.Metal.Weighted>
-0.0000

> <Gold.Chemscore.Lipo.Weighted>
-6.7368

> <Gold.Chemscore.Internal_Hbond.Weighted>
0.0000

> <Gold.Chemscore.DEClash.Weighted>
1.5335

> <Gold.Chemscore.DEInternal.Weighted>
1.4730

> <Gold.Chemscore.Rot.Weighted>
2.5600

> <Gold.Chemscore.Internal.Correction.Weighted>
   9.000000E+99

> <Gold.Protein.RotatedTorsions>
[ 6907 6896 6895 6894 ] final  132.69 input  -60.11 | X-H torsion
[ 7974 7965 7964 7962 ] final  -94.17 input  175.53 | X-H torsion
[ 8008 7997 7996 7995 ] final  -47.05 input   59.86 | X-H torsion
[ 10167 10162 10161 10158 ] final  -39.44 input  -65.29 | X-H torsion
[ 10718 10713 10712 10709 ] final -130.40 input   66.30 | X-H torsion
[ 10763 10752 10751 10750 ] final  -15.86 input  -60.55 | X-H torsion
[ 11005 11000 10999 10996 ] final  -66.47 input  -57.11 | X-H torsion

> <Gold.Protein.ActiveResidues>
 VAL166  LYS551  ARG553  GLY616  TRP617  ASP618  TYR619  PRO620  LYS621  CYS622 
 ASP623  PHE694  ASN695  SER759  ASP760  ASP761  ALA762  ILE779  LEU786  VAL792 
 PHE793  MET794  SER795  GLU796  ALA797  LYS798  CYS799  TRP800  GLU811  SER814 

> <Gold.Protein.RotatedAtoms>
  152.3297  133.5945  159.5801 H   0  0  0  0  0  0  0  0  0  0  0  0  # atno 6907 bound_to 6896
  150.7416  133.9886  159.3608 H   0  0  0  0  0  0  0  0  0  0  0  0  # atno 6908 bound_to 6896
  151.7762  135.0774  160.0418 H   0  0  0  0  0  0  0  0  0  0  0  0  # atno 6909 bound_to 6896
  145.3769  140.9512  143.2416 H   0  0  0  0  0  0  0  0  0  0  0  0  # atno 7974 bound_to 7965
  154.4013  140.1356  156.4112 H   0  0  0  0  0  0  0  0  0  0  0  0  # atno 8008 bound_to 7997
  155.7732  140.3483  155.5238 H   0  0  0  0  0  0  0  0  0  0  0  0  # atno 8009 bound_to 7997
  155.8746  140.0977  157.1517 H   0  0  0  0  0  0  0  0  0  0  0  0  # atno 8010 bound_to 7997
  140.7064  143.3214  151.2783 H   0  0  0  0  0  0  0  0  0  0  0  0  # atno 10167 bound_to 10162
  156.2140  130.6937  151.0682 H   0  0  0  0  0  0  0  0  0  0  0  0  # atno 10718 bound_to 10713
  153.5497  135.7012  153.5597 H   0  0  0  0  0  0  0  0  0  0  0  0  # atno 10763 bound_to 10752
  153.3526  135.3991  155.1658 H   0  0  0  0  0  0  0  0  0  0  0  0  # atno 10764 bound_to 10752
  154.8663  135.3769  154.5007 H   0  0  0  0  0  0  0  0  0  0  0  0  # atno 10765 bound_to 10752
  141.1483  133.6700  156.6144 H   0  0  0  0  0  0  0  0  0  0  0  0  # atno 11005 bound_to 11000
  144.8536  139.5284  143.6845 LP  0  0  0  0  0  0  0  0  0  0  0  0  # atno 17320 bound_to 7965
  146.2860  139.7005  142.9195 LP  0  0  0  0  0  0  0  0  0  0  0  0  # atno 17321 bound_to 7965
  139.6669  144.0089  152.2728 LP  0  0  0  0  0  0  0  0  0  0  0  0  # atno 17342 bound_to 10162
  139.9675  144.6516  150.8021 LP  0  0  0  0  0  0  0  0  0  0  0  0  # atno 17343 bound_to 10162
  157.7054  131.0759  150.6685 LP  0  0  0  0  0  0  0  0  0  0  0  0  # atno 17370 bound_to 10713
  156.6746  130.4549  149.5646 LP  0  0  0  0  0  0  0  0  0  0  0  0  # atno 17371 bound_to 10713
  140.3589  134.7704  157.4520 LP  0  0  0  0  0  0  0  0  0  0  0  0  # atno 17394 bound_to 11000
  140.0800  134.5743  155.8550 LP  0  0  0  0  0  0  0  0  0  0  0  0  # atno 17395 bound_to 11000

$$$$
