#       Name:                AV-unprocessed.smi:254
#       Creating user name   scv26
#       Creation time:       Thu Mar 26 21:08:23 2020


#       File generated by GOLD software.
#

@<TRIPOS>MOLECULE
AV-unprocessed.smi:254
    59    62     1
SMALL
NO_CHARGES


@<TRIPOS>ATOM
      1 ****        -6.6564   0.8404  -1.9916 O.2            1 S1                 0.0000
      2 ****        -5.4595   0.5802  -1.8786 C.2            1 S1                 0.0000
      3 ****        -4.5394   1.3127  -0.9193 C.3            1 S1                 0.0000
      4 ****        -3.2742   0.6284  -1.1557 N.pl3          1 S1                 0.0000
      5 ****        -2.1265   0.9412  -0.5006 C.ar           1 S1                 0.0000
      6 ****        -2.1660   1.9430   0.4172 N.ar           1 S1                 0.0000
      7 ****        -1.0666   2.2937   1.0898 C.ar           1 S1                 0.0000
      8 ****         0.1617   1.7825   1.0029 N.ar           1 S1                 0.0000
      9 ****         0.2124   0.7749   0.0863 C.ar           1 S1                 0.0000
     10 ****        -0.8712   0.2936  -0.7046 C.ar           1 S1                 0.0000
     11 ****        -0.4233  -0.7379  -1.5242 N.2            1 S1                 0.0000
     12 ****         0.8439  -0.8560  -1.2375 C.2            1 S1                 0.0000
     13 ****         1.3066   0.0081  -0.2724 N.pl3          1 S1                 0.0000
     14 ****         2.6637   0.1004   0.2392 C.3            1 S1                 0.0000
     15 ****         2.8125  -0.3967   1.7006 C.3            1 S1                 0.0000
     16 ****         2.3295  -1.8632   1.8442 C.3            1 S1                 0.0000
     17 ****         2.0745  -2.2064   3.1898 O.3            1 S1                 0.0000
     18 ****         4.2755  -0.2077   2.1896 C.3            1 S1                 0.0000
     19 ****         4.7962   1.2188   2.1137 C.3            1 S1                 0.0000
     20 ****         6.0067   1.1794   3.0398 C.3            1 S1                 0.0000
     21 ****         5.6944   0.2185   4.0405 O.3            1 S1                 0.0000
     22 ****         4.5203  -0.4992   3.6751 C.3            1 S1                 0.0000
     23 ****        -3.3871  -0.4274  -2.1523 C.3            1 S1                 0.0000
     24 ****        -4.7842  -0.3608  -2.5480 N.am           1 S1                 0.0000
     25 ****        -5.3253  -1.2832  -3.5437 C.3            1 S1                 0.0000
     26 ****        -5.4382  -0.6424  -4.9386 C.3            1 S1                 0.0000
     27 ****        -5.8875  -1.5554  -5.7985 F              1 S1                 0.0000
     28 ****        -6.2873   0.3848  -4.9312 F              1 S1                 0.0000
     29 ****        -4.2433  -0.2207  -5.3530 F              1 S1                 0.0000
     30 ****        -4.4782   2.3722  -1.1708 H              1 S1                 0.0000
     31 ****        -4.8766   1.1932   0.1110 H              1 S1                 0.0000
     32 ****        -1.1892   3.0984   1.7997 H              1 S1                 0.0000
     33 ****         1.4774  -1.5858  -1.7207 H              1 S1                 0.0000
     34 ****         3.3226  -0.4675  -0.4188 H              1 S1                 0.0000
     35 ****         2.9640   1.1443   0.1516 H              1 S1                 0.0000
     36 ****         2.1663   0.2281   2.3191 H              1 S1                 0.0000
     37 ****         1.3949  -2.0313   1.3110 H              1 S1                 0.0000
     38 ****         3.0599  -2.5544   1.4226 H              1 S1                 0.0000
     39 ****         1.7687  -3.1001   3.2197 H              1 S1                 0.0000
     40 ****         4.9371  -0.8443   1.5997 H              1 S1                 0.0000
     41 ****         5.0641   1.5297   1.1036 H              1 S1                 0.0000
     42 ****         4.0516   1.9164   2.5005 H              1 S1                 0.0000
     43 ****         6.8898   0.8401   2.4975 H              1 S1                 0.0000
     44 ****         6.2297   2.1532   3.4760 H              1 S1                 0.0000
     45 ****         3.6934  -0.1292   4.2830 H              1 S1                 0.0000
     46 ****         4.6415  -1.5634   3.8785 H              1 S1                 0.0000
     47 ****        -2.7371  -0.2366  -3.0072 H              1 S1                 0.0000
     48 ****        -3.1539  -1.4029  -1.7231 H              1 S1                 0.0000
     49 ****        -4.6829  -2.1633  -3.5964 H              1 S1                 0.0000
     50 ****        -6.3031  -1.6403  -3.2165 H              1 S1                 0.0000
     51 ****        -7.2218   0.3242  -2.6349 LP             1 S1                 0.0000
     52 ****        -7.0641   1.5681  -1.4401 LP             1 S1                 0.0000
     53 ****        -3.0265   2.4221   0.5906 LP             1 S1                 0.0000
     54 ****         0.9440   2.0973   1.5403 LP             1 S1                 0.0000
     55 ****        -0.9537  -1.2693  -2.1847 LP             1 S1                 0.0000
     56 ****         1.3755  -1.5982   3.5661 LP             1 S1                 0.0000
     57 ****         2.9148  -2.1197   3.7248 LP             1 S1                 0.0000
     58 ****         5.5399   0.6852   4.9114 LP             1 S1                 0.0000
     59 ****         6.4574  -0.4208   4.1357 LP             1 S1                 0.0000
@<TRIPOS>BOND
    1    1    2 2     
    2    2   24 am    
    3    2    3 1     
    4    3    4 1     
    5    3   30 1     
    6    3   31 1     
    7    4    5 1     
    8    4   23 1     
    9    5   10 ar    
   10    5    6 ar    
   11    6    7 ar    
   12    7    8 ar    
   13    7   32 1     
   14    8    9 ar    
   15    9   13 1     
   16    9   10 ar    
   17   10   11 1     
   18   11   12 2     
   19   12   13 1     
   20   12   33 1     
   21   13   14 1     
   22   14   15 1     
   23   14   34 1     
   24   14   35 1     
   25   15   16 1     
   26   15   18 1     
   27   15   36 1     
   28   16   17 1     
   29   16   37 1     
   30   16   38 1     
   31   17   39 1     
   32   18   22 1     
   33   18   19 1     
   34   18   40 1     
   35   19   20 1     
   36   19   41 1     
   37   19   42 1     
   38   20   21 1     
   39   20   43 1     
   40   20   44 1     
   41   21   22 1     
   42   22   45 1     
   43   22   46 1     
   44   23   24 1     
   45   23   47 1     
   46   23   48 1     
   47   24   25 1     
   48   25   26 1     
   49   25   49 1     
   50   25   50 1     
   51   26   27 1     
   52   26   28 1     
   53   26   29 1     
   54    1   51 1     
   55    1   52 1     
   56    6   53 1     
   57    8   54 1     
   58   11   55 1     
   59   17   56 1     
   60   17   57 1     
   61   21   58 1     
   62   21   59 1     
@<TRIPOS>SUBSTRUCTURE
      1 S1             1
@<TRIPOS>SET
LONE_PAIRS      STATIC     ATOMS    <user>   **** ""
9 51 52 53 54 55 56 57 58 59
DONOR_HYDROGENS      STATIC     ATOMS    <user>   **** ""
1 39
ATOM$BLUE        STATIC     ATOMS    COLORGROUP SYSTEM
9 51 52 53 54 55 56 57 58 59
ATOM$RED        STATIC     ATOMS    COLORGROUP SYSTEM
1 39
