#       Name:                AV-unprocessed.smi:1768
#       Creating user name   scv26
#       Creation time:       Fri Mar 27 08:38:32 2020


#       File generated by GOLD software.
#

@<TRIPOS>MOLECULE
AV-unprocessed.smi:1768
    39    40     1
SMALL
NO_CHARGES


@<TRIPOS>ATOM
      1 ****        -6.3209   2.7070   0.7672 C.3            1 S1                 0.0000
      2 ****        -4.8979   2.2633   0.7684 C.2            1 S1                 0.0000
      3 ****        -3.8694   3.1202   0.7608 N.2            1 S1                 0.0000
      4 ****        -2.6430   2.4704   0.7604 N.2            1 S1                 0.0000
      5 ****        -2.7839   1.1377   0.7676 C.2            1 S1                 0.0000
      6 ****        -1.6940   0.2277   0.7700 N.am           1 S1                 0.0000
      7 ****        -0.3780   0.5029   0.7613 C.2            1 S1                 0.0000
      8 ****         0.1117   1.6318   0.7268 O.2            1 S1                 0.0000
      9 ****         0.3493  -0.6235   0.7914 N.am           1 S1                 0.0000
     10 ****         1.8093  -0.7038   0.7987 C.3            1 S1                 0.0000
     11 ****         2.2590  -1.4509   2.0628 C.3            1 S1                 0.0000
     12 ****         2.3097  -1.3904  -0.4877 C.3            1 S1                 0.0000
     13 ****         1.8807  -0.7063  -1.7888 C.3            1 S1                 0.0000
     14 ****         2.9627  -1.1551  -2.7432 C.3            1 S1                 0.0000
     15 ****         4.1971  -1.1083  -1.8492 C.3            1 S1                 0.0000
     16 ****         3.7359  -1.3953  -0.5318 O.3            1 S1                 0.0000
     17 ****        -4.4428   0.5642   0.7783 S.3            1 S1                 0.0000
     18 ****        -6.3861   3.7956   0.7666 H              1 S1                 0.0000
     19 ****        -6.8303   2.3272   1.6528 H              1 S1                 0.0000
     20 ****        -6.8279   2.3265  -0.1196 H              1 S1                 0.0000
     21 ****        -1.9471  -0.7491   0.7886 H              1 S1                 0.0000
     22 ****        -0.1467  -1.5023   0.8139 H              1 S1                 0.0000
     23 ****         2.2415   0.2976   0.8370 H              1 S1                 0.0000
     24 ****         3.3462  -1.5037   2.1243 H              1 S1                 0.0000
     25 ****         1.8754  -2.4714   2.0797 H              1 S1                 0.0000
     26 ****         1.9051  -0.9466   2.9626 H              1 S1                 0.0000
     27 ****         1.9777  -2.4299  -0.5116 H              1 S1                 0.0000
     28 ****         0.8801  -0.9943  -2.1125 H              1 S1                 0.0000
     29 ****         1.9060   0.3793  -1.6816 H              1 S1                 0.0000
     30 ****         2.7721  -2.1780  -3.0709 H              1 S1                 0.0000
     31 ****         3.0502  -0.5211  -3.6260 H              1 S1                 0.0000
     32 ****         4.9676  -1.8123  -2.1645 H              1 S1                 0.0000
     33 ****         4.6307  -0.1076  -1.8513 H              1 S1                 0.0000
     34 ****        -3.9729   4.1148   0.7559 LP             1 S1                 0.0000
     35 ****        -1.7603   2.9402   0.7553 LP             1 S1                 0.0000
     36 ****        -0.4840   2.4346   0.7025 LP             1 S1                 0.0000
     37 ****         1.1052   1.7459   0.7231 LP             1 S1                 0.0000
     38 ****         4.0703  -2.2963  -0.2554 LP             1 S1                 0.0000
     39 ****         4.0867  -0.7020   0.0977 LP             1 S1                 0.0000
@<TRIPOS>BOND
    1    1    2 1     
    2    1   18 1     
    3    1   19 1     
    4    1   20 1     
    5    2   17 1     
    6    2    3 2     
    7    3    4 1     
    8    4    5 2     
    9    5    6 1     
   10    5   17 1     
   11    6    7 am    
   12    6   21 1     
   13    7    8 2     
   14    7    9 am    
   15    9   10 1     
   16    9   22 1     
   17   10   11 1     
   18   10   12 1     
   19   10   23 1     
   20   11   24 1     
   21   11   25 1     
   22   11   26 1     
   23   12   16 1     
   24   12   13 1     
   25   12   27 1     
   26   13   14 1     
   27   13   28 1     
   28   13   29 1     
   29   14   15 1     
   30   14   30 1     
   31   14   31 1     
   32   15   16 1     
   33   15   32 1     
   34   15   33 1     
   35    3   34 1     
   36    4   35 1     
   37    8   36 1     
   38    8   37 1     
   39   16   38 1     
   40   16   39 1     
@<TRIPOS>SUBSTRUCTURE
      1 S1             1
@<TRIPOS>SET
LONE_PAIRS      STATIC     ATOMS    <user>   **** ""
6 34 35 36 37 38 39
DONOR_HYDROGENS      STATIC     ATOMS    <user>   **** ""
2 21 22
ATOM$BLUE        STATIC     ATOMS    COLORGROUP SYSTEM
6 34 35 36 37 38 39
ATOM$RED        STATIC     ATOMS    COLORGROUP SYSTEM
2 21 22
