#       Name:                AV-unprocessed.smi:48
#       Creating user name   scv26
#       Creation time:       Thu Mar 26 16:32:23 2020


#       File generated by GOLD software.
#

@<TRIPOS>MOLECULE
AV-unprocessed.smi:48
    41    43     1
SMALL
NO_CHARGES


@<TRIPOS>ATOM
      1 ****        -0.2513   1.5856   3.7880 O.3            1 S1                 0.0000
      2 ****        -0.6997   0.5312   2.9636 C.3            1 S1                 0.0000
      3 ****         0.4705  -0.0267   2.1343 C.3            1 S1                 0.0000
      4 ****         0.6944   0.7613   0.9744 O.3            1 S1                 0.0000
      5 ****         1.4411   0.0212   0.0622 C.3            1 S1                 0.0000
      6 ****         0.9886   0.3845  -1.3139 N.pl3          1 S1                 0.0000
      7 ****         1.7614   0.5739  -2.4025 C.2            1 S1                 0.0000
      8 ****         1.1492   0.8887  -3.5433 N.2            1 S1                 0.0000
      9 ****        -0.1781   0.9082  -3.1477 C.ar           1 S1                 0.0000
     10 ****        -1.3826   1.1702  -3.8447 C.ar           1 S1                 0.0000
     11 ****        -1.3696   1.5577  -5.5262 Cl             1 S1                 0.0000
     12 ****        -2.5503   1.1098  -3.1612 N.ar           1 S1                 0.0000
     13 ****        -2.5312   0.8073  -1.8573 C.ar           1 S1                 0.0000
     14 ****        -1.4818   0.5385  -1.0726 N.ar           1 S1                 0.0000
     15 ****        -0.3049   0.5985  -1.7633 C.ar           1 S1                 0.0000
     16 ****         1.1927  -1.4702   0.3480 C.3            1 S1                 0.0000
     17 ****         2.3972  -2.1273   0.6868 O.3            1 S1                 0.0000
     18 ****         0.2700  -1.4396   1.5645 C.3            1 S1                 0.0000
     19 ****        -1.0716  -1.6600   1.1710 O.3            1 S1                 0.0000
     20 ****         1.3861  -0.0293   2.7294 H              1 S1                 0.0000
     21 ****         2.4930   0.3093   0.1032 H              1 S1                 0.0000
     22 ****         0.7404  -1.9716  -0.5097 H              1 S1                 0.0000
     23 ****         0.5221  -2.2027   2.3025 H              1 S1                 0.0000
     24 ****        -0.9866   1.9151   4.2816 H              1 S1                 0.0000
     25 ****        -1.1004  -0.2436   3.6178 H              1 S1                 0.0000
     26 ****        -1.5137   0.8718   2.3226 H              1 S1                 0.0000
     27 ****         2.8357   0.4712  -2.3559 H              1 S1                 0.0000
     28 ****        -3.4953   0.7762  -1.3717 H              1 S1                 0.0000
     29 ****         2.1993  -3.0292   0.8880 H              1 S1                 0.0000
     30 ****        -1.6258  -1.5802   1.9321 H              1 S1                 0.0000
     31 ****         0.1299   2.3169   3.2224 LP             1 S1                 0.0000
     32 ****         0.4513   1.2482   4.4146 LP             1 S1                 0.0000
     33 ****         1.1952   1.5903   1.2236 LP             1 S1                 0.0000
     34 ****        -0.1827   1.0121   0.5648 LP             1 S1                 0.0000
     35 ****         1.5433   1.0643  -4.4455 LP             1 S1                 0.0000
     36 ****        -3.4175   1.2893  -3.6256 LP             1 S1                 0.0000
     37 ****        -1.5505   0.3203  -0.0991 LP             1 S1                 0.0000
     38 ****         2.8097  -1.6863   1.4839 LP             1 S1                 0.0000
     39 ****         3.0331  -2.0850  -0.0838 LP             1 S1                 0.0000
     40 ****        -1.1625  -2.5770   0.7827 LP             1 S1                 0.0000
     41 ****        -1.3381  -0.9806   0.4874 LP             1 S1                 0.0000
@<TRIPOS>BOND
    1    1    2 1     
    2    1   24 1     
    3    2    3 1     
    4    2   25 1     
    5    2   26 1     
    6    3   20 1     
    7    3   18 1     
    8    3    4 1     
    9    4    5 1     
   10    5   21 1     
   11    5    6 1     
   12    5   16 1     
   13    6   15 1     
   14    6    7 1     
   15    7    8 2     
   16    7   27 1     
   17    8    9 1     
   18    9   15 ar    
   19    9   10 ar    
   20   10   11 1     
   21   10   12 ar    
   22   12   13 ar    
   23   13   14 ar    
   24   13   28 1     
   25   14   15 ar    
   26   16   22 1     
   27   16   17 1     
   28   16   18 1     
   29   17   29 1     
   30   18   23 1     
   31   18   19 1     
   32   19   30 1     
   33    1   31 1     
   34    1   32 1     
   35    4   33 1     
   36    4   34 1     
   37    8   35 1     
   38   12   36 1     
   39   14   37 1     
   40   17   38 1     
   41   17   39 1     
   42   19   40 1     
   43   19   41 1     
@<TRIPOS>SUBSTRUCTURE
      1 S1             1
@<TRIPOS>SET
LONE_PAIRS      STATIC     ATOMS    <user>   **** ""
11 31 32 33 34 35 36 37 38 39 40 41
DONOR_HYDROGENS      STATIC     ATOMS    <user>   **** ""
3 24 29 30
ATOM$BLUE        STATIC     ATOMS    COLORGROUP SYSTEM
11 31 32 33 34 35 36 37 38 39 40 41
ATOM$RED        STATIC     ATOMS    COLORGROUP SYSTEM
3 24 29 30
