AV-unprocessed.smi:1304|AV-procd|sdf|5431|dock9
  -GOLD-   22720 4593D 1   1.00000     0.00000
 Structure written by MMmdl.
 48 49  0  0  0  0  0  0  0  0  2 V2000
  149.7399  139.3750  155.6160 C   0  0  0  0  0  0  0  0  0  0  0  0
  148.9833  138.1335  155.1101 C   0  0  0  0  0  0  0  0  0  0  0  0
  149.7667  136.7878  155.1984 C   0  0  1  0  0  0  0  0  0  0  0  0
  151.1369  137.0009  154.5013 C   0  0  0  0  0  0  0  0  0  0  0  0
  150.0142  136.4329  156.6946 C   0  0  0  0  0  0  0  0  0  0  0  0
  148.7830  136.3786  157.4778 N   0  0  0  0  0  0  0  0  0  0  0  0
  148.3782  135.3121  158.1811 C   0  0  0  0  0  0  0  0  0  0  0  0
  149.0222  134.2636  158.2375 O   0  0  0  0  0  0  0  0  0  0  0  0
  147.0515  135.4725  158.9379 C   0  0  0  0  0  0  0  0  0  0  0  0
  147.1853  135.3307  160.3975 N   0  0  0  0  0  0  0  0  0  0  0  0
  146.6329  134.1730  160.9808 C   0  0  0  0  0  0  0  0  0  0  0  0
  146.6913  133.9466  162.3026 C   0  0  0  0  0  0  0  0  0  0  0  0
  147.3435  134.9295  163.1351 C   0  0  0  0  0  0  0  0  0  0  0  0
  147.8724  136.0421  162.5880 C   0  0  0  0  0  0  0  0  0  0  0  0
  147.8092  136.2944  161.1435 C   0  0  0  0  0  0  0  0  0  0  0  0
  148.2862  137.3096  160.6352 O   0  0  0  0  0  0  0  0  0  0  0  0
  148.9912  135.6912  154.5104 N   0  3  0  0  0  0  0  0  0  0  0  0
  149.5553  134.3161  154.6264 C   0  0  0  0  0  0  0  0  0  0  0  0
  148.7795  133.3362  153.7292 C   0  0  0  0  0  0  0  0  0  0  0  0
  147.4013  133.3523  154.0729 O   0  0  0  0  0  0  0  0  0  0  0  0
  146.8273  134.6374  153.8812 C   0  0  0  0  0  0  0  0  0  0  0  0
  147.5290  135.6528  154.7969 C   0  0  0  0  0  0  0  0  0  0  0  0
  149.1168  140.2644  155.5210 H   0  0  0  0  0  0  0  0  0  0  0  0
  150.6507  139.5572  155.0457 H   0  0  0  0  0  0  0  0  0  0  0  0
  150.0124  139.2839  156.6672 H   0  0  0  0  0  0  0  0  0  0  0  0
  148.0588  138.0573  155.6837 H   0  0  0  0  0  0  0  0  0  0  0  0
  148.6503  138.3156  154.0886 H   0  0  0  0  0  0  0  0  0  0  0  0
  151.6155  137.9262  154.8239 H   0  0  0  0  0  0  0  0  0  0  0  0
  151.0372  137.0530  153.4170 H   0  0  0  0  0  0  0  0  0  0  0  0
  151.8402  136.1996  154.7296 H   0  0  0  0  0  0  0  0  0  0  0  0
  150.4977  135.4606  156.7914 H   0  0  0  0  0  0  0  0  0  0  0  0
  150.6835  137.1629  157.1510 H   0  0  0  0  0  0  0  0  0  0  0  0
  148.1999  137.2029  157.4808 H   0  0  0  0  0  0  0  0  0  0  0  0
  146.6323  136.4486  158.6895 H   0  0  0  0  0  0  0  0  0  0  0  0
  146.3323  134.7474  158.5524 H   0  0  0  0  0  0  0  0  0  0  0  0
  146.1567  133.4920  160.2905 H   0  0  0  0  0  0  0  0  0  0  0  0
  146.2580  133.0554  162.7323 H   0  0  0  0  0  0  0  0  0  0  0  0
  147.4054  134.7731  164.2020 H   0  0  0  0  0  0  0  0  0  0  0  0
  148.3541  136.7675  163.2273 H   0  0  0  0  0  0  0  0  0  0  0  0
  150.5990  134.2812  154.3199 H   0  0  0  0  0  0  0  0  0  0  0  0
  149.5109  133.9762  155.6613 H   0  0  0  0  0  0  0  0  0  0  0  0
  148.9070  133.5894  152.6754 H   0  0  0  0  0  0  0  0  0  0  0  0
  149.1627  132.3241  153.8606 H   0  0  0  0  0  0  0  0  0  0  0  0
  146.9039  134.9355  152.8342 H   0  0  0  0  0  0  0  0  0  0  0  0
  145.7652  134.5871  154.1214 H   0  0  0  0  0  0  0  0  0  0  0  0
  147.3537  135.3720  155.8356 H   0  0  0  0  0  0  0  0  0  0  0  0
  147.0642  136.6246  154.6435 H   0  0  0  0  0  0  0  0  0  0  0  0
  149.0611  135.9159  153.5281 H   0  0  0  0  0  0  0  0  0  0  0  0
  1  2  1  0  0  0  0
  1 23  1  0  0  0  0
  1 24  1  0  0  0  0
  1 25  1  0  0  0  0
  2  3  1  0  0  0  0
  2 26  1  0  0  0  0
  2 27  1  0  0  0  0
  3  4  1  0  0  0  0
  3  5  1  0  0  0  0
  3 17  1  0  0  0  0
  4 28  1  0  0  0  0
  4 29  1  0  0  0  0
  4 30  1  0  0  0  0
  5  6  1  0  0  0  0
  5 31  1  0  0  0  0
  5 32  1  0  0  0  0
  6  7  1  0  0  0  0
  6 33  1  0  0  0  0
  7  8  2  0  0  0  0
  7  9  1  0  0  0  0
  9 10  1  0  0  0  0
  9 34  1  0  0  0  0
  9 35  1  0  0  0  0
 10 15  1  0  0  0  0
 10 11  1  0  0  0  0
 11 12  2  0  0  0  0
 11 36  1  0  0  0  0
 12 13  1  0  0  0  0
 12 37  1  0  0  0  0
 13 14  2  0  0  0  0
 13 38  1  0  0  0  0
 14 15  1  0  0  0  0
 14 39  1  0  0  0  0
 15 16  2  0  0  0  0
 17 22  1  0  0  0  0
 17 18  1  0  0  0  0
 17 48  1  0  0  0  0
 18 19  1  0  0  0  0
 18 40  1  0  0  0  0
 18 41  1  0  0  0  0
 19 20  1  0  0  0  0
 19 42  1  0  0  0  0
 19 43  1  0  0  0  0
 20 21  1  0  0  0  0
 21 22  1  0  0  0  0
 21 44  1  0  0  0  0
 21 45  1  0  0  0  0
 22 46  1  0  0  0  0
 22 47  1  0  0  0  0
M  CHG  1  17   1
M  END
> <s_m_source_file>
AV-unprocessed.smi

> <i_m_source_file_index>
1304

> <i_lp_mmshare_version>
43012

> <i_f3d_flags>
0

> <s_epik_input>
W0NIMl0xW0NIMl1PW0NIMl1bQ0gyXU4xW0NAQF0oW0NIM10pKFtDSDJdW0NIM10pW0NIMl1bTkhdQyg9TylbQ0gyXW4yW2NIXVtjSF1bY0hdW2NIXWMyPU8=

> <s_epik_cmdline>
J2VwaWtfcHl0aG9uJywgJy1waCcsICc3LjAnLCAnLXRuJywgJzgnLCAnLW1hJywgJzIwMCcsICctbWV0YWxfYmluZGluZycsICctaW1hZScsICc8aW5maWxlLm1hZT4nLCAnLW9tYWUnLCAnPG91dGZpbGUubWFlPic=

> <r_lp_tautomer_probability>
1

> <r_epik_Ionization_Penalty>
0.519658

> <r_epik_Ionization_Penalty_Charging>
0.519658

> <r_epik_Ionization_Penalty_Neutral>
8.70177e-08

> <r_epik_State_Penalty>
0.527569

> <r_epik_Charging_Adjusted_Penalty>
1.04723

> <i_epik_Tot_Q>
1

> <i_epik_Tot_abs_Q>
1

> <r_epik_Metal_State_Penalty>
0.527613

> <b_epik_Metal_Only>
0

> <s_lp_Force_Field>
OPLS_2005

> <r_lp_Energy>
38.623

> <b_lp_Chiralities_Consistent>
1

> <s_lp_Variant>
AV-unprocessed.smi:1304-3

> <Gold.Version>
5.8.1

> <Gold.Id.Protein>
6NUR|6NUR_protein|mol2

> <Gold.PLP.Fitness>
48.0126

> <Gold.PLP.PLP>
-34.9688

> <Gold.PLP.part.hbond>
-4.0000

> <Gold.PLP.part.metal>
0.0000

> <Gold.PLP.part.buried>
-3.9618

> <Gold.PLP.part.nonpolar>
-27.3089

> <Gold.PLP.part.repulsive>
0.1322

> <Gold.PLP.ligand.clash>
0.0000

> <Gold.PLP.ligand.torsion>
0.4113

> <Gold.PLP.Chemscore.Hbond>
4.5680

> <Gold.PLP.Chemscore.CHOScore>
0.0000

> <Gold.PLP.Chemscore.Metal>
0.0000

> <Gold.Chemscore.Hbonds>
donor molecule, donor type, donor heavy atom, donor atom, acceptor molecule, acceptor atom, score
      L1  H    17    48       P1  7948  2.00
      P1  H  6896  6908       L1     8  1.00
      P1  H  6931  6943       L1    16  0.75
      P1  H  6934  6947       L1    16  0.57

> <Gold.PLP.Chemscore.Internal.Correction>
0.1625

> <Gold.Rescore>
     Score         DG    S(hbond)    S(metal)    S(lipo)     H(rot)  DE(clash)    DE(int)     intcor
     20.04     -20.56       3.56        0.00      71.63       2.03       0.03       0.48       ----

> <Gold.Chemscore.Fitness>
20.0445

> <Gold.Chemscore.DG>
-20.5583

> <Gold.Chemscore.ZeroCoef>
-5.4800

> <Gold.Chemscore.Hbond>
3.5610

> <Gold.Chemscore.Metal>
0.0000

> <Gold.Chemscore.Lipo>
71.6300

> <Gold.Chemscore.Internal_Hbond>
0.0000

> <Gold.Chemscore.DEClash>
0.0310

> <Gold.Chemscore.DEInternal>
0.4828

> <Gold.Chemscore.Rot>
2.0298

> <Gold.Chemscore.Internal.Correction>
   9.000000E+99

> <Gold.Chemscore.Hbonds>
donor molecule, donor type, donor heavy atom, donor atom, acceptor molecule, acceptor atom, score
      L1  H    17    48       P1  7948  0.91
      P1  H  6896  6908       L1     8  0.90
      P1  H  6931  6943       L1    16  0.52
      P1  H  6934  6947       L1    16  0.51

> <Gold.Chemscore.Hbond.Weighted>
-11.8938

> <Gold.Chemscore.Metal.Weighted>
-0.0000

> <Gold.Chemscore.Lipo.Weighted>
-8.3807

> <Gold.Chemscore.Internal_Hbond.Weighted>
0.0000

> <Gold.Chemscore.DEClash.Weighted>
0.0310

> <Gold.Chemscore.DEInternal.Weighted>
0.4828

> <Gold.Chemscore.Rot.Weighted>
5.1962

> <Gold.Chemscore.Internal.Correction.Weighted>
   9.000000E+99

> <Gold.Protein.RotatedTorsions>
[ 6907 6896 6895 6894 ] final  151.60 input  -60.11 | X-H torsion
[ 7974 7965 7964 7962 ] final  149.14 input  175.53 | X-H torsion
[ 8008 7997 7996 7995 ] final   17.38 input   59.86 | X-H torsion
[ 10167 10162 10161 10158 ] final  -40.58 input  -65.29 | X-H torsion
[ 10718 10713 10712 10709 ] final  118.69 input   66.30 | X-H torsion
[ 10763 10752 10751 10750 ] final  175.38 input  -60.55 | X-H torsion
[ 11005 11000 10999 10996 ] final  -45.27 input  -57.11 | X-H torsion

> <Gold.Protein.ActiveResidues>
 VAL166  LYS551  ARG553  GLY616  TRP617  ASP618  TYR619  PRO620  LYS621  CYS622 
 ASP623  PHE694  ASN695  SER759  ASP760  ASP761  ALA762  ILE779  LEU786  VAL792 
 PHE793  MET794  SER795  GLU796  ALA797  LYS798  CYS799  TRP800  GLU811  SER814 

> <Gold.Protein.RotatedAtoms>
  152.0984  133.4237  159.4575 H   0  0  0  0  0  0  0  0  0  0  0  0  # atno 6907 bound_to 6896
  150.6863  134.2789  159.4628 H   0  0  0  0  0  0  0  0  0  0  0  0  # atno 6908 bound_to 6896
  152.0647  134.9571  160.0625 H   0  0  0  0  0  0  0  0  0  0  0  0  # atno 6909 bound_to 6896
  144.8460  139.6242  143.5995 H   0  0  0  0  0  0  0  0  0  0  0  0  # atno 7974 bound_to 7965
  154.8906  140.2986  155.5373 H   0  0  0  0  0  0  0  0  0  0  0  0  # atno 8008 bound_to 7997
  156.3021  140.2425  156.3856 H   0  0  0  0  0  0  0  0  0  0  0  0  # atno 8009 bound_to 7997
  154.8622  140.0405  157.1661 H   0  0  0  0  0  0  0  0  0  0  0  0  # atno 8010 bound_to 7997
  140.7030  143.3145  151.2944 H   0  0  0  0  0  0  0  0  0  0  0  0  # atno 10167 bound_to 10162
  157.6013  131.1050  150.7792 H   0  0  0  0  0  0  0  0  0  0  0  0  # atno 10718 bound_to 10713
  154.4668  135.2769  155.1672 H   0  0  0  0  0  0  0  0  0  0  0  0  # atno 10763 bound_to 10752
  154.3437  135.6164  153.5612 H   0  0  0  0  0  0  0  0  0  0  0  0  # atno 10764 bound_to 10752
  152.9860  135.5794  154.5042 H   0  0  0  0  0  0  0  0  0  0  0  0  # atno 10765 bound_to 10752
  141.0505  133.6745  156.2990 H   0  0  0  0  0  0  0  0  0  0  0  0  # atno 11005 bound_to 11000
  146.2745  139.6717  142.9273 LP  0  0  0  0  0  0  0  0  0  0  0  0  # atno 17320 bound_to 7965
  145.4595  141.0432  143.2759 LP  0  0  0  0  0  0  0  0  0  0  0  0  # atno 17321 bound_to 7965
  139.6579  144.0243  152.2672 LP  0  0  0  0  0  0  0  0  0  0  0  0  # atno 17342 bound_to 10162
  139.9800  144.6434  150.7909 LP  0  0  0  0  0  0  0  0  0  0  0  0  # atno 17343 bound_to 10162
  156.8190  130.4978  149.5345 LP  0  0  0  0  0  0  0  0  0  0  0  0  # atno 17370 bound_to 10713
  156.1087  130.6024  151.0012 LP  0  0  0  0  0  0  0  0  0  0  0  0  # atno 17371 bound_to 10713
  140.6065  134.5502  157.5526 LP  0  0  0  0  0  0  0  0  0  0  0  0  # atno 17394 bound_to 11000
  139.9346  134.7899  156.0837 LP  0  0  0  0  0  0  0  0  0  0  0  0  # atno 17395 bound_to 11000

$$$$
