#       Name:                AV-unprocessed.smi:3086
#       Creating user name   scv26
#       Creation time:       Fri Mar 27 17:14:55 2020


#       File generated by GOLD software.
#

@<TRIPOS>MOLECULE
AV-unprocessed.smi:3086
    32    33     1
SMALL
NO_CHARGES


@<TRIPOS>ATOM
      1 ****        -4.0863   1.3818  -0.1001 C.3            1 S1                 0.0000
      2 ****        -2.5989   1.4369  -0.1789 C.2            1 S1                 0.0000
      3 ****        -1.9046   2.6039  -0.3079 N.2            1 S1                 0.0000
      4 ****        -0.6605   2.1382  -0.3245 C.2            1 S1                 0.0000
      5 ****         0.5557   3.0007  -0.4237 C.3            1 S1                 0.0000
      6 ****        -0.6013   0.8004  -0.2374 N.pl3          1 S1                 0.0000
      7 ****         0.5457  -0.0993  -0.1703 C.3            1 S1                 0.0000
      8 ****         0.8713  -0.4638   1.2907 C.3            1 S1                 0.0000
      9 ****         2.0737  -1.4184   1.3502 C.3            1 S1                 0.0000
     10 ****         1.8372  -2.6584   0.4717 C.3            1 S1                 0.0000
     11 ****         1.5239  -2.2639  -0.9192 N.4            1 S1                 1.0000
     12 ****         0.3424  -1.3789  -1.0142 C.3            1 S1                 0.0000
     13 ****        -1.8666   0.3278  -0.1184 N.2            1 S1                 0.0000
     14 ****        -4.5096   2.3866  -0.0838 H              1 S1                 0.0000
     15 ****        -4.3981   0.8621   0.8063 H              1 S1                 0.0000
     16 ****        -4.4912   0.8511  -0.9621 H              1 S1                 0.0000
     17 ****         0.2833   4.0538  -0.3467 H              1 S1                 0.0000
     18 ****         1.0523   2.8398  -1.3807 H              1 S1                 0.0000
     19 ****         1.2528   2.7663   0.3811 H              1 S1                 0.0000
     20 ****         1.4024   0.4320  -0.5869 H              1 S1                 0.0000
     21 ****         1.0841   0.4376   1.8670 H              1 S1                 0.0000
     22 ****         0.0068  -0.9361   1.7599 H              1 S1                 0.0000
     23 ****         2.9715  -0.8970   1.0153 H              1 S1                 0.0000
     24 ****         2.2587  -1.7205   2.3814 H              1 S1                 0.0000
     25 ****         2.7214  -3.2962   0.4710 H              1 S1                 0.0000
     26 ****         1.0144  -3.2535   0.8700 H              1 S1                 0.0000
     27 ****         2.3216  -1.7780  -1.3036 H              1 S1                 0.0000
     28 ****        -0.5332  -1.9375  -0.6802 H              1 S1                 0.0000
     29 ****         0.1772  -1.1220  -2.0610 H              1 S1                 0.0000
     30 ****         1.3544  -3.0964  -1.4660 H              1 S1                 0.0000
     31 ****        -2.2380   3.5446  -0.3719 LP             1 S1                 0.0000
     32 ****        -2.1729  -0.6181  -0.0118 LP             1 S1                 0.0000
@<TRIPOS>BOND
    1    1    2 1     
    2    1   14 1     
    3    1   15 1     
    4    1   16 1     
    5    2   13 2     
    6    2    3 1     
    7    3    4 2     
    8    4    5 1     
    9    4    6 1     
   10    5   17 1     
   11    5   18 1     
   12    5   19 1     
   13    6    7 1     
   14    6   13 1     
   15    7   12 1     
   16    7    8 1     
   17    7   20 1     
   18    8    9 1     
   19    8   21 1     
   20    8   22 1     
   21    9   10 1     
   22    9   23 1     
   23    9   24 1     
   24   10   11 1     
   25   10   25 1     
   26   10   26 1     
   27   11   12 1     
   28   11   27 1     
   29   11   30 1     
   30   12   28 1     
   31   12   29 1     
   32    3   31 1     
   33   13   32 1     
@<TRIPOS>SUBSTRUCTURE
      1 S1             1
@<TRIPOS>SET
LONE_PAIRS      STATIC     ATOMS    <user>   **** ""
2 31 32
DONOR_HYDROGENS      STATIC     ATOMS    <user>   **** ""
2 27 30
ATOM$BLUE        STATIC     ATOMS    COLORGROUP SYSTEM
2 31 32
ATOM$RED        STATIC     ATOMS    COLORGROUP SYSTEM
2 27 30
