#       Name:                AV-unprocessed.smi:1948
#       Creating user name   scv26
#       Creation time:       Fri Mar 27 10:02:38 2020


#       File generated by GOLD software.
#

@<TRIPOS>MOLECULE
AV-unprocessed.smi:1948
    36    37     1
SMALL
NO_CHARGES


@<TRIPOS>ATOM
      1 ****        -1.0349   1.9665   0.5935 O.2            1 S1                 0.0000
      2 ****        -1.4763   0.9729   0.0155 C.2            1 S1                 0.0000
      3 ****        -2.7709   0.7519  -0.2736 N.am           1 S1                 0.0000
      4 ****        -3.8894   1.5816   0.0058 C.2            1 S1                 0.0000
      5 ****        -3.8018   2.7610   0.6410 N.2            1 S1                 0.0000
      6 ****        -5.0431   3.3674   0.7851 N.2            1 S1                 0.0000
      7 ****        -6.0167   2.6227   0.2536 C.2            1 S1                 0.0000
      8 ****        -5.5126   1.1066  -0.4735 S.3            1 S1                 0.0000
      9 ****        -0.7053  -0.0395  -0.4080 N.am           1 S1                 0.0000
     10 ****         0.7453  -0.1137  -0.2589 C.3            1 S1                 0.0000
     11 ****         1.3303  -1.0355  -1.3458 C.3            1 S1                 0.0000
     12 ****         2.8524  -1.1895  -1.1940 C.3            1 S1                 0.0000
     13 ****         3.2199  -1.6965   0.2110 C.3            1 S1                 0.0000
     14 ****         4.6247  -1.7600   0.3377 O.3            1 S1                 0.0000
     15 ****         2.6458  -0.7739   1.2999 C.3            1 S1                 0.0000
     16 ****         1.1237  -0.6187   1.1493 C.3            1 S1                 0.0000
     17 ****        -2.9817  -0.1114  -0.7522 H              1 S1                 0.0000
     18 ****        -7.0390   2.9685   0.2911 H              1 S1                 0.0000
     19 ****        -1.1530  -0.8165  -0.8715 H              1 S1                 0.0000
     20 ****         1.1668   0.8836  -0.4007 H              1 S1                 0.0000
     21 ****         0.8615  -2.0192  -1.2889 H              1 S1                 0.0000
     22 ****         1.0995  -0.6401  -2.3358 H              1 S1                 0.0000
     23 ****         3.2313  -1.8763  -1.9519 H              1 S1                 0.0000
     24 ****         3.3327  -0.2275  -1.3793 H              1 S1                 0.0000
     25 ****         2.8255  -2.7044   0.3461 H              1 S1                 0.0000
     26 ****         4.9763  -0.8900   0.2253 H              1 S1                 0.0000
     27 ****         2.8803  -1.1693   2.2889 H              1 S1                 0.0000
     28 ****         3.1153   0.2091   1.2398 H              1 S1                 0.0000
     29 ****         0.7516   0.0688   1.9099 H              1 S1                 0.0000
     30 ****         0.6423  -1.5791   1.3395 H              1 S1                 0.0000
     31 ****        -1.6577   2.6913   0.8884 LP             1 S1                 0.0000
     32 ****        -0.0537   2.0487   0.7681 LP             1 S1                 0.0000
     33 ****        -2.9446   3.1561   0.9713 LP             1 S1                 0.0000
     34 ****        -5.1897   4.2506   1.2308 LP             1 S1                 0.0000
     35 ****         4.9992  -2.3680  -0.3623 LP             1 S1                 0.0000
     36 ****         4.8661  -2.1067   1.2441 LP             1 S1                 0.0000
@<TRIPOS>BOND
    1    1    2 2     
    2    2    3 am    
    3    2    9 am    
    4    3    4 1     
    5    3   17 1     
    6    4    8 1     
    7    4    5 2     
    8    5    6 1     
    9    6    7 2     
   10    7    8 1     
   11    7   18 1     
   12    9   10 1     
   13    9   19 1     
   14   10   16 1     
   15   10   11 1     
   16   10   20 1     
   17   11   12 1     
   18   11   21 1     
   19   11   22 1     
   20   12   13 1     
   21   12   23 1     
   22   12   24 1     
   23   13   14 1     
   24   13   15 1     
   25   13   25 1     
   26   14   26 1     
   27   15   16 1     
   28   15   27 1     
   29   15   28 1     
   30   16   29 1     
   31   16   30 1     
   32    1   31 1     
   33    1   32 1     
   34    5   33 1     
   35    6   34 1     
   36   14   35 1     
   37   14   36 1     
@<TRIPOS>SUBSTRUCTURE
      1 S1             1
@<TRIPOS>SET
LONE_PAIRS      STATIC     ATOMS    <user>   **** ""
6 31 32 33 34 35 36
DONOR_HYDROGENS      STATIC     ATOMS    <user>   **** ""
3 17 19 26
ATOM$BLUE        STATIC     ATOMS    COLORGROUP SYSTEM
6 31 32 33 34 35 36
ATOM$RED        STATIC     ATOMS    COLORGROUP SYSTEM
3 17 19 26
