AV-unprocessed.smi:112|AV-procd|sdf|1089|dock9
  -GOLD-   2262018193D 1   1.00000     0.00000
 Structure written by MMmdl.
 54 57  0  0  0  0  0  0  0  0  3 V2000
  146.5706  142.6349  158.8883 C   0  0  0  0  0  0  0  0  0  0  0  0
  147.8124  142.0966  158.1943 C   0  0  0  0  0  0  0  0  0  0  0  0
  147.7793  140.9909  157.4149 C   0  0  0  0  0  0  0  0  0  0  0  0
  148.8898  140.4783  156.7655 N   0  0  0  0  0  0  0  0  0  0  0  0
  148.8238  139.2427  155.8895 C   0  0  2  0  0  0  0  0  0  0  0  0
  149.2827  139.5505  154.4578 C   0  0  0  0  0  0  0  0  0  0  0  0
  148.3355  138.6910  153.6502 C   0  0  2  0  0  0  0  0  0  0  0  0
  148.2387  139.1190  152.3063 O   0  0  0  0  0  0  0  0  0  0  0  0
  147.0317  138.7913  154.4521 C   0  0  2  0  0  0  0  0  0  0  0  0
  146.2158  140.0806  154.2078 C   0  0  0  0  0  0  0  0  0  0  0  0
  144.8857  139.8961  154.6430 O   0  0  0  0  0  0  0  0  0  0  0  0
  147.5026  138.7815  155.8021 O   0  0  0  0  0  0  0  0  0  0  0  0
  150.1432  141.0990  156.9415 C   0  0  0  0  0  0  0  0  0  0  0  0
  151.1515  140.6462  156.3941 O   0  0  0  0  0  0  0  0  0  0  0  0
  150.2129  142.2530  157.7535 N   0  0  0  0  0  0  0  0  0  0  0  0
  151.5228  142.9233  157.9173 C   0  0  0  0  0  0  0  0  0  0  0  0
  151.9430  143.1148  159.3915 C   0  0  0  0  0  0  0  0  0  0  0  0
  151.4722  144.0594  160.0260 O   0  0  0  0  0  0  0  0  0  0  0  0
  152.8152  142.2223  159.9229 N   0  0  0  0  0  0  0  0  0  0  0  0
  153.3811  141.0906  159.1682 C   0  0  0  0  0  0  0  0  0  0  0  0
  154.2988  140.3296  160.1497 C   0  0  0  0  0  0  0  0  0  0  0  0
  154.1785  141.1274  161.4143 C   0  0  0  0  0  0  0  0  0  0  0  0
  154.8229  140.8663  162.6355 C   0  0  0  0  0  0  0  0  0  0  0  0
  154.5877  141.7321  163.7324 C   0  0  0  0  0  0  0  0  0  0  0  0
  155.2454  141.4873  165.0315 N   0  3  0  0  0  0  0  0  0  0  0  0
  156.0243  140.5437  165.1203 O   0  0  0  0  0  0  0  0  0  0  0  0
  154.9843  142.2387  165.9655 O   0  5  0  0  0  0  0  0  0  0  0  0
  153.7105  142.8364  163.5644 C   0  0  0  0  0  0  0  0  0  0  0  0
  153.0718  143.0842  162.3295 C   0  0  0  0  0  0  0  0  0  0  0  0
  153.3194  142.2079  161.2508 C   0  0  0  0  0  0  0  0  0  0  0  0
  149.0770  142.8082  158.3914 C   0  0  0  0  0  0  0  0  0  0  0  0
  149.1748  143.8353  159.0657 O   0  0  0  0  0  0  0  0  0  0  0  0
  145.6910  142.0247  158.6802 H   0  0  0  0  0  0  0  0  0  0  0  0
  146.3568  143.6508  158.5540 H   0  0  0  0  0  0  0  0  0  0  0  0
  146.7152  142.6529  159.9691 H   0  0  0  0  0  0  0  0  0  0  0  0
  146.8265  140.4961  157.3075 H   0  0  0  0  0  0  0  0  0  0  0  0
  149.4322  138.4901  156.3941 H   0  0  0  0  0  0  0  0  0  0  0  0
  149.1330  140.6098  154.2406 H   0  0  0  0  0  0  0  0  0  0  0  0
  150.3339  139.3003  154.3124 H   0  0  0  0  0  0  0  0  0  0  0  0
  148.6880  137.6585  153.6643 H   0  0  0  0  0  0  0  0  0  0  0  0
  148.5070  138.4090  151.7431 H   0  0  0  0  0  0  0  0  0  0  0  0
  146.4075  137.9173  154.2610 H   0  0  0  0  0  0  0  0  0  0  0  0
  146.6574  140.9478  154.6978 H   0  0  0  0  0  0  0  0  0  0  0  0
  146.1665  140.3098  153.1434 H   0  0  0  0  0  0  0  0  0  0  0  0
  144.3230  140.4635  154.1388 H   0  0  0  0  0  0  0  0  0  0  0  0
  152.3074  142.3688  157.4007 H   0  0  0  0  0  0  0  0  0  0  0  0
  151.5091  143.8925  157.4176 H   0  0  0  0  0  0  0  0  0  0  0  0
  152.5913  140.4350  158.7993 H   0  0  0  0  0  0  0  0  0  0  0  0
  153.9587  141.4472  158.3144 H   0  0  0  0  0  0  0  0  0  0  0  0
  153.9604  139.3058  160.3112 H   0  0  0  0  0  0  0  0  0  0  0  0
  155.3336  140.3104  159.8065 H   0  0  0  0  0  0  0  0  0  0  0  0
  155.4827  140.0156  162.7215 H   0  0  0  0  0  0  0  0  0  0  0  0
  153.5169  143.5095  164.3865 H   0  0  0  0  0  0  0  0  0  0  0  0
  152.4135  143.9341  162.2450 H   0  0  0  0  0  0  0  0  0  0  0  0
  1  2  1  0  0  0  0
  1 33  1  0  0  0  0
  1 34  1  0  0  0  0
  1 35  1  0  0  0  0
  2 31  1  0  0  0  0
  2  3  2  0  0  0  0
  3  4  1  0  0  0  0
  3 36  1  0  0  0  0
  4  5  1  0  0  0  0
  4 13  1  0  0  0  0
  5 12  1  0  0  0  0
  5  6  1  0  0  0  0
  5 37  1  0  0  0  0
  6  7  1  0  0  0  0
  6 38  1  0  0  0  0
  6 39  1  0  0  0  0
  7  8  1  0  0  0  0
  7  9  1  0  0  0  0
  7 40  1  0  0  0  0
  8 41  1  0  0  0  0
  9 10  1  0  0  0  0
  9 12  1  0  0  0  0
  9 42  1  0  0  0  0
 10 11  1  0  0  0  0
 10 43  1  0  0  0  0
 10 44  1  0  0  0  0
 11 45  1  0  0  0  0
 13 14  2  0  0  0  0
 13 15  1  0  0  0  0
 15 16  1  0  0  0  0
 15 31  1  0  0  0  0
 16 17  1  0  0  0  0
 16 46  1  0  0  0  0
 16 47  1  0  0  0  0
 17 18  2  0  0  0  0
 17 19  1  0  0  0  0
 19 30  1  0  0  0  0
 19 20  1  0  0  0  0
 20 21  1  0  0  0  0
 20 48  1  0  0  0  0
 20 49  1  0  0  0  0
 21 22  1  0  0  0  0
 21 50  1  0  0  0  0
 21 51  1  0  0  0  0
 22 30  2  0  0  0  0
 22 23  1  0  0  0  0
 23 24  2  0  0  0  0
 23 52  1  0  0  0  0
 24 25  1  0  0  0  0
 24 28  1  0  0  0  0
 25 26  2  0  0  0  0
 25 27  1  0  0  0  0
 28 29  2  0  0  0  0
 28 53  1  0  0  0  0
 29 30  1  0  0  0  0
 29 54  1  0  0  0  0
 31 32  2  0  0  0  0
M  CHG  1  25   1
M  CHG  1  27  -1
M  END
> <s_m_source_file>
AV-unprocessed.smi

> <i_m_source_file_index>
112

> <i_lp_mmshare_version>
43012

> <i_f3d_flags>
0

> <s_epik_input>
W09IXVtDSDJdW0NAQEhdKE8xKVtDQEhdKFtPSF0pW0NIMl1bQ0BIXTFuKFtjSF1jMltDSDNdKWMoPU8pbihjMj1PKVtDSDJdQyg9TylOKFtDSDJdW0NIMl0zKWMoYzM0KVtjSF1bY0hdYyhbY0hdNClbTitdKD1PKVtPLV0=

> <s_epik_cmdline>
J2VwaWtfcHl0aG9uJywgJy1waCcsICc3LjAnLCAnLXRuJywgJzgnLCAnLW1hJywgJzIwMCcsICctbWV0YWxfYmluZGluZycsICctaW1hZScsICc8aW5maWxlLm1hZT4nLCAnLW9tYWUnLCAnPG91dGZpbGUubWFlPic=

> <r_lp_tautomer_probability>
1

> <r_epik_Ionization_Penalty>
2.5696e-07

> <r_epik_Ionization_Penalty_Charging>
1.04886e-08

> <r_epik_Ionization_Penalty_Neutral>
2.46472e-07

> <r_epik_State_Penalty>
-0

> <r_epik_Charging_Adjusted_Penalty>
1.04886e-08

> <i_epik_Tot_Q>
0

> <i_epik_Tot_abs_Q>
2

> <r_epik_Metal_State_Penalty>
-0

> <b_epik_Metal_Only>
0

> <s_epik_Chemistry_Notes>
This compound contains an acetal/aminal-like group ( X-CH(R)-Y where X, Y are N, S, or O) that may be acid/base labile, releasing an aldehyde.

> <s_lp_Force_Field>
OPLS_2005

> <r_lp_Energy>
59.9345

> <b_lp_Chiralities_Consistent>
1

> <s_lp_Variant>
AV-unprocessed.smi:112-7

> <Gold.Version>
5.8.1

> <Gold.Id.Protein>
6NUR|6NUR_protein|mol2

> <Gold.PLP.Fitness>
55.5456

> <Gold.PLP.PLP>
-50.6736

> <Gold.PLP.part.hbond>
-3.2777

> <Gold.PLP.part.metal>
0.0000

> <Gold.PLP.part.buried>
-2.7572

> <Gold.PLP.part.nonpolar>
-46.3046

> <Gold.PLP.part.repulsive>
2.0795

> <Gold.PLP.ligand.clash>
0.0000

> <Gold.PLP.ligand.torsion>
0.5423

> <Gold.PLP.Chemscore.Hbond>
1.9760

> <Gold.PLP.Chemscore.CHOScore>
0.0000

> <Gold.PLP.Chemscore.Metal>
0.0000

> <Gold.Chemscore.Hbonds>
donor molecule, donor type, donor heavy atom, donor atom, acceptor molecule, acceptor atom, score
      L1  H     8    41       P1  7948  0.52
      L1  H    11    45       P1 10175  0.74

> <Gold.PLP.Chemscore.Internal.Correction>
0.0285

> <Gold.Rescore>
     Score         DG    S(hbond)    S(metal)    S(lipo)     H(rot)  DE(clash)    DE(int)     intcor
      8.85     -15.76       1.91        0.00     105.34       3.29       1.29       5.62       ----

> <Gold.Chemscore.Fitness>
8.8504

> <Gold.Chemscore.DG>
-15.7578

> <Gold.Chemscore.ZeroCoef>
-5.4800

> <Gold.Chemscore.Hbond>
1.9100

> <Gold.Chemscore.Metal>
0.0000

> <Gold.Chemscore.Lipo>
105.3405

> <Gold.Chemscore.Internal_Hbond>
0.0000

> <Gold.Chemscore.DEClash>
1.2852

> <Gold.Chemscore.DEInternal>
5.6221

> <Gold.Chemscore.Rot>
3.2916

> <Gold.Chemscore.Internal.Correction>
   9.000000E+99

> <Gold.Chemscore.Hbonds>
donor molecule, donor type, donor heavy atom, donor atom, acceptor molecule, acceptor atom, score
      L1  H     8    41       P1  7948  0.50
      L1  H    11    45       P1 10175  0.74

> <Gold.Chemscore.Hbond.Weighted>
-6.3794

> <Gold.Chemscore.Metal.Weighted>
-0.0000

> <Gold.Chemscore.Lipo.Weighted>
-12.3248

> <Gold.Chemscore.Internal_Hbond.Weighted>
0.0000

> <Gold.Chemscore.DEClash.Weighted>
1.2852

> <Gold.Chemscore.DEInternal.Weighted>
5.6221

> <Gold.Chemscore.Rot.Weighted>
8.4265

> <Gold.Chemscore.Internal.Correction.Weighted>
   9.000000E+99

> <Gold.Protein.RotatedTorsions>
[ 6907 6896 6895 6894 ] final   30.34 input  -60.11 | X-H torsion
[ 7974 7965 7964 7962 ] final -122.68 input  175.53 | X-H torsion
[ 8008 7997 7996 7995 ] final   87.46 input   59.86 | X-H torsion
[ 10167 10162 10161 10158 ] final  -75.48 input  -65.29 | X-H torsion
[ 10718 10713 10712 10709 ] final  -62.46 input   66.30 | X-H torsion
[ 10763 10752 10751 10750 ] final   36.48 input  -60.55 | X-H torsion
[ 11005 11000 10999 10996 ] final  -15.26 input  -57.11 | X-H torsion

> <Gold.Protein.ActiveResidues>
 VAL166  LYS551  ARG553  GLY616  TRP617  ASP618  TYR619  PRO620  LYS621  CYS622 
 ASP623  PHE694  ASN695  SER759  ASP760  ASP761  ALA762  ILE779  LEU786  VAL792 
 PHE793  MET794  SER795  GLU796  ALA797  LYS798  CYS799  TRP800  GLU811  SER814 

> <Gold.Protein.RotatedAtoms>
  152.0446  134.9691  160.0574 H   0  0  0  0  0  0  0  0  0  0  0  0  # atno 6907 bound_to 6896
  152.1116  133.4299  159.4642 H   0  0  0  0  0  0  0  0  0  0  0  0  # atno 6908 bound_to 6896
  150.6844  134.2561  159.4573 H   0  0  0  0  0  0  0  0  0  0  0  0  # atno 6909 bound_to 6896
  145.0268  140.8034  143.4347 H   0  0  0  0  0  0  0  0  0  0  0  0  # atno 7974 bound_to 7965
  155.9756  140.3382  155.6616 H   0  0  0  0  0  0  0  0  0  0  0  0  # atno 8008 bound_to 7997
  155.6617  140.0717  157.2570 H   0  0  0  0  0  0  0  0  0  0  0  0  # atno 8009 bound_to 7997
  154.4178  140.1707  156.1771 H   0  0  0  0  0  0  0  0  0  0  0  0  # atno 8010 bound_to 7997
  140.4939  143.2374  151.7862 H   0  0  0  0  0  0  0  0  0  0  0  0  # atno 10167 bound_to 10162
  156.0854  130.4209  150.1138 H   0  0  0  0  0  0  0  0  0  0  0  0  # atno 10718 bound_to 10713
  153.0075  135.6304  154.1992 H   0  0  0  0  0  0  0  0  0  0  0  0  # atno 10763 bound_to 10752
  154.1735  135.2817  155.3075 H   0  0  0  0  0  0  0  0  0  0  0  0  # atno 10764 bound_to 10752
  154.5890  135.5623  153.7319 H   0  0  0  0  0  0  0  0  0  0  0  0  # atno 10765 bound_to 10752
  140.7949  133.8259  155.9414 H   0  0  0  0  0  0  0  0  0  0  0  0  # atno 11005 bound_to 11000
  145.1823  139.2345  143.5286 LP  0  0  0  0  0  0  0  0  0  0  0  0  # atno 17320 bound_to 7965
  146.3493  140.1599  142.8591 LP  0  0  0  0  0  0  0  0  0  0  0  0  # atno 17321 bound_to 7965
  139.4857  144.4612  151.9538 LP  0  0  0  0  0  0  0  0  0  0  0  0  # atno 17342 bound_to 10162
  140.3700  144.2867  150.5921 LP  0  0  0  0  0  0  0  0  0  0  0  0  # atno 17343 bound_to 10162
  156.9160  130.9667  151.3556 LP  0  0  0  0  0  0  0  0  0  0  0  0  # atno 17370 bound_to 10713
  157.5986  130.8496  149.8767 LP  0  0  0  0  0  0  0  0  0  0  0  0  # atno 17371 bound_to 10713
  140.9353  134.1970  157.4836 LP  0  0  0  0  0  0  0  0  0  0  0  0  # atno 17394 bound_to 11000
  139.8727  134.9850  156.5261 LP  0  0  0  0  0  0  0  0  0  0  0  0  # atno 17395 bound_to 11000

$$$$
