AV-unprocessed.smi:3009|AV-procd|sdf|11451|dock5
  -GOLD-   2272016383D 1   1.00000     0.00000
 Structure written by MMmdl.
 44 45  0  0  0  0  0  0  0  0  2 V2000
  150.5635  141.3011  158.0663 C   0  0  0  0  0  0  0  0  0  0  0  0
  150.6382  140.6969  156.6541 C   0  0  0  0  0  0  0  0  0  0  0  0
  150.1087  141.6972  155.6157 C   0  0  0  0  0  0  0  0  0  0  0  0
  149.8708  139.3605  156.5578 C   0  0  0  0  0  0  0  0  0  0  0  0
  149.8572  138.7905  155.1825 N   0  3  1  0  0  0  0  0  0  0  0  0
  151.1638  138.8891  154.4879 C   0  0  0  0  0  0  0  0  0  0  0  0
  152.1395  137.8076  154.9850 C   0  0  0  0  0  0  0  0  0  0  0  0
  151.5541  136.5244  154.8027 O   0  0  0  0  0  0  0  0  0  0  0  0
  150.3547  136.3599  155.5536 C   0  0  2  0  0  0  0  0  0  0  0  0
  149.8467  134.9221  155.3449 C   0  0  0  0  0  0  0  0  0  0  0  0
  149.0742  134.7948  154.1136 N   0  0  0  0  0  0  0  0  0  0  0  0
  148.3302  133.7296  153.7844 C   0  0  0  0  0  0  0  0  0  0  0  0
  148.2119  132.7370  154.5037 O   0  0  0  0  0  0  0  0  0  0  0  0
  147.7535  133.8867  152.5820 N   0  0  0  0  0  0  0  0  0  0  0  0
  146.9089  132.9692  151.9075 C   0  0  0  0  0  0  0  0  0  0  0  0
  146.2556  133.2281  150.6721 C   0  0  0  0  0  0  0  0  0  0  0  0
  145.5305  132.1897  150.2816 N   0  0  0  0  0  0  0  0  0  0  0  0
  145.7111  131.2721  151.2581 N   0  0  0  0  0  0  0  0  0  0  0  0
  146.5413  131.7033  152.2690 C   0  0  0  0  0  0  0  0  0  0  0  0
  149.3228  137.4075  155.0814 C   0  0  0  0  0  0  0  0  0  0  0  0
  145.2642  130.3669  151.2219 H   0  0  0  0  0  0  0  0  0  0  0  0
  149.5320  141.5003  158.3585 H   0  0  0  0  0  0  0  0  0  0  0  0
  151.1103  142.2430  158.1181 H   0  0  0  0  0  0  0  0  0  0  0  0
  150.9983  140.6340  158.8111 H   0  0  0  0  0  0  0  0  0  0  0  0
  151.6881  140.5282  156.4172 H   0  0  0  0  0  0  0  0  0  0  0  0
  149.0570  141.9292  155.7871 H   0  0  0  0  0  0  0  0  0  0  0  0
  150.2012  141.3012  154.6040 H   0  0  0  0  0  0  0  0  0  0  0  0
  150.6655  142.6341  155.6524 H   0  0  0  0  0  0  0  0  0  0  0  0
  150.3461  138.6503  157.2363 H   0  0  0  0  0  0  0  0  0  0  0  0
  148.8513  139.4819  156.9231 H   0  0  0  0  0  0  0  0  0  0  0  0
  150.9947  138.7569  153.4184 H   0  0  0  0  0  0  0  0  0  0  0  0
  151.5918  139.8850  154.6077 H   0  0  0  0  0  0  0  0  0  0  0  0
  153.0687  137.8533  154.4168 H   0  0  0  0  0  0  0  0  0  0  0  0
  152.4015  137.9595  156.0331 H   0  0  0  0  0  0  0  0  0  0  0  0
  150.5694  136.5068  156.6127 H   0  0  0  0  0  0  0  0  0  0  0  0
  150.6847  134.2233  155.3212 H   0  0  0  0  0  0  0  0  0  0  0  0
  149.2168  134.6203  156.1822 H   0  0  0  0  0  0  0  0  0  0  0  0
  149.1167  135.5679  153.4655 H   0  0  0  0  0  0  0  0  0  0  0  0
  147.9467  134.7478  152.0918 H   0  0  0  0  0  0  0  0  0  0  0  0
  146.2839  134.1159  150.0577 H   0  0  0  0  0  0  0  0  0  0  0  0
  146.7811  131.0869  153.1225 H   0  0  0  0  0  0  0  0  0  0  0  0
  148.3911  137.3048  155.6359 H   0  0  0  0  0  0  0  0  0  0  0  0
  149.0726  137.2207  154.0362 H   0  0  0  0  0  0  0  0  0  0  0  0
  149.2251  139.3827  154.6626 H   0  0  0  0  0  0  0  0  0  0  0  0
  1  2  1  0  0  0  0
  1 22  1  0  0  0  0
  1 23  1  0  0  0  0
  1 24  1  0  0  0  0
  2  3  1  0  0  0  0
  2  4  1  0  0  0  0
  2 25  1  0  0  0  0
  3 26  1  0  0  0  0
  3 27  1  0  0  0  0
  3 28  1  0  0  0  0
  4  5  1  0  0  0  0
  4 29  1  0  0  0  0
  4 30  1  0  0  0  0
  5 20  1  0  0  0  0
  5  6  1  0  0  0  0
  5 44  1  0  0  0  0
  6  7  1  0  0  0  0
  6 31  1  0  0  0  0
  6 32  1  0  0  0  0
  7  8  1  0  0  0  0
  7 33  1  0  0  0  0
  7 34  1  0  0  0  0
  8  9  1  0  0  0  0
  9 10  1  0  0  0  0
  9 20  1  0  0  0  0
  9 35  1  0  0  0  0
 10 11  1  0  0  0  0
 10 36  1  0  0  0  0
 10 37  1  0  0  0  0
 11 12  1  0  0  0  0
 11 38  1  0  0  0  0
 12 13  2  0  0  0  0
 12 14  1  0  0  0  0
 14 15  1  0  0  0  0
 14 39  1  0  0  0  0
 15 19  2  0  0  0  0
 15 16  1  0  0  0  0
 16 17  2  0  0  0  0
 16 40  1  0  0  0  0
 17 18  1  0  0  0  0
 18 21  1  0  0  0  0
 18 19  1  0  0  0  0
 19 41  1  0  0  0  0
 20 42  1  0  0  0  0
 20 43  1  0  0  0  0
M  CHG  1   5   1
M  END
> <s_m_source_file>
AV-unprocessed.smi

> <i_m_source_file_index>
3009

> <i_lp_mmshare_version>
43012

> <i_f3d_flags>
0

> <s_epik_input>
W0NIM11bQ0hdKFtDSDNdKVtDSDJdTjFbQ0gyXVtDSDJdT1tDQEhdKFtDSDJdMSlbQ0gyXVtOSF1DKD1PKVtOSF1jMltjSF1uW25IXVtjSF0y

> <s_epik_cmdline>
J2VwaWtfcHl0aG9uJywgJy1waCcsICc3LjAnLCAnLXRuJywgJzgnLCAnLW1hJywgJzIwMCcsICctbWV0YWxfYmluZGluZycsICctaW1hZScsICc8aW5maWxlLm1hZT4nLCAnLW9tYWUnLCAnPG91dGZpbGUubWFlPic=

> <r_lp_tautomer_probability>
0.5

> <r_epik_Ionization_Penalty>
0.0974064

> <r_epik_Ionization_Penalty_Charging>
0.0973651

> <r_epik_Ionization_Penalty_Neutral>
4.13573e-05

> <r_epik_State_Penalty>
0.0874853

> <r_epik_Charging_Adjusted_Penalty>
0.18485

> <i_epik_Tot_Q>
1

> <i_epik_Tot_abs_Q>
1

> <r_epik_Metal_State_Penalty>
0.0874855

> <b_epik_Metal_Only>
0

> <s_lp_Force_Field>
OPLS_2005

> <r_lp_Energy>
21.5437

> <b_lp_Chiralities_Consistent>
1

> <s_lp_Variant>
AV-unprocessed.smi:3009-3

> <Gold.Version>
5.8.1

> <Gold.Id.Protein>
6NUR|6NUR_protein|mol2

> <Gold.PLP.Fitness>
39.4346

> <Gold.PLP.PLP>
-28.7419

> <Gold.PLP.part.hbond>
-3.0000

> <Gold.PLP.part.metal>
0.0000

> <Gold.PLP.part.buried>
-2.6190

> <Gold.PLP.part.nonpolar>
-21.8666

> <Gold.PLP.part.repulsive>
0.4180

> <Gold.PLP.ligand.clash>
0.0000

> <Gold.PLP.ligand.torsion>
0.4184

> <Gold.PLP.Chemscore.Hbond>
3.0000

> <Gold.PLP.Chemscore.CHOScore>
0.8270

> <Gold.PLP.Chemscore.Metal>
0.0000

> <Gold.Chemscore.Hbonds>
donor molecule, donor type, donor heavy atom, donor atom, acceptor molecule, acceptor atom, score
      L1  H    11    38       P1  7948  1.00
      L1  H    14    39       P1  7948  1.00
      P1  H 10752 10763       L1     8  1.00
      L1  C    16    40       P1  7921  0.78

> <Gold.PLP.Chemscore.Internal.Correction>
0.0485

> <Gold.Rescore>
     Score         DG    S(hbond)    S(metal)    S(lipo)     H(rot)  DE(clash)    DE(int)     intcor
     14.53     -16.26       2.31        0.00      65.63       1.80       0.14       1.60       ----

> <Gold.Chemscore.Fitness>
14.5255

> <Gold.Chemscore.DG>
-16.2633

> <Gold.Chemscore.ZeroCoef>
-5.4800

> <Gold.Chemscore.Hbond>
2.3063

> <Gold.Chemscore.Metal>
0.0000

> <Gold.Chemscore.Lipo>
65.6305

> <Gold.Chemscore.Internal_Hbond>
0.0000

> <Gold.Chemscore.DEClash>
0.1386

> <Gold.Chemscore.DEInternal>
1.5991

> <Gold.Chemscore.Rot>
1.7963

> <Gold.Chemscore.Internal.Correction>
   9.000000E+99

> <Gold.Chemscore.Hbonds>
donor molecule, donor type, donor heavy atom, donor atom, acceptor molecule, acceptor atom, score
      L1  H    11    38       P1  7948  0.58
      L1  H    14    39       P1  7948  0.38
      P1  H 10752 10763       L1     8  0.26

> <Gold.Chemscore.Hbond.Weighted>
-7.7030

> <Gold.Chemscore.Metal.Weighted>
-0.0000

> <Gold.Chemscore.Lipo.Weighted>
-7.6788

> <Gold.Chemscore.Internal_Hbond.Weighted>
0.0000

> <Gold.Chemscore.DEClash.Weighted>
0.1386

> <Gold.Chemscore.DEInternal.Weighted>
1.5991

> <Gold.Chemscore.Rot.Weighted>
4.5985

> <Gold.Chemscore.Internal.Correction.Weighted>
   9.000000E+99

> <Gold.Protein.RotatedTorsions>
[ 6907 6896 6895 6894 ] final   -6.10 input  -60.11 | X-H torsion
[ 7974 7965 7964 7962 ] final -175.73 input  175.53 | X-H torsion
[ 8008 7997 7996 7995 ] final    1.78 input   59.86 | X-H torsion
[ 10167 10162 10161 10158 ] final  -89.96 input  -65.29 | X-H torsion
[ 10718 10713 10712 10709 ] final  160.50 input   66.30 | X-H torsion
[ 10763 10752 10751 10750 ] final   51.92 input  -60.55 | X-H torsion
[ 11005 11000 10999 10996 ] final   17.41 input  -57.11 | X-H torsion

> <Gold.Protein.ActiveResidues>
 VAL166  LYS551  ARG553  GLY616  TRP617  ASP618  TYR619  PRO620  LYS621  CYS622 
 ASP623  PHE694  ASN695  SER759  ASP760  ASP761  ALA762  ILE779  LEU786  VAL792 
 PHE793  MET794  SER795  GLU796  ALA797  LYS798  CYS799  TRP800  GLU811  SER814 

> <Gold.Protein.RotatedAtoms>
  151.4709  135.1045  159.9750 H   0  0  0  0  0  0  0  0  0  0  0  0  # atno 6907 bound_to 6896
  152.4817  133.8266  159.7092 H   0  0  0  0  0  0  0  0  0  0  0  0  # atno 6908 bound_to 6896
  150.8893  133.7203  159.2936 H   0  0  0  0  0  0  0  0  0  0  0  0  # atno 6909 bound_to 6896
  144.7127  140.1277  143.6401 H   0  0  0  0  0  0  0  0  0  0  0  0  # atno 7974 bound_to 7965
  154.6838  140.2638  155.6881 H   0  0  0  0  0  0  0  0  0  0  0  0  # atno 8008 bound_to 7997
  156.2707  140.2805  156.1315 H   0  0  0  0  0  0  0  0  0  0  0  0  # atno 8009 bound_to 7997
  155.0993  140.0374  157.2682 H   0  0  0  0  0  0  0  0  0  0  0  0  # atno 8010 bound_to 7997
  140.3596  143.2849  151.9630 H   0  0  0  0  0  0  0  0  0  0  0  0  # atno 10167 bound_to 10162
  157.1495  131.0560  151.2287 H   0  0  0  0  0  0  0  0  0  0  0  0  # atno 10718 bound_to 10713
  152.9787  135.5830  154.4494 H   0  0  0  0  0  0  0  0  0  0  0  0  # atno 10763 bound_to 10752
  154.4085  135.2769  155.2054 H   0  0  0  0  0  0  0  0  0  0  0  0  # atno 10764 bound_to 10752
  154.3854  135.6137  153.5868 H   0  0  0  0  0  0  0  0  0  0  0  0  # atno 10765 bound_to 10752
  140.4363  134.1368  155.7685 H   0  0  0  0  0  0  0  0  0  0  0  0  # atno 11005 bound_to 11000
  145.9314  139.2609  143.1323 LP  0  0  0  0  0  0  0  0  0  0  0  0  # atno 17320 bound_to 7965
  145.9519  140.8902  143.0255 LP  0  0  0  0  0  0  0  0  0  0  0  0  # atno 17321 bound_to 7965
  139.4816  144.6004  151.7615 LP  0  0  0  0  0  0  0  0  0  0  0  0  # atno 17342 bound_to 10162
  140.5140  144.0982  150.6003 LP  0  0  0  0  0  0  0  0  0  0  0  0  # atno 17343 bound_to 10162
  157.4234  130.7450  149.6931 LP  0  0  0  0  0  0  0  0  0  0  0  0  # atno 17370 bound_to 10713
  155.9773  130.4064  150.3720 LP  0  0  0  0  0  0  0  0  0  0  0  0  # atno 17371 bound_to 10713
  141.1724  133.8581  157.1528 LP  0  0  0  0  0  0  0  0  0  0  0  0  # atno 17394 bound_to 11000
  140.0100  134.9992  157.0375 LP  0  0  0  0  0  0  0  0  0  0  0  0  # atno 17395 bound_to 11000

$$$$
