AV-unprocessed.smi:3331|AV-procd|sdf|12824|dock2
  -GOLD-   2272019203D 1   1.00000     0.00000
 Structure written by MMmdl.
 46 47  0  0  0  0  0  0  0  0  1 V2000
  151.8035  144.9990  159.9467 C   0  0  0  0  0  0  0  0  0  0  0  0
  152.2217  143.6381  159.3733 C   0  0  1  0  0  0  0  0  0  0  0  0
  153.2219  142.9127  160.3023 C   0  0  0  0  0  0  0  0  0  0  0  0
  153.5575  141.4860  159.8103 C   0  0  1  0  0  0  0  0  0  0  0  0
  154.4490  140.7376  160.8104 C   0  0  0  0  0  0  0  0  0  0  0  0
  152.2604  140.7054  159.5093 C   0  0  0  0  0  0  0  0  0  0  0  0
  151.4765  141.4694  158.5310 N   0  0  0  0  0  0  0  0  0  0  0  0
  151.3648  141.0875  157.2337 C   0  0  0  0  0  0  0  0  0  0  0  0
  151.7906  139.9996  156.8387 O   0  0  0  0  0  0  0  0  0  0  0  0
  150.7048  142.0295  156.1981 C   0  0  2  0  0  0  0  0  0  0  0  0
  151.4249  143.3872  156.1916 C   0  0  0  0  0  0  0  0  0  0  0  0
  149.2694  142.2382  156.4538 N   0  0  0  0  0  0  0  0  0  0  0  0
  148.4547  141.0580  156.1772 C   0  0  0  0  0  0  0  0  0  0  0  0
  148.5688  140.6793  154.6924 C   0  0  0  0  0  0  0  0  0  0  0  0
  147.5231  139.7546  154.2922 N   0  0  0  0  0  0  0  0  0  0  0  0
  147.3397  139.1423  153.0703 C   0  0  0  0  0  0  0  0  0  0  0  0
  146.2100  138.3813  153.1632 C   0  0  0  0  0  0  0  0  0  0  0  0
  145.7669  138.5963  154.4983 C   0  0  0  0  0  0  0  0  0  0  0  0
  146.5558  139.4171  155.1722 N   0  0  0  0  0  0  0  0  0  0  0  0
  151.0023  142.7322  159.1100 C   0  0  0  0  0  0  0  0  0  0  0  0
  151.2898  144.8862  160.9019 H   0  0  0  0  0  0  0  0  0  0  0  0
  151.1306  145.5207  159.2657 H   0  0  0  0  0  0  0  0  0  0  0  0
  152.6708  145.6396  160.1081 H   0  0  0  0  0  0  0  0  0  0  0  0
  152.7181  143.8217  158.4189 H   0  0  0  0  0  0  0  0  0  0  0  0
  154.1369  143.4991  160.3945 H   0  0  0  0  0  0  0  0  0  0  0  0
  152.7961  142.8515  161.3048 H   0  0  0  0  0  0  0  0  0  0  0  0
  154.1168  141.5766  158.8775 H   0  0  0  0  0  0  0  0  0  0  0  0
  153.9453  140.6033  161.7681 H   0  0  0  0  0  0  0  0  0  0  0  0
  155.3758  141.2819  160.9938 H   0  0  0  0  0  0  0  0  0  0  0  0
  154.7162  139.7501  160.4335 H   0  0  0  0  0  0  0  0  0  0  0  0
  152.5011  139.6990  159.1637 H   0  0  0  0  0  0  0  0  0  0  0  0
  151.6768  140.5699  160.4211 H   0  0  0  0  0  0  0  0  0  0  0  0
  150.7758  141.5995  155.1999 H   0  0  0  0  0  0  0  0  0  0  0  0
  152.4886  143.2765  155.9784 H   0  0  0  0  0  0  0  0  0  0  0  0
  151.3315  143.8925  157.1540 H   0  0  0  0  0  0  0  0  0  0  0  0
  151.0083  144.0471  155.4302 H   0  0  0  0  0  0  0  0  0  0  0  0
  148.9048  143.0290  155.9428 H   0  0  0  0  0  0  0  0  0  0  0  0
  148.8070  140.2374  156.8028 H   0  0  0  0  0  0  0  0  0  0  0  0
  147.4049  141.2148  156.4276 H   0  0  0  0  0  0  0  0  0  0  0  0
  148.5237  141.5650  154.0572 H   0  0  0  0  0  0  0  0  0  0  0  0
  149.5340  140.2079  154.5024 H   0  0  0  0  0  0  0  0  0  0  0  0
  148.0170  139.3031  152.2448 H   0  0  0  0  0  0  0  0  0  0  0  0
  145.7654  137.7676  152.3940 H   0  0  0  0  0  0  0  0  0  0  0  0
  144.9012  138.1833  154.9945 H   0  0  0  0  0  0  0  0  0  0  0  0
  150.4881  142.5220  160.0491 H   0  0  0  0  0  0  0  0  0  0  0  0
  150.2590  143.2411  158.4996 H   0  0  0  0  0  0  0  0  0  0  0  0
  1  2  1  0  0  0  0
  1 21  1  0  0  0  0
  1 22  1  0  0  0  0
  1 23  1  0  0  0  0
  2 20  1  0  0  0  0
  2  3  1  0  0  0  0
  2 24  1  0  0  0  0
  3  4  1  0  0  0  0
  3 25  1  0  0  0  0
  3 26  1  0  0  0  0
  4  5  1  0  0  0  0
  4  6  1  0  0  0  0
  4 27  1  0  0  0  0
  5 28  1  0  0  0  0
  5 29  1  0  0  0  0
  5 30  1  0  0  0  0
  6  7  1  0  0  0  0
  6 31  1  0  0  0  0
  6 32  1  0  0  0  0
  7  8  1  0  0  0  0
  7 20  1  0  0  0  0
  8  9  2  0  0  0  0
  8 10  1  0  0  0  0
 10 11  1  0  0  0  0
 10 12  1  0  0  0  0
 10 33  1  0  0  0  0
 11 34  1  0  0  0  0
 11 35  1  0  0  0  0
 11 36  1  0  0  0  0
 12 13  1  0  0  0  0
 12 37  1  0  0  0  0
 13 14  1  0  0  0  0
 13 38  1  0  0  0  0
 13 39  1  0  0  0  0
 14 15  1  0  0  0  0
 14 40  1  0  0  0  0
 14 41  1  0  0  0  0
 15 19  1  0  0  0  0
 15 16  1  0  0  0  0
 16 17  2  0  0  0  0
 16 42  1  0  0  0  0
 17 18  1  0  0  0  0
 17 43  1  0  0  0  0
 18 19  2  0  0  0  0
 18 44  1  0  0  0  0
 20 45  1  0  0  0  0
 20 46  1  0  0  0  0
M  END
> <s_m_source_file>
AV-unprocessed.smi

> <i_m_source_file_index>
3331

> <i_lp_mmshare_version>
43012

> <i_f3d_flags>
0

> <s_epik_input>
W0NIM11bQ0BASF0xW0NIMl1bQ0BASF0oW0NIM10pW0NIMl1OKFtDSDJdMSlDKD1PKVtDQEhdKFtDSDNdKVtOSF1bQ0gyXVtDSDJdbjJbY0hdW2NIXVtjSF1uMg==

> <s_epik_cmdline>
J2VwaWtfcHl0aG9uJywgJy1waCcsICc3LjAnLCAnLXRuJywgJzgnLCAnLW1hJywgJzIwMCcsICctbWV0YWxfYmluZGluZycsICctaW1hZScsICc8aW5maWxlLm1hZT4nLCAnLW9tYWUnLCAnPG91dGZpbGUubWFlPic=

> <r_lp_tautomer_probability>
1

> <r_epik_Ionization_Penalty>
0.767994

> <r_epik_Ionization_Penalty_Charging>
0

> <r_epik_Ionization_Penalty_Neutral>
0.767994

> <r_epik_State_Penalty>
0.795453

> <r_epik_Charging_Adjusted_Penalty>
0.795453

> <i_epik_Tot_Q>
0

> <i_epik_Tot_abs_Q>
0

> <r_epik_Metal_State_Penalty>
0.794784

> <b_epik_Metal_Only>
0

> <s_lp_Force_Field>
OPLS_2005

> <r_lp_Energy>
28.4276

> <b_lp_Chiralities_Consistent>
1

> <s_lp_Variant>
AV-unprocessed.smi:3331-8

> <Gold.Version>
5.8.1

> <Gold.Id.Protein>
6NUR|6NUR_protein|mol2

> <Gold.PLP.Fitness>
40.0414

> <Gold.PLP.PLP>
-34.4007

> <Gold.PLP.part.hbond>
-1.0000

> <Gold.PLP.part.metal>
0.0000

> <Gold.PLP.part.buried>
-2.7293

> <Gold.PLP.part.nonpolar>
-30.7416

> <Gold.PLP.part.repulsive>
0.0476

> <Gold.PLP.ligand.clash>
0.0000

> <Gold.PLP.ligand.torsion>
0.2168

> <Gold.PLP.Chemscore.Hbond>
1.0000

> <Gold.PLP.Chemscore.CHOScore>
0.9971

> <Gold.PLP.Chemscore.Metal>
0.0000

> <Gold.Chemscore.Hbonds>
donor molecule, donor type, donor heavy atom, donor atom, acceptor molecule, acceptor atom, score
      L1  H    12    37       P1  8028  0.99
      L1  C    16    42       P1  7957  1.00

> <Gold.PLP.Chemscore.Internal.Correction>
0.0829

> <Gold.Rescore>
     Score         DG    S(hbond)    S(metal)    S(lipo)     H(rot)  DE(clash)    DE(int)     intcor
     15.16     -17.86       1.00        0.00     113.58       1.66       1.71       0.99       ----

> <Gold.Chemscore.Fitness>
15.1640

> <Gold.Chemscore.DG>
-17.8603

> <Gold.Chemscore.ZeroCoef>
-5.4800

> <Gold.Chemscore.Hbond>
1.0040

> <Gold.Chemscore.Metal>
0.0000

> <Gold.Chemscore.Lipo>
113.5823

> <Gold.Chemscore.Internal_Hbond>
0.0000

> <Gold.Chemscore.DEClash>
1.7106

> <Gold.Chemscore.DEInternal>
0.9858

> <Gold.Chemscore.Rot>
1.6649

> <Gold.Chemscore.Internal.Correction>
   9.000000E+99

> <Gold.Chemscore.Hbonds>
donor molecule, donor type, donor heavy atom, donor atom, acceptor molecule, acceptor atom, score
      L1  H    12    37       P1  8028  0.94

> <Gold.Chemscore.Hbond.Weighted>
-3.3533

> <Gold.Chemscore.Metal.Weighted>
-0.0000

> <Gold.Chemscore.Lipo.Weighted>
-13.2891

> <Gold.Chemscore.Internal_Hbond.Weighted>
0.0000

> <Gold.Chemscore.DEClash.Weighted>
1.7106

> <Gold.Chemscore.DEInternal.Weighted>
0.9858

> <Gold.Chemscore.Rot.Weighted>
4.2621

> <Gold.Chemscore.Internal.Correction.Weighted>
   9.000000E+99

> <Gold.Protein.RotatedTorsions>
[ 6907 6896 6895 6894 ] final  170.85 input  -60.11 | X-H torsion
[ 7974 7965 7964 7962 ] final -143.37 input  175.53 | X-H torsion
[ 8008 7997 7996 7995 ] final  -57.76 input   59.86 | X-H torsion
[ 10167 10162 10161 10158 ] final  167.72 input  -65.29 | X-H torsion
[ 10718 10713 10712 10709 ] final -102.51 input   66.30 | X-H torsion
[ 10763 10752 10751 10750 ] final  166.49 input  -60.55 | X-H torsion
[ 11005 11000 10999 10996 ] final   96.64 input  -57.11 | X-H torsion

> <Gold.Protein.ActiveResidues>
 VAL166  LYS551  ARG553  GLY616  TRP617  ASP618  TYR619  PRO620  LYS621  CYS622 
 ASP623  PHE694  ASN695  SER759  ASP760  ASP761  ALA762  ILE779  LEU786  VAL792 
 PHE793  MET794  SER795  GLU796  ALA797  LYS798  CYS799  TRP800  GLU811  SER814 

> <Gold.Protein.RotatedAtoms>
  151.8096  133.3380  159.3551 H   0  0  0  0  0  0  0  0  0  0  0  0  # atno 6907 bound_to 6896
  150.7330  134.5676  159.5883 H   0  0  0  0  0  0  0  0  0  0  0  0  # atno 6908 bound_to 6896
  152.3084  134.7528  160.0393 H   0  0  0  0  0  0  0  0  0  0  0  0  # atno 6909 bound_to 6896
  144.8375  140.5843  143.5474 H   0  0  0  0  0  0  0  0  0  0  0  0  # atno 7974 bound_to 7965
  154.4281  140.1099  156.5849 H   0  0  0  0  0  0  0  0  0  0  0  0  # atno 8008 bound_to 7997
  155.6073  140.3494  155.4593 H   0  0  0  0  0  0  0  0  0  0  0  0  # atno 8009 bound_to 7997
  156.0127  140.1222  157.0427 H   0  0  0  0  0  0  0  0  0  0  0  0  # atno 8010 bound_to 7997
  139.4951  144.3892  151.9536 H   0  0  0  0  0  0  0  0  0  0  0  0  # atno 10167 bound_to 10162
  156.0231  130.5423  150.7119 H   0  0  0  0  0  0  0  0  0  0  0  0  # atno 10718 bound_to 10713
  154.3398  135.2754  155.2428 H   0  0  0  0  0  0  0  0  0  0  0  0  # atno 10763 bound_to 10752
  154.4704  135.5884  153.6321 H   0  0  0  0  0  0  0  0  0  0  0  0  # atno 10764 bound_to 10752
  152.9858  135.6087  154.3598 H   0  0  0  0  0  0  0  0  0  0  0  0  # atno 10765 bound_to 10752
  139.8780  134.8961  156.4189 H   0  0  0  0  0  0  0  0  0  0  0  0  # atno 11005 bound_to 11000
  145.4764  139.1499  143.3786 LP  0  0  0  0  0  0  0  0  0  0  0  0  # atno 17320 bound_to 7965
  146.2672  140.4899  142.8829 LP  0  0  0  0  0  0  0  0  0  0  0  0  # atno 17321 bound_to 7965
  140.3329  144.3295  150.5983 LP  0  0  0  0  0  0  0  0  0  0  0  0  # atno 17342 bound_to 10162
  140.5630  143.2189  151.7732 LP  0  0  0  0  0  0  0  0  0  0  0  0  # atno 17343 bound_to 10162
  157.4755  131.0897  151.0595 LP  0  0  0  0  0  0  0  0  0  0  0  0  # atno 17370 bound_to 10713
  157.1043  130.5995  149.5467 LP  0  0  0  0  0  0  0  0  0  0  0  0  # atno 17371 bound_to 10713
  140.9148  133.7686  155.9835 LP  0  0  0  0  0  0  0  0  0  0  0  0  # atno 17394 bound_to 11000
  140.8506  134.2959  157.5277 LP  0  0  0  0  0  0  0  0  0  0  0  0  # atno 17395 bound_to 11000

$$$$
