#       Name:                AV-unprocessed.smi:1189
#       Creating user name   scv26
#       Creation time:       Fri Mar 27 03:57:34 2020


#       File generated by GOLD software.
#

@<TRIPOS>MOLECULE
AV-unprocessed.smi:1189
    38    39     1
SMALL
NO_CHARGES


@<TRIPOS>ATOM
      1 ****        -0.2685   0.8604   0.2612 O.2            1 S1                 0.0000
      2 ****         0.4036  -0.1707   0.2086 C.2            1 S1                 0.0000
      3 ****         1.9359  -0.1144   0.2320 C.3            1 S1                 0.0000
      4 ****         2.4411   1.1056   0.8399 N.pl3          1 S1                 0.0000
      5 ****         2.7249   2.3108   0.2340 C.2            1 S1                 0.0000
      6 ****         3.1666   3.1596   1.2077 C.2            1 S1                 0.0000
      7 ****         3.1166   2.3781   2.3986 C.2            1 S1                 0.0000
      8 ****         3.4834   2.7883   3.8007 C.3            1 S1                 0.0000
      9 ****         3.8756   4.0623   3.8223 F              1 S1                 0.0000
     10 ****         2.4300   2.6506   4.6059 F              1 S1                 0.0000
     11 ****         4.4791   2.0256   4.2522 F              1 S1                 0.0000
     12 ****         2.6841   1.1454   2.1678 N.2            1 S1                 0.0000
     13 ****        -0.1366  -1.3959   0.1159 N.am           1 S1                 0.0000
     14 ****        -1.5654  -1.6927   0.0775 C.3            1 S1                 0.0000
     15 ****        -2.0873  -1.8416  -1.3644 C.3            1 S1                 0.0000
     16 ****        -3.5583  -2.1957  -1.4463 C.3            1 S1                 0.0000
     17 ****        -3.9028  -1.8180  -2.8846 C.3            1 S1                 0.0000
     18 ****        -3.0155  -0.7609  -3.2387 O.3            1 S1                 0.0000
     19 ****        -2.0532  -0.5659  -2.2078 C.3            1 S1                 0.0000
     20 ****         2.3360  -0.9732   0.7739 H              1 S1                 0.0000
     21 ****         2.3112  -0.1764  -0.7899 H              1 S1                 0.0000
     22 ****         2.5874   2.4625  -0.8264 H              1 S1                 0.0000
     23 ****         3.4765   4.1871   1.0886 H              1 S1                 0.0000
     24 ****         0.4914  -2.1856   0.0760 H              1 S1                 0.0000
     25 ****        -1.7207  -2.6278   0.6159 H              1 S1                 0.0000
     26 ****        -2.1347  -0.9342   0.6179 H              1 S1                 0.0000
     27 ****        -1.5174  -2.6172  -1.8790 H              1 S1                 0.0000
     28 ****        -3.7607  -3.2438  -1.2239 H              1 S1                 0.0000
     29 ****        -4.1356  -1.5825  -0.7526 H              1 S1                 0.0000
     30 ****        -3.7222  -2.6600  -3.5536 H              1 S1                 0.0000
     31 ****        -4.9446  -1.5161  -2.9943 H              1 S1                 0.0000
     32 ****        -2.3562   0.2978  -1.6143 H              1 S1                 0.0000
     33 ****        -1.0653  -0.3629  -2.6218 H              1 S1                 0.0000
     34 ****         0.1845   1.7500   0.3201 LP             1 S1                 0.0000
     35 ****        -1.2669   0.8078   0.2450 LP             1 S1                 0.0000
     36 ****         2.5643   0.4073   2.8317 LP             1 S1                 0.0000
     37 ****        -3.5387   0.0816  -3.3667 LP             1 S1                 0.0000
     38 ****        -2.5458  -0.9942  -4.0901 LP             1 S1                 0.0000
@<TRIPOS>BOND
    1    1    2 2     
    2    2    3 1     
    3    2   13 am    
    4    3    4 1     
    5    3   20 1     
    6    3   21 1     
    7    4   12 1     
    8    4    5 1     
    9    5    6 2     
   10    5   22 1     
   11    6    7 1     
   12    6   23 1     
   13    7    8 1     
   14    7   12 2     
   15    8    9 1     
   16    8   10 1     
   17    8   11 1     
   18   13   14 1     
   19   13   24 1     
   20   14   15 1     
   21   14   25 1     
   22   14   26 1     
   23   15   19 1     
   24   15   16 1     
   25   15   27 1     
   26   16   17 1     
   27   16   28 1     
   28   16   29 1     
   29   17   18 1     
   30   17   30 1     
   31   17   31 1     
   32   18   19 1     
   33   19   32 1     
   34   19   33 1     
   35    1   34 1     
   36    1   35 1     
   37   12   36 1     
   38   18   37 1     
   39   18   38 1     
@<TRIPOS>SUBSTRUCTURE
      1 S1             1
@<TRIPOS>SET
LONE_PAIRS      STATIC     ATOMS    <user>   **** ""
5 34 35 36 37 38
DONOR_HYDROGENS      STATIC     ATOMS    <user>   **** ""
1 24
ATOM$BLUE        STATIC     ATOMS    COLORGROUP SYSTEM
5 34 35 36 37 38
ATOM$RED        STATIC     ATOMS    COLORGROUP SYSTEM
1 24
