#       Name:                AV-unprocessed.smi:1412
#       Creating user name   scv26
#       Creation time:       Fri Mar 27 05:37:47 2020


#       File generated by GOLD software.
#

@<TRIPOS>MOLECULE
AV-unprocessed.smi:1412
    48    49     1
SMALL
NO_CHARGES


@<TRIPOS>ATOM
      1 ****        -2.7430  -0.5485   0.5291 C.3            1 S1                 0.0000
      2 ****        -1.2151  -0.4045   0.6475 C.3            1 S1                 0.0000
      3 ****        -0.5059   0.2803  -0.5611 C.3            1 S1                 0.0000
      4 ****        -0.9524   1.7666  -0.5743 C.3            1 S1                 0.0000
      5 ****         1.0428   0.2245  -0.3732 C.3            1 S1                 0.0000
      6 ****         1.5163   0.9182   0.8250 N.am           1 S1                 0.0000
      7 ****         1.8584   0.3303   1.9812 C.2            1 S1                 0.0000
      8 ****         1.8055  -0.8858   2.1646 O.2            1 S1                 0.0000
      9 ****         2.2495   1.2381   2.8928 N.am           1 S1                 0.0000
     10 ****         2.6540   1.0172   4.2361 C.2            1 S1                 0.0000
     11 ****         2.7079  -0.1963   4.8075 N.2            1 S1                 0.0000
     12 ****         3.1311  -0.1305   6.1287 N.2            1 S1                 0.0000
     13 ****         3.3788   1.1282   6.5017 C.2            1 S1                 0.0000
     14 ****         3.1198   2.3565   5.2749 S.3            1 S1                 0.0000
     15 ****        -0.9104  -0.4026  -1.8443 N.4            1 S1                 1.0000
     16 ****        -0.5380   0.2959  -3.1072 C.3            1 S1                 0.0000
     17 ****        -1.1786  -0.4030  -4.3190 C.3            1 S1                 0.0000
     18 ****        -0.7848  -1.7674  -4.3554 O.3            1 S1                 0.0000
     19 ****        -1.2121  -2.4685  -3.1961 C.3            1 S1                 0.0000
     20 ****        -0.5566  -1.8471  -1.9527 C.3            1 S1                 0.0000
     21 ****        -3.1493  -1.0200   1.4242 H              1 S1                 0.0000
     22 ****        -3.0288  -1.1688  -0.3202 H              1 S1                 0.0000
     23 ****        -3.2349   0.4179   0.4226 H              1 S1                 0.0000
     24 ****        -1.0142   0.1609   1.5578 H              1 S1                 0.0000
     25 ****        -0.7817  -1.3861   0.8379 H              1 S1                 0.0000
     26 ****        -0.8797   2.2191   0.4153 H              1 S1                 0.0000
     27 ****        -1.9864   1.8771  -0.9011 H              1 S1                 0.0000
     28 ****        -0.3326   2.3752  -1.2332 H              1 S1                 0.0000
     29 ****         1.4002  -0.8052  -0.3570 H              1 S1                 0.0000
     30 ****         1.5433   0.6960  -1.2185 H              1 S1                 0.0000
     31 ****         1.5922   1.9233   0.7651 H              1 S1                 0.0000
     32 ****         2.2475   2.2026   2.5958 H              1 S1                 0.0000
     33 ****         3.7159   1.3345   7.5068 H              1 S1                 0.0000
     34 ****        -0.8771   1.3301  -3.1101 H              1 S1                 0.0000
     35 ****         0.5457   0.3105  -3.2249 H              1 S1                 0.0000
     36 ****        -2.2667  -0.3274  -4.2811 H              1 S1                 0.0000
     37 ****        -0.8592   0.0799  -5.2427 H              1 S1                 0.0000
     38 ****        -2.3003  -2.4461  -3.1176 H              1 S1                 0.0000
     39 ****        -0.9208  -3.5147  -3.2910 H              1 S1                 0.0000
     40 ****         0.5239  -1.9706  -2.0255 H              1 S1                 0.0000
     41 ****        -0.8856  -2.4080  -1.0804 H              1 S1                 0.0000
     42 ****        -1.9202  -0.3818  -1.8267 H              1 S1                 0.0000
     43 ****         1.4950  -1.4892   1.4301 LP             1 S1                 0.0000
     44 ****         2.0731  -1.2703   3.0481 LP             1 S1                 0.0000
     45 ****         2.4714  -1.0468   4.3376 LP             1 S1                 0.0000
     46 ****         3.2371  -0.9256   6.7258 LP             1 S1                 0.0000
     47 ****         0.2124  -1.8155  -4.4142 LP             1 S1                 0.0000
     48 ****        -1.1874  -2.1995  -5.1624 LP             1 S1                 0.0000
@<TRIPOS>BOND
    1    1    2 1     
    2    1   21 1     
    3    1   22 1     
    4    1   23 1     
    5    2    3 1     
    6    2   24 1     
    7    2   25 1     
    8    3    4 1     
    9    3    5 1     
   10    3   15 1     
   11    4   26 1     
   12    4   27 1     
   13    4   28 1     
   14    5    6 1     
   15    5   29 1     
   16    5   30 1     
   17    6    7 am    
   18    6   31 1     
   19    7    8 2     
   20    7    9 am    
   21    9   10 1     
   22    9   32 1     
   23   10   14 1     
   24   10   11 2     
   25   11   12 1     
   26   12   13 2     
   27   13   14 1     
   28   13   33 1     
   29   15   20 1     
   30   15   16 1     
   31   15   42 1     
   32   16   17 1     
   33   16   34 1     
   34   16   35 1     
   35   17   18 1     
   36   17   36 1     
   37   17   37 1     
   38   18   19 1     
   39   19   20 1     
   40   19   38 1     
   41   19   39 1     
   42   20   40 1     
   43   20   41 1     
   44    8   43 1     
   45    8   44 1     
   46   11   45 1     
   47   12   46 1     
   48   18   47 1     
   49   18   48 1     
@<TRIPOS>SUBSTRUCTURE
      1 S1             1
@<TRIPOS>SET
LONE_PAIRS      STATIC     ATOMS    <user>   **** ""
6 43 44 45 46 47 48
DONOR_HYDROGENS      STATIC     ATOMS    <user>   **** ""
3 31 32 42
ATOM$BLUE        STATIC     ATOMS    COLORGROUP SYSTEM
6 43 44 45 46 47 48
ATOM$RED        STATIC     ATOMS    COLORGROUP SYSTEM
3 31 32 42
