AV-unprocessed.smi:1450|AV-procd|sdf|5897|dock9
  -GOLD-   22720 5583D 1   1.00000     0.00000
 Structure written by MMmdl.
 31 32  0  0  0  0  0  0  0  0  1 V2000
  151.4204  141.2528  157.2975 O   0  0  0  0  0  0  0  0  0  0  0  0
  150.7164  142.1446  156.8240 C   0  0  0  0  0  0  0  0  0  0  0  0
  149.9819  141.9955  155.7130 N   0  0  0  0  0  0  0  0  0  0  0  0
  149.9122  140.7781  154.9121 C   0  0  0  0  0  0  0  0  0  0  0  0
  148.4625  140.4219  154.5341 C   0  0  2  0  0  0  0  0  0  0  0  0
  148.3032  139.1055  153.7982 C   0  0  0  0  0  0  0  0  0  0  0  0
  146.9341  139.2720  153.1463 C   0  0  0  0  0  0  0  0  0  0  0  0
  146.7912  140.6659  152.8890 O   0  0  0  0  0  0  0  0  0  0  0  0
  147.8264  141.3949  153.5419 C   0  0  0  0  0  0  0  0  0  0  0  0
  150.5952  143.3869  157.3224 N   0  0  0  0  0  0  0  0  0  0  0  0
  151.1861  143.9293  158.4952 C   0  0  0  0  0  0  0  0  0  0  0  0
  152.0067  143.1951  159.3856 C   0  0  0  0  0  0  0  0  0  0  0  0
  152.5162  143.8408  160.5286 C   0  0  0  0  0  0  0  0  0  0  0  0
  152.1825  145.1923  160.7431 C   0  0  0  0  0  0  0  0  0  0  0  0
  151.3906  145.9000  159.9104 N   0  0  0  0  0  0  0  0  0  0  0  0
  150.9047  145.2740  158.8172 C   0  0  0  0  0  0  0  0  0  0  0  0
  149.4371  142.7827  155.3926 H   0  0  0  0  0  0  0  0  0  0  0  0
  150.5211  140.8842  154.0126 H   0  0  0  0  0  0  0  0  0  0  0  0
  150.3590  139.9688  155.4900 H   0  0  0  0  0  0  0  0  0  0  0  0
  147.8447  140.3949  155.4337 H   0  0  0  0  0  0  0  0  0  0  0  0
  149.0722  139.0018  153.0313 H   0  0  0  0  0  0  0  0  0  0  0  0
  148.3552  138.2364  154.4548 H   0  0  0  0  0  0  0  0  0  0  0  0
  146.8342  138.6855  152.2326 H   0  0  0  0  0  0  0  0  0  0  0  0
  146.1458  138.9645  153.8344 H   0  0  0  0  0  0  0  0  0  0  0  0
  147.4366  142.2895  154.0282 H   0  0  0  0  0  0  0  0  0  0  0  0
  148.5498  141.7090  152.7881 H   0  0  0  0  0  0  0  0  0  0  0  0
  150.0553  144.0369  156.7699 H   0  0  0  0  0  0  0  0  0  0  0  0
  152.2409  142.1542  159.2250 H   0  0  0  0  0  0  0  0  0  0  0  0
  153.1451  143.3104  161.2283 H   0  0  0  0  0  0  0  0  0  0  0  0
  152.5558  145.7169  161.6103 H   0  0  0  0  0  0  0  0  0  0  0  0
  150.2724  145.8700  158.1753 H   0  0  0  0  0  0  0  0  0  0  0  0
  1  2  2  0  0  0  0
  2  3  1  0  0  0  0
  2 10  1  0  0  0  0
  3  4  1  0  0  0  0
  3 17  1  0  0  0  0
  4  5  1  0  0  0  0
  4 18  1  0  0  0  0
  4 19  1  0  0  0  0
  5  9  1  0  0  0  0
  5  6  1  0  0  0  0
  5 20  1  0  0  0  0
  6  7  1  0  0  0  0
  6 21  1  0  0  0  0
  6 22  1  0  0  0  0
  7  8  1  0  0  0  0
  7 23  1  0  0  0  0
  7 24  1  0  0  0  0
  8  9  1  0  0  0  0
  9 25  1  0  0  0  0
  9 26  1  0  0  0  0
 10 11  1  0  0  0  0
 10 27  1  0  0  0  0
 11 16  1  0  0  0  0
 11 12  2  0  0  0  0
 12 13  1  0  0  0  0
 12 28  1  0  0  0  0
 13 14  2  0  0  0  0
 13 29  1  0  0  0  0
 14 15  1  0  0  0  0
 14 30  1  0  0  0  0
 15 16  2  0  0  0  0
 16 31  1  0  0  0  0
M  END
> <s_m_source_file>
AV-unprocessed.smi

> <i_m_source_file_index>
1450

> <i_lp_mmshare_version>
43012

> <i_f3d_flags>
0

> <s_epik_input>
W2NIXTFuW2NIXVtjSF1bY0hdYzFbTkhdQyg9TylbTkhdW0NIMl1bQ0BASF0yW0NIMl1bQ0gyXU9bQ0gyXTI=

> <s_epik_cmdline>
J2VwaWtfcHl0aG9uJywgJy1waCcsICc3LjAnLCAnLXRuJywgJzgnLCAnLW1hJywgJzIwMCcsICctbWV0YWxfYmluZGluZycsICctaW1hZScsICc8aW5maWxlLm1hZT4nLCAnLW9tYWUnLCAnPG91dGZpbGUubWFlPic=

> <r_epik_Ionization_Penalty>
0.00478342

> <r_epik_Ionization_Penalty_Charging>
0

> <r_epik_Ionization_Penalty_Neutral>
0.00478342

> <r_epik_State_Penalty>
0.0034384

> <r_epik_Charging_Adjusted_Penalty>
0.0034384

> <i_epik_Tot_Q>
0

> <i_epik_Tot_abs_Q>
0

> <r_epik_Metal_State_Penalty>
-0

> <b_epik_Metal_Only>
0

> <s_lp_Force_Field>
OPLS_2005

> <r_lp_Energy>
20.8722

> <b_lp_Chiralities_Consistent>
1

> <s_lp_Variant>
AV-unprocessed.smi:1450-1

> <Gold.Version>
5.8.1

> <Gold.Id.Protein>
6NUR|6NUR_protein|mol2

> <Gold.PLP.Fitness>
41.6462

> <Gold.PLP.PLP>
-32.9376

> <Gold.PLP.part.hbond>
-3.7582

> <Gold.PLP.part.metal>
0.0000

> <Gold.PLP.part.buried>
-2.6638

> <Gold.PLP.part.nonpolar>
-26.5188

> <Gold.PLP.part.repulsive>
0.6043

> <Gold.PLP.ligand.clash>
0.0000

> <Gold.PLP.ligand.torsion>
0.1125

> <Gold.PLP.Chemscore.Hbond>
1.9760

> <Gold.PLP.Chemscore.CHOScore>
1.0000

> <Gold.PLP.Chemscore.Metal>
0.0000

> <Gold.Chemscore.Hbonds>
donor molecule, donor type, donor heavy atom, donor atom, acceptor molecule, acceptor atom, score
      L1  H     3    17       P1  8028  0.98
      L1  H    10    27       P1  8028  1.00
      L1  C    16    31       P1  8029  1.00

> <Gold.PLP.Chemscore.Internal.Correction>
0.0055

> <Gold.Rescore>
     Score         DG    S(hbond)    S(metal)    S(lipo)     H(rot)  DE(clash)    DE(int)     intcor
     16.67     -19.44       1.90        0.00      92.09       1.24       1.42       1.35       ----

> <Gold.Chemscore.Fitness>
16.6718

> <Gold.Chemscore.DG>
-19.4354

> <Gold.Chemscore.ZeroCoef>
-5.4800

> <Gold.Chemscore.Hbond>
1.9019

> <Gold.Chemscore.Metal>
0.0000

> <Gold.Chemscore.Lipo>
92.0937

> <Gold.Chemscore.Internal_Hbond>
0.0000

> <Gold.Chemscore.DEClash>
1.4169

> <Gold.Chemscore.DEInternal>
1.3467

> <Gold.Chemscore.Rot>
1.2390

> <Gold.Chemscore.Internal.Correction>
   9.000000E+99

> <Gold.Chemscore.Hbonds>
donor molecule, donor type, donor heavy atom, donor atom, acceptor molecule, acceptor atom, score
      L1  H     3    17       P1  8028  0.87
      L1  H    10    27       P1  8028  0.98

> <Gold.Chemscore.Hbond.Weighted>
-6.3522

> <Gold.Chemscore.Metal.Weighted>
-0.0000

> <Gold.Chemscore.Lipo.Weighted>
-10.7750

> <Gold.Chemscore.Internal_Hbond.Weighted>
0.0000

> <Gold.Chemscore.DEClash.Weighted>
1.4169

> <Gold.Chemscore.DEInternal.Weighted>
1.3467

> <Gold.Chemscore.Rot.Weighted>
3.1718

> <Gold.Chemscore.Internal.Correction.Weighted>
   9.000000E+99

> <Gold.Protein.RotatedTorsions>
[ 6907 6896 6895 6894 ] final  138.29 input  -60.11 | X-H torsion
[ 7974 7965 7964 7962 ] final -153.43 input  175.53 | X-H torsion
[ 8008 7997 7996 7995 ] final  -71.35 input   59.86 | X-H torsion
[ 10167 10162 10161 10158 ] final  105.56 input  -65.29 | X-H torsion
[ 10718 10713 10712 10709 ] final   72.76 input   66.30 | X-H torsion
[ 10763 10752 10751 10750 ] final -127.09 input  -60.55 | X-H torsion
[ 11005 11000 10999 10996 ] final   19.00 input  -57.11 | X-H torsion

> <Gold.Protein.ActiveResidues>
 VAL166  LYS551  ARG553  GLY616  TRP617  ASP618  TYR619  PRO620  LYS621  CYS622 
 ASP623  PHE694  ASN695  SER759  ASP760  ASP761  ALA762  ILE779  LEU786  VAL792 
 PHE793  MET794  SER795  GLU796  ALA797  LYS798  CYS799  TRP800  GLU811  SER814 

> <Gold.Protein.RotatedAtoms>
  152.2683  133.5359  159.5423 H   0  0  0  0  0  0  0  0  0  0  0  0  # atno 6907 bound_to 6896
  150.7150  134.0733  159.3881 H   0  0  0  0  0  0  0  0  0  0  0  0  # atno 6908 bound_to 6896
  151.8649  135.0511  160.0524 H   0  0  0  0  0  0  0  0  0  0  0  0  # atno 6909 bound_to 6896
  144.7741  140.4527  143.5886 H   0  0  0  0  0  0  0  0  0  0  0  0  # atno 7974 bound_to 7965
  154.5081  140.0817  156.7936 H   0  0  0  0  0  0  0  0  0  0  0  0  # atno 8008 bound_to 7997
  155.3846  140.3429  155.4230 H   0  0  0  0  0  0  0  0  0  0  0  0  # atno 8009 bound_to 7997
  156.1540  140.1567  156.8710 H   0  0  0  0  0  0  0  0  0  0  0  0  # atno 8010 bound_to 7997
  139.7082  144.7082  151.1071 H   0  0  0  0  0  0  0  0  0  0  0  0  # atno 10167 bound_to 10162
  157.6516  130.9595  150.0974 H   0  0  0  0  0  0  0  0  0  0  0  0  # atno 10718 bound_to 10713
  154.8750  135.3973  154.3537 H   0  0  0  0  0  0  0  0  0  0  0  0  # atno 10763 bound_to 10752
  153.4319  135.7025  153.6230 H   0  0  0  0  0  0  0  0  0  0  0  0  # atno 10764 bound_to 10752
  153.4848  135.3761  155.2431 H   0  0  0  0  0  0  0  0  0  0  0  0  # atno 10765 bound_to 10752
  140.4185  134.1544  155.7671 H   0  0  0  0  0  0  0  0  0  0  0  0  # atno 11005 bound_to 11000
  145.6237  139.1527  143.3008 LP  0  0  0  0  0  0  0  0  0  0  0  0  # atno 17320 bound_to 7965
  146.1909  140.6345  142.9146 LP  0  0  0  0  0  0  0  0  0  0  0  0  # atno 17321 bound_to 7965
  140.7727  143.5329  150.9402 LP  0  0  0  0  0  0  0  0  0  0  0  0  # atno 17342 bound_to 10162
  139.9013  143.6832  152.3131 LP  0  0  0  0  0  0  0  0  0  0  0  0  # atno 17343 bound_to 10162
  156.1906  130.3654  149.8915 LP  0  0  0  0  0  0  0  0  0  0  0  0  # atno 17370 bound_to 10713
  156.6844  130.8871  151.3580 LP  0  0  0  0  0  0  0  0  0  0  0  0  # atno 17371 bound_to 10713
  141.1793  133.8447  157.1313 LP  0  0  0  0  0  0  0  0  0  0  0  0  # atno 17394 bound_to 11000
  140.0217  134.9943  157.0604 LP  0  0  0  0  0  0  0  0  0  0  0  0  # atno 17395 bound_to 11000

$$$$
