AV-unprocessed.smi:1049|AV-procd|sdf|4609|dock7
  -GOLD-   22720 3103D 1   1.00000     0.00000
 Structure written by MMmdl.
 40 41  0  0  0  0  0  0  0  0  1 V2000
  145.0419  141.6409  155.6710 C   0  0  0  0  0  0  0  0  0  0  0  0
  146.2895  140.9497  155.1039 C   0  0  1  0  0  0  0  0  0  0  0  0
  145.9418  140.0566  153.8926 C   0  0  0  0  0  0  0  0  0  0  0  0
  147.2002  139.4549  153.2392 C   0  0  0  0  0  0  0  0  0  0  0  0
  148.2442  140.5481  152.9496 C   0  0  0  0  0  0  0  0  0  0  0  0
  148.5541  141.2495  154.2077 N   0  0  0  0  0  0  0  0  0  0  0  0
  149.6785  141.0989  154.9529 C   0  0  0  0  0  0  0  0  0  0  0  0
  150.4725  140.1692  154.7999 O   0  0  0  0  0  0  0  0  0  0  0  0
  149.8593  142.0418  155.8925 N   0  0  0  0  0  0  0  0  0  0  0  0
  151.0211  142.1490  156.7690 C   0  0  0  0  0  0  0  0  0  0  0  0
  150.8302  141.4029  158.1053 C   0  0  0  0  0  0  0  0  0  0  0  0
  151.9450  141.6131  159.0864 C   0  0  0  0  0  0  0  0  0  0  0  0
  152.5903  140.6226  159.6964 N   0  0  0  0  0  0  0  0  0  0  0  0
  153.5388  141.2534  160.4927 C   0  0  0  0  0  0  0  0  0  0  0  0
  153.4333  142.6139  160.3344 C   0  0  0  0  0  0  0  0  0  0  0  0
  152.4162  142.8321  159.4123 N   0  0  0  0  0  0  0  0  0  0  0  0
  151.9391  144.1223  158.9453 C   0  0  0  0  0  0  0  0  0  0  0  0
  151.7746  144.9444  159.9810 F   0  0  0  0  0  0  0  0  0  0  0  0
  152.8036  144.6541  158.0807 F   0  0  0  0  0  0  0  0  0  0  0  0
  147.3799  141.9712  154.7154 C   0  0  0  0  0  0  0  0  0  0  0  0
  144.5839  142.3010  154.9336 H   0  0  0  0  0  0  0  0  0  0  0  0
  145.2908  142.2412  156.5465 H   0  0  0  0  0  0  0  0  0  0  0  0
  144.2928  140.9092  155.9749 H   0  0  0  0  0  0  0  0  0  0  0  0
  146.6952  140.3089  155.8885 H   0  0  0  0  0  0  0  0  0  0  0  0
  145.2619  139.2587  154.1931 H   0  0  0  0  0  0  0  0  0  0  0  0
  145.4090  140.6507  153.1488 H   0  0  0  0  0  0  0  0  0  0  0  0
  147.6325  138.7038  153.9012 H   0  0  0  0  0  0  0  0  0  0  0  0
  146.9309  138.9371  152.3185 H   0  0  0  0  0  0  0  0  0  0  0  0
  149.1127  140.1081  152.4597 H   0  0  0  0  0  0  0  0  0  0  0  0
  147.8421  141.2643  152.2316 H   0  0  0  0  0  0  0  0  0  0  0  0
  149.1621  142.7680  155.9685 H   0  0  0  0  0  0  0  0  0  0  0  0
  151.8692  141.7246  156.2322 H   0  0  0  0  0  0  0  0  0  0  0  0
  151.2653  143.1969  156.9491 H   0  0  0  0  0  0  0  0  0  0  0  0
  149.8847  141.6944  158.5630 H   0  0  0  0  0  0  0  0  0  0  0  0
  150.7463  140.3324  157.9139 H   0  0  0  0  0  0  0  0  0  0  0  0
  154.2132  140.6850  161.1161 H   0  0  0  0  0  0  0  0  0  0  0  0
  153.9874  143.4232  160.7869 H   0  0  0  0  0  0  0  0  0  0  0  0
  150.9835  144.0164  158.4322 H   0  0  0  0  0  0  0  0  0  0  0  0
  147.0081  142.6458  153.9425 H   0  0  0  0  0  0  0  0  0  0  0  0
  147.6208  142.6086  155.5676 H   0  0  0  0  0  0  0  0  0  0  0  0
  1  2  1  0  0  0  0
  1 21  1  0  0  0  0
  1 22  1  0  0  0  0
  1 23  1  0  0  0  0
  2 20  1  0  0  0  0
  2  3  1  0  0  0  0
  2 24  1  0  0  0  0
  3  4  1  0  0  0  0
  3 25  1  0  0  0  0
  3 26  1  0  0  0  0
  4  5  1  0  0  0  0
  4 27  1  0  0  0  0
  4 28  1  0  0  0  0
  5  6  1  0  0  0  0
  5 29  1  0  0  0  0
  5 30  1  0  0  0  0
  6  7  1  0  0  0  0
  6 20  1  0  0  0  0
  7  8  2  0  0  0  0
  7  9  1  0  0  0  0
  9 10  1  0  0  0  0
  9 31  1  0  0  0  0
 10 11  1  0  0  0  0
 10 32  1  0  0  0  0
 10 33  1  0  0  0  0
 11 12  1  0  0  0  0
 11 34  1  0  0  0  0
 11 35  1  0  0  0  0
 12 16  1  0  0  0  0
 12 13  2  0  0  0  0
 13 14  1  0  0  0  0
 14 15  2  0  0  0  0
 14 36  1  0  0  0  0
 15 16  1  0  0  0  0
 15 37  1  0  0  0  0
 16 17  1  0  0  0  0
 17 18  1  0  0  0  0
 17 19  1  0  0  0  0
 17 38  1  0  0  0  0
 20 39  1  0  0  0  0
 20 40  1  0  0  0  0
M  END
> <s_m_source_file>
AV-unprocessed.smi

> <i_m_source_file_index>
1049

> <i_lp_mmshare_version>
43012

> <i_f3d_flags>
0

> <s_epik_input>
W0NIM11bQ0BASF0xW0NIMl1bQ0gyXVtDSDJdTihbQ0gyXTEpQyg9TylbTkhdW0NIMl1bQ0gyXWMybltjSF1bY0hdbjJbQ0hdKEYpRg==

> <s_epik_cmdline>
J2VwaWtfcHl0aG9uJywgJy1waCcsICc3LjAnLCAnLXRuJywgJzgnLCAnLW1hJywgJzIwMCcsICctbWV0YWxfYmluZGluZycsICctaW1hZScsICc8aW5maWxlLm1hZT4nLCAnLW9tYWUnLCAnPG91dGZpbGUubWFlPic=

> <r_lp_tautomer_probability>
1

> <r_epik_Ionization_Penalty>
0.101141

> <r_epik_Ionization_Penalty_Charging>
0.101077

> <r_epik_Ionization_Penalty_Neutral>
6.38597e-05

> <r_epik_State_Penalty>
0.091079

> <r_epik_Charging_Adjusted_Penalty>
0.192156

> <i_epik_Tot_Q>
0

> <i_epik_Tot_abs_Q>
0

> <r_epik_Metal_State_Penalty>
0.0777008

> <b_epik_Metal_Only>
0

> <s_lp_Force_Field>
OPLS_2005

> <r_lp_Energy>
32.9855

> <b_lp_Chiralities_Consistent>
1

> <s_lp_Variant>
AV-unprocessed.smi:1049-2

> <Gold.Version>
5.8.1

> <Gold.Id.Protein>
6NUR|6NUR_protein|mol2

> <Gold.PLP.Fitness>
48.4227

> <Gold.PLP.PLP>
-44.4549

> <Gold.PLP.part.hbond>
-2.0000

> <Gold.PLP.part.metal>
0.0000

> <Gold.PLP.part.buried>
3.1795

> <Gold.PLP.part.nonpolar>
-45.3366

> <Gold.PLP.part.repulsive>
0.1976

> <Gold.PLP.ligand.clash>
0.1611

> <Gold.PLP.ligand.torsion>
0.7788

> <Gold.PLP.Chemscore.Hbond>
1.8800

> <Gold.PLP.Chemscore.CHOScore>
0.0000

> <Gold.PLP.Chemscore.Metal>
0.0000

> <Gold.Chemscore.Hbonds>
donor molecule, donor type, donor heavy atom, donor atom, acceptor molecule, acceptor atom, score
      L1  H     9    31       P1  8028  0.85
      P1  H  7989  7998       L1     8  1.00

> <Gold.PLP.Chemscore.Internal.Correction>
0.0465

> <Gold.Rescore>
     Score         DG    S(hbond)    S(metal)    S(lipo)     H(rot)  DE(clash)    DE(int)     intcor
     12.23     -16.28       1.53        0.00      82.95       1.56       3.38       0.67       ----

> <Gold.Chemscore.Fitness>
12.2292

> <Gold.Chemscore.DG>
-16.2811

> <Gold.Chemscore.ZeroCoef>
-5.4800

> <Gold.Chemscore.Hbond>
1.5259

> <Gold.Chemscore.Metal>
0.0000

> <Gold.Chemscore.Lipo>
82.9491

> <Gold.Chemscore.Internal_Hbond>
0.0000

> <Gold.Chemscore.DEClash>
3.3780

> <Gold.Chemscore.DEInternal>
0.6739

> <Gold.Chemscore.Rot>
1.5626

> <Gold.Chemscore.Internal.Correction>
   9.000000E+99

> <Gold.Chemscore.Hbonds>
donor molecule, donor type, donor heavy atom, donor atom, acceptor molecule, acceptor atom, score
      L1  H     9    31       P1  8028  0.80
      P1  H  7989  7998       L1     8  0.30

> <Gold.Chemscore.Hbond.Weighted>
-5.0964

> <Gold.Chemscore.Metal.Weighted>
-0.0000

> <Gold.Chemscore.Lipo.Weighted>
-9.7050

> <Gold.Chemscore.Internal_Hbond.Weighted>
0.0000

> <Gold.Chemscore.DEClash.Weighted>
3.3780

> <Gold.Chemscore.DEInternal.Weighted>
0.6739

> <Gold.Chemscore.Rot.Weighted>
4.0004

> <Gold.Chemscore.Internal.Correction.Weighted>
   9.000000E+99

> <Gold.Protein.RotatedTorsions>
[ 6907 6896 6895 6894 ] final   33.68 input  -60.11 | X-H torsion
[ 7974 7965 7964 7962 ] final   94.32 input  175.53 | X-H torsion
[ 8008 7997 7996 7995 ] final -121.78 input   59.86 | X-H torsion
[ 10167 10162 10161 10158 ] final  141.11 input  -65.29 | X-H torsion
[ 10718 10713 10712 10709 ] final -134.24 input   66.30 | X-H torsion
[ 10763 10752 10751 10750 ] final  -54.03 input  -60.55 | X-H torsion
[ 11005 11000 10999 10996 ] final   86.58 input  -57.11 | X-H torsion

> <Gold.Protein.ActiveResidues>
 VAL166  LYS551  ARG553  GLY616  TRP617  ASP618  TYR619  PRO620  LYS621  CYS622 
 ASP623  PHE694  ASN695  SER759  ASP760  ASP761  ALA762  ILE779  LEU786  VAL792 
 PHE793  MET794  SER795  GLU796  ALA797  LYS798  CYS799  TRP800  GLU811  SER814 

> <Gold.Protein.RotatedAtoms>
  152.0918  134.9402  160.0571 H   0  0  0  0  0  0  0  0  0  0  0  0  # atno 6907 bound_to 6896
  152.0650  133.4075  159.4442 H   0  0  0  0  0  0  0  0  0  0  0  0  # atno 6908 bound_to 6896
  150.6837  134.3077  159.4776 H   0  0  0  0  0  0  0  0  0  0  0  0  # atno 6909 bound_to 6896
  145.4671  139.2284  143.2955 H   0  0  0  0  0  0  0  0  0  0  0  0  # atno 7974 bound_to 7965
  155.1536  140.0404  157.2826 H   0  0  0  0  0  0  0  0  0  0  0  0  # atno 8008 bound_to 7997
  154.6386  140.2541  155.7321 H   0  0  0  0  0  0  0  0  0  0  0  0  # atno 8009 bound_to 7997
  156.2521  140.2860  156.0770 H   0  0  0  0  0  0  0  0  0  0  0  0  # atno 8010 bound_to 7997
  139.5030  144.6192  151.6091 H   0  0  0  0  0  0  0  0  0  0  0  0  # atno 10167 bound_to 10162
  156.2533  130.7166  151.1073 H   0  0  0  0  0  0  0  0  0  0  0  0  # atno 10718 bound_to 10713
  154.1683  135.6463  153.5003 H   0  0  0  0  0  0  0  0  0  0  0  0  # atno 10763 bound_to 10752
  153.0091  135.5377  154.6639 H   0  0  0  0  0  0  0  0  0  0  0  0  # atno 10764 bound_to 10752
  154.5971  135.2940  155.0546 H   0  0  0  0  0  0  0  0  0  0  0  0  # atno 10765 bound_to 10752
  139.8941  134.8364  156.2740 H   0  0  0  0  0  0  0  0  0  0  0  0  # atno 11005 bound_to 11000
  146.2418  140.5446  142.8931 LP  0  0  0  0  0  0  0  0  0  0  0  0  # atno 17320 bound_to 7965
  144.7967  140.6137  143.6505 LP  0  0  0  0  0  0  0  0  0  0  0  0  # atno 17321 bound_to 7965
  140.5889  143.9814  150.6312 LP  0  0  0  0  0  0  0  0  0  0  0  0  # atno 17342 bound_to 10162
  140.2988  143.3274  152.0991 LP  0  0  0  0  0  0  0  0  0  0  0  0  # atno 17343 bound_to 10162
  157.7223  131.0673  150.6084 LP  0  0  0  0  0  0  0  0  0  0  0  0  # atno 17370 bound_to 10713
  156.6165  130.4394  149.5838 LP  0  0  0  0  0  0  0  0  0  0  0  0  # atno 17371 bound_to 10713
  141.0082  133.7111  156.1069 LP  0  0  0  0  0  0  0  0  0  0  0  0  # atno 17394 bound_to 11000
  140.7404  134.4156  157.5555 LP  0  0  0  0  0  0  0  0  0  0  0  0  # atno 17395 bound_to 11000

$$$$
