AV-unprocessed.smi:2237|AV-procd|sdf|9051|dock8
  -GOLD-   2272012253D 1   1.00000     0.00000
 Structure written by MMmdl.
 54 56  0  0  0  0  0  0  0  0  2 V2000
  153.3891  141.9466  160.6149 C   0  0  0  0  0  0  0  0  0  0  0  0
  152.5055  142.9692  159.9316 C   0  0  0  0  0  0  0  0  0  0  0  0
  152.4831  144.3107  160.3612 C   0  0  0  0  0  0  0  0  0  0  0  0
  151.6424  145.2100  159.6815 C   0  0  0  0  0  0  0  0  0  0  0  0
  150.8655  144.7348  158.6075 C   0  0  0  0  0  0  0  0  0  0  0  0
  150.9470  143.3728  158.2394 C   0  0  0  0  0  0  0  0  0  0  0  0
  150.1285  142.9971  157.1417 N   0  0  0  0  0  0  0  0  0  0  0  0
  150.0466  141.7995  156.5357 C   0  0  0  0  0  0  0  0  0  0  0  0
  150.6687  140.7888  156.8645 O   0  0  0  0  0  0  0  0  0  0  0  0
  149.1833  141.8353  155.5102 N   0  0  0  0  0  0  0  0  0  0  0  0
  148.8639  140.7098  154.6372 C   0  0  0  0  0  0  0  0  0  0  0  0
  147.5340  140.9650  153.9234 C   0  0  0  0  0  0  0  0  0  0  0  0
  147.1026  139.7438  153.0935 C   0  0  0  0  0  0  0  0  0  0  0  0
  146.9485  138.5432  153.9319 N   0  0  0  0  0  0  0  0  0  0  0  0
  146.4461  137.3847  153.1571 C   0  0  2  0  0  0  0  0  0  0  0  0
  144.9679  137.5194  152.7076 C   0  0  0  0  0  0  0  0  0  0  0  0
  143.9971  137.4603  153.9009 C   0  0  0  0  0  0  0  0  0  0  0  0
  144.1628  136.1980  154.6625 N   0  3  2  0  0  0  0  0  0  0  0  0
  143.1884  136.0758  155.7679 C   0  0  0  0  0  0  0  0  0  0  0  0
  145.5606  135.9938  155.1157 C   0  0  0  0  0  0  0  0  0  0  0  0
  146.5414  136.0439  153.9301 C   0  0  0  0  0  0  0  0  0  0  0  0
  148.2545  138.2521  154.5476 C   0  0  0  0  0  0  0  0  0  0  0  0
  148.7362  139.4095  155.4394 C   0  0  0  0  0  0  0  0  0  0  0  0
  151.7606  142.5131  158.9016 N   0  0  0  0  0  0  0  0  0  0  0  0
  153.8246  142.3488  161.5301 H   0  0  0  0  0  0  0  0  0  0  0  0
  154.2016  141.6479  159.9522 H   0  0  0  0  0  0  0  0  0  0  0  0
  152.8135  141.0579  160.8752 H   0  0  0  0  0  0  0  0  0  0  0  0
  153.0923  144.6447  161.1882 H   0  0  0  0  0  0  0  0  0  0  0  0
  151.5940  146.2475  159.9772 H   0  0  0  0  0  0  0  0  0  0  0  0
  150.2155  145.4132  158.0742 H   0  0  0  0  0  0  0  0  0  0  0  0
  149.5427  143.7290  156.7682 H   0  0  0  0  0  0  0  0  0  0  0  0
  148.7162  142.7084  155.3138 H   0  0  0  0  0  0  0  0  0  0  0  0
  149.6467  140.5958  153.8846 H   0  0  0  0  0  0  0  0  0  0  0  0
  146.7552  141.1987  154.6510 H   0  0  0  0  0  0  0  0  0  0  0  0
  147.6220  141.8371  153.2744 H   0  0  0  0  0  0  0  0  0  0  0  0
  146.1613  140.0194  152.6252 H   0  0  0  0  0  0  0  0  0  0  0  0
  147.8194  139.5540  152.2930 H   0  0  0  0  0  0  0  0  0  0  0  0
  147.0627  137.3072  152.2601 H   0  0  0  0  0  0  0  0  0  0  0  0
  144.7828  138.4013  152.0978 H   0  0  0  0  0  0  0  0  0  0  0  0
  144.7355  136.6884  152.0400 H   0  0  0  0  0  0  0  0  0  0  0  0
  144.1588  138.3138  154.5613 H   0  0  0  0  0  0  0  0  0  0  0  0
  142.9710  137.5313  153.5385 H   0  0  0  0  0  0  0  0  0  0  0  0
  143.3355  136.8634  156.5081 H   0  0  0  0  0  0  0  0  0  0  0  0
  143.2915  135.1123  156.2682 H   0  0  0  0  0  0  0  0  0  0  0  0
  142.1677  136.1469  155.3906 H   0  0  0  0  0  0  0  0  0  0  0  0
  145.8232  136.7512  155.8561 H   0  0  0  0  0  0  0  0  0  0  0  0
  145.6406  135.0258  155.6117 H   0  0  0  0  0  0  0  0  0  0  0  0
  146.2878  135.2338  153.2449 H   0  0  0  0  0  0  0  0  0  0  0  0
  147.5507  135.8043  154.2566 H   0  0  0  0  0  0  0  0  0  0  0  0
  148.2039  137.3777  155.1903 H   0  0  0  0  0  0  0  0  0  0  0  0
  148.9935  138.0370  153.7741 H   0  0  0  0  0  0  0  0  0  0  0  0
  149.6961  139.1502  155.8876 H   0  0  0  0  0  0  0  0  0  0  0  0
  148.0365  139.5448  156.2657 H   0  0  0  0  0  0  0  0  0  0  0  0
  143.9603  135.4471  154.0180 H   0  0  0  0  0  0  0  0  0  0  0  0
  1  2  1  0  0  0  0
  1 25  1  0  0  0  0
  1 26  1  0  0  0  0
  1 27  1  0  0  0  0
  2 24  1  0  0  0  0
  2  3  2  0  0  0  0
  3  4  1  0  0  0  0
  3 28  1  0  0  0  0
  4  5  2  0  0  0  0
  4 29  1  0  0  0  0
  5  6  1  0  0  0  0
  5 30  1  0  0  0  0
  6  7  1  0  0  0  0
  6 24  2  0  0  0  0
  7  8  1  0  0  0  0
  7 31  1  0  0  0  0
  8  9  2  0  0  0  0
  8 10  1  0  0  0  0
 10 11  1  0  0  0  0
 10 32  1  0  0  0  0
 11 23  1  0  0  0  0
 11 12  1  0  0  0  0
 11 33  1  0  0  0  0
 12 13  1  0  0  0  0
 12 34  1  0  0  0  0
 12 35  1  0  0  0  0
 13 14  1  0  0  0  0
 13 36  1  0  0  0  0
 13 37  1  0  0  0  0
 14 15  1  0  0  0  0
 14 22  1  0  0  0  0
 15 21  1  0  0  0  0
 15 16  1  0  0  0  0
 15 38  1  0  0  0  0
 16 17  1  0  0  0  0
 16 39  1  0  0  0  0
 16 40  1  0  0  0  0
 17 18  1  0  0  0  0
 17 41  1  0  0  0  0
 17 42  1  0  0  0  0
 18 19  1  0  0  0  0
 18 20  1  0  0  0  0
 18 54  1  0  0  0  0
 19 43  1  0  0  0  0
 19 44  1  0  0  0  0
 19 45  1  0  0  0  0
 20 21  1  0  0  0  0
 20 46  1  0  0  0  0
 20 47  1  0  0  0  0
 21 48  1  0  0  0  0
 21 49  1  0  0  0  0
 22 23  1  0  0  0  0
 22 50  1  0  0  0  0
 22 51  1  0  0  0  0
 23 52  1  0  0  0  0
 23 53  1  0  0  0  0
M  CHG  1  18   1
M  END
> <s_m_source_file>
AV-unprocessed.smi

> <i_m_source_file_index>
2237

> <i_lp_mmshare_version>
43012

> <i_f3d_flags>
0

> <s_epik_input>
W0NIM11jMVtjSF1bY0hdW2NIXWMobjEpW05IXUMoPU8pW05IXVtDSF0yW0NIMl1bQ0gyXU4oW0NIMl1bQ0gyXTIpW0NIXTNbQ0gyXVtDSDJdTihbQ0gzXSlbQ0gyXVtDSDJdMw==

> <s_epik_cmdline>
J2VwaWtfcHl0aG9uJywgJy1waCcsICc3LjAnLCAnLXRuJywgJzgnLCAnLW1hJywgJzIwMCcsICctbWV0YWxfYmluZGluZycsICctaW1hZScsICc8aW5maWxlLm1hZT4nLCAnLW9tYWUnLCAnPG91dGZpbGUubWFlPic=

> <r_epik_Ionization_Penalty>
1.00983

> <r_epik_Ionization_Penalty_Charging>
0.000974969

> <r_epik_Ionization_Penalty_Neutral>
1.00886

> <r_epik_State_Penalty>
1.10286

> <r_epik_Charging_Adjusted_Penalty>
1.10383

> <i_epik_Tot_Q>
1

> <i_epik_Tot_abs_Q>
1

> <r_epik_Metal_State_Penalty>
1.10284

> <b_epik_Metal_Only>
0

> <s_lp_Force_Field>
OPLS_2005

> <r_lp_Energy>
36.6088

> <b_lp_Chiralities_Consistent>
1

> <s_lp_Variant>
AV-unprocessed.smi:2237-6

> <Gold.Version>
5.8.1

> <Gold.Id.Protein>
6NUR|6NUR_protein|mol2

> <Gold.PLP.Fitness>
40.8073

> <Gold.PLP.PLP>
-36.0826

> <Gold.PLP.part.hbond>
-2.0000

> <Gold.PLP.part.metal>
0.0000

> <Gold.PLP.part.buried>
-3.0639

> <Gold.PLP.part.nonpolar>
-31.4178

> <Gold.PLP.part.repulsive>
0.3360

> <Gold.PLP.ligand.clash>
0.0000

> <Gold.PLP.ligand.torsion>
0.3994

> <Gold.PLP.Chemscore.Hbond>
1.8406

> <Gold.PLP.Chemscore.CHOScore>
0.0000

> <Gold.PLP.Chemscore.Metal>
0.0000

> <Gold.Chemscore.Hbonds>
donor molecule, donor type, donor heavy atom, donor atom, acceptor molecule, acceptor atom, score
      L1  H     7    31       P1  8028  1.00
      L1  H    10    32       P1  8028  0.84

> <Gold.PLP.Chemscore.Internal.Correction>
0.0018

> <Gold.Rescore>
     Score         DG    S(hbond)    S(metal)    S(lipo)     H(rot)  DE(clash)    DE(int)     intcor
     16.71     -19.99       1.81        0.00      99.01       1.22       0.12       3.16       ----

> <Gold.Chemscore.Fitness>
16.7067

> <Gold.Chemscore.DG>
-19.9885

> <Gold.Chemscore.ZeroCoef>
-5.4800

> <Gold.Chemscore.Hbond>
1.8090

> <Gold.Chemscore.Metal>
0.0000

> <Gold.Chemscore.Lipo>
99.0110

> <Gold.Chemscore.Internal_Hbond>
0.0000

> <Gold.Chemscore.DEClash>
0.1246

> <Gold.Chemscore.DEInternal>
3.1572

> <Gold.Chemscore.Rot>
1.2179

> <Gold.Chemscore.Internal.Correction>
   9.000000E+99

> <Gold.Chemscore.Hbonds>
donor molecule, donor type, donor heavy atom, donor atom, acceptor molecule, acceptor atom, score
      L1  H     7    31       P1  8028  0.95
      L1  H    10    32       P1  8028  0.77

> <Gold.Chemscore.Hbond.Weighted>
-6.0420

> <Gold.Chemscore.Metal.Weighted>
-0.0000

> <Gold.Chemscore.Lipo.Weighted>
-11.5843

> <Gold.Chemscore.Internal_Hbond.Weighted>
0.0000

> <Gold.Chemscore.DEClash.Weighted>
0.1246

> <Gold.Chemscore.DEInternal.Weighted>
3.1572

> <Gold.Chemscore.Rot.Weighted>
3.1177

> <Gold.Chemscore.Internal.Correction.Weighted>
   9.000000E+99

> <Gold.Protein.RotatedTorsions>
[ 6907 6896 6895 6894 ] final -114.07 input  -60.11 | X-H torsion
[ 7974 7965 7964 7962 ] final  -86.17 input  175.53 | X-H torsion
[ 8008 7997 7996 7995 ] final -151.06 input   59.86 | X-H torsion
[ 10167 10162 10161 10158 ] final   99.28 input  -65.29 | X-H torsion
[ 10718 10713 10712 10709 ] final -112.77 input   66.30 | X-H torsion
[ 10763 10752 10751 10750 ] final  -82.51 input  -60.55 | X-H torsion
[ 11005 11000 10999 10996 ] final  151.21 input  -57.11 | X-H torsion

> <Gold.Protein.ActiveResidues>
 VAL166  LYS551  ARG553  GLY616  TRP617  ASP618  TYR619  PRO620  LYS621  CYS622 
 ASP623  PHE694  ASN695  SER759  ASP760  ASP761  ALA762  ILE779  LEU786  VAL792 
 PHE793  MET794  SER795  GLU796  ALA797  LYS798  CYS799  TRP800  GLU811  SER814 

> <Gold.Protein.RotatedAtoms>
  150.7875  133.8853  159.3297 H   0  0  0  0  0  0  0  0  0  0  0  0  # atno 6907 bound_to 6896
  151.6700  135.0975  160.0205 H   0  0  0  0  0  0  0  0  0  0  0  0  # atno 6908 bound_to 6896
  152.3943  133.6685  159.6298 H   0  0  0  0  0  0  0  0  0  0  0  0  # atno 6909 bound_to 6896
  145.4834  140.9556  143.1851 H   0  0  0  0  0  0  0  0  0  0  0  0  # atno 7974 bound_to 7965
  155.6334  140.0694  157.2641 H   0  0  0  0  0  0  0  0  0  0  0  0  # atno 8008 bound_to 7997
  154.4200  140.1763  156.1546 H   0  0  0  0  0  0  0  0  0  0  0  0  # atno 8009 bound_to 7997
  155.9914  140.3345  155.6760 H   0  0  0  0  0  0  0  0  0  0  0  0  # atno 8010 bound_to 7997
  139.7632  144.6947  151.0262 H   0  0  0  0  0  0  0  0  0  0  0  0  # atno 10167 bound_to 10162
  156.0726  130.5937  150.8553 H   0  0  0  0  0  0  0  0  0  0  0  0  # atno 10718 bound_to 10713
  154.5766  135.5589  153.7145 H   0  0  0  0  0  0  0  0  0  0  0  0  # atno 10763 bound_to 10752
  153.0067  135.6310  154.2040 H   0  0  0  0  0  0  0  0  0  0  0  0  # atno 10764 bound_to 10752
  154.1981  135.2879  155.2980 H   0  0  0  0  0  0  0  0  0  0  0  0  # atno 10765 bound_to 10752
  140.1199  134.8870  157.2057 H   0  0  0  0  0  0  0  0  0  0  0  0  # atno 11005 bound_to 11000
  144.7875  139.6396  143.7127 LP  0  0  0  0  0  0  0  0  0  0  0  0  # atno 17320 bound_to 7965
  146.2327  139.5845  142.9544 LP  0  0  0  0  0  0  0  0  0  0  0  0  # atno 17321 bound_to 7965
  140.7809  143.4673  151.0194 LP  0  0  0  0  0  0  0  0  0  0  0  0  # atno 17342 bound_to 10162
  139.8359  143.7629  152.3180 LP  0  0  0  0  0  0  0  0  0  0  0  0  # atno 17343 bound_to 10162
  157.5804  131.0946  150.9279 LP  0  0  0  0  0  0  0  0  0  0  0  0  # atno 17370 bound_to 10713
  156.9476  130.5408  149.5281 LP  0  0  0  0  0  0  0  0  0  0  0  0  # atno 17371 bound_to 10713
  140.2979  134.3166  155.7297 LP  0  0  0  0  0  0  0  0  0  0  0  0  # atno 17394 bound_to 11000
  141.2149  133.7574  156.9598 LP  0  0  0  0  0  0  0  0  0  0  0  0  # atno 17395 bound_to 11000

$$$$
