AV-unprocessed.smi:2390|AV-procd|sdf|9479|dock4
  -GOLD-   2272013113D 1   1.00000     0.00000
 Structure written by MMmdl.
 46 47  0  0  0  0  0  0  0  0  2 V2000
  153.5150  141.4205  159.9213 C   0  0  0  0  0  0  0  0  0  0  0  0
  152.6807  142.4497  159.1876 C   0  0  0  0  0  0  0  0  0  0  0  0
  152.7825  143.8204  159.4959 C   0  0  0  0  0  0  0  0  0  0  0  0
  151.9793  144.7234  158.7766 C   0  0  0  0  0  0  0  0  0  0  0  0
  151.1125  144.2222  157.7862 C   0  0  0  0  0  0  0  0  0  0  0  0
  151.0723  142.8319  157.5374 C   0  0  0  0  0  0  0  0  0  0  0  0
  150.1620  142.4253  156.5258 N   0  0  0  0  0  0  0  0  0  0  0  0
  149.9180  141.1789  156.0854 C   0  0  0  0  0  0  0  0  0  0  0  0
  150.5169  140.1664  156.4481 O   0  0  0  0  0  0  0  0  0  0  0  0
  148.9143  141.1643  155.1946 N   0  0  0  0  0  0  0  0  0  0  0  0
  148.3871  139.9849  154.5020 C   0  0  2  0  0  0  0  0  0  0  0  0
  149.5698  139.2592  153.8388 C   0  0  0  0  0  0  0  0  0  0  0  0
  147.2700  140.3785  153.4927 C   0  0  1  0  0  0  0  0  0  0  0  0
  146.8547  139.2181  152.5621 C   0  0  0  0  0  0  0  0  0  0  0  0
  146.1010  140.9967  154.1871 N   0  3  0  0  0  0  0  0  0  0  0  0
  145.7238  140.3381  155.4600 C   0  0  0  0  0  0  0  0  0  0  0  0
  144.3982  140.9238  155.9779 C   0  0  0  0  0  0  0  0  0  0  0  0
  144.5161  142.3344  156.1247 O   0  0  0  0  0  0  0  0  0  0  0  0
  144.8084  142.9809  154.8908 C   0  0  0  0  0  0  0  0  0  0  0  0
  146.1565  142.4705  154.3577 C   0  0  0  0  0  0  0  0  0  0  0  0
  151.8492  141.9687  158.2384 N   0  0  0  0  0  0  0  0  0  0  0  0
  154.1959  141.8942  160.6290 H   0  0  0  0  0  0  0  0  0  0  0  0
  154.1093  140.8401  159.2149 H   0  0  0  0  0  0  0  0  0  0  0  0
  152.8712  140.7356  160.4738 H   0  0  0  0  0  0  0  0  0  0  0  0
  153.4571  144.1738  160.2618 H   0  0  0  0  0  0  0  0  0  0  0  0
  152.0260  145.7831  158.9807 H   0  0  0  0  0  0  0  0  0  0  0  0
  150.4884  144.9029  157.2256 H   0  0  0  0  0  0  0  0  0  0  0  0
  149.6184  143.1667  156.1090 H   0  0  0  0  0  0  0  0  0  0  0  0
  148.4874  142.0484  154.9579 H   0  0  0  0  0  0  0  0  0  0  0  0
  147.9695  139.2978  155.2398 H   0  0  0  0  0  0  0  0  0  0  0  0
  149.2702  138.3000  153.4173 H   0  0  0  0  0  0  0  0  0  0  0  0
  150.3575  139.0521  154.5643 H   0  0  0  0  0  0  0  0  0  0  0  0
  150.0060  139.8566  153.0376 H   0  0  0  0  0  0  0  0  0  0  0  0
  147.6999  141.1542  152.8569 H   0  0  0  0  0  0  0  0  0  0  0  0
  147.6753  138.9173  151.9115 H   0  0  0  0  0  0  0  0  0  0  0  0
  146.0298  139.5038  151.9096 H   0  0  0  0  0  0  0  0  0  0  0  0
  146.5465  138.3373  153.1260 H   0  0  0  0  0  0  0  0  0  0  0  0
  145.6107  139.2641  155.3088 H   0  0  0  0  0  0  0  0  0  0  0  0
  146.5113  140.4790  156.2014 H   0  0  0  0  0  0  0  0  0  0  0  0
  143.5778  140.6869  155.2983 H   0  0  0  0  0  0  0  0  0  0  0  0
  144.1463  140.4875  156.9447 H   0  0  0  0  0  0  0  0  0  0  0  0
  144.0089  142.8008  154.1701 H   0  0  0  0  0  0  0  0  0  0  0  0
  144.8524  144.0573  155.0567 H   0  0  0  0  0  0  0  0  0  0  0  0
  146.9470  142.7426  155.0581 H   0  0  0  0  0  0  0  0  0  0  0  0
  146.3859  142.9566  153.4098 H   0  0  0  0  0  0  0  0  0  0  0  0
  145.3207  140.8274  153.5680 H   0  0  0  0  0  0  0  0  0  0  0  0
  1  2  1  0  0  0  0
  1 22  1  0  0  0  0
  1 23  1  0  0  0  0
  1 24  1  0  0  0  0
  2 21  1  0  0  0  0
  2  3  2  0  0  0  0
  3  4  1  0  0  0  0
  3 25  1  0  0  0  0
  4  5  2  0  0  0  0
  4 26  1  0  0  0  0
  5  6  1  0  0  0  0
  5 27  1  0  0  0  0
  6  7  1  0  0  0  0
  6 21  2  0  0  0  0
  7  8  1  0  0  0  0
  7 28  1  0  0  0  0
  8  9  2  0  0  0  0
  8 10  1  0  0  0  0
 10 11  1  0  0  0  0
 10 29  1  0  0  0  0
 11 12  1  0  0  0  0
 11 13  1  0  0  0  0
 11 30  1  0  0  0  0
 12 31  1  0  0  0  0
 12 32  1  0  0  0  0
 12 33  1  0  0  0  0
 13 14  1  0  0  0  0
 13 15  1  0  0  0  0
 13 34  1  0  0  0  0
 14 35  1  0  0  0  0
 14 36  1  0  0  0  0
 14 37  1  0  0  0  0
 15 20  1  0  0  0  0
 15 16  1  0  0  0  0
 15 46  1  0  0  0  0
 16 17  1  0  0  0  0
 16 38  1  0  0  0  0
 16 39  1  0  0  0  0
 17 18  1  0  0  0  0
 17 40  1  0  0  0  0
 17 41  1  0  0  0  0
 18 19  1  0  0  0  0
 19 20  1  0  0  0  0
 19 42  1  0  0  0  0
 19 43  1  0  0  0  0
 20 44  1  0  0  0  0
 20 45  1  0  0  0  0
M  CHG  1  15   1
M  END
> <s_m_source_file>
AV-unprocessed.smi

> <i_m_source_file_index>
2390

> <i_lp_mmshare_version>
43012

> <i_f3d_flags>
0

> <s_epik_input>
W0NIM11jMVtjSF1bY0hdW2NIXWMobjEpW05IXUMoPU8pW05IXVtDQEhdKFtDSDNdKVtDQEhdKFtDSDNdKU4yW0NIMl1bQ0gyXU9bQ0gyXVtDSDJdMg==

> <s_epik_cmdline>
J2VwaWtfcHl0aG9uJywgJy1waCcsICc3LjAnLCAnLXRuJywgJzgnLCAnLW1hJywgJzIwMCcsICctbWV0YWxfYmluZGluZycsICctaW1hZScsICc8aW5maWxlLm1hZT4nLCAnLW9tYWUnLCAnPG91dGZpbGUubWFlPic=

> <r_epik_Ionization_Penalty>
0.60259

> <r_epik_Ionization_Penalty_Charging>
0.602531

> <r_epik_Ionization_Penalty_Neutral>
5.9516e-05

> <r_epik_State_Penalty>
0.617039

> <r_epik_Charging_Adjusted_Penalty>
1.21957

> <i_epik_Tot_Q>
1

> <i_epik_Tot_abs_Q>
1

> <r_epik_Metal_State_Penalty>
0.617047

> <b_epik_Metal_Only>
0

> <s_lp_Force_Field>
OPLS_2005

> <r_lp_Energy>
26.9068

> <b_lp_Chiralities_Consistent>
1

> <s_lp_Variant>
AV-unprocessed.smi:2390-7

> <Gold.Version>
5.8.1

> <Gold.Id.Protein>
6NUR|6NUR_protein|mol2

> <Gold.PLP.Fitness>
51.0066

> <Gold.PLP.PLP>
-43.4690

> <Gold.PLP.part.hbond>
-2.0000

> <Gold.PLP.part.metal>
0.0000

> <Gold.PLP.part.buried>
-4.2123

> <Gold.PLP.part.nonpolar>
-39.3511

> <Gold.PLP.part.repulsive>
0.3485

> <Gold.PLP.ligand.clash>
0.0000

> <Gold.PLP.ligand.torsion>
0.7772

> <Gold.PLP.Chemscore.Hbond>
2.9825

> <Gold.PLP.Chemscore.CHOScore>
0.0000

> <Gold.PLP.Chemscore.Metal>
0.0000

> <Gold.Chemscore.Hbonds>
donor molecule, donor type, donor heavy atom, donor atom, acceptor molecule, acceptor atom, score
      L1  H     7    28       P1  8028  1.00
      L1  H    15    46       P1 10175  2.00

> <Gold.PLP.Chemscore.Internal.Correction>
0.1445

> <Gold.Rescore>
     Score         DG    S(hbond)    S(metal)    S(lipo)     H(rot)  DE(clash)    DE(int)     intcor
     16.23     -19.65       1.80        0.00     102.18       1.48       0.03       3.38       ----

> <Gold.Chemscore.Fitness>
16.2324

> <Gold.Chemscore.DG>
-19.6457

> <Gold.Chemscore.ZeroCoef>
-5.4800

> <Gold.Chemscore.Hbond>
1.7997

> <Gold.Chemscore.Metal>
0.0000

> <Gold.Chemscore.Lipo>
102.1763

> <Gold.Chemscore.Internal_Hbond>
0.0000

> <Gold.Chemscore.DEClash>
0.0308

> <Gold.Chemscore.DEInternal>
3.3826

> <Gold.Chemscore.Rot>
1.4844

> <Gold.Chemscore.Internal.Correction>
   9.000000E+99

> <Gold.Chemscore.Hbonds>
donor molecule, donor type, donor heavy atom, donor atom, acceptor molecule, acceptor atom, score
      L1  H     7    28       P1  8028  1.00
      L1  H    15    46       P1 10175  0.83

> <Gold.Chemscore.Hbond.Weighted>
-6.0110

> <Gold.Chemscore.Metal.Weighted>
-0.0000

> <Gold.Chemscore.Lipo.Weighted>
-11.9546

> <Gold.Chemscore.Internal_Hbond.Weighted>
0.0000

> <Gold.Chemscore.DEClash.Weighted>
0.0308

> <Gold.Chemscore.DEInternal.Weighted>
3.3826

> <Gold.Chemscore.Rot.Weighted>
3.8000

> <Gold.Chemscore.Internal.Correction.Weighted>
   9.000000E+99

> <Gold.Protein.RotatedTorsions>
[ 6907 6896 6895 6894 ] final  160.99 input  -60.11 | X-H torsion
[ 7974 7965 7964 7962 ] final  -73.48 input  175.53 | X-H torsion
[ 8008 7997 7996 7995 ] final -102.85 input   59.86 | X-H torsion
[ 10167 10162 10161 10158 ] final  129.14 input  -65.29 | X-H torsion
[ 10718 10713 10712 10709 ] final  149.27 input   66.30 | X-H torsion
[ 10763 10752 10751 10750 ] final  -21.86 input  -60.55 | X-H torsion
[ 11005 11000 10999 10996 ] final -151.23 input  -57.11 | X-H torsion

> <Gold.Protein.ActiveResidues>
 VAL166  LYS551  ARG553  GLY616  TRP617  ASP618  TYR619  PRO620  LYS621  CYS622 
 ASP623  PHE694  ASN695  SER759  ASP760  ASP761  ALA762  ILE779  LEU786  VAL792 
 PHE793  MET794  SER795  GLU796  ALA797  LYS798  CYS799  TRP800  GLU811  SER814 

> <Gold.Protein.RotatedAtoms>
  151.9623  133.3699  159.4039 H   0  0  0  0  0  0  0  0  0  0  0  0  # atno 6907 bound_to 6896
  150.6962  134.4227  159.5221 H   0  0  0  0  0  0  0  0  0  0  0  0  # atno 6908 bound_to 6896
  152.1918  134.8665  160.0567 H   0  0  0  0  0  0  0  0  0  0  0  0  # atno 6909 bound_to 6896
  145.6516  140.9281  143.0982 H   0  0  0  0  0  0  0  0  0  0  0  0  # atno 7974 bound_to 7965
  154.8625  140.0426  157.1674 H   0  0  0  0  0  0  0  0  0  0  0  0  # atno 8008 bound_to 7997
  154.8825  140.2974  155.5396 H   0  0  0  0  0  0  0  0  0  0  0  0  # atno 8009 bound_to 7997
  156.2998  140.2408  156.3830 H   0  0  0  0  0  0  0  0  0  0  0  0  # atno 8010 bound_to 7997
  139.5492  144.6799  151.4376 H   0  0  0  0  0  0  0  0  0  0  0  0  # atno 10167 bound_to 10162
  157.2982  131.0866  151.1410 H   0  0  0  0  0  0  0  0  0  0  0  0  # atno 10718 bound_to 10713
  153.6428  135.6984  153.5236 H   0  0  0  0  0  0  0  0  0  0  0  0  # atno 10763 bound_to 10752
  153.2769  135.4197  155.1041 H   0  0  0  0  0  0  0  0  0  0  0  0  # atno 10764 bound_to 10752
  154.8495  135.3592  154.5972 H   0  0  0  0  0  0  0  0  0  0  0  0  # atno 10765 bound_to 10752
  140.7317  134.3613  157.5165 H   0  0  0  0  0  0  0  0  0  0  0  0  # atno 11005 bound_to 11000
  144.7120  139.8333  143.7411 LP  0  0  0  0  0  0  0  0  0  0  0  0  # atno 17320 bound_to 7965
  146.1199  139.4215  143.0235 LP  0  0  0  0  0  0  0  0  0  0  0  0  # atno 17321 bound_to 7965
  140.6750  143.8210  150.7047 LP  0  0  0  0  0  0  0  0  0  0  0  0  # atno 17342 bound_to 10162
  140.1646  143.4246  152.2043 LP  0  0  0  0  0  0  0  0  0  0  0  0  # atno 17343 bound_to 10162
  157.2780  130.6736  149.6051 LP  0  0  0  0  0  0  0  0  0  0  0  0  # atno 17370 bound_to 10713
  155.9670  130.4459  150.5518 LP  0  0  0  0  0  0  0  0  0  0  0  0  # atno 17371 bound_to 10713
  139.8825  134.9023  156.2829 LP  0  0  0  0  0  0  0  0  0  0  0  0  # atno 17394 bound_to 11000
  140.9915  133.7206  156.0821 LP  0  0  0  0  0  0  0  0  0  0  0  0  # atno 17395 bound_to 11000

$$$$
