AV-unprocessed.smi:93|AV-procd|sdf|849|dock10
  -GOLD-   2262017293D 1   1.00000     0.00000
 Structure written by MMmdl.
 50 52  0  0  0  0  0  0  0  0  1 V2000
  151.3210  141.0245  156.6536 C   0  0  0  0  0  0  0  0  0  0  0  0
  150.1163  140.2486  156.9278 N   0  0  0  0  0  0  0  0  0  0  0  0
  148.8150  140.7488  156.4656 C   0  0  0  0  0  0  0  0  0  0  0  0
  148.3228  140.1604  155.1082 C   0  0  0  0  0  0  0  0  0  0  0  0
  147.1484  139.1780  155.3236 C   0  0  0  0  0  0  0  0  0  0  0  0
  147.8546  141.3402  154.2146 C   0  0  0  0  0  0  0  0  0  0  0  0
  148.8193  142.3709  154.1252 O   0  0  0  0  0  0  0  0  0  0  0  0
  149.4913  139.4257  154.3981 C   0  0  0  0  0  0  0  0  0  0  0  0
  149.0788  138.7350  153.2348 O   0  0  0  0  0  0  0  0  0  0  0  0
  150.2147  139.1013  157.6557 C   0  0  0  0  0  0  0  0  0  0  0  0
  151.4507  138.6072  157.9324 N   0  0  0  0  0  0  0  0  0  0  0  0
  151.5969  137.4901  158.6489 C   0  0  0  0  0  0  0  0  0  0  0  0
  150.6540  136.7168  159.1869 N   0  0  0  0  0  0  0  0  0  0  0  0
  149.4080  137.2032  158.9234 C   0  0  0  0  0  0  0  0  0  0  0  0
  149.0985  138.3724  158.1686 C   0  0  0  0  0  0  0  0  0  0  0  0
  147.7182  138.5415  158.1247 N   0  0  0  0  0  0  0  0  0  0  0  0
  147.2437  137.5347  158.8045 C   0  0  0  0  0  0  0  0  0  0  0  0
  148.1902  136.6876  159.3326 N   0  0  0  0  0  0  0  0  0  0  0  0
  147.9438  135.5015  160.1392 C   0  0  0  0  0  0  0  0  0  0  0  0
  147.1071  135.7836  161.4097 C   0  0  1  0  0  0  0  0  0  0  0  0
  147.3373  137.1198  161.8238 O   0  0  0  0  0  0  0  0  0  0  0  0
  145.6109  135.6029  161.1897 C   0  0  0  0  0  0  0  0  0  0  0  0
  145.1119  135.2281  162.5786 C   0  0  0  0  0  0  0  0  0  0  0  0
  146.1337  134.3744  163.0651 O   0  0  0  0  0  0  0  0  0  0  0  0
  147.3958  134.8459  162.6009 C   0  0  0  0  0  0  0  0  0  0  0  0
  151.9549  141.0818  157.5390 H   0  0  0  0  0  0  0  0  0  0  0  0
  151.0741  142.0446  156.3596 H   0  0  0  0  0  0  0  0  0  0  0  0
  151.8954  140.5754  155.8437 H   0  0  0  0  0  0  0  0  0  0  0  0
  148.0590  140.6025  157.2369 H   0  0  0  0  0  0  0  0  0  0  0  0
  148.8920  141.8320  156.3675 H   0  0  0  0  0  0  0  0  0  0  0  0
  146.7155  138.8587  154.3753 H   0  0  0  0  0  0  0  0  0  0  0  0
  146.3475  139.6322  155.9076 H   0  0  0  0  0  0  0  0  0  0  0  0
  147.4670  138.2779  155.8492 H   0  0  0  0  0  0  0  0  0  0  0  0
  147.6337  140.9899  153.2059 H   0  0  0  0  0  0  0  0  0  0  0  0
  146.9355  141.7833  154.5994 H   0  0  0  0  0  0  0  0  0  0  0  0
  148.6757  142.9787  154.8343 H   0  0  0  0  0  0  0  0  0  0  0  0
  150.2756  140.1307  154.1202 H   0  0  0  0  0  0  0  0  0  0  0  0
  149.9461  138.6901  155.0612 H   0  0  0  0  0  0  0  0  0  0  0  0
  149.0990  139.3360  152.5058 H   0  0  0  0  0  0  0  0  0  0  0  0
  152.6155  137.1723  158.8163 H   0  0  0  0  0  0  0  0  0  0  0  0
  146.1832  137.3871  158.9494 H   0  0  0  0  0  0  0  0  0  0  0  0
  147.4444  134.7602  159.5139 H   0  0  0  0  0  0  0  0  0  0  0  0
  148.9067  135.0687  160.4131 H   0  0  0  0  0  0  0  0  0  0  0  0
  146.9308  137.2456  162.6675 H   0  0  0  0  0  0  0  0  0  0  0  0
  145.1164  136.4838  160.7779 H   0  0  0  0  0  0  0  0  0  0  0  0
  145.4262  134.7700  160.5098 H   0  0  0  0  0  0  0  0  0  0  0  0
  145.0344  136.1086  163.2184 H   0  0  0  0  0  0  0  0  0  0  0  0
  144.1439  134.7274  162.5603 H   0  0  0  0  0  0  0  0  0  0  0  0
  147.9864  133.9783  162.3095 H   0  0  0  0  0  0  0  0  0  0  0  0
  147.9324  135.3501  163.4061 H   0  0  0  0  0  0  0  0  0  0  0  0
  1  2  1  0  0  0  0
  1 26  1  0  0  0  0
  1 27  1  0  0  0  0
  1 28  1  0  0  0  0
  2  3  1  0  0  0  0
  2 10  1  0  0  0  0
  3  4  1  0  0  0  0
  3 29  1  0  0  0  0
  3 30  1  0  0  0  0
  4  5  1  0  0  0  0
  4  6  1  0  0  0  0
  4  8  1  0  0  0  0
  5 31  1  0  0  0  0
  5 32  1  0  0  0  0
  5 33  1  0  0  0  0
  6  7  1  0  0  0  0
  6 34  1  0  0  0  0
  6 35  1  0  0  0  0
  7 36  1  0  0  0  0
  8  9  1  0  0  0  0
  8 37  1  0  0  0  0
  8 38  1  0  0  0  0
  9 39  1  0  0  0  0
 10 15  1  0  0  0  0
 10 11  2  0  0  0  0
 11 12  1  0  0  0  0
 12 13  2  0  0  0  0
 12 40  1  0  0  0  0
 13 14  1  0  0  0  0
 14 18  1  0  0  0  0
 14 15  2  0  0  0  0
 15 16  1  0  0  0  0
 16 17  2  0  0  0  0
 17 18  1  0  0  0  0
 17 41  1  0  0  0  0
 18 19  1  0  0  0  0
 19 20  1  0  0  0  0
 19 42  1  0  0  0  0
 19 43  1  0  0  0  0
 20 25  1  0  0  0  0
 20 21  1  0  0  0  0
 20 22  1  0  0  0  0
 21 44  1  0  0  0  0
 22 23  1  0  0  0  0
 22 45  1  0  0  0  0
 22 46  1  0  0  0  0
 23 24  1  0  0  0  0
 23 47  1  0  0  0  0
 23 48  1  0  0  0  0
 24 25  1  0  0  0  0
 25 49  1  0  0  0  0
 25 50  1  0  0  0  0
M  END
> <s_m_source_file>
AV-unprocessed.smi

> <i_m_source_file_index>
93

> <i_lp_mmshare_version>
43012

> <i_f3d_flags>
0

> <s_epik_input>
W09IXVtDSDJdQyhbQ0gzXSkoW0NIMl1bT0hdKVtDSDJdTihbQ0gzXSljKG5bY0hdbjEpYyhjMTIpbltjSF1uMltDSDJdW0NAQF0zKFtPSF0pW0NIMl1bQ0gyXU9bQ0gyXTM=

> <s_epik_cmdline>
J2VwaWtfcHl0aG9uJywgJy1waCcsICc3LjAnLCAnLXRuJywgJzgnLCAnLW1hJywgJzIwMCcsICctbWV0YWxfYmluZGluZycsICctaW1hZScsICc8aW5maWxlLm1hZT4nLCAnLW9tYWUnLCAnPG91dGZpbGUubWFlPic=

> <r_lp_tautomer_probability>
1

> <r_epik_Ionization_Penalty>
0.00325397

> <r_epik_Ionization_Penalty_Charging>
0

> <r_epik_Ionization_Penalty_Neutral>
0.00325397

> <r_epik_State_Penalty>
0.00225047

> <r_epik_Charging_Adjusted_Penalty>
0.00225047

> <i_epik_Tot_Q>
0

> <i_epik_Tot_abs_Q>
0

> <r_epik_Metal_State_Penalty>
-0

> <b_epik_Metal_Only>
0

> <s_lp_Force_Field>
OPLS_2005

> <r_lp_Energy>
39.2325

> <b_lp_Chiralities_Consistent>
1

> <s_lp_Variant>
AV-unprocessed.smi:93-1

> <Gold.Version>
5.8.1

> <Gold.Id.Protein>
6NUR|6NUR_protein|mol2

> <Gold.PLP.Fitness>
51.7509

> <Gold.PLP.PLP>
-40.8744

> <Gold.PLP.part.hbond>
-8.2511

> <Gold.PLP.part.metal>
0.0000

> <Gold.PLP.part.buried>
-8.0111

> <Gold.PLP.part.nonpolar>
-24.6038

> <Gold.PLP.part.repulsive>
0.0077

> <Gold.PLP.ligand.clash>
0.0000

> <Gold.PLP.ligand.torsion>
2.1067

> <Gold.PLP.Chemscore.Hbond>
4.8920

> <Gold.PLP.Chemscore.CHOScore>
0.0000

> <Gold.PLP.Chemscore.Metal>
0.0000

> <Gold.Chemscore.Hbonds>
donor molecule, donor type, donor heavy atom, donor atom, acceptor molecule, acceptor atom, score
      L1  H     7    36       P1  8028  1.00
      L1  H     9    39       P1  7957  1.00
      P1  H  6896  6908       L1    13  1.00
      P1  H  6931  6943       L1    21  0.92
      P1  H  6934  6947       L1    21  0.68
      P1  H  8011  8017       L1     7  0.21

> <Gold.PLP.Chemscore.Internal.Correction>
0.4139

> <Gold.Rescore>
     Score         DG    S(hbond)    S(metal)    S(lipo)     H(rot)  DE(clash)    DE(int)     intcor
     10.82     -15.45       4.21        0.00      65.78       4.60       0.43       4.20       ----

> <Gold.Chemscore.Fitness>
10.8237

> <Gold.Chemscore.DG>
-15.4535

> <Gold.Chemscore.ZeroCoef>
-5.4800

> <Gold.Chemscore.Hbond>
4.2083

> <Gold.Chemscore.Metal>
0.0000

> <Gold.Chemscore.Lipo>
65.7831

> <Gold.Chemscore.Internal_Hbond>
0.0000

> <Gold.Chemscore.DEClash>
0.4315

> <Gold.Chemscore.DEInternal>
4.1982

> <Gold.Chemscore.Rot>
4.6010

> <Gold.Chemscore.Internal.Correction>
   9.000000E+99

> <Gold.Chemscore.Hbonds>
donor molecule, donor type, donor heavy atom, donor atom, acceptor molecule, acceptor atom, score
      L1  H     7    36       P1  8028  0.95
      L1  H     9    39       P1  7957  0.98
      P1  H  6896  6908       L1    13  0.98
      P1  H  6931  6943       L1    21  0.37
      P1  H  6934  6947       L1    21  0.23
      P1  H  8011  8017       L1     7  0.17

> <Gold.Chemscore.Hbond.Weighted>
-14.0556

> <Gold.Chemscore.Metal.Weighted>
-0.0000

> <Gold.Chemscore.Lipo.Weighted>
-7.6966

> <Gold.Chemscore.Internal_Hbond.Weighted>
0.0000

> <Gold.Chemscore.DEClash.Weighted>
0.4315

> <Gold.Chemscore.DEInternal.Weighted>
4.1982

> <Gold.Chemscore.Rot.Weighted>
11.7787

> <Gold.Chemscore.Internal.Correction.Weighted>
   9.000000E+99

> <Gold.Protein.RotatedTorsions>
[ 6907 6896 6895 6894 ] final -150.55 input  -60.11 | X-H torsion
[ 7974 7965 7964 7962 ] final  102.08 input  175.53 | X-H torsion
[ 8008 7997 7996 7995 ] final -117.24 input   59.86 | X-H torsion
[ 10167 10162 10161 10158 ] final  -87.49 input  -65.29 | X-H torsion
[ 10718 10713 10712 10709 ] final  119.23 input   66.30 | X-H torsion
[ 10763 10752 10751 10750 ] final -121.44 input  -60.55 | X-H torsion
[ 11005 11000 10999 10996 ] final   26.49 input  -57.11 | X-H torsion

> <Gold.Protein.ActiveResidues>
 VAL166  LYS551  ARG553  GLY616  TRP617  ASP618  TYR619  PRO620  LYS621  CYS622 
 ASP623  PHE694  ASN695  SER759  ASP760  ASP761  ALA762  ILE779  LEU786  VAL792 
 PHE793  MET794  SER795  GLU796  ALA797  LYS798  CYS799  TRP800  GLU811  SER814 

> <Gold.Protein.RotatedAtoms>
  151.2002  133.4615  159.2595 H   0  0  0  0  0  0  0  0  0  0  0  0  # atno 6907 bound_to 6896
  151.1077  135.0008  159.8489 H   0  0  0  0  0  0  0  0  0  0  0  0  # atno 6908 bound_to 6896
  152.5448  134.1924  159.8732 H   0  0  0  0  0  0  0  0  0  0  0  0  # atno 6909 bound_to 6896
  145.3639  139.2412  143.3492 H   0  0  0  0  0  0  0  0  0  0  0  0  # atno 7974 bound_to 7965
  155.0806  140.0394  157.2638 H   0  0  0  0  0  0  0  0  0  0  0  0  # atno 8008 bound_to 7997
  154.6909  140.2653  155.6788 H   0  0  0  0  0  0  0  0  0  0  0  0  # atno 8009 bound_to 7997
  156.2728  140.2759  156.1487 H   0  0  0  0  0  0  0  0  0  0  0  0  # atno 8010 bound_to 7997
  140.3839  143.2736  151.9349 H   0  0  0  0  0  0  0  0  0  0  0  0  # atno 10167 bound_to 10162
  157.5976  131.1056  150.7867 H   0  0  0  0  0  0  0  0  0  0  0  0  # atno 10718 bound_to 10713
  154.8668  135.4168  154.2620 H   0  0  0  0  0  0  0  0  0  0  0  0  # atno 10763 bound_to 10752
  153.3546  135.7000  153.6766 H   0  0  0  0  0  0  0  0  0  0  0  0  # atno 10764 bound_to 10752
  153.5692  135.3594  155.2803 H   0  0  0  0  0  0  0  0  0  0  0  0  # atno 10765 bound_to 10752
  140.3364  134.2381  155.7695 H   0  0  0  0  0  0  0  0  0  0  0  0  # atno 11005 bound_to 11000
  146.2915  140.4278  142.8737 LP  0  0  0  0  0  0  0  0  0  0  0  0  # atno 17320 bound_to 7965
  144.8626  140.7161  143.6097 LP  0  0  0  0  0  0  0  0  0  0  0  0  # atno 17321 bound_to 7965
  139.4793  144.5792  151.7961 LP  0  0  0  0  0  0  0  0  0  0  0  0  # atno 17342 bound_to 10162
  140.4909  144.1312  150.5950 LP  0  0  0  0  0  0  0  0  0  0  0  0  # atno 17343 bound_to 10162
  156.8273  130.5004  149.5336 LP  0  0  0  0  0  0  0  0  0  0  0  0  # atno 17370 bound_to 10713
  156.1042  130.5992  150.9944 LP  0  0  0  0  0  0  0  0  0  0  0  0  # atno 17371 bound_to 10713
  141.2050  133.7872  157.0257 LP  0  0  0  0  0  0  0  0  0  0  0  0  # atno 17394 bound_to 11000
  140.0817  134.9644  157.1635 LP  0  0  0  0  0  0  0  0  0  0  0  0  # atno 17395 bound_to 11000

$$$$
