#       Name:                AV-unprocessed.smi:1815
#       Creating user name   scv26
#       Creation time:       Fri Mar 27 09:01:57 2020


#       File generated by GOLD software.
#

@<TRIPOS>MOLECULE
AV-unprocessed.smi:1815
    45    46     1
SMALL
NO_CHARGES


@<TRIPOS>ATOM
      1 ****        -4.0751   3.2442   1.3922 C.3            1 S1                 0.0000
      2 ****        -3.4840   1.8885   0.9923 C.3            1 S1                 0.0000
      3 ****        -1.9870   1.9860   0.6439 C.3            1 S1                 0.0000
      4 ****        -1.4109   0.6822   0.3359 N.3            1 S1                 0.0000
      5 ****         0.0067   0.8045  -0.0009 C.3            1 S1                 0.0000
      6 ****         0.6528  -0.4684  -0.5706 C.3            1 S1                 0.0000
      7 ****         2.0325  -0.2040  -0.9548 N.am           1 S1                 0.0000
      8 ****         2.8435  -1.0750  -1.5701 C.2            1 S1                 0.0000
      9 ****         2.4310  -2.2020  -1.8543 O.2            1 S1                 0.0000
     10 ****         4.0808  -0.5871  -1.8168 N.pl3          1 S1                -1.0000
     11 ****         4.9931  -1.3506  -2.4401 C.2            1 S1                 0.0000
     12 ****         5.2929  -1.2148  -3.7369 N.2            1 S1                 0.0000
     13 ****         6.2734  -2.1056  -4.1769 C.2            1 S1                 0.0000
     14 ****         6.7380  -2.9334  -3.1898 C.2            1 S1                 0.0000
     15 ****         5.9534  -2.6164  -1.6688 S.3            1 S1                 0.0000
     16 ****        -1.6450  -0.2159   1.4641 C.3            1 S1                 0.0000
     17 ****        -3.1408  -0.3164   1.8206 C.3            1 S1                 0.0000
     18 ****        -3.3852  -1.1869   3.0579 C.3            1 S1                 0.0000
     19 ****        -3.6488   0.9886   2.0846 O.3            1 S1                 0.0000
     20 ****        -3.9782   3.9679   0.5827 H              1 S1                 0.0000
     21 ****        -3.5705   3.6516   2.2688 H              1 S1                 0.0000
     22 ****        -5.1348   3.1517   1.6307 H              1 S1                 0.0000
     23 ****        -4.0353   1.5056   0.1316 H              1 S1                 0.0000
     24 ****        -1.8583   2.6549  -0.2078 H              1 S1                 0.0000
     25 ****        -1.4488   2.4385   1.4786 H              1 S1                 0.0000
     26 ****         0.1213   1.5923  -0.7470 H              1 S1                 0.0000
     27 ****         0.5659   1.1386   0.8747 H              1 S1                 0.0000
     28 ****         0.6483  -1.2743   0.1635 H              1 S1                 0.0000
     29 ****         0.0914  -0.8141  -1.4401 H              1 S1                 0.0000
     30 ****         2.4040   0.7094  -0.7396 H              1 S1                 0.0000
     31 ****         6.5814  -2.0801  -5.2116 H              1 S1                 0.0000
     32 ****         7.4894  -3.7047  -3.2630 H              1 S1                 0.0000
     33 ****        -1.2753  -1.2144   1.2341 H              1 S1                 0.0000
     34 ****        -1.0857   0.1325   2.3339 H              1 S1                 0.0000
     35 ****        -3.6877  -0.7437   0.9784 H              1 S1                 0.0000
     36 ****        -3.0237  -2.2032   2.9004 H              1 S1                 0.0000
     37 ****        -4.4490  -1.2447   3.2895 H              1 S1                 0.0000
     38 ****        -2.8759  -0.7815   3.9325 H              1 S1                 0.0000
     39 ****        -1.8549   0.2932  -0.4714 LP             1 S1                 0.0000
     40 ****         1.4934  -2.4637  -1.6255 LP             1 S1                 0.0000
     41 ****         3.0342  -2.8541  -2.3136 LP             1 S1                 0.0000
     42 ****         4.3164   0.3429  -1.5349 LP             1 S1                 0.0000
     43 ****         4.8569  -0.5406  -4.3331 LP             1 S1                 0.0000
     44 ****        -4.6246   0.9139   2.2900 LP             1 S1                 0.0000
     45 ****        -3.1687   1.3616   2.8785 LP             1 S1                 0.0000
@<TRIPOS>BOND
    1    1    2 1     
    2    1   20 1     
    3    1   21 1     
    4    1   22 1     
    5    2   19 1     
    6    2    3 1     
    7    2   23 1     
    8    3    4 1     
    9    3   24 1     
   10    3   25 1     
   11    4    5 1     
   12    4   16 1     
   13    5    6 1     
   14    5   26 1     
   15    5   27 1     
   16    6    7 1     
   17    6   28 1     
   18    6   29 1     
   19    7    8 am    
   20    7   30 1     
   21    8    9 2     
   22    8   10 1     
   23   10   11 1     
   24   11   15 1     
   25   11   12 2     
   26   12   13 1     
   27   13   14 2     
   28   13   31 1     
   29   14   15 1     
   30   14   32 1     
   31   16   17 1     
   32   16   33 1     
   33   16   34 1     
   34   17   18 1     
   35   17   19 1     
   36   17   35 1     
   37   18   36 1     
   38   18   37 1     
   39   18   38 1     
   40    4   39 1     
   41    9   40 1     
   42    9   41 1     
   43   10   42 1     
   44   12   43 1     
   45   19   44 1     
   46   19   45 1     
@<TRIPOS>SUBSTRUCTURE
      1 S1             1
@<TRIPOS>SET
LONE_PAIRS      STATIC     ATOMS    <user>   **** ""
7 39 40 41 42 43 44 45
DONOR_HYDROGENS      STATIC     ATOMS    <user>   **** ""
1 30
ATOM$BLUE        STATIC     ATOMS    COLORGROUP SYSTEM
7 39 40 41 42 43 44 45
ATOM$RED        STATIC     ATOMS    COLORGROUP SYSTEM
1 30
