#       Name:                AV-unprocessed.smi:1648
#       Creating user name   scv26
#       Creation time:       Fri Mar 27 07:33:17 2020


#       File generated by GOLD software.
#

@<TRIPOS>MOLECULE
AV-unprocessed.smi:1648
    46    46     1
SMALL
NO_CHARGES


@<TRIPOS>ATOM
      1 ****        -2.0366   0.6575  -2.9748 C.3            1 S1                 0.0000
      2 ****        -2.3428  -0.8416  -2.9757 C.2            1 S1                 0.0000
      3 ****        -2.6493  -1.3941  -4.0296 O.2            1 S1                 0.0000
      4 ****        -2.2753  -1.5287  -1.8220 N.am           1 S1                 0.0000
      5 ****        -2.5301  -2.9576  -1.6170 C.3            1 S1                 0.0000
      6 ****        -4.0469  -3.1724  -1.4524 C.2            1 S1                 0.0000
      7 ****        -4.7051  -2.4501  -0.7022 O.2            1 S1                 0.0000
      8 ****        -4.5790  -4.1869  -2.1520 N.am           1 S1                 0.0000
      9 ****        -5.9846  -4.5798  -2.1420 C.3            1 S1                 0.0000
     10 ****        -6.2654  -5.5036  -0.9421 C.3            1 S1                 0.0000
     11 ****        -6.3343  -5.2217  -3.4992 C.3            1 S1                 0.0000
     12 ****        -7.7210  -5.6403  -3.5834 N.pl3          1 S1                 0.0000
     13 ****        -8.8332  -4.8238  -3.7405 C.2            1 S1                 0.0000
     14 ****        -9.9301  -5.6550  -3.7710 C.2            1 S1                 0.0000
     15 ****        -9.5187  -6.9791  -3.6399 N.2            1 S1                 0.0000
     16 ****        -8.1989  -6.8917  -3.5365 C.2            1 S1                 0.0000
     17 ****        -1.7878  -3.4182  -0.3275 C.3            1 S1                 0.0000
     18 ****        -0.2713  -3.1534  -0.4133 C.3            1 S1                 0.0000
     19 ****        -2.0199  -4.9069   0.0069 C.3            1 S1                 0.0000
     20 ****        -1.0276   0.8490  -2.6100 H              1 S1                 0.0000
     21 ****        -2.7462   1.1968  -2.3474 H              1 S1                 0.0000
     22 ****        -2.1081   1.0632  -3.9845 H              1 S1                 0.0000
     23 ****        -2.0374  -1.0025  -0.9936 H              1 S1                 0.0000
     24 ****        -2.1588  -3.5336  -2.4664 H              1 S1                 0.0000
     25 ****        -3.9604  -4.7307  -2.7361 H              1 S1                 0.0000
     26 ****        -6.5972  -3.6827  -2.0320 H              1 S1                 0.0000
     27 ****        -7.3227  -5.7603  -0.8731 H              1 S1                 0.0000
     28 ****        -5.9907  -5.0245  -0.0021 H              1 S1                 0.0000
     29 ****        -5.7006  -6.4334  -1.0184 H              1 S1                 0.0000
     30 ****        -6.1447  -4.5168  -4.3101 H              1 S1                 0.0000
     31 ****        -5.6986  -6.0892  -3.6842 H              1 S1                 0.0000
     32 ****        -8.7539  -3.7491  -3.8130 H              1 S1                 0.0000
     33 ****       -10.9750  -5.4040  -3.8778 H              1 S1                 0.0000
     34 ****        -7.5652  -7.7587  -3.4199 H              1 S1                 0.0000
     35 ****        -2.1644  -2.8363   0.5159 H              1 S1                 0.0000
     36 ****         0.1732  -3.6760  -1.2609 H              1 S1                 0.0000
     37 ****         0.2385  -3.4930   0.4888 H              1 S1                 0.0000
     38 ****        -0.0467  -2.0924  -0.5216 H              1 S1                 0.0000
     39 ****        -1.7207  -5.5488  -0.8223 H              1 S1                 0.0000
     40 ****        -3.0642  -5.1205   0.2352 H              1 S1                 0.0000
     41 ****        -1.4419  -5.2070   0.8814 H              1 S1                 0.0000
     42 ****        -2.6968  -0.8643  -4.8764 LP             1 S1                 0.0000
     43 ****        -2.8512  -2.3734  -4.0404 LP             1 S1                 0.0000
     44 ****        -4.2555  -1.7162  -0.1932 LP             1 S1                 0.0000
     45 ****        -5.6891  -2.5978  -0.6023 LP             1 S1                 0.0000
     46 ****       -10.0854  -7.8029  -3.6268 LP             1 S1                 0.0000
@<TRIPOS>BOND
    1    1    2 1     
    2    1   20 1     
    3    1   21 1     
    4    1   22 1     
    5    2    3 2     
    6    2    4 am    
    7    4    5 1     
    8    4   23 1     
    9    5    6 1     
   10    5   17 1     
   11    5   24 1     
   12    6    7 2     
   13    6    8 am    
   14    8    9 1     
   15    8   25 1     
   16    9   10 1     
   17    9   11 1     
   18    9   26 1     
   19   10   27 1     
   20   10   28 1     
   21   10   29 1     
   22   11   12 1     
   23   11   30 1     
   24   11   31 1     
   25   12   16 1     
   26   12   13 1     
   27   13   14 2     
   28   13   32 1     
   29   14   15 1     
   30   14   33 1     
   31   15   16 2     
   32   16   34 1     
   33   17   18 1     
   34   17   19 1     
   35   17   35 1     
   36   18   36 1     
   37   18   37 1     
   38   18   38 1     
   39   19   39 1     
   40   19   40 1     
   41   19   41 1     
   42    3   42 1     
   43    3   43 1     
   44    7   44 1     
   45    7   45 1     
   46   15   46 1     
@<TRIPOS>SUBSTRUCTURE
      1 S1             1
@<TRIPOS>SET
LONE_PAIRS      STATIC     ATOMS    <user>   **** ""
5 42 43 44 45 46
DONOR_HYDROGENS      STATIC     ATOMS    <user>   **** ""
2 23 25
ATOM$BLUE        STATIC     ATOMS    COLORGROUP SYSTEM
5 42 43 44 45 46
ATOM$RED        STATIC     ATOMS    COLORGROUP SYSTEM
2 23 25
