AV-unprocessed.smi:258|AV-procd|sdf|1966|dock9
  -GOLD-   2262021123D 1   1.00000     0.00000
 Structure written by MMmdl.
 57 60  0  0  0  0  0  0  0  0  1 V2000
  143.8426  133.3284  149.3084 O   0  0  0  0  0  0  0  0  0  0  0  0
  144.3118  133.5077  150.6279 C   0  0  0  0  0  0  0  0  0  0  0  0
  145.8336  133.3259  150.6797 C   0  0  0  0  0  0  0  0  0  0  0  0
  146.1364  131.9384  150.6455 O   0  0  0  0  0  0  0  0  0  0  0  0
  146.2155  131.3222  151.9239 C   0  0  1  0  0  0  0  0  0  0  0  0
  146.0610  129.7922  151.8105 C   0  0  0  0  0  0  0  0  0  0  0  0
  146.2979  129.1321  153.1771 C   0  0  0  0  0  0  0  0  0  0  0  0
  147.6616  129.5391  153.7578 C   0  0  0  0  0  0  0  0  0  0  0  0
  147.7939  130.9964  153.8030 N   0  0  0  0  0  0  0  0  0  0  0  0
  148.7836  131.5187  154.5718 C   0  0  0  0  0  0  0  0  0  0  0  0
  149.6568  130.6926  155.2091 N   0  0  0  0  0  0  0  0  0  0  0  0
  150.6416  131.1973  155.9580 C   0  0  0  0  0  0  0  0  0  0  0  0
  150.9316  132.4762  156.2045 N   0  0  0  0  0  0  0  0  0  0  0  0
  150.0543  133.3099  155.5767 C   0  0  0  0  0  0  0  0  0  0  0  0
  148.9615  132.9201  154.7516 C   0  0  0  0  0  0  0  0  0  0  0  0
  148.2844  134.0485  154.3021 N   0  0  0  0  0  0  0  0  0  0  0  0
  148.9471  135.0466  154.8195 C   0  0  0  0  0  0  0  0  0  0  0  0
  150.0240  134.6923  155.6002 N   0  0  0  0  0  0  0  0  0  0  0  0
  150.9311  135.5910  156.2921 C   0  0  0  0  0  0  0  0  0  0  0  0
  150.6579  137.0881  156.0014 C   0  0  2  0  0  0  0  0  0  0  0  0
  151.0923  137.5122  154.5774 C   0  0  0  0  0  0  0  0  0  0  0  0
  152.1514  136.7082  154.0995 O   0  0  0  0  0  0  0  0  0  0  0  0
  151.2683  137.9989  157.0965 C   0  0  2  0  0  0  0  0  0  0  0  0
  151.0128  139.4837  156.9062 C   0  0  0  0  0  0  0  0  0  0  0  0
  152.0701  140.1107  157.8087 C   0  0  0  0  0  0  0  0  0  0  0  0
  153.1757  139.2144  157.7877 O   0  0  0  0  0  0  0  0  0  0  0  0
  152.7990  137.9915  157.1625 C   0  0  0  0  0  0  0  0  0  0  0  0
  147.5881  131.6749  152.5232 C   0  0  0  0  0  0  0  0  0  0  0  0
  142.9267  133.5590  149.2815 H   0  0  0  0  0  0  0  0  0  0  0  0
  144.0145  134.4846  151.0101 H   0  0  0  0  0  0  0  0  0  0  0  0
  143.8294  132.7560  151.2529 H   0  0  0  0  0  0  0  0  0  0  0  0
  146.2757  133.7971  149.8007 H   0  0  0  0  0  0  0  0  0  0  0  0
  146.2540  133.8199  151.5562 H   0  0  0  0  0  0  0  0  0  0  0  0
  145.4434  131.7254  152.5822 H   0  0  0  0  0  0  0  0  0  0  0  0
  145.0699  129.5252  151.4449 H   0  0  0  0  0  0  0  0  0  0  0  0
  146.7772  129.4020  151.0863 H   0  0  0  0  0  0  0  0  0  0  0  0
  145.5062  129.4293  153.8659 H   0  0  0  0  0  0  0  0  0  0  0  0
  146.2393  128.0473  153.0860 H   0  0  0  0  0  0  0  0  0  0  0  0
  147.7666  129.1206  154.7599 H   0  0  0  0  0  0  0  0  0  0  0  0
  148.4649  129.1239  153.1476 H   0  0  0  0  0  0  0  0  0  0  0  0
  151.2908  130.4718  156.4256 H   0  0  0  0  0  0  0  0  0  0  0  0
  148.6626  136.0753  154.6514 H   0  0  0  0  0  0  0  0  0  0  0  0
  150.8475  135.3859  157.3595 H   0  0  0  0  0  0  0  0  0  0  0  0
  151.9522  135.3328  156.0088 H   0  0  0  0  0  0  0  0  0  0  0  0
  149.5758  137.2224  156.0402 H   0  0  0  0  0  0  0  0  0  0  0  0
  150.2593  137.4446  153.8776 H   0  0  0  0  0  0  0  0  0  0  0  0
  151.4091  138.5547  154.5611 H   0  0  0  0  0  0  0  0  0  0  0  0
  151.8756  136.2948  153.2957 H   0  0  0  0  0  0  0  0  0  0  0  0
  150.8778  137.7085  158.0732 H   0  0  0  0  0  0  0  0  0  0  0  0
  151.1887  139.7715  155.8686 H   0  0  0  0  0  0  0  0  0  0  0  0
  150.0014  139.7867  157.1781 H   0  0  0  0  0  0  0  0  0  0  0  0
  152.3588  141.1099  157.4818 H   0  0  0  0  0  0  0  0  0  0  0  0
  151.7011  140.1822  158.8326 H   0  0  0  0  0  0  0  0  0  0  0  0
  153.1898  137.1357  157.7132 H   0  0  0  0  0  0  0  0  0  0  0  0
  153.2299  137.9737  156.1605 H   0  0  0  0  0  0  0  0  0  0  0  0
  148.3816  131.3709  151.8388 H   0  0  0  0  0  0  0  0  0  0  0  0
  147.6665  132.7565  152.6262 H   0  0  0  0  0  0  0  0  0  0  0  0
  1  2  1  0  0  0  0
  1 29  1  0  0  0  0
  2  3  1  0  0  0  0
  2 30  1  0  0  0  0
  2 31  1  0  0  0  0
  3  4  1  0  0  0  0
  3 32  1  0  0  0  0
  3 33  1  0  0  0  0
  4  5  1  0  0  0  0
  5 28  1  0  0  0  0
  5  6  1  0  0  0  0
  5 34  1  0  0  0  0
  6  7  1  0  0  0  0
  6 35  1  0  0  0  0
  6 36  1  0  0  0  0
  7  8  1  0  0  0  0
  7 37  1  0  0  0  0
  7 38  1  0  0  0  0
  8  9  1  0  0  0  0
  8 39  1  0  0  0  0
  8 40  1  0  0  0  0
  9 10  1  0  0  0  0
  9 28  1  0  0  0  0
 10 15  1  0  0  0  0
 10 11  2  0  0  0  0
 11 12  1  0  0  0  0
 12 13  2  0  0  0  0
 12 41  1  0  0  0  0
 13 14  1  0  0  0  0
 14 18  1  0  0  0  0
 14 15  2  0  0  0  0
 15 16  1  0  0  0  0
 16 17  2  0  0  0  0
 17 18  1  0  0  0  0
 17 42  1  0  0  0  0
 18 19  1  0  0  0  0
 19 20  1  0  0  0  0
 19 43  1  0  0  0  0
 19 44  1  0  0  0  0
 20 21  1  0  0  0  0
 20 23  1  0  0  0  0
 20 45  1  0  0  0  0
 21 22  1  0  0  0  0
 21 46  1  0  0  0  0
 21 47  1  0  0  0  0
 22 48  1  0  0  0  0
 23 27  1  0  0  0  0
 23 24  1  0  0  0  0
 23 49  1  0  0  0  0
 24 25  1  0  0  0  0
 24 50  1  0  0  0  0
 24 51  1  0  0  0  0
 25 26  1  0  0  0  0
 25 52  1  0  0  0  0
 25 53  1  0  0  0  0
 26 27  1  0  0  0  0
 27 54  1  0  0  0  0
 27 55  1  0  0  0  0
 28 56  1  0  0  0  0
 28 57  1  0  0  0  0
M  END
> <s_m_source_file>
AV-unprocessed.smi

> <i_m_source_file_index>
258

> <i_lp_mmshare_version>
43012

> <i_f3d_flags>
0

> <s_epik_input>
W09IXVtDSDJdW0NIMl1PW0NAQEhdMVtDSDJdW0NIMl1bQ0gyXU4oW0NIMl0xKWMobltjSF1uMiljKGMyMyluW2NIXW4zW0NIMl1bQ0BIXShbQ0gyXVtPSF0pW0NAQEhdNFtDSDJdW0NIMl1PW0NIMl00

> <s_epik_cmdline>
J2VwaWtfcHl0aG9uJywgJy1waCcsICc3LjAnLCAnLXRuJywgJzgnLCAnLW1hJywgJzIwMCcsICctbWV0YWxfYmluZGluZycsICctaW1hZScsICc8aW5maWxlLm1hZT4nLCAnLW9tYWUnLCAnPG91dGZpbGUubWFlPic=

> <r_lp_tautomer_probability>
1

> <r_epik_Ionization_Penalty>
0.00349036

> <r_epik_Ionization_Penalty_Charging>
0

> <r_epik_Ionization_Penalty_Neutral>
0.00349036

> <r_epik_State_Penalty>
0.00229798

> <r_epik_Charging_Adjusted_Penalty>
0.00229798

> <i_epik_Tot_Q>
0

> <i_epik_Tot_abs_Q>
0

> <r_epik_Metal_State_Penalty>
-0

> <b_epik_Metal_Only>
0

> <s_lp_Force_Field>
OPLS_2005

> <r_lp_Energy>
45.891

> <b_lp_Chiralities_Consistent>
1

> <s_lp_Variant>
AV-unprocessed.smi:258-2

> <Gold.Version>
5.8.1

> <Gold.Id.Protein>
6NUR|6NUR_protein|mol2

> <Gold.PLP.Fitness>
49.5564

> <Gold.PLP.PLP>
-39.7590

> <Gold.PLP.part.hbond>
-4.0000

> <Gold.PLP.part.metal>
0.0000

> <Gold.PLP.part.buried>
-4.4657

> <Gold.PLP.part.nonpolar>
-31.9804

> <Gold.PLP.part.repulsive>
0.3352

> <Gold.PLP.ligand.clash>
0.1153

> <Gold.PLP.ligand.torsion>
1.3305

> <Gold.PLP.Chemscore.Hbond>
3.9280

> <Gold.PLP.Chemscore.CHOScore>
0.0790

> <Gold.PLP.Chemscore.Metal>
0.0000

> <Gold.Chemscore.Hbonds>
donor molecule, donor type, donor heavy atom, donor atom, acceptor molecule, acceptor atom, score
      L1  H     1    29       P1 10186  0.78
      L1  H    22    48       P1  7949  1.00
      P1  H  7997  8010       L1    26  1.00
      P1  H 10752 10763       L1    22  0.27
      L1  C    17    42       P1  7948  0.13

> <Gold.PLP.Chemscore.Internal.Correction>
0.5527

> <Gold.Rescore>
     Score         DG    S(hbond)    S(metal)    S(lipo)     H(rot)  DE(clash)    DE(int)     intcor
     12.93     -15.51       3.13        0.00      88.78       4.22       1.16       1.42       ----

> <Gold.Chemscore.Fitness>
12.9282

> <Gold.Chemscore.DG>
-15.5083

> <Gold.Chemscore.ZeroCoef>
-5.4800

> <Gold.Chemscore.Hbond>
3.1305

> <Gold.Chemscore.Metal>
0.0000

> <Gold.Chemscore.Lipo>
88.7805

> <Gold.Chemscore.Internal_Hbond>
0.0000

> <Gold.Chemscore.DEClash>
1.1584

> <Gold.Chemscore.DEInternal>
1.4217

> <Gold.Chemscore.Rot>
4.2246

> <Gold.Chemscore.Internal.Correction>
   9.000000E+99

> <Gold.Chemscore.Hbonds>
donor molecule, donor type, donor heavy atom, donor atom, acceptor molecule, acceptor atom, score
      L1  H     1    29       P1 10186  0.77
      L1  H    22    48       P1  7949  0.98
      P1  H  7997  8010       L1    26  0.29
      P1  H 10752 10763       L1    22  0.01

> <Gold.Chemscore.Hbond.Weighted>
-10.4558

> <Gold.Chemscore.Metal.Weighted>
-0.0000

> <Gold.Chemscore.Lipo.Weighted>
-10.3873

> <Gold.Chemscore.Internal_Hbond.Weighted>
0.0000

> <Gold.Chemscore.DEClash.Weighted>
1.1584

> <Gold.Chemscore.DEInternal.Weighted>
1.4217

> <Gold.Chemscore.Rot.Weighted>
10.8149

> <Gold.Chemscore.Internal.Correction.Weighted>
   9.000000E+99

> <Gold.Protein.RotatedTorsions>
[ 6907 6896 6895 6894 ] final  131.26 input  -60.11 | X-H torsion
[ 7974 7965 7964 7962 ] final  -51.64 input  175.53 | X-H torsion
[ 8008 7997 7996 7995 ] final   56.96 input   59.86 | X-H torsion
[ 10167 10162 10161 10158 ] final  -10.62 input  -65.29 | X-H torsion
[ 10718 10713 10712 10709 ] final  149.35 input   66.30 | X-H torsion
[ 10763 10752 10751 10750 ] final   48.67 input  -60.55 | X-H torsion
[ 11005 11000 10999 10996 ] final  155.54 input  -57.11 | X-H torsion

> <Gold.Protein.ActiveResidues>
 VAL166  LYS551  ARG553  GLY616  TRP617  ASP618  TYR619  PRO620  LYS621  CYS622 
 ASP623  PHE694  ASN695  SER759  ASP760  ASP761  ALA762  ILE779  LEU786  VAL792 
 PHE793  MET794  SER795  GLU796  ALA797  LYS798  CYS799  TRP800  GLU811  SER814 

> <Gold.Protein.RotatedAtoms>
  152.3444  133.6105  159.5899 H   0  0  0  0  0  0  0  0  0  0  0  0  # atno 6907 bound_to 6896
  150.7498  133.9671  159.3543 H   0  0  0  0  0  0  0  0  0  0  0  0  # atno 6908 bound_to 6896
  151.7531  135.0828  160.0385 H   0  0  0  0  0  0  0  0  0  0  0  0  # atno 6909 bound_to 6896
  145.9168  140.7868  142.9667 H   0  0  0  0  0  0  0  0  0  0  0  0  # atno 7974 bound_to 7965
  155.5260  140.3481  155.4416 H   0  0  0  0  0  0  0  0  0  0  0  0  # atno 8008 bound_to 7997
  156.0751  140.1372  156.9808 H   0  0  0  0  0  0  0  0  0  0  0  0  # atno 8009 bound_to 7997
  154.4549  140.0957  156.6703 H   0  0  0  0  0  0  0  0  0  0  0  0  # atno 8010 bound_to 7997
  140.7118  143.5728  150.9074 H   0  0  0  0  0  0  0  0  0  0  0  0  # atno 10167 bound_to 10162
  157.2972  131.0864  151.1417 H   0  0  0  0  0  0  0  0  0  0  0  0  # atno 10718 bound_to 10713
  152.9790  135.5937  154.3963 H   0  0  0  0  0  0  0  0  0  0  0  0  # atno 10763 bound_to 10752
  154.3613  135.2767  155.2320 H   0  0  0  0  0  0  0  0  0  0  0  0  # atno 10764 bound_to 10752
  154.4316  135.6035  153.6127 H   0  0  0  0  0  0  0  0  0  0  0  0  # atno 10765 bound_to 10752
  140.1591  134.8622  157.2552 H   0  0  0  0  0  0  0  0  0  0  0  0  # atno 11005 bound_to 11000
  144.6748  140.1912  143.7396 LP  0  0  0  0  0  0  0  0  0  0  0  0  # atno 17320 bound_to 7965
  145.8601  139.2218  143.1721 LP  0  0  0  0  0  0  0  0  0  0  0  0  # atno 17321 bound_to 7965
  139.9454  143.6333  152.3043 LP  0  0  0  0  0  0  0  0  0  0  0  0  # atno 17342 bound_to 10162
  139.6833  144.7654  151.1570 LP  0  0  0  0  0  0  0  0  0  0  0  0  # atno 17343 bound_to 10162
  157.2790  130.6741  149.6057 LP  0  0  0  0  0  0  0  0  0  0  0  0  # atno 17370 bound_to 10713
  155.9670  130.4455  150.5505 LP  0  0  0  0  0  0  0  0  0  0  0  0  # atno 17371 bound_to 10713
  140.2511  134.3682  155.7442 LP  0  0  0  0  0  0  0  0  0  0  0  0  # atno 17394 bound_to 11000
  141.2207  133.7317  156.8937 LP  0  0  0  0  0  0  0  0  0  0  0  0  # atno 17395 bound_to 11000

$$$$
