AV-unprocessed.smi:1601|AV-procd|sdf|6431|dock7
  -GOLD-   22720 7 73D 1   1.00000     0.00000
 Structure written by MMmdl.
 41 42  0  0  0  0  0  0  0  0  1 V2000
  151.6811  139.7292  158.0772 C   0  0  0  0  0  0  0  0  0  0  0  0
  151.0478  141.0792  157.6518 C   0  0  2  0  0  0  0  0  0  0  0  0
  150.8160  141.0633  156.1156 C   0  0  0  0  0  0  0  0  0  0  0  0
  149.4180  140.8374  155.7668 N   0  0  0  0  0  0  0  0  0  0  0  0
  148.9400  140.7970  154.5143 C   0  0  0  0  0  0  0  0  0  0  0  0
  149.6451  140.9692  153.5194 O   0  0  0  0  0  0  0  0  0  0  0  0
  147.4332  140.5292  154.3634 C   0  0  2  0  0  0  0  0  0  0  0  0
  147.0785  140.3076  152.8764 C   0  0  0  0  0  0  0  0  0  0  0  0
  146.6385  141.5868  154.9977 N   0  0  0  0  0  0  0  0  0  0  0  0
  145.8042  142.5190  154.4038 C   0  0  0  0  0  0  0  0  0  0  0  0
  145.3413  143.3514  155.3818 C   0  0  0  0  0  0  0  0  0  0  0  0
  145.9783  142.8730  156.5583 C   0  0  0  0  0  0  0  0  0  0  0  0
  146.7655  141.8374  156.3229 N   0  0  0  0  0  0  0  0  0  0  0  0
  151.8325  142.2476  158.1154 N   0  0  0  0  0  0  0  0  0  0  0  0
  151.2731  143.5264  157.6622 C   0  0  0  0  0  0  0  0  0  0  0  0
  152.0690  144.7414  158.1703 C   0  0  0  0  0  0  0  0  0  0  0  0
  152.1350  144.7124  159.5890 O   0  0  0  0  0  0  0  0  0  0  0  0
  152.7455  143.5228  160.0695 C   0  0  0  0  0  0  0  0  0  0  0  0
  151.9529  142.2997  159.5771 C   0  0  0  0  0  0  0  0  0  0  0  0
  151.1331  138.8692  157.6938 H   0  0  0  0  0  0  0  0  0  0  0  0
  151.6886  139.5979  159.1582 H   0  0  0  0  0  0  0  0  0  0  0  0
  152.7082  139.6470  157.7201 H   0  0  0  0  0  0  0  0  0  0  0  0
  150.0633  141.1299  158.1196 H   0  0  0  0  0  0  0  0  0  0  0  0
  151.0831  142.0155  155.6592 H   0  0  0  0  0  0  0  0  0  0  0  0
  151.4419  140.2977  155.6536 H   0  0  0  0  0  0  0  0  0  0  0  0
  148.7734  140.6892  156.5296 H   0  0  0  0  0  0  0  0  0  0  0  0
  147.2005  139.6053  154.8956 H   0  0  0  0  0  0  0  0  0  0  0  0
  147.7423  139.5748  152.4158 H   0  0  0  0  0  0  0  0  0  0  0  0
  147.1565  141.2315  152.3013 H   0  0  0  0  0  0  0  0  0  0  0  0
  146.0619  139.9295  152.7639 H   0  0  0  0  0  0  0  0  0  0  0  0
  145.6045  142.5154  153.3423 H   0  0  0  0  0  0  0  0  0  0  0  0
  144.6613  144.1828  155.2709 H   0  0  0  0  0  0  0  0  0  0  0  0
  145.9020  143.2511  157.5672 H   0  0  0  0  0  0  0  0  0  0  0  0
  151.2720  143.5839  156.5756 H   0  0  0  0  0  0  0  0  0  0  0  0
  150.2354  143.6125  157.9878 H   0  0  0  0  0  0  0  0  0  0  0  0
  153.0764  144.7470  157.7506 H   0  0  0  0  0  0  0  0  0  0  0  0
  151.5870  145.6672  157.8560 H   0  0  0  0  0  0  0  0  0  0  0  0
  153.7826  143.4739  159.7334 H   0  0  0  0  0  0  0  0  0  0  0  0
  152.7631  143.5476  161.1590 H   0  0  0  0  0  0  0  0  0  0  0  0
  150.9601  142.3066  160.0296 H   0  0  0  0  0  0  0  0  0  0  0  0
  152.4661  141.4165  159.9530 H   0  0  0  0  0  0  0  0  0  0  0  0
  1  2  1  0  0  0  0
  1 20  1  0  0  0  0
  1 21  1  0  0  0  0
  1 22  1  0  0  0  0
  2  3  1  0  0  0  0
  2 14  1  0  0  0  0
  2 23  1  0  0  0  0
  3  4  1  0  0  0  0
  3 24  1  0  0  0  0
  3 25  1  0  0  0  0
  4  5  1  0  0  0  0
  4 26  1  0  0  0  0
  5  6  2  0  0  0  0
  5  7  1  0  0  0  0
  7  8  1  0  0  0  0
  7  9  1  0  0  0  0
  7 27  1  0  0  0  0
  8 28  1  0  0  0  0
  8 29  1  0  0  0  0
  8 30  1  0  0  0  0
  9 13  1  0  0  0  0
  9 10  1  0  0  0  0
 10 11  2  0  0  0  0
 10 31  1  0  0  0  0
 11 12  1  0  0  0  0
 11 32  1  0  0  0  0
 12 13  2  0  0  0  0
 12 33  1  0  0  0  0
 14 19  1  0  0  0  0
 14 15  1  0  0  0  0
 15 16  1  0  0  0  0
 15 34  1  0  0  0  0
 15 35  1  0  0  0  0
 16 17  1  0  0  0  0
 16 36  1  0  0  0  0
 16 37  1  0  0  0  0
 17 18  1  0  0  0  0
 18 19  1  0  0  0  0
 18 38  1  0  0  0  0
 18 39  1  0  0  0  0
 19 40  1  0  0  0  0
 19 41  1  0  0  0  0
M  END
> <s_m_source_file>
AV-unprocessed.smi

> <i_m_source_file_index>
1601

> <i_lp_mmshare_version>
43012

> <i_f3d_flags>
0

> <s_epik_input>
W0NIMl0xW0NIMl1PW0NIMl1bQ0gyXU4xW0NASF0oW0NIM10pW0NIMl1bTkhdQyg9TylbQ0BIXShbQ0gzXSluMltjSF1bY0hdW2NIXW4y

> <s_epik_cmdline>
J2VwaWtfcHl0aG9uJywgJy1waCcsICc3LjAnLCAnLXRuJywgJzgnLCAnLW1hJywgJzIwMCcsICctbWV0YWxfYmluZGluZycsICctaW1hZScsICc8aW5maWxlLm1hZT4nLCAnLW9tYWUnLCAnPG91dGZpbGUubWFlPic=

> <r_lp_tautomer_probability>
1

> <r_epik_Ionization_Penalty>
0.203323

> <r_epik_Ionization_Penalty_Charging>
0

> <r_epik_Ionization_Penalty_Neutral>
0.203323

> <r_epik_State_Penalty>
0.193192

> <r_epik_Charging_Adjusted_Penalty>
0.193192

> <i_epik_Tot_Q>
0

> <i_epik_Tot_abs_Q>
0

> <r_epik_Metal_State_Penalty>
0.193187

> <b_epik_Metal_Only>
0

> <s_lp_Force_Field>
OPLS_2005

> <r_lp_Energy>
34.8704

> <b_lp_Chiralities_Consistent>
1

> <s_lp_Variant>
AV-unprocessed.smi:1601-1

> <Gold.Version>
5.8.1

> <Gold.Id.Protein>
6NUR|6NUR_protein|mol2

> <Gold.PLP.Fitness>
37.2253

> <Gold.PLP.PLP>
-34.6615

> <Gold.PLP.part.hbond>
-2.0000

> <Gold.PLP.part.metal>
0.0000

> <Gold.PLP.part.buried>
-5.1371

> <Gold.PLP.part.nonpolar>
-32.1781

> <Gold.PLP.part.repulsive>
4.3122

> <Gold.PLP.ligand.clash>
0.0000

> <Gold.PLP.ligand.torsion>
0.8383

> <Gold.PLP.Chemscore.Hbond>
1.3520

> <Gold.PLP.Chemscore.CHOScore>
0.0000

> <Gold.PLP.Chemscore.Metal>
0.0000

> <Gold.Chemscore.Hbonds>
donor molecule, donor type, donor heavy atom, donor atom, acceptor molecule, acceptor atom, score
      P1  H  7989  7998       L1     6  0.29
      P1  H  8011  8017       L1     6  1.00

> <Gold.PLP.Chemscore.Internal.Correction>
0.1844

> <Gold.Rescore>
     Score         DG    S(hbond)    S(metal)    S(lipo)     H(rot)  DE(clash)    DE(int)     intcor
     12.02     -15.81       1.31        0.00      89.98       1.79       1.70       2.10       ----

> <Gold.Chemscore.Fitness>
12.0185

> <Gold.Chemscore.DG>
-15.8134

> <Gold.Chemscore.ZeroCoef>
-5.4800

> <Gold.Chemscore.Hbond>
1.3116

> <Gold.Chemscore.Metal>
0.0000

> <Gold.Chemscore.Lipo>
89.9808

> <Gold.Chemscore.Internal_Hbond>
0.0000

> <Gold.Chemscore.DEClash>
1.6954

> <Gold.Chemscore.DEInternal>
2.0995

> <Gold.Chemscore.Rot>
1.7872

> <Gold.Chemscore.Internal.Correction>
   9.000000E+99

> <Gold.Chemscore.Hbonds>
donor molecule, donor type, donor heavy atom, donor atom, acceptor molecule, acceptor atom, score
      P1  H  7989  7998       L1     6  0.28
      P1  H  8011  8017       L1     6  0.97

> <Gold.Chemscore.Hbond.Weighted>
-4.3808

> <Gold.Chemscore.Metal.Weighted>
-0.0000

> <Gold.Chemscore.Lipo.Weighted>
-10.5278

> <Gold.Chemscore.Internal_Hbond.Weighted>
0.0000

> <Gold.Chemscore.DEClash.Weighted>
1.6954

> <Gold.Chemscore.DEInternal.Weighted>
2.0995

> <Gold.Chemscore.Rot.Weighted>
4.5752

> <Gold.Chemscore.Internal.Correction.Weighted>
   9.000000E+99

> <Gold.Protein.RotatedTorsions>
[ 6907 6896 6895 6894 ] final    9.21 input  -60.11 | X-H torsion
[ 7974 7965 7964 7962 ] final   23.01 input  175.53 | X-H torsion
[ 8008 7997 7996 7995 ] final  -69.57 input   59.86 | X-H torsion
[ 10167 10162 10161 10158 ] final  121.92 input  -65.29 | X-H torsion
[ 10718 10713 10712 10709 ] final  133.89 input   66.30 | X-H torsion
[ 10763 10752 10751 10750 ] final  125.37 input  -60.55 | X-H torsion
[ 11005 11000 10999 10996 ] final  -38.54 input  -57.11 | X-H torsion

> <Gold.Protein.ActiveResidues>
 VAL166  LYS551  ARG553  GLY616  TRP617  ASP618  TYR619  PRO620  LYS621  CYS622 
 ASP623  PHE694  ASN695  SER759  ASP760  ASP761  ALA762  ILE779  LEU786  VAL792 
 PHE793  MET794  SER795  GLU796  ALA797  LYS798  CYS799  TRP800  GLU811  SER814 

> <Gold.Protein.RotatedAtoms>
  151.7184  135.0899  160.0279 H   0  0  0  0  0  0  0  0  0  0  0  0  # atno 6907 bound_to 6896
  152.3617  133.6301  159.6028 H   0  0  0  0  0  0  0  0  0  0  0  0  # atno 6908 bound_to 6896
  150.7609  133.9329  159.3474 H   0  0  0  0  0  0  0  0  0  0  0  0  # atno 6909 bound_to 6896
  146.2003  139.7804  142.8766 H   0  0  0  0  0  0  0  0  0  0  0  0  # atno 7974 bound_to 7965
  154.4948  140.0851  156.7673 H   0  0  0  0  0  0  0  0  0  0  0  0  # atno 8008 bound_to 7997
  155.4143  140.3443  155.4248 H   0  0  0  0  0  0  0  0  0  0  0  0  # atno 8009 bound_to 7997
  156.1379  140.1520  156.8954 H   0  0  0  0  0  0  0  0  0  0  0  0  # atno 8010 bound_to 7997
  139.5890  144.7018  151.3337 H   0  0  0  0  0  0  0  0  0  0  0  0  # atno 10167 bound_to 10162
  157.4728  131.1081  150.9782 H   0  0  0  0  0  0  0  0  0  0  0  0  # atno 10718 bound_to 10713
  153.6762  135.3322  155.3166 H   0  0  0  0  0  0  0  0  0  0  0  0  # atno 10763 bound_to 10752
  154.8478  135.4398  154.1653 H   0  0  0  0  0  0  0  0  0  0  0  0  # atno 10764 bound_to 10752
  153.2658  135.6995  153.7608 H   0  0  0  0  0  0  0  0  0  0  0  0  # atno 10765 bound_to 10752
  141.0035  133.6943  156.2067 H   0  0  0  0  0  0  0  0  0  0  0  0  # atno 11005 bound_to 11000
  145.3506  141.0306  143.3341 LP  0  0  0  0  0  0  0  0  0  0  0  0  # atno 17320 bound_to 7965
  144.8669  139.5094  143.6786 LP  0  0  0  0  0  0  0  0  0  0  0  0  # atno 17321 bound_to 7965
  140.7157  143.7273  150.7650 LP  0  0  0  0  0  0  0  0  0  0  0  0  # atno 17342 bound_to 10162
  140.0824  143.4955  152.2523 LP  0  0  0  0  0  0  0  0  0  0  0  0  # atno 17343 bound_to 10162
  157.0541  130.5799  149.5375 LP  0  0  0  0  0  0  0  0  0  0  0  0  # atno 17370 bound_to 10713
  156.0081  130.5170  150.7900 LP  0  0  0  0  0  0  0  0  0  0  0  0  # atno 17371 bound_to 10713
  140.6850  134.4727  157.5589 LP  0  0  0  0  0  0  0  0  0  0  0  0  # atno 17394 bound_to 11000
  139.9051  134.8467  156.1738 LP  0  0  0  0  0  0  0  0  0  0  0  0  # atno 17395 bound_to 11000

$$$$
