#       Name:                AV-unprocessed.smi:2003
#       Creating user name   scv26
#       Creation time:       Fri Mar 27 10:35:09 2020


#       File generated by GOLD software.
#

@<TRIPOS>MOLECULE
AV-unprocessed.smi:2003
    49    50     1
SMALL
NO_CHARGES


@<TRIPOS>ATOM
      1 ****        -5.2847   3.8189  -0.7160 C.3            1 S1                 0.0000
      2 ****        -4.6995   2.4378  -0.7613 C.2            1 S1                 0.0000
      3 ****        -3.3234   2.0693  -0.7983 C.2            1 S1                 0.0000
      4 ****        -3.3772   0.7022  -0.8252 C.2            1 S1                 0.0000
      5 ****        -2.3519  -0.1902  -0.8619 N.am           1 S1                 0.0000
      6 ****        -1.0288   0.0472  -0.8518 C.2            1 S1                 0.0000
      7 ****        -0.5020   1.1595  -0.8172 O.2            1 S1                 0.0000
      8 ****        -0.3317  -1.0979  -0.8786 N.am           1 S1                 0.0000
      9 ****         1.1256  -1.1908  -0.8475 C.3            1 S1                 0.0000
     10 ****         1.7313  -0.9135   0.5596 C.3            1 S1                 0.0000
     11 ****         1.0960  -1.8954   1.5770 C.3            1 S1                 0.0000
     12 ****         3.2123  -0.9465   0.5795 N.3            1 S1                 0.0000
     13 ****         3.7607  -0.6793   1.9147 C.3            1 S1                 0.0000
     14 ****         5.2989  -0.6779   1.9425 C.3            1 S1                 0.0000
     15 ****         5.7932   0.2768   1.0139 O.3            1 S1                 0.0000
     16 ****         5.3515   0.0088  -0.3094 C.3            1 S1                 0.0000
     17 ****         3.8136   0.0130  -0.3545 C.3            1 S1                 0.0000
     18 ****        -4.6985   0.3092  -0.8081 N.pl3          1 S1                 0.0000
     19 ****        -5.2802  -1.0194  -0.8205 C.3            1 S1                 0.0000
     20 ****        -5.5113   1.3867  -0.7669 N.2            1 S1                 0.0000
     21 ****        -4.5262   4.5740  -0.9231 H              1 S1                 0.0000
     22 ****        -5.7065   4.0330   0.2662 H              1 S1                 0.0000
     23 ****        -6.0786   3.9370  -1.4539 H              1 S1                 0.0000
     24 ****        -2.4593   2.7165  -0.8021 H              1 S1                 0.0000
     25 ****        -2.6287  -1.1605  -0.8884 H              1 S1                 0.0000
     26 ****        -0.8420  -1.9684  -0.9091 H              1 S1                 0.0000
     27 ****         1.4096  -2.1885  -1.1838 H              1 S1                 0.0000
     28 ****         1.4968  -0.4964  -1.5999 H              1 S1                 0.0000
     29 ****         1.4193   0.0902   0.8519 H              1 S1                 0.0000
     30 ****         0.0081  -1.9080   1.5211 H              1 S1                 0.0000
     31 ****         1.3221  -1.6255   2.6075 H              1 S1                 0.0000
     32 ****         1.4440  -2.9152   1.4103 H              1 S1                 0.0000
     33 ****         3.3922   0.2802   2.2807 H              1 S1                 0.0000
     34 ****         3.4312  -1.4365   2.6238 H              1 S1                 0.0000
     35 ****         5.6585  -0.4229   2.9394 H              1 S1                 0.0000
     36 ****         5.6912  -1.6676   1.7037 H              1 S1                 0.0000
     37 ****         5.7519   0.7702  -0.9788 H              1 S1                 0.0000
     38 ****         5.7454  -0.9517  -0.6454 H              1 S1                 0.0000
     39 ****         3.5303  -0.2157  -1.3796 H              1 S1                 0.0000
     40 ****         3.4475   1.0182  -0.1397 H              1 S1                 0.0000
     41 ****        -4.5118  -1.7756  -0.9799 H              1 S1                 0.0000
     42 ****        -6.0147  -1.0935  -1.6231 H              1 S1                 0.0000
     43 ****        -5.7727  -1.2119   0.1331 H              1 S1                 0.0000
     44 ****        -1.0709   1.9816  -0.7938 LP             1 S1                 0.0000
     45 ****         0.4946   1.2408  -0.8125 LP             1 S1                 0.0000
     46 ****         3.4470  -1.8768   0.2977 LP             1 S1                 0.0000
     47 ****         6.7928   0.2566   1.0311 LP             1 S1                 0.0000
     48 ****         5.4734   1.1852   1.2834 LP             1 S1                 0.0000
     49 ****        -6.5111   1.3921  -0.7453 LP             1 S1                 0.0000
@<TRIPOS>BOND
    1    1    2 1     
    2    1   21 1     
    3    1   22 1     
    4    1   23 1     
    5    2   20 2     
    6    2    3 1     
    7    3    4 2     
    8    3   24 1     
    9    4    5 1     
   10    4   18 1     
   11    5    6 am    
   12    5   25 1     
   13    6    7 2     
   14    6    8 am    
   15    8    9 1     
   16    8   26 1     
   17    9   10 1     
   18    9   27 1     
   19    9   28 1     
   20   10   11 1     
   21   10   12 1     
   22   10   29 1     
   23   11   30 1     
   24   11   31 1     
   25   11   32 1     
   26   12   17 1     
   27   12   13 1     
   28   13   14 1     
   29   13   33 1     
   30   13   34 1     
   31   14   15 1     
   32   14   35 1     
   33   14   36 1     
   34   15   16 1     
   35   16   17 1     
   36   16   37 1     
   37   16   38 1     
   38   17   39 1     
   39   17   40 1     
   40   18   19 1     
   41   18   20 1     
   42   19   41 1     
   43   19   42 1     
   44   19   43 1     
   45    7   44 1     
   46    7   45 1     
   47   12   46 1     
   48   15   47 1     
   49   15   48 1     
   50   20   49 1     
@<TRIPOS>SUBSTRUCTURE
      1 S1             1
@<TRIPOS>SET
LONE_PAIRS      STATIC     ATOMS    <user>   **** ""
6 44 45 46 47 48 49
DONOR_HYDROGENS      STATIC     ATOMS    <user>   **** ""
2 25 26
ATOM$BLUE        STATIC     ATOMS    COLORGROUP SYSTEM
6 44 45 46 47 48 49
ATOM$RED        STATIC     ATOMS    COLORGROUP SYSTEM
2 25 26
