AV-unprocessed.smi:321|AV-procd|sdf|2334|dock1
  -GOLD-   2262022243D 1   1.00000     0.00000
 Structure written by MMmdl.
 49 50  0  0  0  0  0  0  0  0  1 V2000
  152.6591  142.3667  159.6545 C   0  0  0  0  0  0  0  0  0  0  0  0
  152.1468  141.9766  158.2632 C   0  0  0  0  0  0  0  0  0  0  0  0
  151.9425  140.1475  158.0887 S   0  0  0  0  0  0  0  0  0  0  0  0
  153.2570  139.5046  158.2435 O   0  0  0  0  0  0  0  0  0  0  0  0
  150.8189  139.7281  158.9402 O   0  0  0  0  0  0  0  0  0  0  0  0
  151.4470  139.9326  156.4330 N   0  0  0  0  0  0  0  0  0  0  0  0
  152.3133  139.2138  155.4749 C   0  0  0  0  0  0  0  0  0  0  0  0
  151.7996  137.7929  155.1819 C   0  0  0  0  0  0  0  0  0  0  0  0
  150.3212  137.8029  154.7557 C   0  0  0  0  0  0  0  0  0  0  0  0
  149.8222  136.4440  154.5691 N   0  0  0  0  0  0  0  0  0  0  0  0
  149.9333  135.4437  155.4619 C   0  0  0  0  0  0  0  0  0  0  0  0
  150.4783  135.5852  156.5577 O   0  0  0  0  0  0  0  0  0  0  0  0
  149.3481  134.1418  155.0367 C   0  0  0  0  0  0  0  0  0  0  0  0
  149.7670  132.9535  155.7606 C   0  0  0  0  0  0  0  0  0  0  0  0
  149.2479  131.7619  155.3926 C   0  0  0  0  0  0  0  0  0  0  0  0
  148.2851  131.6407  154.2966 C   0  0  0  0  0  0  0  0  0  0  0  0
  147.7965  130.5663  153.9487 O   0  0  0  0  0  0  0  0  0  0  0  0
  147.9766  132.8302  153.6962 N   0  0  0  0  0  0  0  0  0  0  0  0
  147.0188  132.8989  152.5863 C   0  0  0  0  0  0  0  0  0  0  0  0
  145.6408  132.3452  152.9845 C   0  0  0  0  0  0  0  0  0  0  0  0
  145.1534  131.4847  151.9681 O   0  0  0  0  0  0  0  0  0  0  0  0
  145.1450  132.0996  150.6922 C   0  0  0  0  0  0  0  0  0  0  0  0
  148.4997  134.0597  154.0630 N   0  0  0  0  0  0  0  0  0  0  0  0
  149.4880  138.5187  155.8281 C   0  0  0  0  0  0  0  0  0  0  0  0
  150.0128  139.9417  156.0861 C   0  0  0  0  0  0  0  0  0  0  0  0
  152.8006  143.4449  159.7265 H   0  0  0  0  0  0  0  0  0  0  0  0
  153.6138  141.8902  159.8751 H   0  0  0  0  0  0  0  0  0  0  0  0
  151.9523  142.0734  160.4309 H   0  0  0  0  0  0  0  0  0  0  0  0
  151.1689  142.4305  158.1026 H   0  0  0  0  0  0  0  0  0  0  0  0
  152.8013  142.3444  157.4773 H   0  0  0  0  0  0  0  0  0  0  0  0
  152.3405  139.7852  154.5464 H   0  0  0  0  0  0  0  0  0  0  0  0
  153.3393  139.1766  155.8394 H   0  0  0  0  0  0  0  0  0  0  0  0
  152.4113  137.3474  154.3966 H   0  0  0  0  0  0  0  0  0  0  0  0
  151.9330  137.1595  156.0580 H   0  0  0  0  0  0  0  0  0  0  0  0
  150.2209  138.3530  153.8179 H   0  0  0  0  0  0  0  0  0  0  0  0
  149.3604  136.2440  153.6934 H   0  0  0  0  0  0  0  0  0  0  0  0
  150.4755  133.0128  156.5740 H   0  0  0  0  0  0  0  0  0  0  0  0
  149.5507  130.8707  155.9223 H   0  0  0  0  0  0  0  0  0  0  0  0
  146.9073  133.9408  152.2812 H   0  0  0  0  0  0  0  0  0  0  0  0
  147.3906  132.3818  151.7001 H   0  0  0  0  0  0  0  0  0  0  0  0
  145.7033  131.8156  153.9367 H   0  0  0  0  0  0  0  0  0  0  0  0
  144.9439  133.1735  153.1204 H   0  0  0  0  0  0  0  0  0  0  0  0
  144.7567  131.4006  149.9514 H   0  0  0  0  0  0  0  0  0  0  0  0
  146.1517  132.3884  150.3874 H   0  0  0  0  0  0  0  0  0  0  0  0
  144.5087  132.9854  150.6851 H   0  0  0  0  0  0  0  0  0  0  0  0
  148.4440  138.5683  155.5167 H   0  0  0  0  0  0  0  0  0  0  0  0
  149.5039  137.9442  156.7541 H   0  0  0  0  0  0  0  0  0  0  0  0
  149.4350  140.4223  156.8753 H   0  0  0  0  0  0  0  0  0  0  0  0
  149.8779  140.5500  155.1912 H   0  0  0  0  0  0  0  0  0  0  0  0
  1  2  1  0  0  0  0
  1 26  1  0  0  0  0
  1 27  1  0  0  0  0
  1 28  1  0  0  0  0
  2  3  1  0  0  0  0
  2 29  1  0  0  0  0
  2 30  1  0  0  0  0
  3  4  2  0  0  0  0
  3  5  2  0  0  0  0
  3  6  1  0  0  0  0
  6 25  1  0  0  0  0
  6  7  1  0  0  0  0
  7  8  1  0  0  0  0
  7 31  1  0  0  0  0
  7 32  1  0  0  0  0
  8  9  1  0  0  0  0
  8 33  1  0  0  0  0
  8 34  1  0  0  0  0
  9 10  1  0  0  0  0
  9 24  1  0  0  0  0
  9 35  1  0  0  0  0
 10 11  1  0  0  0  0
 10 36  1  0  0  0  0
 11 12  2  0  0  0  0
 11 13  1  0  0  0  0
 13 23  2  0  0  0  0
 13 14  1  0  0  0  0
 14 15  2  0  0  0  0
 14 37  1  0  0  0  0
 15 16  1  0  0  0  0
 15 38  1  0  0  0  0
 16 17  2  0  0  0  0
 16 18  1  0  0  0  0
 18 19  1  0  0  0  0
 18 23  1  0  0  0  0
 19 20  1  0  0  0  0
 19 39  1  0  0  0  0
 19 40  1  0  0  0  0
 20 21  1  0  0  0  0
 20 41  1  0  0  0  0
 20 42  1  0  0  0  0
 21 22  1  0  0  0  0
 22 43  1  0  0  0  0
 22 44  1  0  0  0  0
 22 45  1  0  0  0  0
 24 25  1  0  0  0  0
 24 46  1  0  0  0  0
 24 47  1  0  0  0  0
 25 48  1  0  0  0  0
 25 49  1  0  0  0  0
M  END
> <s_m_source_file>
AV-unprocessed.smi

> <i_m_source_file_index>
321

> <i_lp_mmshare_version>
43012

> <i_f3d_flags>
0

> <s_epik_input>
W0NIM11bQ0gyXVMoPU8pKD1PKU4xW0NIMl1bQ0gyXVtDSF0oW0NIMl1bQ0gyXTEpW05IXUMoPU8pYzJbY0hdW2NIXWMoPU8pbihuMilbQ0gyXVtDSDJdT1tDSDNd

> <s_epik_cmdline>
J2VwaWtfcHl0aG9uJywgJy1waCcsICc3LjAnLCAnLXRuJywgJzgnLCAnLW1hJywgJzIwMCcsICctbWV0YWxfYmluZGluZycsICctaW1hZScsICc8aW5maWxlLm1hZT4nLCAnLW9tYWUnLCAnPG91dGZpbGUubWFlPic=

> <r_lp_tautomer_probability>
1

> <r_epik_Ionization_Penalty>
1.38514e-06

> <r_epik_Ionization_Penalty_Charging>
6.369e-09

> <r_epik_Ionization_Penalty_Neutral>
1.37877e-06

> <r_epik_State_Penalty>
-0

> <r_epik_Charging_Adjusted_Penalty>
6.369e-09

> <i_epik_Tot_Q>
0

> <i_epik_Tot_abs_Q>
0

> <r_epik_Metal_State_Penalty>
-0

> <b_epik_Metal_Only>
0

> <s_lp_Force_Field>
OPLS_2005

> <r_lp_Energy>
23.8323

> <b_lp_Chiralities_Consistent>
1

> <s_lp_Variant>
AV-unprocessed.smi:321-1

> <Gold.Version>
5.8.1

> <Gold.Id.Protein>
6NUR|6NUR_protein|mol2

> <Gold.PLP.Fitness>
47.2069

> <Gold.PLP.PLP>
-41.9592

> <Gold.PLP.part.hbond>
-2.6379

> <Gold.PLP.part.metal>
0.0000

> <Gold.PLP.part.buried>
-5.2060

> <Gold.PLP.part.nonpolar>
-35.5296

> <Gold.PLP.part.repulsive>
1.7522

> <Gold.PLP.ligand.clash>
0.0000

> <Gold.PLP.ligand.torsion>
1.6315

> <Gold.PLP.Chemscore.Hbond>
2.0000

> <Gold.PLP.Chemscore.CHOScore>
0.0000

> <Gold.PLP.Chemscore.Metal>
0.0000

> <Gold.Chemscore.Hbonds>
donor molecule, donor type, donor heavy atom, donor atom, acceptor molecule, acceptor atom, score
      L1  H    10    36       P1  7948  1.00
      P1  H  7997  8009       L1     4  1.00

> <Gold.PLP.Chemscore.Internal.Correction>
2.5107

> <Gold.Rescore>
     Score         DG    S(hbond)    S(metal)    S(lipo)     H(rot)  DE(clash)    DE(int)     intcor
     13.35     -16.32       1.72        0.00      84.10       1.86       0.04       2.93       ----

> <Gold.Chemscore.Fitness>
13.3473

> <Gold.Chemscore.DG>
-16.3168

> <Gold.Chemscore.ZeroCoef>
-5.4800

> <Gold.Chemscore.Hbond>
1.7215

> <Gold.Chemscore.Metal>
0.0000

> <Gold.Chemscore.Lipo>
84.1031

> <Gold.Chemscore.Internal_Hbond>
0.0000

> <Gold.Chemscore.DEClash>
0.0370

> <Gold.Chemscore.DEInternal>
2.9326

> <Gold.Chemscore.Rot>
1.8567

> <Gold.Chemscore.Internal.Correction>
   9.000000E+99

> <Gold.Chemscore.Hbonds>
donor molecule, donor type, donor heavy atom, donor atom, acceptor molecule, acceptor atom, score
      L1  H    10    36       P1  7948  0.82
      P1  H  7997  8009       L1     4  0.96

> <Gold.Chemscore.Hbond.Weighted>
-5.7497

> <Gold.Chemscore.Metal.Weighted>
-0.0000

> <Gold.Chemscore.Lipo.Weighted>
-9.8401

> <Gold.Chemscore.Internal_Hbond.Weighted>
0.0000

> <Gold.Chemscore.DEClash.Weighted>
0.0370

> <Gold.Chemscore.DEInternal.Weighted>
2.9326

> <Gold.Chemscore.Rot.Weighted>
4.7530

> <Gold.Chemscore.Internal.Correction.Weighted>
   9.000000E+99

> <Gold.Protein.RotatedTorsions>
[ 6907 6896 6895 6894 ] final  111.88 input  -60.11 | X-H torsion
[ 7974 7965 7964 7962 ] final  -29.42 input  175.53 | X-H torsion
[ 8008 7997 7996 7995 ] final  151.38 input   59.86 | X-H torsion
[ 10167 10162 10161 10158 ] final   76.02 input  -65.29 | X-H torsion
[ 10718 10713 10712 10709 ] final  174.10 input   66.30 | X-H torsion
[ 10763 10752 10751 10750 ] final  167.69 input  -60.55 | X-H torsion
[ 11005 11000 10999 10996 ] final  -40.11 input  -57.11 | X-H torsion

> <Gold.Protein.ActiveResidues>
 VAL166  LYS551  ARG553  GLY616  TRP617  ASP618  TYR619  PRO620  LYS621  CYS622 
 ASP623  PHE694  ASN695  SER759  ASP760  ASP761  ALA762  ILE779  LEU786  VAL792 
 PHE793  MET794  SER795  GLU796  ALA797  LYS798  CYS799  TRP800  GLU811  SER814 

> <Gold.Protein.RotatedAtoms>
  152.4946  133.8595  159.7242 H   0  0  0  0  0  0  0  0  0  0  0  0  # atno 6907 bound_to 6896
  150.9110  133.6988  159.2861 H   0  0  0  0  0  0  0  0  0  0  0  0  # atno 6908 bound_to 6896
  151.4398  135.1023  159.9719 H   0  0  0  0  0  0  0  0  0  0  0  0  # atno 6909 bound_to 6896
  146.1217  140.5410  142.8732 H   0  0  0  0  0  0  0  0  0  0  0  0  # atno 7974 bound_to 7965
  156.2676  140.2049  156.6166 H   0  0  0  0  0  0  0  0  0  0  0  0  # atno 8008 bound_to 7997
  154.6789  140.0542  157.0269 H   0  0  0  0  0  0  0  0  0  0  0  0  # atno 8009 bound_to 7997
  155.1029  140.3208  155.4545 H   0  0  0  0  0  0  0  0  0  0  0  0  # atno 8010 bound_to 7997
  139.9968  144.5716  150.7771 H   0  0  0  0  0  0  0  0  0  0  0  0  # atno 10167 bound_to 10162
  156.9546  131.0042  151.2941 H   0  0  0  0  0  0  0  0  0  0  0  0  # atno 10718 bound_to 10713
  154.3576  135.2753  155.2337 H   0  0  0  0  0  0  0  0  0  0  0  0  # atno 10763 bound_to 10752
  154.4540  135.5924  153.6214 H   0  0  0  0  0  0  0  0  0  0  0  0  # atno 10764 bound_to 10752
  152.9845  135.6048  154.3793 H   0  0  0  0  0  0  0  0  0  0  0  0  # atno 10765 bound_to 10752
  141.0151  133.6889  156.2277 H   0  0  0  0  0  0  0  0  0  0  0  0  # atno 11005 bound_to 11000
  144.7604  140.5407  143.6740 LP  0  0  0  0  0  0  0  0  0  0  0  0  # atno 17320 bound_to 7965
  145.5451  139.1476  143.3425 LP  0  0  0  0  0  0  0  0  0  0  0  0  # atno 17321 bound_to 7965
  140.7434  143.2846  151.3501 LP  0  0  0  0  0  0  0  0  0  0  0  0  # atno 17342 bound_to 10162
  139.6300  144.0738  152.2468 LP  0  0  0  0  0  0  0  0  0  0  0  0  # atno 17343 bound_to 10162
  157.5699  130.8303  149.8377 LP  0  0  0  0  0  0  0  0  0  0  0  0  # atno 17370 bound_to 10713
  156.0348  130.3754  150.1590 LP  0  0  0  0  0  0  0  0  0  0  0  0  # atno 17371 bound_to 10713
  140.6668  134.4909  157.5586 LP  0  0  0  0  0  0  0  0  0  0  0  0  # atno 17394 bound_to 11000
  139.9112  134.8341  156.1522 LP  0  0  0  0  0  0  0  0  0  0  0  0  # atno 17395 bound_to 11000

$$$$
