AV-unprocessed.smi:1867|AV-procd|sdf|7580|dock3
  -GOLD-   22720 9293D 1   1.00000     0.00000
 Structure written by MMmdl.
 52 55  0  0  0  0  0  0  0  0  4 V2000
  146.5375  140.5118  155.3254 O   0  0  0  0  0  0  0  0  0  0  0  0
  147.1149  139.4418  155.1422 C   0  0  0  0  0  0  0  0  0  0  0  0
  148.4036  139.3131  155.5449 N   0  0  0  0  0  0  0  0  0  0  0  0
  149.2282  140.2493  156.2239 C   0  0  0  0  0  0  0  0  0  0  0  0
  150.1724  139.7504  157.1448 C   0  0  0  0  0  0  0  0  0  0  0  0
  150.9982  140.6454  157.8550 C   0  0  0  0  0  0  0  0  0  0  0  0
  150.8645  142.0385  157.6455 C   0  0  0  0  0  0  0  0  0  0  0  0
  151.6524  142.9894  158.3214 N   0  0  0  0  0  0  0  0  0  0  0  0
  152.0486  142.7971  159.7077 C   0  0  0  0  0  0  0  0  0  0  0  0
  152.7071  144.1166  160.1066 C   0  0  0  0  0  0  0  0  0  0  0  0
  151.9310  145.1497  159.2891 C   0  0  0  0  0  0  0  0  0  0  0  0
  151.5636  144.4071  157.9989 C   0  0  0  0  0  0  0  0  0  0  0  0
  149.9271  142.4735  156.7700 N   0  3  0  0  0  0  0  0  0  0  0  0
  149.1182  141.6510  156.0674 C   0  0  0  0  0  0  0  0  0  0  0  0
  146.4903  138.3973  154.5182 N   0  5  0  0  0  0  0  0  0  0  0  0
  146.7901  137.7786  153.2177 C   0  0  2  0  0  0  0  0  0  0  0  0
  146.4634  138.6971  152.0308 C   0  0  0  0  0  0  0  0  0  0  0  0
  146.1247  137.7361  150.8775 C   0  0  0  0  0  0  0  0  0  0  0  0
  146.1075  136.3782  151.4682 N   0  3  2  0  0  0  0  0  0  0  0  0
  145.2437  135.3704  150.8009 C   0  0  0  0  0  0  0  0  0  0  0  0
  143.7633  135.5063  151.1909 C   0  0  0  0  0  0  0  0  0  0  0  0
  143.6058  135.4958  152.7144 C   0  0  0  0  0  0  0  0  0  0  0  0
  144.4307  136.6370  153.3191 C   0  0  0  0  0  0  0  0  0  0  0  0
  145.9373  136.5261  152.9331 C   0  0  2  0  0  0  0  0  0  0  0  0
  148.8565  138.4530  155.2737 H   0  0  0  0  0  0  0  0  0  0  0  0
  150.2696  138.6862  157.3045 H   0  0  0  0  0  0  0  0  0  0  0  0
  151.7187  140.2525  158.5569 H   0  0  0  0  0  0  0  0  0  0  0  0
  151.1640  142.6096  160.3182 H   0  0  0  0  0  0  0  0  0  0  0  0
  152.7320  141.9547  159.8193 H   0  0  0  0  0  0  0  0  0  0  0  0
  152.6693  144.3032  161.1802 H   0  0  0  0  0  0  0  0  0  0  0  0
  153.7543  144.1158  159.7999 H   0  0  0  0  0  0  0  0  0  0  0  0
  151.0209  145.4256  159.8238 H   0  0  0  0  0  0  0  0  0  0  0  0
  152.4993  146.0618  159.1051 H   0  0  0  0  0  0  0  0  0  0  0  0
  152.2777  144.6334  157.2063 H   0  0  0  0  0  0  0  0  0  0  0  0
  150.5685  144.6927  157.6564 H   0  0  0  0  0  0  0  0  0  0  0  0
  148.4103  142.1482  155.4211 H   0  0  0  0  0  0  0  0  0  0  0  0
  147.8399  137.4887  153.1412 H   0  0  0  0  0  0  0  0  0  0  0  0
  145.5977  139.3249  152.2486 H   0  0  0  0  0  0  0  0  0  0  0  0
  147.2949  139.3591  151.7871 H   0  0  0  0  0  0  0  0  0  0  0  0
  145.1555  137.9924  150.4473 H   0  0  0  0  0  0  0  0  0  0  0  0
  146.8650  137.7805  150.0775 H   0  0  0  0  0  0  0  0  0  0  0  0
  145.3668  135.4369  149.7194 H   0  0  0  0  0  0  0  0  0  0  0  0
  145.5999  134.3818  151.0928 H   0  0  0  0  0  0  0  0  0  0  0  0
  143.3503  136.4295  150.7832 H   0  0  0  0  0  0  0  0  0  0  0  0
  143.1878  134.6911  150.7513 H   0  0  0  0  0  0  0  0  0  0  0  0
  142.5553  135.6077  152.9848 H   0  0  0  0  0  0  0  0  0  0  0  0
  143.9358  134.5388  153.1204 H   0  0  0  0  0  0  0  0  0  0  0  0
  143.9956  137.5812  152.9833 H   0  0  0  0  0  0  0  0  0  0  0  0
  144.3147  136.6205  154.4043 H   0  0  0  0  0  0  0  0  0  0  0  0
  146.3652  135.6545  153.4303 H   0  0  0  0  0  0  0  0  0  0  0  0
  147.0551  136.0478  151.3556 H   0  0  0  0  0  0  0  0  0  0  0  0
  149.8234  143.4788  156.6318 H   0  0  0  0  0  0  0  0  0  0  0  0
  1  2  2  0  0  0  0
  2  3  1  0  0  0  0
  2 15  1  0  0  0  0
  3  4  1  0  0  0  0
  3 25  1  0  0  0  0
  4 14  1  0  0  0  0
  4  5  2  0  0  0  0
  5  6  1  0  0  0  0
  5 26  1  0  0  0  0
  6  7  2  0  0  0  0
  6 27  1  0  0  0  0
  7  8  1  0  0  0  0
  7 13  1  0  0  0  0
  8 12  1  0  0  0  0
  8  9  1  0  0  0  0
  9 10  1  0  0  0  0
  9 28  1  0  0  0  0
  9 29  1  0  0  0  0
 10 11  1  0  0  0  0
 10 30  1  0  0  0  0
 10 31  1  0  0  0  0
 11 12  1  0  0  0  0
 11 32  1  0  0  0  0
 11 33  1  0  0  0  0
 12 34  1  0  0  0  0
 12 35  1  0  0  0  0
 13 14  2  0  0  0  0
 13 52  1  0  0  0  0
 14 36  1  0  0  0  0
 15 16  1  0  0  0  0
 16 24  1  0  0  0  0
 16 17  1  0  0  0  0
 16 37  1  0  0  0  0
 17 18  1  0  0  0  0
 17 38  1  0  0  0  0
 17 39  1  0  0  0  0
 18 19  1  0  0  0  0
 18 40  1  0  0  0  0
 18 41  1  0  0  0  0
 19 24  1  0  0  0  0
 19 20  1  0  0  0  0
 19 51  1  0  0  0  0
 20 21  1  0  0  0  0
 20 42  1  0  0  0  0
 20 43  1  0  0  0  0
 21 22  1  0  0  0  0
 21 44  1  0  0  0  0
 21 45  1  0  0  0  0
 22 23  1  0  0  0  0
 22 46  1  0  0  0  0
 22 47  1  0  0  0  0
 23 24  1  0  0  0  0
 23 48  1  0  0  0  0
 23 49  1  0  0  0  0
 24 50  1  0  0  0  0
M  CHG  1  13   1
M  CHG  1  15  -1
M  CHG  1  19   1
M  END
> <s_m_source_file>
AV-unprocessed.smi

> <i_m_source_file_index>
1867

> <i_lp_mmshare_version>
43012

> <i_f3d_flags>
0

> <s_epik_input>
W0NIMl0xW0NIMl1bQ0gyXVtDSDJdW0NASF0oTjEyKVtDQEBIXShbQ0gyXVtDSDJdMilbTkhdQyg9TylbTkhdYzNbY0hdW2NIXWMobltjSF0zKU40W0NIMl1bQ0gyXVtDSDJdW0NIMl00

> <s_epik_cmdline>
J2VwaWtfcHl0aG9uJywgJy1waCcsICc3LjAnLCAnLXRuJywgJzgnLCAnLW1hJywgJzIwMCcsICctbWV0YWxfYmluZGluZycsICctaW1hZScsICc8aW5maWxlLm1hZT4nLCAnLW9tYWUnLCAnPG91dGZpbGUubWFlPic=

> <r_lp_tautomer_probability>
0.999994

> <r_epik_Ionization_Penalty>
8.56137

> <r_epik_Ionization_Penalty_Charging>
8.56136

> <r_epik_Ionization_Penalty_Neutral>
3.91889e-06

> <r_epik_State_Penalty>
8.16255

> <r_epik_Charging_Adjusted_Penalty>
16.7239

> <i_epik_Tot_Q>
1

> <i_epik_Tot_abs_Q>
3

> <r_epik_Metal_State_Penalty>
4.14279

> <b_epik_Metal_Only>
1

> <s_lp_Force_Field>
OPLS_2005

> <r_lp_Energy>
70.2226

> <b_lp_Chiralities_Consistent>
1

> <s_lp_Variant>
AV-unprocessed.smi:1867-21

> <Gold.Version>
5.8.1

> <Gold.Id.Protein>
6NUR|6NUR_protein|mol2

> <Gold.PLP.Fitness>
47.2739

> <Gold.PLP.PLP>
-38.0428

> <Gold.PLP.part.hbond>
-2.0000

> <Gold.PLP.part.metal>
0.0000

> <Gold.PLP.part.buried>
1.7547

> <Gold.PLP.part.nonpolar>
-38.4891

> <Gold.PLP.part.repulsive>
0.2747

> <Gold.PLP.ligand.clash>
0.0000

> <Gold.PLP.ligand.torsion>
1.1766

> <Gold.PLP.Chemscore.Hbond>
3.7760

> <Gold.PLP.Chemscore.CHOScore>
0.0000

> <Gold.PLP.Chemscore.Metal>
0.0000

> <Gold.Chemscore.Hbonds>
donor molecule, donor type, donor heavy atom, donor atom, acceptor molecule, acceptor atom, score
      L1  H    13    52       P1  8028  1.73
      L1  H    19    51       P1  7948  1.95

> <Gold.PLP.Chemscore.Internal.Correction>
0.2562

> <Gold.Rescore>
     Score         DG    S(hbond)    S(metal)    S(lipo)     H(rot)  DE(clash)    DE(int)     intcor
     17.73     -21.77       1.78        0.00     110.32       1.00       1.79       2.26       ----

> <Gold.Chemscore.Fitness>
17.7264

> <Gold.Chemscore.DG>
-21.7726

> <Gold.Chemscore.ZeroCoef>
-5.4800

> <Gold.Chemscore.Hbond>
1.7800

> <Gold.Chemscore.Metal>
0.0000

> <Gold.Chemscore.Lipo>
110.3206

> <Gold.Chemscore.Internal_Hbond>
0.0000

> <Gold.Chemscore.DEClash>
1.7894

> <Gold.Chemscore.DEInternal>
2.2569

> <Gold.Chemscore.Rot>
1.0000

> <Gold.Chemscore.Internal.Correction>
   9.000000E+99

> <Gold.Chemscore.Hbonds>
donor molecule, donor type, donor heavy atom, donor atom, acceptor molecule, acceptor atom, score
      L1  H    13    52       P1  8028  0.85
      L1  H    19    51       P1  7948  0.93

> <Gold.Chemscore.Hbond.Weighted>
-5.9451

> <Gold.Chemscore.Metal.Weighted>
-0.0000

> <Gold.Chemscore.Lipo.Weighted>
-12.9075

> <Gold.Chemscore.Internal_Hbond.Weighted>
0.0000

> <Gold.Chemscore.DEClash.Weighted>
1.7894

> <Gold.Chemscore.DEInternal.Weighted>
2.2569

> <Gold.Chemscore.Rot.Weighted>
2.5600

> <Gold.Chemscore.Internal.Correction.Weighted>
   9.000000E+99

> <Gold.Protein.RotatedTorsions>
[ 6907 6896 6895 6894 ] final   57.82 input  -60.11 | X-H torsion
[ 7974 7965 7964 7962 ] final    6.60 input  175.53 | X-H torsion
[ 8008 7997 7996 7995 ] final  133.80 input   59.86 | X-H torsion
[ 10167 10162 10161 10158 ] final -136.64 input  -65.29 | X-H torsion
[ 10718 10713 10712 10709 ] final  -51.76 input   66.30 | X-H torsion
[ 10763 10752 10751 10750 ] final  149.07 input  -60.55 | X-H torsion
[ 11005 11000 10999 10996 ] final  147.53 input  -57.11 | X-H torsion

> <Gold.Protein.ActiveResidues>
 VAL166  LYS551  ARG553  GLY616  TRP617  ASP618  TYR619  PRO620  LYS621  CYS622 
 ASP623  PHE694  ASN695  SER759  ASP760  ASP761  ALA762  ILE779  LEU786  VAL792 
 PHE793  MET794  SER795  GLU796  ALA797  LYS798  CYS799  TRP800  GLU811  SER814 

> <Gold.Protein.RotatedAtoms>
  152.3767  134.6652  160.0157 H   0  0  0  0  0  0  0  0  0  0  0  0  # atno 6907 bound_to 6896
  151.6928  133.3305  159.3255 H   0  0  0  0  0  0  0  0  0  0  0  0  # atno 6908 bound_to 6896
  150.7715  134.6619  159.6389 H   0  0  0  0  0  0  0  0  0  0  0  0  # atno 6909 bound_to 6896
  146.2433  140.0210  142.8398 H   0  0  0  0  0  0  0  0  0  0  0  0  # atno 7974 bound_to 7965
  156.2995  140.2512  156.3312 H   0  0  0  0  0  0  0  0  0  0  0  0  # atno 8008 bound_to 7997
  154.9143  140.0402  157.1982 H   0  0  0  0  0  0  0  0  0  0  0  0  # atno 8009 bound_to 7997
  154.8374  140.2885  155.5686 H   0  0  0  0  0  0  0  0  0  0  0  0  # atno 8010 bound_to 7997
  139.8657  143.7020  152.2645 H   0  0  0  0  0  0  0  0  0  0  0  0  # atno 10167 bound_to 10162
  156.1681  130.4149  149.9688 H   0  0  0  0  0  0  0  0  0  0  0  0  # atno 10718 bound_to 10713
  154.0652  135.2871  155.3318 H   0  0  0  0  0  0  0  0  0  0  0  0  # atno 10763 bound_to 10752
  154.6782  135.5273  153.8231 H   0  0  0  0  0  0  0  0  0  0  0  0  # atno 10764 bound_to 10752
  153.0507  135.6575  154.0837 H   0  0  0  0  0  0  0  0  0  0  0  0  # atno 10765 bound_to 10752
  140.0884  134.9056  157.1612 H   0  0  0  0  0  0  0  0  0  0  0  0  # atno 11005 bound_to 11000
  145.1241  140.9480  143.4583 LP  0  0  0  0  0  0  0  0  0  0  0  0  # atno 17320 bound_to 7965
  145.0452  139.3227  143.5956 LP  0  0  0  0  0  0  0  0  0  0  0  0  # atno 17321 bound_to 7965
  139.7331  144.7577  151.0770 LP  0  0  0  0  0  0  0  0  0  0  0  0  # atno 17342 bound_to 10162
  140.7768  143.5064  150.9707 LP  0  0  0  0  0  0  0  0  0  0  0  0  # atno 17343 bound_to 10162
  156.7497  130.9110  151.3636 LP  0  0  0  0  0  0  0  0  0  0  0  0  # atno 17370 bound_to 10713
  157.6783  130.9115  150.0204 LP  0  0  0  0  0  0  0  0  0  0  0  0  # atno 17371 bound_to 10713
  140.3387  134.2728  155.7215 LP  0  0  0  0  0  0  0  0  0  0  0  0  # atno 17394 bound_to 11000
  141.2070  133.7818  157.0145 LP  0  0  0  0  0  0  0  0  0  0  0  0  # atno 17395 bound_to 11000

$$$$
