#       Name:                AV-unprocessed.smi:194
#       Creating user name   scv26
#       Creation time:       Thu Mar 26 19:36:42 2020


#       File generated by GOLD software.
#

@<TRIPOS>MOLECULE
AV-unprocessed.smi:194
    61    63     1
SMALL
NO_CHARGES


@<TRIPOS>ATOM
      1 ****        -3.6230  -1.5819   1.2906 C.3            1 S1                 0.0000
      2 ****        -3.1019  -0.4021   2.1449 C.3            1 S1                 0.0000
      3 ****        -4.0032  -0.1926   3.3855 C.3            1 S1                 0.0000
      4 ****        -3.9160  -1.6692   4.5132 S.o            1 S1                 0.0000
      5 ****        -5.2426  -1.1167   5.6840 C.3            1 S1                 0.0000
      6 ****        -2.5948  -1.5813   5.2792 O.2            1 S1                 0.0000
      7 ****        -1.6775  -0.5217   2.4970 N.3            1 S1                 0.0000
      8 ****        -1.0828   0.5666   3.2674 C.3            1 S1                 0.0000
      9 ****        -0.8506  -0.8834   1.4906 C.ar           1 S1                 0.0000
     10 ****        -0.1299  -2.0195   1.6549 N.ar           1 S1                 0.0000
     11 ****         0.6989  -2.4280   0.6894 C.ar           1 S1                 0.0000
     12 ****         0.9529  -1.8571  -0.4904 N.ar           1 S1                 0.0000
     13 ****         0.2392  -0.7056  -0.6511 C.ar           1 S1                 0.0000
     14 ****        -0.6811  -0.1511   0.2819 C.ar           1 S1                 0.0000
     15 ****        -1.2268   1.0205  -0.2270 N.2            1 S1                 0.0000
     16 ****        -0.6683   1.1460  -1.3996 C.2            1 S1                 0.0000
     17 ****         0.2399   0.1643  -1.7288 N.pl3          1 S1                 0.0000
     18 ****         0.9933   0.0579  -2.9702 C.3            1 S1                 0.0000
     19 ****         2.4164   0.6949  -2.9608 C.3            1 S1                 0.0000
     20 ****         2.3325   2.2418  -2.7934 C.3            1 S1                 0.0000
     21 ****         2.0057   2.6571  -1.4827 O.3            1 S1                 0.0000
     22 ****         3.3138   0.0457  -1.8762 C.3            1 S1                 0.0000
     23 ****         4.7989   0.4102  -2.0404 C.3            1 S1                 0.0000
     24 ****         5.2518   0.0056  -3.3256 O.3            1 S1                 0.0000
     25 ****         4.5750   0.6702  -4.3844 C.3            1 S1                 0.0000
     26 ****         3.0651   0.3646  -4.3297 C.3            1 S1                 0.0000
     27 ****        -4.6951  -1.4920   1.1137 H              1 S1                 0.0000
     28 ****        -3.4461  -2.5422   1.7754 H              1 S1                 0.0000
     29 ****        -3.1472  -1.6173   0.3105 H              1 S1                 0.0000
     30 ****        -3.2039   0.4993   1.5402 H              1 S1                 0.0000
     31 ****        -3.7267   0.7049   3.9381 H              1 S1                 0.0000
     32 ****        -5.0377  -0.0538   3.0700 H              1 S1                 0.0000
     33 ****        -6.1854  -0.9778   5.1548 H              1 S1                 0.0000
     34 ****        -4.9652  -0.1742   6.1563 H              1 S1                 0.0000
     35 ****        -5.3904  -1.8642   6.4632 H              1 S1                 0.0000
     36 ****         0.0054   0.4907   3.3032 H              1 S1                 0.0000
     37 ****        -1.4397   0.5468   4.2967 H              1 S1                 0.0000
     38 ****        -1.3418   1.5333   2.8343 H              1 S1                 0.0000
     39 ****         1.2350  -3.3437   0.8907 H              1 S1                 0.0000
     40 ****        -0.8962   1.9713  -2.0583 H              1 S1                 0.0000
     41 ****         1.0602  -1.0031  -3.2153 H              1 S1                 0.0000
     42 ****         0.3931   0.5038  -3.7645 H              1 S1                 0.0000
     43 ****         3.2782   2.7219  -3.0379 H              1 S1                 0.0000
     44 ****         1.5970   2.6574  -3.4828 H              1 S1                 0.0000
     45 ****         2.0019   3.6018  -1.4585 H              1 S1                 0.0000
     46 ****         2.9794   0.3120  -0.8735 H              1 S1                 0.0000
     47 ****         3.2266  -1.0393  -1.9411 H              1 S1                 0.0000
     48 ****         4.9682   1.4777  -1.8952 H              1 S1                 0.0000
     49 ****         5.3922  -0.1061  -1.2857 H              1 S1                 0.0000
     50 ****         4.7754   1.7407  -4.3444 H              1 S1                 0.0000
     51 ****         4.9866   0.3180  -5.3305 H              1 S1                 0.0000
     52 ****         2.9373  -0.6970  -4.5464 H              1 S1                 0.0000
     53 ****         2.5518   0.8968  -5.1313 H              1 S1                 0.0000
     54 ****        -1.7486  -1.2947   3.1274 LP             1 S1                 0.0000
     55 ****        -0.2182  -2.5512   2.4972 LP             1 S1                 0.0000
     56 ****         1.5862  -2.2268  -1.1703 LP             1 S1                 0.0000
     57 ****        -1.8935   1.6275   0.2054 LP             1 S1                 0.0000
     58 ****         2.6855   2.3062  -0.8386 LP             1 S1                 0.0000
     59 ****         1.1013   2.3099  -1.2348 LP             1 S1                 0.0000
     60 ****         5.1043  -0.9789  -3.4207 LP             1 S1                 0.0000
     61 ****         6.2292   0.2046  -3.3969 LP             1 S1                 0.0000
@<TRIPOS>BOND
    1    1    2 1     
    2    1   27 1     
    3    1   28 1     
    4    1   29 1     
    5    2    3 1     
    6    2    7 1     
    7    2   30 1     
    8    3    4 1     
    9    3   31 1     
   10    3   32 1     
   11    4    5 1     
   12    4    6 2     
   13    5   33 1     
   14    5   34 1     
   15    5   35 1     
   16    7    8 1     
   17    7    9 1     
   18    8   36 1     
   19    8   37 1     
   20    8   38 1     
   21    9   14 ar    
   22    9   10 ar    
   23   10   11 ar    
   24   11   12 ar    
   25   11   39 1     
   26   12   13 ar    
   27   13   17 1     
   28   13   14 ar    
   29   14   15 1     
   30   15   16 2     
   31   16   17 1     
   32   16   40 1     
   33   17   18 1     
   34   18   19 1     
   35   18   41 1     
   36   18   42 1     
   37   19   26 1     
   38   19   20 1     
   39   19   22 1     
   40   20   21 1     
   41   20   43 1     
   42   20   44 1     
   43   21   45 1     
   44   22   23 1     
   45   22   46 1     
   46   22   47 1     
   47   23   24 1     
   48   23   48 1     
   49   23   49 1     
   50   24   25 1     
   51   25   26 1     
   52   25   50 1     
   53   25   51 1     
   54   26   52 1     
   55   26   53 1     
   56    7   54 1     
   57   10   55 1     
   58   12   56 1     
   59   15   57 1     
   60   21   58 1     
   61   21   59 1     
   62   24   60 1     
   63   24   61 1     
@<TRIPOS>SUBSTRUCTURE
      1 S1             1
@<TRIPOS>SET
LONE_PAIRS      STATIC     ATOMS    <user>   **** ""
9 6 54 55 56 57 58 59 60 61
DONOR_HYDROGENS      STATIC     ATOMS    <user>   **** ""
1 45
ATOM$BLUE        STATIC     ATOMS    COLORGROUP SYSTEM
9 6 54 55 56 57 58 59 60 61
ATOM$RED        STATIC     ATOMS    COLORGROUP SYSTEM
1 45
