#       Name:                AV-unprocessed.smi:994
#       Creating user name   scv26
#       Creation time:       Fri Mar 27 02:24:06 2020


#       File generated by GOLD software.
#

@<TRIPOS>MOLECULE
AV-unprocessed.smi:994
    44    45     1
SMALL
NO_CHARGES


@<TRIPOS>ATOM
      1 ****         0.7863   1.5611   1.1613 O.2            1 S1                 0.0000
      2 ****         0.3551   0.4456   0.8670 C.2            1 S1                 0.0000
      3 ****         1.1427  -0.5905   0.5410 N.am           1 S1                 0.0000
      4 ****         2.6046  -0.5782   0.5071 C.3            1 S1                 0.0000
      5 ****         3.0797  -1.3637  -0.7343 C.3            1 S1                 0.0000
      6 ****         2.5689  -0.8174  -2.0462 C.2            1 S1                 0.0000
      7 ****         1.8177  -1.3931  -3.0476 C.2            1 S1                 0.0000
      8 ****         1.5843  -0.4608  -4.0619 N.2            1 S1                 0.0000
      9 ****         2.1986   0.6379  -3.6384 C.2            1 S1                 0.0000
     10 ****         2.7996   0.4848  -2.4556 N.pl3          1 S1                 0.0000
     11 ****         3.1512  -1.2543   1.7735 C.2            1 S1                 0.0000
     12 ****         4.0109  -0.6235   2.4266 O.co2          1 S1                 0.0000
     13 ****         2.7078  -2.3877   2.0680 O.co2          1 S1                -1.0000
     14 ****        -1.1559   0.1811   0.8461 C.3            1 S1                 0.0000
     15 ****        -1.8430   1.0097  -0.2602 C.3            1 S1                 0.0000
     16 ****        -3.3603   0.7616  -0.2838 C.3            1 S1                 0.0000
     17 ****        -3.9934   1.0502   1.0868 C.3            1 S1                 0.0000
     18 ****        -3.3108   0.2359   2.1972 C.3            1 S1                 0.0000
     19 ****        -1.7938   0.4852   2.2185 C.3            1 S1                 0.0000
     20 ****         3.3144   1.1895  -1.9468 H              1 S1                 0.0000
     21 ****         0.6998  -1.4727   0.3308 H              1 S1                 0.0000
     22 ****         2.9840   0.4442   0.4524 H              1 S1                 0.0000
     23 ****         4.1699  -1.3653  -0.7750 H              1 S1                 0.0000
     24 ****         2.7739  -2.4091  -0.6662 H              1 S1                 0.0000
     25 ****         1.4249  -2.3971  -3.1127 H              1 S1                 0.0000
     26 ****         2.2099   1.5638  -4.1943 H              1 S1                 0.0000
     27 ****        -1.3151  -0.8764   0.6267 H              1 S1                 0.0000
     28 ****        -1.6560   2.0735  -0.1049 H              1 S1                 0.0000
     29 ****        -1.4179   0.7612  -1.2339 H              1 S1                 0.0000
     30 ****        -3.8271   1.3847  -1.0473 H              1 S1                 0.0000
     31 ****        -3.5563  -0.2733  -0.5669 H              1 S1                 0.0000
     32 ****        -3.9096   2.1145   1.3109 H              1 S1                 0.0000
     33 ****        -5.0592   0.8224   1.0602 H              1 S1                 0.0000
     34 ****        -3.7427   0.4920   3.1649 H              1 S1                 0.0000
     35 ****        -3.5040  -0.8264   2.0435 H              1 S1                 0.0000
     36 ****        -1.3337  -0.1323   2.9914 H              1 S1                 0.0000
     37 ****        -1.6058   1.5224   2.5006 H              1 S1                 0.0000
     38 ****         1.7717   1.7312   1.1654 LP             1 S1                 0.0000
     39 ****         0.1510   2.2968   1.3962 LP             1 S1                 0.0000
     40 ****         1.0726  -0.5909  -4.9111 LP             1 S1                 0.0000
     41 ****         4.4000  -1.0224   3.2570 LP             1 S1                 0.0000
     42 ****         4.3093   0.2799   2.1186 LP             1 S1                 0.0000
     43 ****         3.0431  -2.8594   2.8836 LP             1 S1                 0.0000
     44 ****         2.0184  -2.8212   1.4877 LP             1 S1                 0.0000
@<TRIPOS>BOND
    1    1    2 2     
    2    2    3 am    
    3    2   14 1     
    4    3    4 1     
    5    3   21 1     
    6    4    5 1     
    7    4   11 1     
    8    4   22 1     
    9    5   23 1     
   10    5   24 1     
   11    5    6 1     
   12    6    7 2     
   13    6   10 1     
   14    7   25 1     
   15    7    8 1     
   16    8    9 2     
   17    9   10 1     
   18    9   26 1     
   19   10   20 1     
   20   11   12 ar    
   21   11   13 ar    
   22   14   19 1     
   23   14   15 1     
   24   14   27 1     
   25   15   16 1     
   26   15   28 1     
   27   15   29 1     
   28   16   17 1     
   29   16   30 1     
   30   16   31 1     
   31   17   18 1     
   32   17   32 1     
   33   17   33 1     
   34   18   19 1     
   35   18   34 1     
   36   18   35 1     
   37   19   36 1     
   38   19   37 1     
   39    1   38 1     
   40    1   39 1     
   41    8   40 1     
   42   12   41 1     
   43   12   42 1     
   44   13   43 1     
   45   13   44 1     
@<TRIPOS>SUBSTRUCTURE
      1 S1             1
@<TRIPOS>SET
LONE_PAIRS      STATIC     ATOMS    <user>   **** ""
7 38 39 40 41 42 43 44
DONOR_HYDROGENS      STATIC     ATOMS    <user>   **** ""
2 21 20
ATOM$BLUE        STATIC     ATOMS    COLORGROUP SYSTEM
7 38 39 40 41 42 43 44
ATOM$RED        STATIC     ATOMS    COLORGROUP SYSTEM
2 21 20
