#       Name:                AV-unprocessed.smi:1207
#       Creating user name   scv26
#       Creation time:       Fri Mar 27 04:09:17 2020


#       File generated by GOLD software.
#

@<TRIPOS>MOLECULE
AV-unprocessed.smi:1207
    58    60     1
SMALL
NO_CHARGES


@<TRIPOS>ATOM
      1 ****        -5.6666   2.6991  -2.6148 C.3            1 S1                 0.0000
      2 ****        -4.5805   2.4734  -1.5764 C.ar           1 S1                 0.0000
      3 ****        -4.9623   2.3125  -0.2252 C.ar           1 S1                 0.0000
      4 ****        -3.9466   2.1076   0.7011 C.ar           1 S1                 0.0000
      5 ****        -3.9923   1.9190   2.0843 N.pl3          1 S1                 1.0000
      6 ****        -2.7276   1.7595   2.5640 C.2            1 S1                 0.0000
      7 ****        -1.8751   1.8377   1.5056 N.pl3          1 S1                 0.0000
      8 ****        -0.4100   1.7393   1.4618 C.3            1 S1                 0.0000
      9 ****         0.0861   0.3541   1.0021 C.3            1 S1                 0.0000
     10 ****        -0.4005  -0.6318   1.8920 O.3            1 S1                 0.0000
     11 ****         1.6262   0.2807   0.9753 C.3            1 S1                 0.0000
     12 ****         2.1307  -1.0045   0.4226 N.4            1 S1                 1.0000
     13 ****         2.0348  -1.0680  -1.0574 C.3            1 S1                 0.0000
     14 ****         3.4894  -1.3381   0.9246 C.3            1 S1                 0.0000
     15 ****         3.8538  -2.7750   0.6503 C.2            1 S1                 0.0000
     16 ****         4.7100  -3.2934  -0.3646 C.2            1 S1                 0.0000
     17 ****         5.4715  -2.5489  -1.4239 C.3            1 S1                 0.0000
     18 ****         4.8027  -4.6109  -0.3052 N.2            1 S1                 0.0000
     19 ****         4.0025  -5.0047   0.7713 O.3            1 S1                 0.0000
     20 ****         3.4513  -3.8951   1.3244 C.2            1 S1                 0.0000
     21 ****         2.5593  -4.1055   2.5010 C.3            1 S1                 0.0000
     22 ****        -2.5906   2.0596   0.3239 C.ar           1 S1                 0.0000
     23 ****        -2.1963   2.2177  -1.0024 C.ar           1 S1                 0.0000
     24 ****        -3.2148   2.4268  -1.9598 C.ar           1 S1                 0.0000
     25 ****        -2.8162   2.6016  -3.4153 C.3            1 S1                 0.0000
     26 ****        -6.6567   2.7205  -2.1584 H              1 S1                 0.0000
     27 ****        -5.6593   1.9005  -3.3570 H              1 S1                 0.0000
     28 ****        -5.5162   3.6498  -3.1270 H              1 S1                 0.0000
     29 ****        -5.9998   2.3484   0.0739 H              1 S1                 0.0000
     30 ****        -2.4518   1.5989   3.5965 H              1 S1                 0.0000
     31 ****        -0.0335   2.5265   0.8073 H              1 S1                 0.0000
     32 ****        -0.0369   1.9647   2.4621 H              1 S1                 0.0000
     33 ****        -0.3239   0.1485   0.0146 H              1 S1                 0.0000
     34 ****        -1.3451  -0.5937   1.8949 H              1 S1                 0.0000
     35 ****         2.0396   1.1063   0.3941 H              1 S1                 0.0000
     36 ****         1.9877   0.4208   1.9952 H              1 S1                 0.0000
     37 ****         2.7027  -0.3416  -1.5216 H              1 S1                 0.0000
     38 ****         1.0234  -0.8649  -1.4056 H              1 S1                 0.0000
     39 ****         2.2988  -2.0577  -1.4295 H              1 S1                 0.0000
     40 ****         4.2132  -0.6496   0.4866 H              1 S1                 0.0000
     41 ****         3.5280  -1.1623   2.0002 H              1 S1                 0.0000
     42 ****         4.9359  -1.6554  -1.7433 H              1 S1                 0.0000
     43 ****         5.6339  -3.1659  -2.3083 H              1 S1                 0.0000
     44 ****         6.4479  -2.2360  -1.0537 H              1 S1                 0.0000
     45 ****         1.7282  -3.4001   2.4902 H              1 S1                 0.0000
     46 ****         3.1103  -3.9652   3.4310 H              1 S1                 0.0000
     47 ****         2.1439  -5.1135   2.5024 H              1 S1                 0.0000
     48 ****        -1.1573   2.1845  -1.2943 H              1 S1                 0.0000
     49 ****        -1.7344   2.5487  -3.5429 H              1 S1                 0.0000
     50 ****        -3.1479   3.5703  -3.7895 H              1 S1                 0.0000
     51 ****        -3.2627   1.8204  -4.0312 H              1 S1                 0.0000
     52 ****         1.5187  -1.7191   0.7907 H              1 S1                 0.0000
     53 ****        -4.8237   1.9036   2.6613 H              1 S1                 0.0000
     54 ****        -0.0531  -0.4558   2.8131 LP             1 S1                 0.0000
     55 ****        -0.1004  -1.5366   1.5898 LP             1 S1                 0.0000
     56 ****         5.3363  -5.2046  -0.9074 LP             1 S1                 0.0000
     57 ****         4.5612  -5.4791   1.4516 LP             1 S1                 0.0000
     58 ****         3.2796  -5.6159   0.4489 LP             1 S1                 0.0000
@<TRIPOS>BOND
    1    1    2 1     
    2    1   26 1     
    3    1   27 1     
    4    1   28 1     
    5    2   24 ar    
    6    2    3 ar    
    7    3    4 ar    
    8    3   29 1     
    9    4   22 ar    
   10    4    5 1     
   11    5    6 2     
   12    5   53 1     
   13    6    7 1     
   14    6   30 1     
   15    7    8 1     
   16    7   22 1     
   17    8    9 1     
   18    8   31 1     
   19    8   32 1     
   20    9   10 1     
   21    9   11 1     
   22    9   33 1     
   23   10   34 1     
   24   11   12 1     
   25   11   35 1     
   26   11   36 1     
   27   12   13 1     
   28   12   14 1     
   29   12   52 1     
   30   13   37 1     
   31   13   38 1     
   32   13   39 1     
   33   14   15 1     
   34   14   40 1     
   35   14   41 1     
   36   15   20 2     
   37   15   16 1     
   38   16   17 1     
   39   16   18 2     
   40   17   42 1     
   41   17   43 1     
   42   17   44 1     
   43   18   19 1     
   44   19   20 1     
   45   20   21 1     
   46   21   45 1     
   47   21   46 1     
   48   21   47 1     
   49   22   23 ar    
   50   23   24 ar    
   51   23   48 1     
   52   24   25 1     
   53   25   49 1     
   54   25   50 1     
   55   25   51 1     
   56   10   54 1     
   57   10   55 1     
   58   18   56 1     
   59   19   57 1     
   60   19   58 1     
@<TRIPOS>SUBSTRUCTURE
      1 S1             1
@<TRIPOS>SET
LONE_PAIRS      STATIC     ATOMS    <user>   **** ""
5 54 55 56 57 58
DONOR_HYDROGENS      STATIC     ATOMS    <user>   **** ""
3 53 34 52
ATOM$BLUE        STATIC     ATOMS    COLORGROUP SYSTEM
5 54 55 56 57 58
ATOM$RED        STATIC     ATOMS    COLORGROUP SYSTEM
3 53 34 52
