AV-unprocessed.smi:2471|AV-procd|sdf|9737|dock10
  -GOLD-   2272013373D 1   1.00000     0.00000
 Structure written by MMmdl.
 40 41  0  0  0  0  0  0  0  0  1 V2000
  146.5425  142.6517  154.4401 C   0  0  0  0  0  0  0  0  0  0  0  0
  147.4739  141.4580  154.4437 C   0  0  0  0  0  0  0  0  0  0  0  0
  148.7228  141.5148  155.0933 C   0  0  0  0  0  0  0  0  0  0  0  0
  149.5377  140.3690  155.0640 C   0  0  0  0  0  0  0  0  0  0  0  0
  149.0742  139.2224  154.3904 C   0  0  0  0  0  0  0  0  0  0  0  0
  147.8094  139.2494  153.7609 C   0  0  0  0  0  0  0  0  0  0  0  0
  147.4372  138.0449  153.1072 N   0  0  0  0  0  0  0  0  0  0  0  0
  146.2035  137.5380  152.9354 C   0  0  0  0  0  0  0  0  0  0  0  0
  145.1574  138.0589  153.3239 O   0  0  0  0  0  0  0  0  0  0  0  0
  146.2471  136.3721  152.2745 N   0  0  0  0  0  0  0  0  0  0  0  0
  145.0838  135.5646  151.9191 C   0  0  0  0  0  0  0  0  0  0  0  0
  145.4638  134.2146  151.2633 C   0  0  2  0  0  0  0  0  0  0  0  0
  144.2250  133.5022  150.6710 C   0  0  0  0  0  0  0  0  0  0  0  0
  144.5824  132.1471  150.0418 C   0  0  0  0  0  0  0  0  0  0  0  0
  145.2841  131.2342  151.0560 C   0  0  0  0  0  0  0  0  0  0  0  0
  146.5326  131.9176  151.6303 C   0  0  0  0  0  0  0  0  0  0  0  0
  146.1877  133.2788  152.2629 C   0  0  1  0  0  0  0  0  0  0  0  0
  147.3937  133.8687  152.7058 O   0  0  0  0  0  0  0  0  0  0  0  0
  147.0297  140.3589  153.7970 N   0  0  0  0  0  0  0  0  0  0  0  0
  147.0236  143.5303  154.8709 H   0  0  0  0  0  0  0  0  0  0  0  0
  145.6468  142.4327  155.0218 H   0  0  0  0  0  0  0  0  0  0  0  0
  146.2399  142.8957  153.4214 H   0  0  0  0  0  0  0  0  0  0  0  0
  149.0492  142.4100  155.6021 H   0  0  0  0  0  0  0  0  0  0  0  0
  150.5019  140.3683  155.5501 H   0  0  0  0  0  0  0  0  0  0  0  0
  149.6881  138.3340  154.3587 H   0  0  0  0  0  0  0  0  0  0  0  0
  148.1998  137.5075  152.7227 H   0  0  0  0  0  0  0  0  0  0  0  0
  147.1494  136.0166  151.9942 H   0  0  0  0  0  0  0  0  0  0  0  0
  144.4794  135.4054  152.8135 H   0  0  0  0  0  0  0  0  0  0  0  0
  144.4656  136.1475  151.2358 H   0  0  0  0  0  0  0  0  0  0  0  0
  146.1517  134.4169  150.4407 H   0  0  0  0  0  0  0  0  0  0  0  0
  143.4799  133.3515  151.4534 H   0  0  0  0  0  0  0  0  0  0  0  0
  143.7521  134.1265  149.9126 H   0  0  0  0  0  0  0  0  0  0  0  0
  143.6805  131.6623  149.6671 H   0  0  0  0  0  0  0  0  0  0  0  0
  145.2306  132.3042  149.1788 H   0  0  0  0  0  0  0  0  0  0  0  0
  144.5965  130.9852  151.8652 H   0  0  0  0  0  0  0  0  0  0  0  0
  145.5594  130.2919  150.5813 H   0  0  0  0  0  0  0  0  0  0  0  0
  146.9979  131.2673  152.3719 H   0  0  0  0  0  0  0  0  0  0  0  0
  147.2663  132.0533  150.8340 H   0  0  0  0  0  0  0  0  0  0  0  0
  145.5527  133.1166  153.1349 H   0  0  0  0  0  0  0  0  0  0  0  0
  147.5784  134.6194  152.1620 H   0  0  0  0  0  0  0  0  0  0  0  0
  1  2  1  0  0  0  0
  1 20  1  0  0  0  0
  1 21  1  0  0  0  0
  1 22  1  0  0  0  0
  2 19  1  0  0  0  0
  2  3  2  0  0  0  0
  3  4  1  0  0  0  0
  3 23  1  0  0  0  0
  4  5  2  0  0  0  0
  4 24  1  0  0  0  0
  5  6  1  0  0  0  0
  5 25  1  0  0  0  0
  6  7  1  0  0  0  0
  6 19  2  0  0  0  0
  7  8  1  0  0  0  0
  7 26  1  0  0  0  0
  8  9  2  0  0  0  0
  8 10  1  0  0  0  0
 10 11  1  0  0  0  0
 10 27  1  0  0  0  0
 11 12  1  0  0  0  0
 11 28  1  0  0  0  0
 11 29  1  0  0  0  0
 12 17  1  0  0  0  0
 12 13  1  0  0  0  0
 12 30  1  0  0  0  0
 13 14  1  0  0  0  0
 13 31  1  0  0  0  0
 13 32  1  0  0  0  0
 14 15  1  0  0  0  0
 14 33  1  0  0  0  0
 14 34  1  0  0  0  0
 15 16  1  0  0  0  0
 15 35  1  0  0  0  0
 15 36  1  0  0  0  0
 16 17  1  0  0  0  0
 16 37  1  0  0  0  0
 16 38  1  0  0  0  0
 17 18  1  0  0  0  0
 17 39  1  0  0  0  0
 18 40  1  0  0  0  0
M  END
> <s_m_source_file>
AV-unprocessed.smi

> <i_m_source_file_index>
2471

> <i_lp_mmshare_version>
43012

> <i_f3d_flags>
0

> <s_epik_input>
W0NIM11jMVtjSF1bY0hdW2NIXWMobjEpW05IXUMoPU8pW05IXVtDSDJdW0NAQEhdMltDSDJdW0NIMl1bQ0gyXVtDSDJdW0NASF0yW09IXQ==

> <s_epik_cmdline>
J2VwaWtfcHl0aG9uJywgJy1waCcsICc3LjAnLCAnLXRuJywgJzgnLCAnLW1hJywgJzIwMCcsICctbWV0YWxfYmluZGluZycsICctaW1hZScsICc8aW5maWxlLm1hZT4nLCAnLW9tYWUnLCAnPG91dGZpbGUubWFlPic=

> <r_lp_tautomer_probability>
1

> <r_epik_Ionization_Penalty>
8.52237e-05

> <r_epik_Ionization_Penalty_Charging>
0

> <r_epik_Ionization_Penalty_Neutral>
8.52237e-05

> <r_epik_State_Penalty>
-0

> <r_epik_Charging_Adjusted_Penalty>
0

> <i_epik_Tot_Q>
0

> <i_epik_Tot_abs_Q>
0

> <r_epik_Metal_State_Penalty>
-0

> <b_epik_Metal_Only>
0

> <s_lp_Force_Field>
OPLS_2005

> <r_lp_Energy>
13.6744

> <b_lp_Chiralities_Consistent>
1

> <s_lp_Variant>
AV-unprocessed.smi:2471-1

> <Gold.Version>
5.8.1

> <Gold.Id.Protein>
6NUR|6NUR_protein|mol2

> <Gold.PLP.Fitness>
43.2428

> <Gold.PLP.PLP>
-35.4341

> <Gold.PLP.part.hbond>
-3.0000

> <Gold.PLP.part.metal>
0.0000

> <Gold.PLP.part.buried>
-1.6359

> <Gold.PLP.part.nonpolar>
-32.8033

> <Gold.PLP.part.repulsive>
2.6894

> <Gold.PLP.ligand.clash>
0.0000

> <Gold.PLP.ligand.torsion>
0.2493

> <Gold.PLP.Chemscore.Hbond>
2.7680

> <Gold.PLP.Chemscore.CHOScore>
0.0000

> <Gold.PLP.Chemscore.Metal>
0.0000

> <Gold.Chemscore.Hbonds>
donor molecule, donor type, donor heavy atom, donor atom, acceptor molecule, acceptor atom, score
      L1  H     7    26       P1  7948  1.00
      L1  H    10    27       P1  7948  1.00
      L1  H    18    40       P1  7948  0.74

> <Gold.PLP.Chemscore.Internal.Correction>
0.0034

> <Gold.Rescore>
     Score         DG    S(hbond)    S(metal)    S(lipo)     H(rot)  DE(clash)    DE(int)     intcor
     15.36     -19.32       2.63        0.00      81.22       1.73       1.32       2.65       ----

> <Gold.Chemscore.Fitness>
15.3555

> <Gold.Chemscore.DG>
-19.3200

> <Gold.Chemscore.ZeroCoef>
-5.4800

> <Gold.Chemscore.Hbond>
2.6274

> <Gold.Chemscore.Metal>
0.0000

> <Gold.Chemscore.Lipo>
81.2232

> <Gold.Chemscore.Internal_Hbond>
0.0000

> <Gold.Chemscore.DEClash>
1.3165

> <Gold.Chemscore.DEInternal>
2.6481

> <Gold.Chemscore.Rot>
1.7339

> <Gold.Chemscore.Internal.Correction>
   9.000000E+99

> <Gold.Chemscore.Hbonds>
donor molecule, donor type, donor heavy atom, donor atom, acceptor molecule, acceptor atom, score
      L1  H     7    26       P1  7948  0.99
      L1  H    10    27       P1  7948  0.95
      L1  H    18    40       P1  7948  0.50

> <Gold.Chemscore.Hbond.Weighted>
-8.7756

> <Gold.Chemscore.Metal.Weighted>
-0.0000

> <Gold.Chemscore.Lipo.Weighted>
-9.5031

> <Gold.Chemscore.Internal_Hbond.Weighted>
0.0000

> <Gold.Chemscore.DEClash.Weighted>
1.3165

> <Gold.Chemscore.DEInternal.Weighted>
2.6481

> <Gold.Chemscore.Rot.Weighted>
4.4387

> <Gold.Chemscore.Internal.Correction.Weighted>
   9.000000E+99

> <Gold.Protein.RotatedTorsions>
[ 6907 6896 6895 6894 ] final  133.98 input  -60.11 | X-H torsion
[ 7974 7965 7964 7962 ] final  -69.82 input  175.53 | X-H torsion
[ 8008 7997 7996 7995 ] final   60.11 input   59.86 | X-H torsion
[ 10167 10162 10161 10158 ] final -136.72 input  -65.29 | X-H torsion
[ 10718 10713 10712 10709 ] final  -63.04 input   66.30 | X-H torsion
[ 10763 10752 10751 10750 ] final  -17.20 input  -60.55 | X-H torsion
[ 11005 11000 10999 10996 ] final   17.51 input  -57.11 | X-H torsion

> <Gold.Protein.ActiveResidues>
 VAL166  LYS551  ARG553  GLY616  TRP617  ASP618  TYR619  PRO620  LYS621  CYS622 
 ASP623  PHE694  ASN695  SER759  ASP760  ASP761  ALA762  ILE779  LEU786  VAL792 
 PHE793  MET794  SER795  GLU796  ALA797  LYS798  CYS799  TRP800  GLU811  SER814 

> <Gold.Protein.RotatedAtoms>
  152.3161  133.5804  159.5713 H   0  0  0  0  0  0  0  0  0  0  0  0  # atno 6907 bound_to 6896
  150.7347  134.0080  159.3669 H   0  0  0  0  0  0  0  0  0  0  0  0  # atno 6908 bound_to 6896
  151.7968  135.0720  160.0446 H   0  0  0  0  0  0  0  0  0  0  0  0  # atno 6909 bound_to 6896
  145.6989  140.9124  143.0742 H   0  0  0  0  0  0  0  0  0  0  0  0  # atno 7974 bound_to 7965
  155.5770  140.3491  155.4530 H   0  0  0  0  0  0  0  0  0  0  0  0  # atno 8008 bound_to 7997
  156.0401  140.1294  157.0190 H   0  0  0  0  0  0  0  0  0  0  0  0  # atno 8009 bound_to 7997
  154.4388  140.1026  156.6211 H   0  0  0  0  0  0  0  0  0  0  0  0  # atno 8010 bound_to 7997
  139.8649  143.7030  152.2646 H   0  0  0  0  0  0  0  0  0  0  0  0  # atno 10167 bound_to 10162
  156.0816  130.4216  150.1220 H   0  0  0  0  0  0  0  0  0  0  0  0  # atno 10718 bound_to 10713
  153.5702  135.7007  153.5508 H   0  0  0  0  0  0  0  0  0  0  0  0  # atno 10763 bound_to 10752
  153.3351  135.4036  155.1526 H   0  0  0  0  0  0  0  0  0  0  0  0  # atno 10764 bound_to 10752
  154.8634  135.3728  154.5225 H   0  0  0  0  0  0  0  0  0  0  0  0  # atno 10765 bound_to 10752
  140.4351  134.1379  155.7684 H   0  0  0  0  0  0  0  0  0  0  0  0  # atno 11005 bound_to 11000
  144.6974  139.8921  143.7453 LP  0  0  0  0  0  0  0  0  0  0  0  0  # atno 17320 bound_to 7965
  146.0816  139.3803  143.0461 LP  0  0  0  0  0  0  0  0  0  0  0  0  # atno 17321 bound_to 7965
  139.7338  144.7576  151.0760 LP  0  0  0  0  0  0  0  0  0  0  0  0  # atno 17342 bound_to 10162
  140.7769  143.5055  150.9717 LP  0  0  0  0  0  0  0  0  0  0  0  0  # atno 17343 bound_to 10162
  156.9250  130.9695  151.3542 LP  0  0  0  0  0  0  0  0  0  0  0  0  # atno 17370 bound_to 10713
  157.5935  130.8461  149.8695 LP  0  0  0  0  0  0  0  0  0  0  0  0  # atno 17371 bound_to 10713
  141.1729  133.8572  157.1514 LP  0  0  0  0  0  0  0  0  0  0  0  0  # atno 17394 bound_to 11000
  140.0107  134.9989  157.0390 LP  0  0  0  0  0  0  0  0  0  0  0  0  # atno 17395 bound_to 11000

$$$$
