AV-unprocessed.smi:2952|AV-procd|sdf|11291|dock2
  -GOLD-   2272016183D 1   1.00000     0.00000
 Structure written by MMmdl.
 38 40  0  0  0  0  0  0  0  0  1 V2000
  149.2478  141.1485  153.5267 O   0  0  0  0  0  0  0  0  0  0  0  0
  149.3414  141.1282  154.9353 C   0  0  0  0  0  0  0  0  0  0  0  0
  150.3918  142.1303  155.4429 C   0  0  0  0  0  0  0  0  0  0  0  0
  151.2531  141.5641  156.4732 N   0  0  0  0  0  0  0  0  0  0  0  0
  151.8494  140.3439  156.5136 C   0  0  0  0  0  0  0  0  0  0  0  0
  151.6966  139.3315  155.4096 C   0  0  0  0  0  0  0  0  0  0  0  0
  151.2434  138.0152  155.8590 N   0  0  0  0  0  0  0  0  0  0  0  0
  152.1852  137.3900  156.7851 C   0  0  0  0  0  0  0  0  0  0  0  0
  151.7040  136.0012  157.2384 C   0  0  0  0  0  0  0  0  0  0  0  0
  151.4873  135.1759  156.0979 O   0  0  0  0  0  0  0  0  0  0  0  0
  150.5414  135.7307  155.1893 C   0  0  0  0  0  0  0  0  0  0  0  0
  151.0199  137.1194  154.7307 C   0  0  0  0  0  0  0  0  0  0  0  0
  152.5689  140.0915  157.6102 N   0  0  0  0  0  0  0  0  0  0  0  0
  152.4452  141.2590  158.3355 C   0  0  0  0  0  0  0  0  0  0  0  0
  152.9846  141.6228  159.5900 C   0  0  0  0  0  0  0  0  0  0  0  0
  152.7145  142.8925  160.1414 C   0  0  0  0  0  0  0  0  0  0  0  0
  151.9027  143.8140  159.4481 C   0  0  0  0  0  0  0  0  0  0  0  0
  151.5782  145.3637  160.1329 Cl  0  0  0  0  0  0  0  0  0  0  0  0
  151.3553  143.4701  158.1972 C   0  0  0  0  0  0  0  0  0  0  0  0
  151.6284  142.2017  157.6513 C   0  0  0  0  0  0  0  0  0  0  0  0
  149.6353  140.3555  153.1885 H   0  0  0  0  0  0  0  0  0  0  0  0
  148.3620  141.3554  155.3569 H   0  0  0  0  0  0  0  0  0  0  0  0
  149.6011  140.1188  155.2546 H   0  0  0  0  0  0  0  0  0  0  0  0
  151.0228  142.4426  154.6103 H   0  0  0  0  0  0  0  0  0  0  0  0
  149.9202  143.0414  155.8092 H   0  0  0  0  0  0  0  0  0  0  0  0
  150.9783  139.7403  154.6983 H   0  0  0  0  0  0  0  0  0  0  0  0
  152.6342  139.2175  154.8678 H   0  0  0  0  0  0  0  0  0  0  0  0
  153.1613  137.2917  156.3081 H   0  0  0  0  0  0  0  0  0  0  0  0
  152.3293  138.0213  157.6623 H   0  0  0  0  0  0  0  0  0  0  0  0
  152.4489  135.5330  157.8818 H   0  0  0  0  0  0  0  0  0  0  0  0
  150.7835  136.0820  157.8184 H   0  0  0  0  0  0  0  0  0  0  0  0
  150.4346  135.0641  154.3335 H   0  0  0  0  0  0  0  0  0  0  0  0
  149.5633  135.7976  155.6683 H   0  0  0  0  0  0  0  0  0  0  0  0
  150.2795  137.5514  154.0564 H   0  0  0  0  0  0  0  0  0  0  0  0
  151.9408  137.0114  154.1556 H   0  0  0  0  0  0  0  0  0  0  0  0
  153.6066  140.9235  160.1291 H   0  0  0  0  0  0  0  0  0  0  0  0
  153.1320  143.1585  161.1015 H   0  0  0  0  0  0  0  0  0  0  0  0
  150.7331  144.1722  157.6625 H   0  0  0  0  0  0  0  0  0  0  0  0
  1  2  1  0  0  0  0
  1 21  1  0  0  0  0
  2  3  1  0  0  0  0
  2 22  1  0  0  0  0
  2 23  1  0  0  0  0
  3  4  1  0  0  0  0
  3 24  1  0  0  0  0
  3 25  1  0  0  0  0
  4 20  1  0  0  0  0
  4  5  1  0  0  0  0
  5  6  1  0  0  0  0
  5 13  2  0  0  0  0
  6  7  1  0  0  0  0
  6 26  1  0  0  0  0
  6 27  1  0  0  0  0
  7 12  1  0  0  0  0
  7  8  1  0  0  0  0
  8  9  1  0  0  0  0
  8 28  1  0  0  0  0
  8 29  1  0  0  0  0
  9 10  1  0  0  0  0
  9 30  1  0  0  0  0
  9 31  1  0  0  0  0
 10 11  1  0  0  0  0
 11 12  1  0  0  0  0
 11 32  1  0  0  0  0
 11 33  1  0  0  0  0
 12 34  1  0  0  0  0
 12 35  1  0  0  0  0
 13 14  1  0  0  0  0
 14 20  2  0  0  0  0
 14 15  1  0  0  0  0
 15 16  2  0  0  0  0
 15 36  1  0  0  0  0
 16 17  1  0  0  0  0
 16 37  1  0  0  0  0
 17 18  1  0  0  0  0
 17 19  2  0  0  0  0
 19 20  1  0  0  0  0
 19 38  1  0  0  0  0
M  END
> <s_m_source_file>
AV-unprocessed.smi

> <i_m_source_file_index>
2952

> <i_lp_mmshare_version>
43012

> <i_f3d_flags>
0

> <s_epik_input>
W2NIXTFbY0hdYyhDbClbY0hdYyhjMTIpbihbQ0gyXVtDSDJdW09IXSljKG4yKVtDSDJdTjNbQ0gyXVtDSDJdT1tDSDJdW0NIMl0z

> <s_epik_cmdline>
J2VwaWtfcHl0aG9uJywgJy1waCcsICc3LjAnLCAnLXRuJywgJzgnLCAnLW1hJywgJzIwMCcsICctbWV0YWxfYmluZGluZycsICctaW1hZScsICc8aW5maWxlLm1hZT4nLCAnLW9tYWUnLCAnPG91dGZpbGUubWFlPic=

> <r_epik_Ionization_Penalty>
0.0905371

> <r_epik_Ionization_Penalty_Charging>
0

> <r_epik_Ionization_Penalty_Neutral>
0.0905371

> <r_epik_State_Penalty>
0.0787939

> <r_epik_Charging_Adjusted_Penalty>
0.0787939

> <i_epik_Tot_Q>
0

> <i_epik_Tot_abs_Q>
0

> <r_epik_Metal_State_Penalty>
8.42675e-05

> <b_epik_Metal_Only>
0

> <s_lp_Force_Field>
OPLS_2005

> <r_lp_Energy>
22.7724

> <b_lp_Chiralities_Consistent>
1

> <s_lp_Variant>
AV-unprocessed.smi:2952-1

> <Gold.Version>
5.8.1

> <Gold.Id.Protein>
6NUR|6NUR_protein|mol2

> <Gold.PLP.Fitness>
49.7088

> <Gold.PLP.PLP>
-40.5195

> <Gold.PLP.part.hbond>
-5.0000

> <Gold.PLP.part.metal>
0.0000

> <Gold.PLP.part.buried>
-2.9294

> <Gold.PLP.part.nonpolar>
-32.1941

> <Gold.PLP.part.repulsive>
0.0455

> <Gold.PLP.ligand.clash>
0.0000

> <Gold.PLP.ligand.torsion>
0.5821

> <Gold.PLP.Chemscore.Hbond>
3.4473

> <Gold.PLP.Chemscore.CHOScore>
0.0000

> <Gold.PLP.Chemscore.Metal>
0.0000

> <Gold.Chemscore.Hbonds>
donor molecule, donor type, donor heavy atom, donor atom, acceptor molecule, acceptor atom, score
      L1  H     1    21       P1  7957  0.35
      P1  H  7997  8010       L1    13  0.84
      P1  H  8011  8017       L1     1  1.00
      P1  H 10752 10764       L1    10  0.85

> <Gold.PLP.Chemscore.Internal.Correction>
0.0117

> <Gold.Rescore>
     Score         DG    S(hbond)    S(metal)    S(lipo)     H(rot)  DE(clash)    DE(int)     intcor
     13.05     -18.83       1.46        0.00     118.78       2.13       2.37       3.41       ----

> <Gold.Chemscore.Fitness>
13.0494

> <Gold.Chemscore.DG>
-18.8282

> <Gold.Chemscore.ZeroCoef>
-5.4800

> <Gold.Chemscore.Hbond>
1.4647

> <Gold.Chemscore.Metal>
0.0000

> <Gold.Chemscore.Lipo>
118.7823

> <Gold.Chemscore.Internal_Hbond>
0.0000

> <Gold.Chemscore.DEClash>
2.3711

> <Gold.Chemscore.DEInternal>
3.4077

> <Gold.Chemscore.Rot>
2.1256

> <Gold.Chemscore.Internal.Correction>
   9.000000E+99

> <Gold.Chemscore.Hbonds>
donor molecule, donor type, donor heavy atom, donor atom, acceptor molecule, acceptor atom, score
      L1  H     1    21       P1  7957  0.32
      P1  H  7997  8010       L1    13  0.09
      P1  H  8011  8017       L1     1  0.38
      P1  H 10752 10764       L1    10  0.06

> <Gold.Chemscore.Hbond.Weighted>
-4.8922

> <Gold.Chemscore.Metal.Weighted>
-0.0000

> <Gold.Chemscore.Lipo.Weighted>
-13.8975

> <Gold.Chemscore.Internal_Hbond.Weighted>
0.0000

> <Gold.Chemscore.DEClash.Weighted>
2.3711

> <Gold.Chemscore.DEInternal.Weighted>
3.4077

> <Gold.Chemscore.Rot.Weighted>
5.4415

> <Gold.Chemscore.Internal.Correction.Weighted>
   9.000000E+99

> <Gold.Protein.RotatedTorsions>
[ 6907 6896 6895 6894 ] final -171.74 input  -60.11 | X-H torsion
[ 7974 7965 7964 7962 ] final  -52.85 input  175.53 | X-H torsion
[ 8008 7997 7996 7995 ] final   56.06 input   59.86 | X-H torsion
[ 10167 10162 10161 10158 ] final -100.22 input  -65.29 | X-H torsion
[ 10718 10713 10712 10709 ] final -122.38 input   66.30 | X-H torsion
[ 10763 10752 10751 10750 ] final  -34.56 input  -60.55 | X-H torsion
[ 11005 11000 10999 10996 ] final  126.38 input  -57.11 | X-H torsion

> <Gold.Protein.ActiveResidues>
 VAL166  LYS551  ARG553  GLY616  TRP617  ASP618  TYR619  PRO620  LYS621  CYS622 
 ASP623  PHE694  ASN695  SER759  ASP760  ASP761  ALA762  ILE779  LEU786  VAL792 
 PHE793  MET794  SER795  GLU796  ALA797  LYS798  CYS799  TRP800  GLU811  SER814 

> <Gold.Protein.RotatedAtoms>
  151.5287  133.3453  159.2914 H   0  0  0  0  0  0  0  0  0  0  0  0  # atno 6907 bound_to 6896
  150.8607  134.7960  159.7091 H   0  0  0  0  0  0  0  0  0  0  0  0  # atno 6908 bound_to 6896
  152.4627  134.5155  159.9818 H   0  0  0  0  0  0  0  0  0  0  0  0  # atno 6909 bound_to 6896
  145.9034  140.7975  142.9732 H   0  0  0  0  0  0  0  0  0  0  0  0  # atno 7974 bound_to 7965
  155.5113  140.3477  155.4389 H   0  0  0  0  0  0  0  0  0  0  0  0  # atno 8008 bound_to 7997
  156.0847  140.1395  156.9695 H   0  0  0  0  0  0  0  0  0  0  0  0  # atno 8009 bound_to 7997
  154.4600  140.0938  156.6843 H   0  0  0  0  0  0  0  0  0  0  0  0  # atno 8010 bound_to 7997
  140.2542  143.3452  152.0687 H   0  0  0  0  0  0  0  0  0  0  0  0  # atno 10167 bound_to 10162
  156.1414  130.6468  150.9776 H   0  0  0  0  0  0  0  0  0  0  0  0  # atno 10718 bound_to 10713
  153.8487  135.6851  153.4795 H   0  0  0  0  0  0  0  0  0  0  0  0  # atno 10763 bound_to 10752
  153.1410  135.4657  154.9494 H   0  0  0  0  0  0  0  0  0  0  0  0  # atno 10764 bound_to 10752
  154.7812  135.3269  154.7933 H   0  0  0  0  0  0  0  0  0  0  0  0  # atno 10765 bound_to 10752
  139.9453  134.9630  156.8698 H   0  0  0  0  0  0  0  0  0  0  0  0  # atno 11005 bound_to 11000
  144.6737  140.1712  143.7414 LP  0  0  0  0  0  0  0  0  0  0  0  0  # atno 17320 bound_to 7965
  145.8763  139.2298  143.1631 LP  0  0  0  0  0  0  0  0  0  0  0  0  # atno 17321 bound_to 7965
  139.5037  144.6760  151.6127 LP  0  0  0  0  0  0  0  0  0  0  0  0  # atno 17342 bound_to 10162
  140.6017  143.9598  150.6391 LP  0  0  0  0  0  0  0  0  0  0  0  0  # atno 17343 bound_to 10162
  157.6579  131.0886  150.7906 LP  0  0  0  0  0  0  0  0  0  0  0  0  # atno 17370 bound_to 10713
  156.7981  130.4912  149.5374 LP  0  0  0  0  0  0  0  0  0  0  0  0  # atno 17371 bound_to 10713
  140.5849  134.0316  155.7478 LP  0  0  0  0  0  0  0  0  0  0  0  0  # atno 17394 bound_to 11000
  141.1102  133.9629  157.2925 LP  0  0  0  0  0  0  0  0  0  0  0  0  # atno 17395 bound_to 11000

$$$$
