AV-unprocessed.smi:39|AV-procd|sdf|352|dock4
  -GOLD-   2262016193D 1   1.00000     0.00000
 Structure written by MMmdl.
 32 33  0  0  0  0  0  0  0  0  3 V2000
  152.5315  144.9526  158.3968 C   0  0  0  0  0  0  0  0  0  0  0  0
  152.1206  143.4924  158.3015 C   0  0  0  0  0  0  0  0  0  0  0  0
  151.2725  143.0359  157.3441 C   0  0  0  0  0  0  0  0  0  0  0  0
  150.8799  141.7067  157.2314 N   0  0  0  0  0  0  0  0  0  0  0  0
  149.9224  141.2194  156.1609 C   0  0  2  0  0  0  0  0  0  0  0  0
  148.8094  140.3543  156.7768 C   0  0  0  0  0  0  0  0  0  0  0  0
  148.8435  139.1033  155.9162 C   0  0  2  0  0  0  0  0  0  0  0  0
  148.3862  137.9232  156.6562 N   0  0  0  0  0  0  0  0  0  0  0  0
  147.9744  138.1122  157.8083 N   0  3  0  0  0  0  0  0  0  0  0  0
  147.5182  138.3725  158.8181 N   0  5  0  0  0  0  0  0  0  0  0  0
  150.3229  139.0393  155.5274 C   0  0  1  0  0  0  0  0  0  0  0  0
  150.6149  138.1949  154.2772 C   0  0  0  0  0  0  0  0  0  0  0  0
  149.8223  138.6458  153.2000 O   0  0  0  0  0  0  0  0  0  0  0  0
  150.5980  140.4074  155.2467 O   0  0  0  0  0  0  0  0  0  0  0  0
  151.3660  140.7659  158.1626 C   0  0  0  0  0  0  0  0  0  0  0  0
  151.0520  139.5765  158.1314 O   0  0  0  0  0  0  0  0  0  0  0  0
  152.2366  141.2338  159.1449 N   0  0  0  0  0  0  0  0  0  0  0  0
  152.6637  142.5553  159.2888 C   0  0  0  0  0  0  0  0  0  0  0  0
  153.4381  142.8478  160.1985 O   0  0  0  0  0  0  0  0  0  0  0  0
  149.5646  142.1161  155.6514 H   0  0  0  0  0  0  0  0  0  0  0  0
  148.2374  139.2830  155.0249 H   0  0  0  0  0  0  0  0  0  0  0  0
  150.9142  138.6993  156.3804 H   0  0  0  0  0  0  0  0  0  0  0  0
  152.5878  140.5606  159.8102 H   0  0  0  0  0  0  0  0  0  0  0  0
  152.0831  145.5531  157.6047 H   0  0  0  0  0  0  0  0  0  0  0  0
  153.6148  145.0503  158.3160 H   0  0  0  0  0  0  0  0  0  0  0  0
  152.2197  145.3739  159.3530 H   0  0  0  0  0  0  0  0  0  0  0  0
  150.8920  143.7620  156.6418 H   0  0  0  0  0  0  0  0  0  0  0  0
  149.0493  140.1220  157.8162 H   0  0  0  0  0  0  0  0  0  0  0  0
  147.8498  140.8711  156.7442 H   0  0  0  0  0  0  0  0  0  0  0  0
  151.6570  138.3027  153.9779 H   0  0  0  0  0  0  0  0  0  0  0  0
  150.4392  137.1349  154.4631 H   0  0  0  0  0  0  0  0  0  0  0  0
  149.5143  137.8938  152.7178 H   0  0  0  0  0  0  0  0  0  0  0  0
  1  2  1  0  0  0  0
  1 24  1  0  0  0  0
  1 25  1  0  0  0  0
  1 26  1  0  0  0  0
  2 18  1  0  0  0  0
  2  3  2  0  0  0  0
  3  4  1  0  0  0  0
  3 27  1  0  0  0  0
  4  5  1  0  0  0  0
  4 15  1  0  0  0  0
  5 20  1  0  0  0  0
  5 14  1  0  0  0  0
  5  6  1  0  0  0  0
  6  7  1  0  0  0  0
  6 28  1  0  0  0  0
  6 29  1  0  0  0  0
  7 21  1  0  0  0  0
  7  8  1  0  0  0  0
  7 11  1  0  0  0  0
  8  9  2  0  0  0  0
  9 10  2  0  0  0  0
 11 22  1  0  0  0  0
 11 12  1  0  0  0  0
 11 14  1  0  0  0  0
 12 13  1  0  0  0  0
 12 30  1  0  0  0  0
 12 31  1  0  0  0  0
 13 32  1  0  0  0  0
 15 16  2  0  0  0  0
 15 17  1  0  0  0  0
 17 23  1  0  0  0  0
 17 18  1  0  0  0  0
 18 19  2  0  0  0  0
M  CHG  1   9   1
M  CHG  1  10  -1
M  END
> <s_m_source_file>
AV-unprocessed.smi

> <i_m_source_file_index>
39

> <i_lp_mmshare_version>
43012

> <i_f3d_flags>
0

> <s_epik_input>
Tz1jMVtuSF1jKD1PKW4oW2NIXWMxW0NIM10pW0NASF0yW0NIMl1bQ0BIXShOPVtOK109W04tXSlbQ0BIXShPMilbQ0gyXVtPSF0=

> <s_epik_cmdline>
J2VwaWtfcHl0aG9uJywgJy1waCcsICc3LjAnLCAnLXRuJywgJzgnLCAnLW1hJywgJzIwMCcsICctbWV0YWxfYmluZGluZycsICctaW1hZScsICc8aW5maWxlLm1hZT4nLCAnLW9tYWUnLCAnPG91dGZpbGUubWFlPic=

> <r_lp_tautomer_probability>
0.999537

> <r_epik_Ionization_Penalty>
0.00127512

> <r_epik_Ionization_Penalty_Charging>
0.00127507

> <r_epik_Ionization_Penalty_Neutral>
5.43433e-08

> <r_epik_State_Penalty>
0.000844892

> <r_epik_Charging_Adjusted_Penalty>
0.00211996

> <i_epik_Tot_Q>
0

> <i_epik_Tot_abs_Q>
2

> <r_epik_Metal_State_Penalty>
0.680636

> <b_epik_Metal_Only>
0

> <s_epik_Chemistry_Notes>
This compound contains an acetal/aminal-like group ( X-CH(R)-Y where X, Y are N, S, or O) that may be acid/base labile, releasing an aldehyde.

> <s_lp_Force_Field>
OPLS_2005

> <r_lp_Energy>
24.5803

> <b_lp_Chiralities_Consistent>
1

> <s_lp_Variant>
AV-unprocessed.smi:39-2

> <Gold.Version>
5.8.1

> <Gold.Id.Protein>
6NUR|6NUR_protein|mol2

> <Gold.PLP.Fitness>
39.1193

> <Gold.PLP.PLP>
-31.0964

> <Gold.PLP.part.hbond>
-3.7786

> <Gold.PLP.part.metal>
0.0000

> <Gold.PLP.part.buried>
-4.5876

> <Gold.PLP.part.nonpolar>
-22.8820

> <Gold.PLP.part.repulsive>
0.1793

> <Gold.PLP.ligand.clash>
0.6183

> <Gold.PLP.ligand.torsion>
0.2260

> <Gold.PLP.Chemscore.Hbond>
2.0179

> <Gold.PLP.Chemscore.CHOScore>
1.0000

> <Gold.PLP.Chemscore.Metal>
0.0000

> <Gold.Chemscore.Hbonds>
donor molecule, donor type, donor heavy atom, donor atom, acceptor molecule, acceptor atom, score
      L1  H    13    32       P1  7948  1.00
      P1  H  6934  6947       L1    10  0.14
      P1  H  7989  7998       L1    14  0.88
      L1  C     3    27       P1  8028  1.00

> <Gold.PLP.Chemscore.Internal.Correction>
0.0394

> <Gold.Rescore>
     Score         DG    S(hbond)    S(metal)    S(lipo)     H(rot)  DE(clash)    DE(int)     intcor
      7.50     -11.53       1.96        0.00      56.04       2.75       0.03       3.99       ----

> <Gold.Chemscore.Fitness>
7.5019

> <Gold.Chemscore.DG>
-11.5289

> <Gold.Chemscore.ZeroCoef>
-5.4800

> <Gold.Chemscore.Hbond>
1.9578

> <Gold.Chemscore.Metal>
0.0000

> <Gold.Chemscore.Lipo>
56.0351

> <Gold.Chemscore.Internal_Hbond>
0.0000

> <Gold.Chemscore.DEClash>
0.0339

> <Gold.Chemscore.DEInternal>
3.9932

> <Gold.Chemscore.Rot>
2.7524

> <Gold.Chemscore.Internal.Correction>
   9.000000E+99

> <Gold.Chemscore.Hbonds>
donor molecule, donor type, donor heavy atom, donor atom, acceptor molecule, acceptor atom, score
      L1  H    13    32       P1  7948  0.74
      P1  H  6934  6947       L1    10  0.15
      P1  H  7989  7998       L1    14  0.80

> <Gold.Chemscore.Hbond.Weighted>
-6.5389

> <Gold.Chemscore.Metal.Weighted>
-0.0000

> <Gold.Chemscore.Lipo.Weighted>
-6.5561

> <Gold.Chemscore.Internal_Hbond.Weighted>
0.0000

> <Gold.Chemscore.DEClash.Weighted>
0.0339

> <Gold.Chemscore.DEInternal.Weighted>
3.9932

> <Gold.Chemscore.Rot.Weighted>
7.0461

> <Gold.Chemscore.Internal.Correction.Weighted>
   9.000000E+99

> <Gold.Protein.RotatedTorsions>
[ 6907 6896 6895 6894 ] final  104.87 input  -60.11 | X-H torsion
[ 7974 7965 7964 7962 ] final -146.07 input  175.53 | X-H torsion
[ 8008 7997 7996 7995 ] final  -59.65 input   59.86 | X-H torsion
[ 10167 10162 10161 10158 ] final -168.45 input  -65.29 | X-H torsion
[ 10718 10713 10712 10709 ] final   75.79 input   66.30 | X-H torsion
[ 10763 10752 10751 10750 ] final  177.75 input  -60.55 | X-H torsion
[ 11005 11000 10999 10996 ] final  -53.31 input  -57.11 | X-H torsion

> <Gold.Protein.ActiveResidues>
 VAL166  LYS551  ARG553  GLY616  TRP617  ASP618  TYR619  PRO620  LYS621  CYS622 
 ASP623  PHE694  ASN695  SER759  ASP760  ASP761  ALA762  ILE779  LEU786  VAL792 
 PHE793  MET794  SER795  GLU796  ALA797  LYS798  CYS799  TRP800  GLU811  SER814 

> <Gold.Protein.RotatedAtoms>
  152.5250  133.9613  159.7718 H   0  0  0  0  0  0  0  0  0  0  0  0  # atno 6907 bound_to 6896
  150.9903  133.6148  159.2716 H   0  0  0  0  0  0  0  0  0  0  0  0  # atno 6908 bound_to 6896
  151.3293  135.0844  159.9386 H   0  0  0  0  0  0  0  0  0  0  0  0  # atno 6909 bound_to 6896
  144.8184  140.5502  143.5595 H   0  0  0  0  0  0  0  0  0  0  0  0  # atno 7974 bound_to 7965
  154.4362  140.1057  156.6149 H   0  0  0  0  0  0  0  0  0  0  0  0  # atno 8008 bound_to 7997
  155.5770  140.3490  155.4511 H   0  0  0  0  0  0  0  0  0  0  0  0  # atno 8009 bound_to 7997
  156.0347  140.1268  157.0210 H   0  0  0  0  0  0  0  0  0  0  0  0  # atno 8010 bound_to 7997
  139.5984  144.1063  152.1715 H   0  0  0  0  0  0  0  0  0  0  0  0  # atno 10167 bound_to 10162
  157.6648  130.9743  150.1404 H   0  0  0  0  0  0  0  0  0  0  0  0  # atno 10718 bound_to 10713
  154.4986  135.2782  155.1439 H   0  0  0  0  0  0  0  0  0  0  0  0  # atno 10763 bound_to 10752
  154.3082  135.6234  153.5457 H   0  0  0  0  0  0  0  0  0  0  0  0  # atno 10764 bound_to 10752
  152.9899  135.5713  154.5423 H   0  0  0  0  0  0  0  0  0  0  0  0  # atno 10765 bound_to 10752
  141.0969  133.6623  156.4153 H   0  0  0  0  0  0  0  0  0  0  0  0  # atno 11005 bound_to 11000
  145.5161  139.1478  143.3578 LP  0  0  0  0  0  0  0  0  0  0  0  0  # atno 17320 bound_to 7965
  146.2488  140.5302  142.8902 LP  0  0  0  0  0  0  0  0  0  0  0  0  # atno 17321 bound_to 7965
  140.0653  144.5823  150.7232 LP  0  0  0  0  0  0  0  0  0  0  0  0  # atno 17342 bound_to 10162
  140.7230  143.2608  151.4214 LP  0  0  0  0  0  0  0  0  0  0  0  0  # atno 17343 bound_to 10162
  156.2228  130.3675  149.8536 LP  0  0  0  0  0  0  0  0  0  0  0  0  # atno 17370 bound_to 10713
  156.6384  130.8695  151.3509 LP  0  0  0  0  0  0  0  0  0  0  0  0  # atno 17371 bound_to 10713
  140.5118  134.6388  157.5287 LP  0  0  0  0  0  0  0  0  0  0  0  0  # atno 17394 bound_to 11000
  139.9808  134.7140  155.9862 LP  0  0  0  0  0  0  0  0  0  0  0  0  # atno 17395 bound_to 11000

$$$$
