#       Name:                AV-unprocessed.smi:211
#       Creating user name   scv26
#       Creation time:       Thu Mar 26 19:54:17 2020


#       File generated by GOLD software.
#

@<TRIPOS>MOLECULE
AV-unprocessed.smi:211
    69    72     1
SMALL
NO_CHARGES


@<TRIPOS>ATOM
      1 ****        -7.4642   3.1864   0.1088 C.3            1 S1                 0.0000
      2 ****        -7.0737   1.7825  -0.3398 C.2            1 S1                 0.0000
      3 ****        -7.6879   0.8051   0.0863 O.2            1 S1                 0.0000
      4 ****        -6.0471   1.7009  -1.2000 N.am           1 S1                 0.0000
      5 ****        -5.4843   0.4645  -1.7423 C.3            1 S1                 0.0000
      6 ****        -6.2359   0.1063  -3.0384 C.3            1 S1                 0.0000
      7 ****        -3.9530   0.6191  -1.9407 C.3            1 S1                 0.0000
      8 ****        -3.2873  -0.6721  -2.4681 C.3            1 S1                 0.0000
      9 ****        -1.7683  -0.5040  -2.6353 C.3            1 S1                 0.0000
     10 ****        -1.1478  -0.0508  -1.3906 N.3            1 S1                 0.0000
     11 ****         0.2045  -0.1312  -1.2986 C.ar           1 S1                 0.0000
     12 ****         0.9608  -0.1718  -2.4287 N.ar           1 S1                 0.0000
     13 ****         2.2933  -0.2313  -2.3487 C.ar           1 S1                 0.0000
     14 ****         3.0627  -0.2637  -1.2595 N.ar           1 S1                 0.0000
     15 ****         2.3110  -0.2358  -0.1219 C.ar           1 S1                 0.0000
     16 ****         0.8907  -0.1662  -0.0515 C.ar           1 S1                 0.0000
     17 ****         0.4849  -0.1507   1.2780 N.2            1 S1                 0.0000
     18 ****         1.6010  -0.1899   1.9532 C.2            1 S1                 0.0000
     19 ****         2.7450  -0.2697   1.1917 N.pl3          1 S1                 0.0000
     20 ****         4.0970  -0.2821   1.6673 C.3            1 S1                 0.0000
     21 ****         5.1328  -1.2460   1.0838 C.3            1 S1                 0.0000
     22 ****         5.8347  -1.3093   2.4583 C.3            1 S1                 0.0000
     23 ****         6.3253  -2.7041   2.8807 C.3            1 S1                 0.0000
     24 ****         7.3376  -3.1764   2.0148 O.3            1 S1                 0.0000
     25 ****         6.9740  -0.2891   2.6588 C.3            1 S1                 0.0000
     26 ****         7.2852  -0.1255   4.0275 O.3            1 S1                 0.0000
     27 ****         4.4608  -0.8851   3.0262 C.3            1 S1                 0.0000
     28 ****        -1.7155   1.1786  -0.8427 C.3            1 S1                 0.0000
     29 ****        -3.2321   1.0412  -0.6381 C.3            1 S1                 0.0000
     30 ****        -7.6883   3.8155  -0.7531 H              1 S1                 0.0000
     31 ****        -6.6498   3.6452   0.6703 H              1 S1                 0.0000
     32 ****        -8.3466   3.1580   0.7491 H              1 S1                 0.0000
     33 ****        -5.6118   2.5631  -1.4945 H              1 S1                 0.0000
     34 ****        -5.6462  -0.3406  -1.0230 H              1 S1                 0.0000
     35 ****        -5.9576  -0.8800  -3.4082 H              1 S1                 0.0000
     36 ****        -6.0341   0.8309  -3.8282 H              1 S1                 0.0000
     37 ****        -7.3142   0.0857  -2.8760 H              1 S1                 0.0000
     38 ****        -3.7888   1.4044  -2.6805 H              1 S1                 0.0000
     39 ****        -3.4886  -1.4968  -1.7832 H              1 S1                 0.0000
     40 ****        -3.7069  -0.9589  -3.4317 H              1 S1                 0.0000
     41 ****        -1.3320  -1.4550  -2.9447 H              1 S1                 0.0000
     42 ****        -1.5609   0.2186  -3.4260 H              1 S1                 0.0000
     43 ****         2.8178  -0.2560  -3.2926 H              1 S1                 0.0000
     44 ****         1.6182  -0.1664   3.0333 H              1 S1                 0.0000
     45 ****         4.4470   0.7491   1.5973 H              1 S1                 0.0000
     46 ****         4.6926  -2.1995   0.7848 H              1 S1                 0.0000
     47 ****         5.7373  -0.8268   0.2790 H              1 S1                 0.0000
     48 ****         6.7045  -2.7045   3.9027 H              1 S1                 0.0000
     49 ****         5.5072  -3.4247   2.8592 H              1 S1                 0.0000
     50 ****         7.6054  -4.0347   2.3059 H              1 S1                 0.0000
     51 ****         7.8769  -0.5890   2.1265 H              1 S1                 0.0000
     52 ****         6.7030   0.6890   2.2614 H              1 S1                 0.0000
     53 ****         7.9872   0.5029   4.1022 H              1 S1                 0.0000
     54 ****         4.4989  -0.1632   3.8425 H              1 S1                 0.0000
     55 ****         3.8283  -1.7354   3.2887 H              1 S1                 0.0000
     56 ****        -1.2501   1.4449   0.1058 H              1 S1                 0.0000
     57 ****        -1.5072   1.9981  -1.5321 H              1 S1                 0.0000
     58 ****        -3.6178   1.9915  -0.2692 H              1 S1                 0.0000
     59 ****        -3.4265   0.3060   0.1442 H              1 S1                 0.0000
     60 ****        -8.4446   0.9308   0.7279 LP             1 S1                 0.0000
     61 ****        -7.4304  -0.1150  -0.2090 LP             1 S1                 0.0000
     62 ****        -1.4292  -0.7771  -0.7634 LP             1 S1                 0.0000
     63 ****         0.5168  -0.1570  -3.3246 LP             1 S1                 0.0000
     64 ****         4.0618  -0.3034  -1.2751 LP             1 S1                 0.0000
     65 ****        -0.4485  -0.1172   1.6352 LP             1 S1                 0.0000
     66 ****         8.1193  -2.5532   2.0383 LP             1 S1                 0.0000
     67 ****         6.9838  -3.2322   1.0811 LP             1 S1                 0.0000
     68 ****         7.5736  -1.0012   4.4149 LP             1 S1                 0.0000
     69 ****         6.4805   0.2076   4.5190 LP             1 S1                 0.0000
@<TRIPOS>BOND
    1    1    2 1     
    2    1   30 1     
    3    1   31 1     
    4    1   32 1     
    5    2    3 2     
    6    2    4 am    
    7    4    5 1     
    8    4   33 1     
    9    5    6 1     
   10    5    7 1     
   11    5   34 1     
   12    6   35 1     
   13    6   36 1     
   14    6   37 1     
   15    7   29 1     
   16    7    8 1     
   17    7   38 1     
   18    8    9 1     
   19    8   39 1     
   20    8   40 1     
   21    9   10 1     
   22    9   41 1     
   23    9   42 1     
   24   10   11 1     
   25   10   28 1     
   26   11   16 ar    
   27   11   12 ar    
   28   12   13 ar    
   29   13   14 ar    
   30   13   43 1     
   31   14   15 ar    
   32   15   19 1     
   33   15   16 ar    
   34   16   17 1     
   35   17   18 2     
   36   18   19 1     
   37   18   44 1     
   38   19   20 1     
   39   20   27 1     
   40   20   21 1     
   41   20   45 1     
   42   21   22 1     
   43   21   46 1     
   44   21   47 1     
   45   22   23 1     
   46   22   25 1     
   47   22   27 1     
   48   23   24 1     
   49   23   48 1     
   50   23   49 1     
   51   24   50 1     
   52   25   26 1     
   53   25   51 1     
   54   25   52 1     
   55   26   53 1     
   56   27   54 1     
   57   27   55 1     
   58   28   29 1     
   59   28   56 1     
   60   28   57 1     
   61   29   58 1     
   62   29   59 1     
   63    3   60 1     
   64    3   61 1     
   65   10   62 1     
   66   12   63 1     
   67   14   64 1     
   68   17   65 1     
   69   24   66 1     
   70   24   67 1     
   71   26   68 1     
   72   26   69 1     
@<TRIPOS>SUBSTRUCTURE
      1 S1             1
@<TRIPOS>SET
LONE_PAIRS      STATIC     ATOMS    <user>   **** ""
10 60 61 62 63 64 65 66 67 68 69
DONOR_HYDROGENS      STATIC     ATOMS    <user>   **** ""
3 33 50 53
ATOM$BLUE        STATIC     ATOMS    COLORGROUP SYSTEM
10 60 61 62 63 64 65 66 67 68 69
ATOM$RED        STATIC     ATOMS    COLORGROUP SYSTEM
3 33 50 53
