AV-unprocessed.smi:583|AV-procd|sdf|2998|dock3
  -GOLD-   2262023503D 1   1.00000     0.00000
 Structure written by MMmdl.
 35 36  0  0  0  0  0  0  0  0  1 V2000
  148.8193  140.0316  156.7788 O   0  0  0  0  0  0  0  0  0  0  0  0
  149.0331  141.1767  156.3781 C   0  0  0  0  0  0  0  0  0  0  0  0
  150.4632  141.6631  156.1016 C   0  0  0  0  0  0  0  0  0  0  0  0
  151.2755  141.8197  157.3201 N   0  0  0  0  0  0  0  0  0  0  0  0
  150.9431  142.8845  158.1808 C   0  0  0  0  0  0  0  0  0  0  0  0
  151.5969  143.1272  159.3332 C   0  0  0  0  0  0  0  0  0  0  0  0
  151.2494  144.3162  160.2155 C   0  0  0  0  0  0  0  0  0  0  0  0
  151.9379  144.2847  161.3567 F   0  0  0  0  0  0  0  0  0  0  0  0
  151.5148  145.4682  159.5977 F   0  0  0  0  0  0  0  0  0  0  0  0
  149.9509  144.2949  160.5131 F   0  0  0  0  0  0  0  0  0  0  0  0
  152.7056  142.2463  159.6437 C   0  0  0  0  0  0  0  0  0  0  0  0
  153.0408  141.2271  158.8286 C   0  0  0  0  0  0  0  0  0  0  0  0
  152.3050  140.9620  157.5903 C   0  0  0  0  0  0  0  0  0  0  0  0
  152.5960  140.0284  156.8418 O   0  0  0  0  0  0  0  0  0  0  0  0
  148.0586  142.0756  156.1730 N   0  0  0  0  0  0  0  0  0  0  0  0
  146.6338  141.8283  156.3713 C   0  0  1  0  0  0  0  0  0  0  0  0
  146.0619  142.6277  157.5605 C   0  0  0  0  0  0  0  0  0  0  0  0
  144.5308  142.6139  157.4724 C   0  0  0  0  0  0  0  0  0  0  0  0
  144.1231  142.5160  155.6879 S   0  0  0  0  0  0  0  0  0  0  0  0
  143.3097  141.3139  155.4508 O   0  0  0  0  0  0  0  0  0  0  0  0
  143.6828  143.8349  155.2086 O   0  0  0  0  0  0  0  0  0  0  0  0
  145.8377  142.2135  155.1170 C   0  0  0  0  0  0  0  0  0  0  0  0
  150.9518  140.9719  155.4123 H   0  0  0  0  0  0  0  0  0  0  0  0
  150.4010  142.6076  155.5593 H   0  0  0  0  0  0  0  0  0  0  0  0
  150.1160  143.4931  157.8450 H   0  0  0  0  0  0  0  0  0  0  0  0
  153.2748  142.4026  160.5482 H   0  0  0  0  0  0  0  0  0  0  0  0
  153.8708  140.5886  159.0932 H   0  0  0  0  0  0  0  0  0  0  0  0
  148.3226  142.9951  155.8498 H   0  0  0  0  0  0  0  0  0  0  0  0
  146.4713  140.7650  156.5589 H   0  0  0  0  0  0  0  0  0  0  0  0
  146.4080  142.2381  158.5184 H   0  0  0  0  0  0  0  0  0  0  0  0
  146.4051  143.6611  157.4954 H   0  0  0  0  0  0  0  0  0  0  0  0
  144.1235  141.7269  157.9583 H   0  0  0  0  0  0  0  0  0  0  0  0
  144.0714  143.4967  157.9175 H   0  0  0  0  0  0  0  0  0  0  0  0
  146.2087  143.1416  154.6807 H   0  0  0  0  0  0  0  0  0  0  0  0
  145.8477  141.4392  154.3497 H   0  0  0  0  0  0  0  0  0  0  0  0
  1  2  2  0  0  0  0
  2  3  1  0  0  0  0
  2 15  1  0  0  0  0
  3  4  1  0  0  0  0
  3 23  1  0  0  0  0
  3 24  1  0  0  0  0
  4 13  1  0  0  0  0
  4  5  1  0  0  0  0
  5  6  2  0  0  0  0
  5 25  1  0  0  0  0
  6  7  1  0  0  0  0
  6 11  1  0  0  0  0
  7  8  1  0  0  0  0
  7  9  1  0  0  0  0
  7 10  1  0  0  0  0
 11 12  2  0  0  0  0
 11 26  1  0  0  0  0
 12 13  1  0  0  0  0
 12 27  1  0  0  0  0
 13 14  2  0  0  0  0
 15 16  1  0  0  0  0
 15 28  1  0  0  0  0
 16 22  1  0  0  0  0
 16 17  1  0  0  0  0
 16 29  1  0  0  0  0
 17 18  1  0  0  0  0
 17 30  1  0  0  0  0
 17 31  1  0  0  0  0
 18 19  1  0  0  0  0
 18 32  1  0  0  0  0
 18 33  1  0  0  0  0
 19 20  2  0  0  0  0
 19 21  2  0  0  0  0
 19 22  1  0  0  0  0
 22 34  1  0  0  0  0
 22 35  1  0  0  0  0
M  END
> <s_m_source_file>
AV-unprocessed.smi

> <i_m_source_file_index>
583

> <i_lp_mmshare_version>
43012

> <i_f3d_flags>
0

> <s_epik_input>
Tz1TMSg9TylbQ0gyXVtDSDJdW0NASF0oW0NIMl0xKVtOSF1DKD1PKVtDSDJdbjJbY0hdYyhDKEYpKEYpRilbY0hdW2NIXWMyPU8=

> <s_epik_cmdline>
J2VwaWtfcHl0aG9uJywgJy1waCcsICc3LjAnLCAnLXRuJywgJzgnLCAnLW1hJywgJzIwMCcsICctbWV0YWxfYmluZGluZycsICctaW1hZScsICc8aW5maWxlLm1hZT4nLCAnLW9tYWUnLCAnPG91dGZpbGUubWFlPic=

> <r_lp_tautomer_probability>
1

> <r_epik_Ionization_Penalty>
1.22016e-07

> <r_epik_Ionization_Penalty_Charging>
1.48237e-08

> <r_epik_Ionization_Penalty_Neutral>
1.07193e-07

> <r_epik_State_Penalty>
-0

> <r_epik_Charging_Adjusted_Penalty>
1.48237e-08

> <i_epik_Tot_Q>
0

> <i_epik_Tot_abs_Q>
0

> <r_epik_Metal_State_Penalty>
-0

> <b_epik_Metal_Only>
0

> <s_lp_Force_Field>
OPLS_2005

> <r_lp_Energy>
16.0517

> <b_lp_Chiralities_Consistent>
1

> <s_lp_Variant>
AV-unprocessed.smi:583-2

> <Gold.Version>
5.8.1

> <Gold.Id.Protein>
6NUR|6NUR_protein|mol2

> <Gold.PLP.Fitness>
47.6507

> <Gold.PLP.PLP>
-40.3501

> <Gold.PLP.part.hbond>
-2.0000

> <Gold.PLP.part.metal>
0.0000

> <Gold.PLP.part.buried>
-4.9995

> <Gold.PLP.part.nonpolar>
-32.0197

> <Gold.PLP.part.repulsive>
0.3660

> <Gold.PLP.ligand.clash>
0.0000

> <Gold.PLP.ligand.torsion>
0.4269

> <Gold.PLP.Chemscore.Hbond>
2.0000

> <Gold.PLP.Chemscore.CHOScore>
0.7031

> <Gold.PLP.Chemscore.Metal>
0.0000

> <Gold.Chemscore.Hbonds>
donor molecule, donor type, donor heavy atom, donor atom, acceptor molecule, acceptor atom, score
      L1  H    15    28       P1  8028  1.00
      P1  H  7997  8010       L1    14  1.00
      L1  C     5    25       P1  8028  0.39

> <Gold.PLP.Chemscore.Internal.Correction>
0.0453

> <Gold.Rescore>
     Score         DG    S(hbond)    S(metal)    S(lipo)     H(rot)  DE(clash)    DE(int)     intcor
     14.25     -14.79       1.80        0.00      66.20       1.73       0.30       0.24       ----

> <Gold.Chemscore.Fitness>
14.2491

> <Gold.Chemscore.DG>
-14.7902

> <Gold.Chemscore.ZeroCoef>
-5.4800

> <Gold.Chemscore.Hbond>
1.7956

> <Gold.Chemscore.Metal>
0.0000

> <Gold.Chemscore.Lipo>
66.1994

> <Gold.Chemscore.Internal_Hbond>
0.0000

> <Gold.Chemscore.DEClash>
0.2988

> <Gold.Chemscore.DEInternal>
0.2423

> <Gold.Chemscore.Rot>
1.7314

> <Gold.Chemscore.Internal.Correction>
   9.000000E+99

> <Gold.Chemscore.Hbonds>
donor molecule, donor type, donor heavy atom, donor atom, acceptor molecule, acceptor atom, score
      L1  H    15    28       P1  8028  0.94
      P1  H  7997  8010       L1    14  0.60

> <Gold.Chemscore.Hbond.Weighted>
-5.9973

> <Gold.Chemscore.Metal.Weighted>
-0.0000

> <Gold.Chemscore.Lipo.Weighted>
-7.7453

> <Gold.Chemscore.Internal_Hbond.Weighted>
0.0000

> <Gold.Chemscore.DEClash.Weighted>
0.2988

> <Gold.Chemscore.DEInternal.Weighted>
0.2423

> <Gold.Chemscore.Rot.Weighted>
4.4324

> <Gold.Chemscore.Internal.Correction.Weighted>
   9.000000E+99

> <Gold.Protein.RotatedTorsions>
[ 6907 6896 6895 6894 ] final  -54.88 input  -60.11 | X-H torsion
[ 7974 7965 7964 7962 ] final  -50.06 input  175.53 | X-H torsion
[ 8008 7997 7996 7995 ] final   63.95 input   59.86 | X-H torsion
[ 10167 10162 10161 10158 ] final  103.53 input  -65.29 | X-H torsion
[ 10718 10713 10712 10709 ] final -160.69 input   66.30 | X-H torsion
[ 10763 10752 10751 10750 ] final   -5.77 input  -60.55 | X-H torsion
[ 11005 11000 10999 10996 ] final   -4.46 input  -57.11 | X-H torsion

> <Gold.Protein.ActiveResidues>
 VAL166  LYS551  ARG553  GLY616  TRP617  ASP618  TYR619  PRO620  LYS621  CYS622 
 ASP623  PHE694  ASN695  SER759  ASP760  ASP761  ALA762  ILE779  LEU786  VAL792 
 PHE793  MET794  SER795  GLU796  ALA797  LYS798  CYS799  TRP800  GLU811  SER814 

> <Gold.Protein.RotatedAtoms>
  150.8300  134.7548  159.6844 H   0  0  0  0  0  0  0  0  0  0  0  0  # atno 6907 bound_to 6896
  152.4405  134.5596  159.9900 H   0  0  0  0  0  0  0  0  0  0  0  0  # atno 6908 bound_to 6896
  151.5759  133.3346  159.3034 H   0  0  0  0  0  0  0  0  0  0  0  0  # atno 6909 bound_to 6896
  145.9339  140.7724  142.9585 H   0  0  0  0  0  0  0  0  0  0  0  0  # atno 7974 bound_to 7965
  155.6384  140.3496  155.4706 H   0  0  0  0  0  0  0  0  0  0  0  0  # atno 8008 bound_to 7997
  155.9946  140.1200  157.0629 H   0  0  0  0  0  0  0  0  0  0  0  0  # atno 8009 bound_to 7997
  154.4229  140.1112  156.5599 H   0  0  0  0  0  0  0  0  0  0  0  0  # atno 8010 bound_to 7997
  139.7255  144.7048  151.0804 H   0  0  0  0  0  0  0  0  0  0  0  0  # atno 10167 bound_to 10162
  156.5856  130.8748  151.2876 H   0  0  0  0  0  0  0  0  0  0  0  0  # atno 10718 bound_to 10713
  153.4032  135.7005  153.6411 H   0  0  0  0  0  0  0  0  0  0  0  0  # atno 10763 bound_to 10752
  153.4936  135.3667  155.2505 H   0  0  0  0  0  0  0  0  0  0  0  0  # atno 10764 bound_to 10752
  154.8712  135.4095  154.3370 H   0  0  0  0  0  0  0  0  0  0  0  0  # atno 10765 bound_to 10752
  140.6805  133.9158  155.8552 H   0  0  0  0  0  0  0  0  0  0  0  0  # atno 11005 bound_to 11000
  144.6769  140.2172  143.7370 LP  0  0  0  0  0  0  0  0  0  0  0  0  # atno 17320 bound_to 7965
  145.8389  139.2120  143.1839 LP  0  0  0  0  0  0  0  0  0  0  0  0  # atno 17321 bound_to 7965
  140.7762  143.5110  150.9652 LP  0  0  0  0  0  0  0  0  0  0  0  0  # atno 17342 bound_to 10162
  139.8798  143.7086  152.3158 LP  0  0  0  0  0  0  0  0  0  0  0  0  # atno 17343 bound_to 10162
  157.7316  130.9702  150.1887 LP  0  0  0  0  0  0  0  0  0  0  0  0  # atno 17370 bound_to 10713
  156.2593  130.3709  149.8147 LP  0  0  0  0  0  0  0  0  0  0  0  0  # atno 17371 bound_to 10713
  141.0321  134.0741  157.4002 LP  0  0  0  0  0  0  0  0  0  0  0  0  # atno 17394 bound_to 11000
  139.8953  135.0140  156.6995 LP  0  0  0  0  0  0  0  0  0  0  0  0  # atno 17395 bound_to 11000

$$$$
