AV-unprocessed.smi:1901|AV-procd|sdf|7717|dock6
  -GOLD-   22720 9453D 1   1.00000     0.00000
 Structure written by MMmdl.
 28 29  0  0  0  0  0  0  0  0  1 V2000
  144.6770  136.8268  152.8355 O   0  0  0  0  0  0  0  0  0  0  0  0
  145.8678  136.6801  152.5586 C   0  0  0  0  0  0  0  0  0  0  0  0
  146.8198  137.5646  152.8897 N   0  0  0  0  0  0  0  0  0  0  0  0
  146.6025  138.8114  153.6172 C   0  0  0  0  0  0  0  0  0  0  0  0
  147.8351  139.7331  153.5594 C   0  0  1  0  0  0  0  0  0  0  0  0
  147.7285  140.9528  154.4512 C   0  0  0  0  0  0  0  0  0  0  0  0
  149.1835  141.4005  154.5535 C   0  0  0  0  0  0  0  0  0  0  0  0
  149.9655  140.2147  154.4436 O   0  0  0  0  0  0  0  0  0  0  0  0
  149.1374  139.1164  154.0737 C   0  0  0  0  0  0  0  0  0  0  0  0
  146.3886  135.6316  151.8973 N   0  0  0  0  0  0  0  0  0  0  0  0
  145.7159  134.4841  151.4019 C   0  0  0  0  0  0  0  0  0  0  0  0
  144.4355  134.4683  151.0127 N   0  0  0  0  0  0  0  0  0  0  0  0
  144.0373  133.2043  150.5702 C   0  0  0  0  0  0  0  0  0  0  0  0
  145.0339  132.2622  150.6307 C   0  0  0  0  0  0  0  0  0  0  0  0
  146.5213  132.9293  151.2491 S   0  0  0  0  0  0  0  0  0  0  0  0
  147.7706  137.3602  152.6190 H   0  0  0  0  0  0  0  0  0  0  0  0
  145.7518  139.3149  153.1576 H   0  0  0  0  0  0  0  0  0  0  0  0
  146.3157  138.6141  154.6517 H   0  0  0  0  0  0  0  0  0  0  0  0
  147.9880  140.0705  152.5327 H   0  0  0  0  0  0  0  0  0  0  0  0
  147.0750  141.7258  154.0455 H   0  0  0  0  0  0  0  0  0  0  0  0
  147.3545  140.6720  155.4369 H   0  0  0  0  0  0  0  0  0  0  0  0
  149.4382  142.0603  153.7233 H   0  0  0  0  0  0  0  0  0  0  0  0
  149.3901  141.9310  155.4832 H   0  0  0  0  0  0  0  0  0  0  0  0
  148.9536  138.5118  154.9629 H   0  0  0  0  0  0  0  0  0  0  0  0
  149.6248  138.4847  153.3309 H   0  0  0  0  0  0  0  0  0  0  0  0
  147.3844  135.6529  151.7352 H   0  0  0  0  0  0  0  0  0  0  0  0
  143.0228  133.0634  150.2280 H   0  0  0  0  0  0  0  0  0  0  0  0
  144.9832  131.2209  150.3496 H   0  0  0  0  0  0  0  0  0  0  0  0
  1  2  2  0  0  0  0
  2  3  1  0  0  0  0
  2 10  1  0  0  0  0
  3  4  1  0  0  0  0
  3 16  1  0  0  0  0
  4  5  1  0  0  0  0
  4 17  1  0  0  0  0
  4 18  1  0  0  0  0
  5  9  1  0  0  0  0
  5  6  1  0  0  0  0
  5 19  1  0  0  0  0
  6  7  1  0  0  0  0
  6 20  1  0  0  0  0
  6 21  1  0  0  0  0
  7  8  1  0  0  0  0
  7 22  1  0  0  0  0
  7 23  1  0  0  0  0
  8  9  1  0  0  0  0
  9 24  1  0  0  0  0
  9 25  1  0  0  0  0
 10 11  1  0  0  0  0
 10 26  1  0  0  0  0
 11 15  1  0  0  0  0
 11 12  2  0  0  0  0
 12 13  1  0  0  0  0
 13 14  2  0  0  0  0
 13 27  1  0  0  0  0
 14 15  1  0  0  0  0
 14 28  1  0  0  0  0
M  END
> <s_m_source_file>
AV-unprocessed.smi

> <i_m_source_file_index>
1901

> <i_lp_mmshare_version>
43012

> <i_f3d_flags>
0

> <s_epik_input>
czFbY0hdW2NIXW5jMVtOSF1DKD1PKVtOSF1bQ0gyXVtDQEBIXTJbQ0gyXVtDSDJdT1tDSDJdMg==

> <s_epik_cmdline>
J2VwaWtfcHl0aG9uJywgJy1waCcsICc3LjAnLCAnLXRuJywgJzgnLCAnLW1hJywgJzIwMCcsICctbWV0YWxfYmluZGluZycsICctaW1hZScsICc8aW5maWxlLm1hZT4nLCAnLW9tYWUnLCAnPG91dGZpbGUubWFlPic=

> <r_lp_tautomer_probability>
0.999

> <r_epik_Ionization_Penalty>
0.000365592

> <r_epik_Ionization_Penalty_Charging>
0

> <r_epik_Ionization_Penalty_Neutral>
0.000365592

> <r_epik_State_Penalty>
0.000177984

> <r_epik_Charging_Adjusted_Penalty>
0.000177984

> <i_epik_Tot_Q>
0

> <i_epik_Tot_abs_Q>
0

> <r_epik_Metal_State_Penalty>
0.00682492

> <b_epik_Metal_Only>
0

> <s_lp_Force_Field>
OPLS_2005

> <r_lp_Energy>
17.1136

> <b_lp_Chiralities_Consistent>
1

> <s_lp_Variant>
AV-unprocessed.smi:1901-2

> <Gold.Version>
5.8.1

> <Gold.Id.Protein>
6NUR|6NUR_protein|mol2

> <Gold.PLP.Fitness>
36.0951

> <Gold.PLP.PLP>
-24.7157

> <Gold.PLP.part.hbond>
-3.0000

> <Gold.PLP.part.metal>
0.0000

> <Gold.PLP.part.buried>
-2.0935

> <Gold.PLP.part.nonpolar>
-20.0519

> <Gold.PLP.part.repulsive>
0.5325

> <Gold.PLP.ligand.clash>
0.0000

> <Gold.PLP.ligand.torsion>
0.2656

> <Gold.PLP.Chemscore.Hbond>
2.9680

> <Gold.PLP.Chemscore.CHOScore>
1.0000

> <Gold.PLP.Chemscore.Metal>
0.0000

> <Gold.Chemscore.Hbonds>
donor molecule, donor type, donor heavy atom, donor atom, acceptor molecule, acceptor atom, score
      L1  H     3    16       P1  7948  0.99
      L1  H    10    26       P1  7948  1.00
      P1  H  7989  7998       L1     8  0.96
      L1  C    13    27       P1 10186  1.00

> <Gold.PLP.Chemscore.Internal.Correction>
0.0067

> <Gold.Rescore>
     Score         DG    S(hbond)    S(metal)    S(lipo)     H(rot)  DE(clash)    DE(int)     intcor
     16.05     -17.07       2.55        0.00      55.15       1.32       0.57       0.45       ----

> <Gold.Chemscore.Fitness>
16.0468

> <Gold.Chemscore.DG>
-17.0684

> <Gold.Chemscore.ZeroCoef>
-5.4800

> <Gold.Chemscore.Hbond>
2.5466

> <Gold.Chemscore.Metal>
0.0000

> <Gold.Chemscore.Lipo>
55.1511

> <Gold.Chemscore.Internal_Hbond>
0.0000

> <Gold.Chemscore.DEClash>
0.5735

> <Gold.Chemscore.DEInternal>
0.4481

> <Gold.Chemscore.Rot>
1.3163

> <Gold.Chemscore.Internal.Correction>
   9.000000E+99

> <Gold.Chemscore.Hbonds>
donor molecule, donor type, donor heavy atom, donor atom, acceptor molecule, acceptor atom, score
      L1  H     3    16       P1  7948  0.93
      L1  H    10    26       P1  7948  0.99
      P1  H  7989  7998       L1     8  0.30

> <Gold.Chemscore.Hbond.Weighted>
-8.5055

> <Gold.Chemscore.Metal.Weighted>
-0.0000

> <Gold.Chemscore.Lipo.Weighted>
-6.4527

> <Gold.Chemscore.Internal_Hbond.Weighted>
0.0000

> <Gold.Chemscore.DEClash.Weighted>
0.5735

> <Gold.Chemscore.DEInternal.Weighted>
0.4481

> <Gold.Chemscore.Rot.Weighted>
3.3698

> <Gold.Chemscore.Internal.Correction.Weighted>
   9.000000E+99

> <Gold.Protein.RotatedTorsions>
[ 6907 6896 6895 6894 ] final  153.41 input  -60.11 | X-H torsion
[ 7974 7965 7964 7962 ] final  153.69 input  175.53 | X-H torsion
[ 8008 7997 7996 7995 ] final  156.15 input   59.86 | X-H torsion
[ 10167 10162 10161 10158 ] final  133.40 input  -65.29 | X-H torsion
[ 10718 10713 10712 10709 ] final  150.74 input   66.30 | X-H torsion
[ 10763 10752 10751 10750 ] final  -80.23 input  -60.55 | X-H torsion
[ 11005 11000 10999 10996 ] final  -88.76 input  -57.11 | X-H torsion

> <Gold.Protein.ActiveResidues>
 VAL166  LYS551  ARG553  GLY616  TRP617  ASP618  TYR619  PRO620  LYS621  CYS622 
 ASP623  PHE694  ASN695  SER759  ASP760  ASP761  ALA762  ILE779  LEU786  VAL792 
 PHE793  MET794  SER795  GLU796  ALA797  LYS798  CYS799  TRP800  GLU811  SER814 

> <Gold.Protein.RotatedAtoms>
  152.0731  133.4116  159.4467 H   0  0  0  0  0  0  0  0  0  0  0  0  # atno 6907 bound_to 6896
  150.6863  134.3069  159.4739 H   0  0  0  0  0  0  0  0  0  0  0  0  # atno 6908 bound_to 6896
  152.0903  134.9411  160.0622 H   0  0  0  0  0  0  0  0  0  0  0  0  # atno 6909 bound_to 6896
  144.8138  139.6834  143.6130 H   0  0  0  0  0  0  0  0  0  0  0  0  # atno 7974 bound_to 7965
  156.2439  140.1920  156.6911 H   0  0  0  0  0  0  0  0  0  0  0  0  # atno 8008 bound_to 7997
  154.6251  140.0603  156.9690 H   0  0  0  0  0  0  0  0  0  0  0  0  # atno 8009 bound_to 7997
  155.1799  140.3275  155.4379 H   0  0  0  0  0  0  0  0  0  0  0  0  # atno 8010 bound_to 7997
  139.5299  144.6617  151.4990 H   0  0  0  0  0  0  0  0  0  0  0  0  # atno 10167 bound_to 10162
  157.2796  131.0833  151.1541 H   0  0  0  0  0  0  0  0  0  0  0  0  # atno 10718 bound_to 10713
  154.5485  135.5668  153.6901 H   0  0  0  0  0  0  0  0  0  0  0  0  # atno 10763 bound_to 10752
  152.9983  135.6245  154.2405 H   0  0  0  0  0  0  0  0  0  0  0  0  # atno 10764 bound_to 10752
  154.2339  135.2865  155.2859 H   0  0  0  0  0  0  0  0  0  0  0  0  # atno 10765 bound_to 10752
  141.1596  133.7589  156.9497 H   0  0  0  0  0  0  0  0  0  0  0  0  # atno 11005 bound_to 11000
  146.2439  139.6058  142.9473 LP  0  0  0  0  0  0  0  0  0  0  0  0  # atno 17320 bound_to 7965
  145.5262  141.0429  143.2408 LP  0  0  0  0  0  0  0  0  0  0  0  0  # atno 17321 bound_to 7965
  140.6469  143.8776  150.6746 LP  0  0  0  0  0  0  0  0  0  0  0  0  # atno 17342 bound_to 10162
  140.2128  143.3870  152.1704 LP  0  0  0  0  0  0  0  0  0  0  0  0  # atno 17343 bound_to 10162
  157.2981  130.6829  149.6149 LP  0  0  0  0  0  0  0  0  0  0  0  0  # atno 17370 bound_to 10713
  155.9664  130.4400  150.5283 LP  0  0  0  0  0  0  0  0  0  0  0  0  # atno 17371 bound_to 10713
  140.1265  134.9383  157.2278 LP  0  0  0  0  0  0  0  0  0  0  0  0  # atno 17394 bound_to 11000
  140.3006  134.3136  155.7291 LP  0  0  0  0  0  0  0  0  0  0  0  0  # atno 17395 bound_to 11000

$$$$
