AV-unprocessed.smi:285|AV-procd|sdf|2167|dock7
  -GOLD-   2262021523D 1   1.00000     0.00000
 Structure written by MMmdl.
 31 33  0  0  0  0  0  0  0  0  1 V2000
  154.0419  136.8520  161.9893 N   0  0  0  0  0  0  0  0  0  0  0  0
  154.0224  137.8100  161.0526 C   0  0  0  0  0  0  0  0  0  0  0  0
  155.0286  138.7153  161.0375 N   0  0  0  0  0  0  0  0  0  0  0  0
  155.0343  139.6789  160.1108 C   0  0  0  0  0  0  0  0  0  0  0  0
  154.1505  139.9050  159.1352 N   0  0  0  0  0  0  0  0  0  0  0  0
  153.1338  138.9932  159.1524 C   0  0  0  0  0  0  0  0  0  0  0  0
  152.9988  137.9170  160.0776 C   0  0  0  0  0  0  0  0  0  0  0  0
  151.8496  137.1867  159.8012 N   0  0  0  0  0  0  0  0  0  0  0  0
  151.3540  137.8115  158.7697 C   0  0  0  0  0  0  0  0  0  0  0  0
  149.7450  137.1991  157.9546 Br  0  0  0  0  0  0  0  0  0  0  0  0
  152.0471  138.9059  158.3042 N   0  0  0  0  0  0  0  0  0  0  0  0
  151.7261  139.8034  157.1523 C   0  0  2  0  0  0  0  0  0  0  0  0
  151.3084  141.1869  157.6419 C   0  0  0  0  0  0  0  0  0  0  0  0
  150.3449  141.5921  156.5487 C   0  0  2  0  0  0  0  0  0  0  0  0
  149.4576  142.5899  157.0101 O   0  0  0  0  0  0  0  0  0  0  0  0
  149.6391  140.2615  156.2579 C   0  0  1  0  0  0  0  0  0  0  0  0
  149.0597  140.1363  154.8406 C   0  0  0  0  0  0  0  0  0  0  0  0
  150.0917  140.1795  153.8779 O   0  0  0  0  0  0  0  0  0  0  0  0
  150.6463  139.2676  156.4480 O   0  0  0  0  0  0  0  0  0  0  0  0
  153.3029  136.1644  162.0201 H   0  0  0  0  0  0  0  0  0  0  0  0
  154.7968  136.8166  162.6588 H   0  0  0  0  0  0  0  0  0  0  0  0
  155.8658  140.3668  160.1563 H   0  0  0  0  0  0  0  0  0  0  0  0
  152.6109  139.8157  156.5165 H   0  0  0  0  0  0  0  0  0  0  0  0
  150.7968  141.1036  158.6027 H   0  0  0  0  0  0  0  0  0  0  0  0
  152.1685  141.8486  157.7476 H   0  0  0  0  0  0  0  0  0  0  0  0
  150.8927  141.9440  155.6731 H   0  0  0  0  0  0  0  0  0  0  0  0
  149.5787  143.3645  156.4816 H   0  0  0  0  0  0  0  0  0  0  0  0
  148.8633  140.0762  157.0034 H   0  0  0  0  0  0  0  0  0  0  0  0
  148.4913  139.2126  154.7295 H   0  0  0  0  0  0  0  0  0  0  0  0
  148.3754  140.9619  154.6432 H   0  0  0  0  0  0  0  0  0  0  0  0
  149.7214  139.9800  153.0315 H   0  0  0  0  0  0  0  0  0  0  0  0
  1  2  1  0  0  0  0
  1 20  1  0  0  0  0
  1 21  1  0  0  0  0
  2  7  1  0  0  0  0
  2  3  2  0  0  0  0
  3  4  1  0  0  0  0
  4  5  2  0  0  0  0
  4 22  1  0  0  0  0
  5  6  1  0  0  0  0
  6 11  1  0  0  0  0
  6  7  2  0  0  0  0
  7  8  1  0  0  0  0
  8  9  2  0  0  0  0
  9 10  1  0  0  0  0
  9 11  1  0  0  0  0
 11 12  1  0  0  0  0
 12 19  1  0  0  0  0
 12 13  1  0  0  0  0
 12 23  1  0  0  0  0
 13 14  1  0  0  0  0
 13 24  1  0  0  0  0
 13 25  1  0  0  0  0
 14 15  1  0  0  0  0
 14 16  1  0  0  0  0
 14 26  1  0  0  0  0
 15 27  1  0  0  0  0
 16 17  1  0  0  0  0
 16 19  1  0  0  0  0
 16 28  1  0  0  0  0
 17 18  1  0  0  0  0
 17 29  1  0  0  0  0
 17 30  1  0  0  0  0
 18 31  1  0  0  0  0
M  END
> <s_m_source_file>
AV-unprocessed.smi

> <i_m_source_file_index>
285

> <i_lp_mmshare_version>
43012

> <i_f3d_flags>
0

> <s_epik_input>
bjFbY0hdbmMoW05IMl0pYyhjMTIpbmMoQnIpbjJbQ0BASF0zW0NIMl1bQ0BASF0oW09IXSlbQ0BIXShPMylbQ0gyXVtPSF0=

> <s_epik_cmdline>
J2VwaWtfcHl0aG9uJywgJy1waCcsICc3LjAnLCAnLXRuJywgJzgnLCAnLW1hJywgJzIwMCcsICctbWV0YWxfYmluZGluZycsICctaW1hZScsICc8aW5maWxlLm1hZT4nLCAnLW9tYWUnLCAnPG91dGZpbGUubWFlPic=

> <r_lp_tautomer_probability>
1

> <r_epik_Ionization_Penalty>
0.000103242

> <r_epik_Ionization_Penalty_Charging>
0

> <r_epik_Ionization_Penalty_Neutral>
0.000103242

> <r_epik_State_Penalty>
-0

> <r_epik_Charging_Adjusted_Penalty>
0

> <i_epik_Tot_Q>
0

> <i_epik_Tot_abs_Q>
0

> <r_epik_Metal_State_Penalty>
-0

> <b_epik_Metal_Only>
0

> <s_epik_Chemistry_Notes>
This compound contains an acetal/aminal-like group ( X-CH(R)-Y where X, Y are N, S, or O) that may be acid/base labile, releasing an aldehyde.

> <s_lp_Force_Field>
OPLS_2005

> <r_lp_Energy>
29.9109

> <b_lp_Chiralities_Consistent>
1

> <s_lp_Variant>
AV-unprocessed.smi:285-3

> <Gold.Version>
5.8.1

> <Gold.Id.Protein>
6NUR|6NUR_protein|mol2

> <Gold.PLP.Fitness>
39.9739

> <Gold.PLP.PLP>
-25.8974

> <Gold.PLP.part.hbond>
-4.9823

> <Gold.PLP.part.metal>
0.0000

> <Gold.PLP.part.buried>
-6.0584

> <Gold.PLP.part.nonpolar>
-15.9020

> <Gold.PLP.part.repulsive>
0.0430

> <Gold.PLP.ligand.clash>
0.0000

> <Gold.PLP.ligand.torsion>
0.1639

> <Gold.PLP.Chemscore.Hbond>
4.7993

> <Gold.PLP.Chemscore.CHOScore>
0.0000

> <Gold.PLP.Chemscore.Metal>
0.0000

> <Gold.Chemscore.Hbonds>
donor molecule, donor type, donor heavy atom, donor atom, acceptor molecule, acceptor atom, score
      L1  H    15    27       P1  8028  0.98
      L1  H    18    31       P1  7957  1.00
      P1  H  6896  6908       L1     8  0.98
      P1  H  7989  7998       L1    18  0.83
      P1  H  7997  8009       L1     5  1.00

> <Gold.PLP.Chemscore.Internal.Correction>
0.0066

> <Gold.Rescore>
     Score         DG    S(hbond)    S(metal)    S(lipo)     H(rot)  DE(clash)    DE(int)     intcor
     13.43     -15.01       4.15        0.00      29.97       3.06       0.02       1.56       ----

> <Gold.Chemscore.Fitness>
13.4326

> <Gold.Chemscore.DG>
-15.0085

> <Gold.Chemscore.ZeroCoef>
-5.4800

> <Gold.Chemscore.Hbond>
4.1489

> <Gold.Chemscore.Metal>
0.0000

> <Gold.Chemscore.Lipo>
29.9715

> <Gold.Chemscore.Internal_Hbond>
0.0000

> <Gold.Chemscore.DEClash>
0.0174

> <Gold.Chemscore.DEInternal>
1.5585

> <Gold.Chemscore.Rot>
3.0607

> <Gold.Chemscore.Internal.Correction>
   9.000000E+99

> <Gold.Chemscore.Hbonds>
donor molecule, donor type, donor heavy atom, donor atom, acceptor molecule, acceptor atom, score
      L1  H    15    27       P1  8028  0.93
      L1  H    18    31       P1  7957  0.98
      P1  H  6896  6908       L1     8  0.88
      P1  H  7989  7998       L1    18  0.28
      P1  H  7997  8009       L1     5  0.56

> <Gold.Chemscore.Hbond.Weighted>
-13.8572

> <Gold.Chemscore.Metal.Weighted>
-0.0000

> <Gold.Chemscore.Lipo.Weighted>
-3.5067

> <Gold.Chemscore.Internal_Hbond.Weighted>
0.0000

> <Gold.Chemscore.DEClash.Weighted>
0.0174

> <Gold.Chemscore.DEInternal.Weighted>
1.5585

> <Gold.Chemscore.Rot.Weighted>
7.8354

> <Gold.Chemscore.Internal.Correction.Weighted>
   9.000000E+99

> <Gold.Protein.RotatedTorsions>
[ 6907 6896 6895 6894 ] final -121.35 input  -60.11 | X-H torsion
[ 7974 7965 7964 7962 ] final   95.29 input  175.53 | X-H torsion
[ 8008 7997 7996 7995 ] final  138.06 input   59.86 | X-H torsion
[ 10167 10162 10161 10158 ] final    7.73 input  -65.29 | X-H torsion
[ 10718 10713 10712 10709 ] final  122.66 input   66.30 | X-H torsion
[ 10763 10752 10751 10750 ] final  -44.51 input  -60.55 | X-H torsion
[ 11005 11000 10999 10996 ] final  178.03 input  -57.11 | X-H torsion

> <Gold.Protein.ActiveResidues>
 VAL166  LYS551  ARG553  GLY616  TRP617  ASP618  TYR619  PRO620  LYS621  CYS622 
 ASP623  PHE694  ASN695  SER759  ASP760  ASP761  ALA762  ILE779  LEU786  VAL792 
 PHE793  MET794  SER795  GLU796  ALA797  LYS798  CYS799  TRP800  GLU811  SER814 

> <Gold.Protein.RotatedAtoms>
  150.8476  133.7838  159.3037 H   0  0  0  0  0  0  0  0  0  0  0  0  # atno 6907 bound_to 6896
  151.5520  135.1065  159.9961 H   0  0  0  0  0  0  0  0  0  0  0  0  # atno 6908 bound_to 6896
  152.4526  133.7616  159.6806 H   0  0  0  0  0  0  0  0  0  0  0  0  # atno 6909 bound_to 6896
  145.4542  139.2291  143.3023 H   0  0  0  0  0  0  0  0  0  0  0  0  # atno 7974 bound_to 7965
  156.2999  140.2403  156.4011 H   0  0  0  0  0  0  0  0  0  0  0  0  # atno 8008 bound_to 7997
  154.8526  140.0423  157.1634 H   0  0  0  0  0  0  0  0  0  0  0  0  # atno 8009 bound_to 7997
  154.8982  140.2973  155.5336 H   0  0  0  0  0  0  0  0  0  0  0  0  # atno 8010 bound_to 7997
  140.6355  143.7896  150.7353 H   0  0  0  0  0  0  0  0  0  0  0  0  # atno 10167 bound_to 10162
  157.5725  131.1082  150.8340 H   0  0  0  0  0  0  0  0  0  0  0  0  # atno 10718 bound_to 10713
  154.0132  135.6678  153.4767 H   0  0  0  0  0  0  0  0  0  0  0  0  # atno 10763 bound_to 10752
  153.0612  135.5027  154.8093 H   0  0  0  0  0  0  0  0  0  0  0  0  # atno 10764 bound_to 10752
  154.6982  135.3074  154.9343 H   0  0  0  0  0  0  0  0  0  0  0  0  # atno 10765 bound_to 10752
  140.3906  134.6866  157.4505 H   0  0  0  0  0  0  0  0  0  0  0  0  # atno 11005 bound_to 11000
  146.2487  140.5304  142.8902 LP  0  0  0  0  0  0  0  0  0  0  0  0  # atno 17320 bound_to 7965
  144.8043  140.6270  143.6457 LP  0  0  0  0  0  0  0  0  0  0  0  0  # atno 17321 bound_to 7965
  140.1517  143.4352  152.2127 LP  0  0  0  0  0  0  0  0  0  0  0  0  # atno 17342 bound_to 10162
  139.5566  144.7377  151.4277 LP  0  0  0  0  0  0  0  0  0  0  0  0  # atno 17343 bound_to 10162
  156.8807  130.5178  149.5291 LP  0  0  0  0  0  0  0  0  0  0  0  0  # atno 17370 bound_to 10713
  156.0770  130.5790  150.9493 LP  0  0  0  0  0  0  0  0  0  0  0  0  # atno 17371 bound_to 10713
  140.0409  134.6268  155.8981 LP  0  0  0  0  0  0  0  0  0  0  0  0  # atno 17394 bound_to 11000
  141.1892  133.6564  156.5358 LP  0  0  0  0  0  0  0  0  0  0  0  0  # atno 17395 bound_to 11000

$$$$
