AV-unprocessed.smi:447|AV-procd|sdf|2603|dock1
  -GOLD-   2262023 03D 1   1.00000     0.00000
 Structure written by MMmdl.
 46 48  0  0  0  0  0  0  0  0  2 V2000
  152.6958  137.2547  158.7868 C   0  0  0  0  0  0  0  0  0  0  0  0
  152.5803  137.0153  157.2853 C   0  0  0  0  0  0  0  0  0  0  0  0
  153.0371  135.9861  156.7894 O   0  0  0  0  0  0  0  0  0  0  0  0
  151.9691  137.9740  156.5718 N   0  0  0  0  0  0  0  0  0  0  0  0
  151.7824  137.9526  155.1233 C   0  0  2  0  0  0  0  0  0  0  0  0
  153.0654  138.4245  154.4271 C   0  0  0  0  0  0  0  0  0  0  0  0
  150.6101  138.7821  154.6845 C   0  0  0  0  0  0  0  0  0  0  0  0
  149.5891  138.3672  153.8805 N   0  3  0  0  0  0  0  0  0  0  0  0
  148.6841  139.4108  153.6865 C   0  0  0  0  0  0  0  0  0  0  0  0
  147.5063  139.4692  152.9476 C   0  0  0  0  0  0  0  0  0  0  0  0
  146.8162  140.6992  152.9528 C   0  0  0  0  0  0  0  0  0  0  0  0
  147.3022  141.8100  153.6722 C   0  0  0  0  0  0  0  0  0  0  0  0
  148.4958  141.7374  154.4200 C   0  0  0  0  0  0  0  0  0  0  0  0
  149.1714  140.5170  154.4121 C   0  0  0  0  0  0  0  0  0  0  0  0
  150.3554  140.0802  155.0192 N   0  0  0  0  0  0  0  0  0  0  0  0
  151.1207  141.0070  155.8692 C   0  0  0  0  0  0  0  0  0  0  0  0
  150.2395  141.7377  156.9019 C   0  0  1  0  0  0  0  0  0  0  0  0
  149.3594  140.8238  157.5268 O   0  0  0  0  0  0  0  0  0  0  0  0
  151.0851  142.4990  157.9093 C   0  0  0  0  0  0  0  0  0  0  0  0
  151.9462  141.8090  158.7910 C   0  0  0  0  0  0  0  0  0  0  0  0
  152.7297  142.5212  159.7198 C   0  0  0  0  0  0  0  0  0  0  0  0
  152.6586  143.9265  159.7707 C   0  0  0  0  0  0  0  0  0  0  0  0
  151.8056  144.6197  158.8903 C   0  0  0  0  0  0  0  0  0  0  0  0
  151.0217  143.9080  157.9613 C   0  0  0  0  0  0  0  0  0  0  0  0
  151.8511  137.8352  159.1595 H   0  0  0  0  0  0  0  0  0  0  0  0
  153.6139  137.7981  159.0114 H   0  0  0  0  0  0  0  0  0  0  0  0
  152.7185  136.3062  159.3245 H   0  0  0  0  0  0  0  0  0  0  0  0
  151.6270  138.7863  157.0647 H   0  0  0  0  0  0  0  0  0  0  0  0
  151.6069  136.9167  154.8307 H   0  0  0  0  0  0  0  0  0  0  0  0
  152.9658  138.3646  153.3427 H   0  0  0  0  0  0  0  0  0  0  0  0
  153.9169  137.8061  154.7126 H   0  0  0  0  0  0  0  0  0  0  0  0
  153.3028  139.4577  154.6831 H   0  0  0  0  0  0  0  0  0  0  0  0
  147.1338  138.6205  152.3928 H   0  0  0  0  0  0  0  0  0  0  0  0
  145.8977  140.7939  152.3919 H   0  0  0  0  0  0  0  0  0  0  0  0
  146.7495  142.7381  153.6496 H   0  0  0  0  0  0  0  0  0  0  0  0
  148.8610  142.5977  154.9609 H   0  0  0  0  0  0  0  0  0  0  0  0
  151.9347  140.4665  156.3525 H   0  0  0  0  0  0  0  0  0  0  0  0
  151.5972  141.7318  155.2080 H   0  0  0  0  0  0  0  0  0  0  0  0
  149.6122  142.4576  156.3765 H   0  0  0  0  0  0  0  0  0  0  0  0
  149.1323  141.1644  158.3787 H   0  0  0  0  0  0  0  0  0  0  0  0
  152.0091  140.7311  158.7569 H   0  0  0  0  0  0  0  0  0  0  0  0
  153.3853  141.9889  160.3931 H   0  0  0  0  0  0  0  0  0  0  0  0
  153.2587  144.4724  160.4836 H   0  0  0  0  0  0  0  0  0  0  0  0
  151.7524  145.6978  158.9272 H   0  0  0  0  0  0  0  0  0  0  0  0
  150.3715  144.4488  157.2893 H   0  0  0  0  0  0  0  0  0  0  0  0
  149.5246  137.4372  153.4872 H   0  0  0  0  0  0  0  0  0  0  0  0
  1  2  1  0  0  0  0
  1 25  1  0  0  0  0
  1 26  1  0  0  0  0
  1 27  1  0  0  0  0
  2  3  2  0  0  0  0
  2  4  1  0  0  0  0
  4  5  1  0  0  0  0
  4 28  1  0  0  0  0
  5  6  1  0  0  0  0
  5  7  1  0  0  0  0
  5 29  1  0  0  0  0
  6 30  1  0  0  0  0
  6 31  1  0  0  0  0
  6 32  1  0  0  0  0
  7 15  1  0  0  0  0
  7  8  2  0  0  0  0
  8  9  1  0  0  0  0
  8 46  1  0  0  0  0
  9 14  2  0  0  0  0
  9 10  1  0  0  0  0
 10 11  2  0  0  0  0
 10 33  1  0  0  0  0
 11 12  1  0  0  0  0
 11 34  1  0  0  0  0
 12 13  2  0  0  0  0
 12 35  1  0  0  0  0
 13 14  1  0  0  0  0
 13 36  1  0  0  0  0
 14 15  1  0  0  0  0
 15 16  1  0  0  0  0
 16 17  1  0  0  0  0
 16 37  1  0  0  0  0
 16 38  1  0  0  0  0
 17 18  1  0  0  0  0
 17 19  1  0  0  0  0
 17 39  1  0  0  0  0
 18 40  1  0  0  0  0
 19 24  1  0  0  0  0
 19 20  2  0  0  0  0
 20 21  1  0  0  0  0
 20 41  1  0  0  0  0
 21 22  2  0  0  0  0
 21 42  1  0  0  0  0
 22 23  1  0  0  0  0
 22 43  1  0  0  0  0
 23 24  2  0  0  0  0
 23 44  1  0  0  0  0
 24 45  1  0  0  0  0
M  CHG  1   8   1
M  END
> <s_m_source_file>
AV-unprocessed.smi

> <i_m_source_file_index>
447

> <i_lp_mmshare_version>
43012

> <i_f3d_flags>
0

> <s_epik_input>
W0NIM11DKD1PKVtOSF1bQ0BIXShbQ0gzXSljKG4xKW4oYyhjMTIpW2NIXVtjSF1bY0hdW2NIXTIpW0NIMl1bQ0BIXShbT0hdKWMzW2NIXVtjSF1bY0hdW2NIXVtjSF0z

> <s_epik_cmdline>
J2VwaWtfcHl0aG9uJywgJy1waCcsICc3LjAnLCAnLXRuJywgJzgnLCAnLW1hJywgJzIwMCcsICctbWV0YWxfYmluZGluZycsICctaW1hZScsICc8aW5maWxlLm1hZT4nLCAnLW9tYWUnLCAnPG91dGZpbGUubWFlPic=

> <r_epik_Ionization_Penalty>
0.950381

> <r_epik_Ionization_Penalty_Charging>
0.950379

> <r_epik_Ionization_Penalty_Neutral>
1.42115e-06

> <r_epik_State_Penalty>
0.994584

> <r_epik_Charging_Adjusted_Penalty>
1.94496

> <i_epik_Tot_Q>
1

> <i_epik_Tot_abs_Q>
1

> <r_epik_Metal_State_Penalty>
1.10485

> <b_epik_Metal_Only>
0

> <s_lp_Force_Field>
OPLS_2005

> <r_lp_Energy>
11.1979

> <b_lp_Chiralities_Consistent>
1

> <s_lp_Variant>
AV-unprocessed.smi:447-7

> <Gold.Version>
5.8.1

> <Gold.Id.Protein>
6NUR|6NUR_protein|mol2

> <Gold.PLP.Fitness>
57.6842

> <Gold.PLP.PLP>
-50.4687

> <Gold.PLP.part.hbond>
-2.3841

> <Gold.PLP.part.metal>
0.0000

> <Gold.PLP.part.buried>
1.1621

> <Gold.PLP.part.nonpolar>
-48.7944

> <Gold.PLP.part.repulsive>
0.1479

> <Gold.PLP.ligand.clash>
0.0000

> <Gold.PLP.ligand.torsion>
0.7368

> <Gold.PLP.Chemscore.Hbond>
2.8096

> <Gold.PLP.Chemscore.CHOScore>
0.0000

> <Gold.PLP.Chemscore.Metal>
0.0000

> <Gold.Chemscore.Hbonds>
donor molecule, donor type, donor heavy atom, donor atom, acceptor molecule, acceptor atom, score
      L1  H     8    46       P1  7948  1.72
      P1  H 10752 10763       L1     3  1.00

> <Gold.PLP.Chemscore.Internal.Correction>
0.2603

> <Gold.Rescore>
     Score         DG    S(hbond)    S(metal)    S(lipo)     H(rot)  DE(clash)    DE(int)     intcor
     18.89     -20.89       1.62        0.00     138.29       2.41       0.59       1.42       ----

> <Gold.Chemscore.Fitness>
18.8873

> <Gold.Chemscore.DG>
-20.8892

> <Gold.Chemscore.ZeroCoef>
-5.4800

> <Gold.Chemscore.Hbond>
1.6173

> <Gold.Chemscore.Metal>
0.0000

> <Gold.Chemscore.Lipo>
138.2898

> <Gold.Chemscore.Internal_Hbond>
0.0000

> <Gold.Chemscore.DEClash>
0.5857

> <Gold.Chemscore.DEInternal>
1.4162

> <Gold.Chemscore.Rot>
2.4112

> <Gold.Chemscore.Internal.Correction>
   9.000000E+99

> <Gold.Chemscore.Hbonds>
donor molecule, donor type, donor heavy atom, donor atom, acceptor molecule, acceptor atom, score
      L1  H     8    46       P1  7948  0.73
      P1  H 10752 10763       L1     3  0.97

> <Gold.Chemscore.Hbond.Weighted>
-5.4019

> <Gold.Chemscore.Metal.Weighted>
-0.0000

> <Gold.Chemscore.Lipo.Weighted>
-16.1799

> <Gold.Chemscore.Internal_Hbond.Weighted>
0.0000

> <Gold.Chemscore.DEClash.Weighted>
0.5857

> <Gold.Chemscore.DEInternal.Weighted>
1.4162

> <Gold.Chemscore.Rot.Weighted>
6.1727

> <Gold.Chemscore.Internal.Correction.Weighted>
   9.000000E+99

> <Gold.Protein.RotatedTorsions>
[ 6907 6896 6895 6894 ] final  -40.73 input  -60.11 | X-H torsion
[ 7974 7965 7964 7962 ] final -151.70 input  175.53 | X-H torsion
[ 8008 7997 7996 7995 ] final  -17.22 input   59.86 | X-H torsion
[ 10167 10162 10161 10158 ] final -176.94 input  -65.29 | X-H torsion
[ 10718 10713 10712 10709 ] final  179.98 input   66.30 | X-H torsion
[ 10763 10752 10751 10750 ] final  134.32 input  -60.55 | X-H torsion
[ 11005 11000 10999 10996 ] final  109.47 input  -57.11 | X-H torsion

> <Gold.Protein.ActiveResidues>
 VAL166  LYS551  ARG553  GLY616  TRP617  ASP618  TYR619  PRO620  LYS621  CYS622 
 ASP623  PHE694  ASN695  SER759  ASP760  ASP761  ALA762  ILE779  LEU786  VAL792 
 PHE793  MET794  SER795  GLU796  ALA797  LYS798  CYS799  TRP800  GLU811  SER814 

> <Gold.Protein.RotatedAtoms>
  150.9750  134.9116  159.7810 H   0  0  0  0  0  0  0  0  0  0  0  0  # atno 6907 bound_to 6896
  152.5203  134.3488  159.9253 H   0  0  0  0  0  0  0  0  0  0  0  0  # atno 6908 bound_to 6896
  151.3496  133.3889  159.2713 H   0  0  0  0  0  0  0  0  0  0  0  0  # atno 6909 bound_to 6896
  144.7835  140.4762  143.5823 H   0  0  0  0  0  0  0  0  0  0  0  0  # atno 7974 bound_to 7965
  154.4994  140.2148  155.9378 H   0  0  0  0  0  0  0  0  0  0  0  0  # atno 8008 bound_to 7997
  156.1414  140.3179  155.8469 H   0  0  0  0  0  0  0  0  0  0  0  0  # atno 8009 bound_to 7997
  155.4113  140.0490  157.3022 H   0  0  0  0  0  0  0  0  0  0  0  0  # atno 8010 bound_to 7997
  139.5505  144.2123  152.1067 H   0  0  0  0  0  0  0  0  0  0  0  0  # atno 10167 bound_to 10162
  156.8677  130.9773  151.3077 H   0  0  0  0  0  0  0  0  0  0  0  0  # atno 10718 bound_to 10713
  153.8217  135.3115  155.3411 H   0  0  0  0  0  0  0  0  0  0  0  0  # atno 10763 bound_to 10752
  154.8010  135.4727  154.0278 H   0  0  0  0  0  0  0  0  0  0  0  0  # atno 10764 bound_to 10752
  153.1689  135.6874  153.8725 H   0  0  0  0  0  0  0  0  0  0  0  0  # atno 10765 bound_to 10752
  139.8863  134.9459  156.6131 H   0  0  0  0  0  0  0  0  0  0  0  0  # atno 11005 bound_to 11000
  145.5985  139.1501  143.3142 LP  0  0  0  0  0  0  0  0  0  0  0  0  # atno 17320 bound_to 7965
  146.2055  140.6108  142.9083 LP  0  0  0  0  0  0  0  0  0  0  0  0  # atno 17321 bound_to 7965
  140.1617  144.5019  150.6629 LP  0  0  0  0  0  0  0  0  0  0  0  0  # atno 17342 bound_to 10162
  140.6766  143.2307  151.5492 LP  0  0  0  0  0  0  0  0  0  0  0  0  # atno 17343 bound_to 10162
  157.6214  130.8658  149.9115 LP  0  0  0  0  0  0  0  0  0  0  0  0  # atno 17370 bound_to 10713
  156.0743  130.3681  150.0710 LP  0  0  0  0  0  0  0  0  0  0  0  0  # atno 17371 bound_to 10713
  140.7796  133.8670  155.8557 LP  0  0  0  0  0  0  0  0  0  0  0  0  # atno 17394 bound_to 11000
  140.9771  134.1454  157.4526 LP  0  0  0  0  0  0  0  0  0  0  0  0  # atno 17395 bound_to 11000

$$$$
