AV-unprocessed.smi:648|AV-procd|sdf|3172|dock2
  -GOLD-   22720 0 93D 1   1.00000     0.00000
 Structure written by MMmdl.
 46 47  0  0  0  0  0  0  0  0  2 V2000
  141.9466  134.8056  153.4312 C   0  0  0  0  0  0  0  0  0  0  0  0
  143.1990  135.0739  152.5836 C   0  0  2  0  0  0  0  0  0  0  0  0
  143.4765  133.9023  151.6218 C   0  0  0  0  0  0  0  0  0  0  0  0
  144.7210  134.1092  150.7254 C   0  0  0  0  0  0  0  0  0  0  0  0
  145.0689  132.7601  150.0592 C   0  0  0  0  0  0  0  0  0  0  0  0
  144.4129  135.0956  149.5756 C   0  0  0  0  0  0  0  0  0  0  0  0
  145.9452  134.5429  151.5873 C   0  0  0  0  0  0  0  0  0  0  0  0
  145.7226  135.6385  152.6747 C   0  0  2  0  0  0  0  0  0  0  0  0
  145.6468  137.0505  152.0317 C   0  0  0  0  0  0  0  0  0  0  0  0
  146.8612  137.4057  151.3976 O   0  0  0  0  0  0  0  0  0  0  0  0
  146.9264  135.6823  153.5566 N   0  3  0  0  0  0  0  0  0  0  0  0
  147.2919  134.4814  154.3440 C   0  0  0  0  0  0  0  0  0  0  0  0
  148.8019  134.2180  154.2585 C   0  0  0  0  0  0  0  0  0  0  0  0
  149.1067  132.8050  154.3677 N   0  0  0  0  0  0  0  0  0  0  0  0
  148.9161  131.8042  153.5063 C   0  0  0  0  0  0  0  0  0  0  0  0
  149.3262  130.6265  153.9560 N   0  0  0  0  0  0  0  0  0  0  0  0
  149.7875  130.9994  155.1869 C   0  0  0  0  0  0  0  0  0  0  0  0
  149.6794  132.2951  155.4828 N   0  0  0  0  0  0  0  0  0  0  0  0
  144.4294  135.3188  153.4772 C   0  0  0  0  0  0  0  0  0  0  0  0
  142.0682  133.9181  154.0533 H   0  0  0  0  0  0  0  0  0  0  0  0
  141.0707  134.6516  152.8001 H   0  0  0  0  0  0  0  0  0  0  0  0
  141.7311  135.6470  154.0906 H   0  0  0  0  0  0  0  0  0  0  0  0
  142.9917  135.9711  152.0025 H   0  0  0  0  0  0  0  0  0  0  0  0
  143.6086  132.9970  152.2168 H   0  0  0  0  0  0  0  0  0  0  0  0
  142.6001  133.7188  150.9983 H   0  0  0  0  0  0  0  0  0  0  0  0
  145.9403  132.8515  149.4093 H   0  0  0  0  0  0  0  0  0  0  0  0
  144.2436  132.3894  149.4498 H   0  0  0  0  0  0  0  0  0  0  0  0
  145.2924  131.9890  150.7972 H   0  0  0  0  0  0  0  0  0  0  0  0
  145.3183  135.3758  149.0363 H   0  0  0  0  0  0  0  0  0  0  0  0
  143.9225  136.0069  149.9041 H   0  0  0  0  0  0  0  0  0  0  0  0
  143.7334  134.6479  148.8492 H   0  0  0  0  0  0  0  0  0  0  0  0
  146.2976  133.6435  152.0901 H   0  0  0  0  0  0  0  0  0  0  0  0
  146.7705  134.8318  150.9349 H   0  0  0  0  0  0  0  0  0  0  0  0
  144.8490  137.0933  151.2893 H   0  0  0  0  0  0  0  0  0  0  0  0
  145.4411  137.8327  152.7533 H   0  0  0  0  0  0  0  0  0  0  0  0
  147.5743  136.9867  151.8560 H   0  0  0  0  0  0  0  0  0  0  0  0
  147.7155  135.9339  152.9789 H   0  0  0  0  0  0  0  0  0  0  0  0
  147.0181  134.6314  155.3886 H   0  0  0  0  0  0  0  0  0  0  0  0
  146.7500  133.6059  153.9886 H   0  0  0  0  0  0  0  0  0  0  0  0
  149.2023  134.5861  153.3126 H   0  0  0  0  0  0  0  0  0  0  0  0
  149.3272  134.7482  155.0543 H   0  0  0  0  0  0  0  0  0  0  0  0
  148.4719  131.9386  152.5308 H   0  0  0  0  0  0  0  0  0  0  0  0
  150.2158  130.2955  155.8852 H   0  0  0  0  0  0  0  0  0  0  0  0
  144.2203  136.1143  154.1931 H   0  0  0  0  0  0  0  0  0  0  0  0
  144.5641  134.4139  154.0693 H   0  0  0  0  0  0  0  0  0  0  0  0
  146.7759  136.4314  154.2179 H   0  0  0  0  0  0  0  0  0  0  0  0
  1  2  1  0  0  0  0
  1 20  1  0  0  0  0
  1 21  1  0  0  0  0
  1 22  1  0  0  0  0
  2 19  1  0  0  0  0
  2  3  1  0  0  0  0
  2 23  1  0  0  0  0
  3  4  1  0  0  0  0
  3 24  1  0  0  0  0
  3 25  1  0  0  0  0
  4  5  1  0  0  0  0
  4  6  1  0  0  0  0
  4  7  1  0  0  0  0
  5 26  1  0  0  0  0
  5 27  1  0  0  0  0
  5 28  1  0  0  0  0
  6 29  1  0  0  0  0
  6 30  1  0  0  0  0
  6 31  1  0  0  0  0
  7  8  1  0  0  0  0
  7 32  1  0  0  0  0
  7 33  1  0  0  0  0
  8  9  1  0  0  0  0
  8 11  1  0  0  0  0
  8 19  1  0  0  0  0
  9 10  1  0  0  0  0
  9 34  1  0  0  0  0
  9 35  1  0  0  0  0
 10 36  1  0  0  0  0
 11 12  1  0  0  0  0
 11 37  1  0  0  0  0
 11 46  1  0  0  0  0
 12 13  1  0  0  0  0
 12 38  1  0  0  0  0
 12 39  1  0  0  0  0
 13 14  1  0  0  0  0
 13 40  1  0  0  0  0
 13 41  1  0  0  0  0
 14 18  1  0  0  0  0
 14 15  1  0  0  0  0
 15 16  2  0  0  0  0
 15 42  1  0  0  0  0
 16 17  1  0  0  0  0
 17 18  2  0  0  0  0
 17 43  1  0  0  0  0
 19 44  1  0  0  0  0
 19 45  1  0  0  0  0
M  CHG  1  11   1
M  END
> <s_m_source_file>
AV-unprocessed.smi

> <i_m_source_file_index>
648

> <i_lp_mmshare_version>
43012

> <i_f3d_flags>
0

> <s_epik_input>
W0NIM11DMShbQ0gzXSlbQ0gyXVtDQEBIXShbQ0gzXSlbQ0gyXVtDQF0oW0NIMl0xKShbQ0gyXVtPSF0pW05IXVtDSDJdW0NIMl1uMltjSF1uW2NIXW4y

> <s_epik_cmdline>
J2VwaWtfcHl0aG9uJywgJy1waCcsICc3LjAnLCAnLXRuJywgJzgnLCAnLW1hJywgJzIwMCcsICctbWV0YWxfYmluZGluZycsICctaW1hZScsICc8aW5maWxlLm1hZT4nLCAnLW9tYWUnLCAnPG91dGZpbGUubWFlPic=

> <r_lp_tautomer_probability>
1

> <r_epik_Ionization_Penalty>
0.00942316

> <r_epik_Ionization_Penalty_Charging>
0.00942185

> <r_epik_Ionization_Penalty_Neutral>
1.31257e-06

> <r_epik_State_Penalty>
0.00715409

> <r_epik_Charging_Adjusted_Penalty>
0.0165759

> <i_epik_Tot_Q>
1

> <i_epik_Tot_abs_Q>
1

> <r_epik_Metal_State_Penalty>
0.00715563

> <b_epik_Metal_Only>
0

> <s_lp_Force_Field>
OPLS_2005

> <r_lp_Energy>
31.5344

> <b_lp_Chiralities_Consistent>
1

> <s_lp_Variant>
AV-unprocessed.smi:648-3

> <Gold.Version>
5.8.1

> <Gold.Id.Protein>
6NUR|6NUR_protein|mol2

> <Gold.PLP.Fitness>
42.8775

> <Gold.PLP.PLP>
-30.7759

> <Gold.PLP.part.hbond>
-2.5237

> <Gold.PLP.part.metal>
0.0000

> <Gold.PLP.part.buried>
-0.3854

> <Gold.PLP.part.nonpolar>
-28.4344

> <Gold.PLP.part.repulsive>
0.0926

> <Gold.PLP.ligand.clash>
0.0000

> <Gold.PLP.ligand.torsion>
0.6554

> <Gold.PLP.Chemscore.Hbond>
3.4308

> <Gold.PLP.Chemscore.CHOScore>
1.0000

> <Gold.PLP.Chemscore.Metal>
0.0000

> <Gold.Chemscore.Hbonds>
donor molecule, donor type, donor heavy atom, donor atom, acceptor molecule, acceptor atom, score
      L1  H    10    36       P1  7948  0.99
      L1  H    11    37       P1  7948  2.00
      P1  H  7954  7966       L1    10  0.39
      L1  C    15    42       P1 10747  0.99

> <Gold.PLP.Chemscore.Internal.Correction>
0.1200

> <Gold.Rescore>
     Score         DG    S(hbond)    S(metal)    S(lipo)     H(rot)  DE(clash)    DE(int)     intcor
      9.89     -11.92       2.00        0.00      67.59       3.17       1.37       0.67       ----

> <Gold.Chemscore.Fitness>
9.8870

> <Gold.Chemscore.DG>
-11.9236

> <Gold.Chemscore.ZeroCoef>
-5.4800

> <Gold.Chemscore.Hbond>
1.9951

> <Gold.Chemscore.Metal>
0.0000

> <Gold.Chemscore.Lipo>
67.5881

> <Gold.Chemscore.Internal_Hbond>
0.0000

> <Gold.Chemscore.DEClash>
1.3675

> <Gold.Chemscore.DEInternal>
0.6691

> <Gold.Chemscore.Rot>
3.1750

> <Gold.Chemscore.Internal.Correction>
   9.000000E+99

> <Gold.Chemscore.Hbonds>
donor molecule, donor type, donor heavy atom, donor atom, acceptor molecule, acceptor atom, score
      L1  H    10    36       P1  7948  0.89
      L1  H    11    37       P1  7948  1.00
      P1  H  7954  7966       L1    10  0.01

> <Gold.Chemscore.Hbond.Weighted>
-6.6637

> <Gold.Chemscore.Metal.Weighted>
-0.0000

> <Gold.Chemscore.Lipo.Weighted>
-7.9078

> <Gold.Chemscore.Internal_Hbond.Weighted>
0.0000

> <Gold.Chemscore.DEClash.Weighted>
1.3675

> <Gold.Chemscore.DEInternal.Weighted>
0.6691

> <Gold.Chemscore.Rot.Weighted>
8.1279

> <Gold.Chemscore.Internal.Correction.Weighted>
   9.000000E+99

> <Gold.Protein.RotatedTorsions>
[ 6907 6896 6895 6894 ] final    0.61 input  -60.11 | X-H torsion
[ 7974 7965 7964 7962 ] final  -85.59 input  175.53 | X-H torsion
[ 8008 7997 7996 7995 ] final  -20.73 input   59.86 | X-H torsion
[ 10167 10162 10161 10158 ] final  168.35 input  -65.29 | X-H torsion
[ 10718 10713 10712 10709 ] final  -92.18 input   66.30 | X-H torsion
[ 10763 10752 10751 10750 ] final  103.58 input  -60.55 | X-H torsion
[ 11005 11000 10999 10996 ] final  179.23 input  -57.11 | X-H torsion

> <Gold.Protein.ActiveResidues>
 VAL166  LYS551  ARG553  GLY616  TRP617  ASP618  TYR619  PRO620  LYS621  CYS622 
 ASP623  PHE694  ASN695  SER759  ASP760  ASP761  ALA762  ILE779  LEU786  VAL792 
 PHE793  MET794  SER795  GLU796  ALA797  LYS798  CYS799  TRP800  GLU811  SER814 

> <Gold.Protein.RotatedAtoms>
  151.5792  135.1059  160.0012 H   0  0  0  0  0  0  0  0  0  0  0  0  # atno 6907 bound_to 6896
  152.4363  133.7362  159.6626 H   0  0  0  0  0  0  0  0  0  0  0  0  # atno 6908 bound_to 6896
  150.8261  133.8100  159.3141 H   0  0  0  0  0  0  0  0  0  0  0  0  # atno 6909 bound_to 6896
  145.4912  140.9552  143.1811 H   0  0  0  0  0  0  0  0  0  0  0  0  # atno 7974 bound_to 7965
  154.4751  140.2054  155.9899 H   0  0  0  0  0  0  0  0  0  0  0  0  # atno 8008 bound_to 7997
  156.1075  140.3234  155.7997 H   0  0  0  0  0  0  0  0  0  0  0  0  # atno 8009 bound_to 7997
  155.4692  140.0530  157.2972 H   0  0  0  0  0  0  0  0  0  0  0  0  # atno 8010 bound_to 7997
  139.4966  144.3824  151.9608 H   0  0  0  0  0  0  0  0  0  0  0  0  # atno 10167 bound_to 10162
  156.0000  130.4977  150.5586 H   0  0  0  0  0  0  0  0  0  0  0  0  # atno 10718 bound_to 10713
  153.3546  135.3972  155.1672 H   0  0  0  0  0  0  0  0  0  0  0  0  # atno 10763 bound_to 10752
  154.8668  135.3665  154.5178 H   0  0  0  0  0  0  0  0  0  0  0  0  # atno 10764 bound_to 10752
  153.5632  135.7080  153.5598 H   0  0  0  0  0  0  0  0  0  0  0  0  # atno 10765 bound_to 10752
  140.4039  134.6753  157.4577 H   0  0  0  0  0  0  0  0  0  0  0  0  # atno 11005 bound_to 11000
  144.7833  139.6480  143.7145 LP  0  0  0  0  0  0  0  0  0  0  0  0  # atno 17320 bound_to 7965
  146.2283  139.5765  142.9572 LP  0  0  0  0  0  0  0  0  0  0  0  0  # atno 17321 bound_to 7965
  140.3260  144.3372  150.5998 LP  0  0  0  0  0  0  0  0  0  0  0  0  # atno 17342 bound_to 10162
  140.5684  143.2183  151.7643 LP  0  0  0  0  0  0  0  0  0  0  0  0  # atno 17343 bound_to 10162
  157.3499  131.0731  151.1722 LP  0  0  0  0  0  0  0  0  0  0  0  0  # atno 17370 bound_to 10713
  157.2542  130.6628  149.5945 LP  0  0  0  0  0  0  0  0  0  0  0  0  # atno 17371 bound_to 10713
  140.0316  134.6397  155.9098 LP  0  0  0  0  0  0  0  0  0  0  0  0  # atno 17394 bound_to 11000
  141.1846  133.6553  156.5166 LP  0  0  0  0  0  0  0  0  0  0  0  0  # atno 17395 bound_to 11000

$$$$
