#       Name:                AV-unprocessed.smi:1808
#       Creating user name   scv26
#       Creation time:       Fri Mar 27 08:56:29 2020


#       File generated by GOLD software.
#

@<TRIPOS>MOLECULE
AV-unprocessed.smi:1808
    33    34     1
SMALL
NO_CHARGES


@<TRIPOS>ATOM
      1 ****        -0.3862   1.6703  -0.8285 O.2            1 S1                 0.0000
      2 ****        -0.8944   0.5546  -0.9453 C.2            1 S1                 0.0000
      3 ****        -0.1802  -0.5765  -1.0340 N.am           1 S1                 0.0000
      4 ****         1.2757  -0.6507  -0.9957 C.3            1 S1                 0.0000
      5 ****         1.8033  -0.6276   0.4480 C.3            1 S1                 0.0000
      6 ****         3.3274  -0.6196   0.5454 C.3            1 S1                 0.0000
      7 ****         3.5442  -1.1990   1.9242 C.3            1 S1                 0.0000
      8 ****         2.4575  -2.2683   1.9845 C.3            1 S1                 0.0000
      9 ****         1.3998  -1.8017   1.1501 O.3            1 S1                 0.0000
     10 ****        -2.2140   0.3023  -0.9961 N.am           1 S1                 0.0000
     11 ****        -3.2870   1.2316  -0.9659 C.2            1 S1                 0.0000
     12 ****        -3.1341   2.5589  -0.8918 N.2            1 S1                 0.0000
     13 ****        -4.3603   3.2287  -0.8852 C.2            1 S1                 0.0000
     14 ****        -5.4445   2.3898  -0.9558 C.2            1 S1                 0.0000
     15 ****        -4.9657   0.7151  -1.0333 S.3            1 S1                 0.0000
     16 ****        -0.6770  -1.4509  -1.1209 H              1 S1                 0.0000
     17 ****         1.5876  -1.5685  -1.4947 H              1 S1                 0.0000
     18 ****         1.7046   0.1739  -1.5679 H              1 S1                 0.0000
     19 ****         1.4129   0.2380   0.9860 H              1 S1                 0.0000
     20 ****         3.7672  -1.2750  -0.2078 H              1 S1                 0.0000
     21 ****         3.7555   0.3762   0.4265 H              1 S1                 0.0000
     22 ****         4.5475  -1.5993   2.0713 H              1 S1                 0.0000
     23 ****         3.3640  -0.4358   2.6825 H              1 S1                 0.0000
     24 ****         2.8271  -3.2102   1.5776 H              1 S1                 0.0000
     25 ****         2.1120  -2.4518   3.0019 H              1 S1                 0.0000
     26 ****        -2.4823  -0.6672  -1.0770 H              1 S1                 0.0000
     27 ****        -4.3688   4.3072  -0.8294 H              1 S1                 0.0000
     28 ****        -6.4913   2.6550  -0.9678 H              1 S1                 0.0000
     29 ****         0.6087   1.7656  -0.7956 LP             1 S1                 0.0000
     30 ****        -0.9685   2.4810  -0.7667 LP             1 S1                 0.0000
     31 ****         1.1610  -2.5145   0.4906 LP             1 S1                 0.0000
     32 ****         0.6026  -1.5902   1.7155 LP             1 S1                 0.0000
     33 ****        -2.2466   3.0175  -0.8465 LP             1 S1                 0.0000
@<TRIPOS>BOND
    1    1    2 2     
    2    2    3 am    
    3    2   10 am    
    4    3    4 1     
    5    3   16 1     
    6    4    5 1     
    7    4   17 1     
    8    4   18 1     
    9    5    9 1     
   10    5    6 1     
   11    5   19 1     
   12    6    7 1     
   13    6   20 1     
   14    6   21 1     
   15    7    8 1     
   16    7   22 1     
   17    7   23 1     
   18    8    9 1     
   19    8   24 1     
   20    8   25 1     
   21   10   11 1     
   22   10   26 1     
   23   11   15 1     
   24   11   12 2     
   25   12   13 1     
   26   13   14 2     
   27   13   27 1     
   28   14   15 1     
   29   14   28 1     
   30    1   29 1     
   31    1   30 1     
   32    9   31 1     
   33    9   32 1     
   34   12   33 1     
@<TRIPOS>SUBSTRUCTURE
      1 S1             1
@<TRIPOS>SET
LONE_PAIRS      STATIC     ATOMS    <user>   **** ""
5 29 30 31 32 33
DONOR_HYDROGENS      STATIC     ATOMS    <user>   **** ""
2 16 26
ATOM$BLUE        STATIC     ATOMS    COLORGROUP SYSTEM
5 29 30 31 32 33
ATOM$RED        STATIC     ATOMS    COLORGROUP SYSTEM
2 16 26
