AV-unprocessed.smi:953|AV-procd|sdf|4257|dock5
  -GOLD-   22720 2163D 1   1.00000     0.00000
 Structure written by MMmdl.
 24 25  0  0  0  0  0  0  0  0  2 V2000
  148.9612  142.4559  156.5163 N   0  3  0  0  0  0  0  0  0  0  0  0
  149.8242  141.9250  157.5848 C   0  0  0  0  0  0  0  0  0  0  0  0
  151.2584  142.4568  157.4613 C   0  0  0  0  0  0  0  0  0  0  0  0
  152.0396  142.2916  158.7279 C   0  0  0  0  0  0  0  0  0  0  0  0
  152.2654  141.1029  159.2992 N   0  0  0  0  0  0  0  0  0  0  0  0
  152.9621  141.3744  160.4590 N   0  0  0  0  0  0  0  0  0  0  0  0
  153.0818  142.7012  160.4755 C   0  0  0  0  0  0  0  0  0  0  0  0
  152.5447  143.3343  159.4199 N   0  0  0  0  0  0  0  0  0  0  0  0
  152.4584  144.7614  159.1567 C   0  0  0  0  0  0  0  0  0  0  0  0
  151.8967  145.5704  160.3031 C   0  0  0  0  0  0  0  0  0  0  0  0
  151.0544  145.3186  159.0725 C   0  0  0  0  0  0  0  0  0  0  0  0
  149.0003  143.4653  156.5225 H   0  0  0  0  0  0  0  0  0  0  0  0
  148.0088  142.1572  156.6726 H   0  0  0  0  0  0  0  0  0  0  0  0
  149.3989  142.2021  158.5499 H   0  0  0  0  0  0  0  0  0  0  0  0
  149.8170  140.8360  157.5297 H   0  0  0  0  0  0  0  0  0  0  0  0
  151.7829  141.9271  156.6648 H   0  0  0  0  0  0  0  0  0  0  0  0
  151.2477  143.5072  157.1710 H   0  0  0  0  0  0  0  0  0  0  0  0
  153.5715  143.2246  161.2837 H   0  0  0  0  0  0  0  0  0  0  0  0
  153.2617  145.1478  158.5323 H   0  0  0  0  0  0  0  0  0  0  0  0
  151.6176  145.0463  161.2157 H   0  0  0  0  0  0  0  0  0  0  0  0
  152.2873  146.5758  160.4455 H   0  0  0  0  0  0  0  0  0  0  0  0
  150.8891  146.1590  158.4012 H   0  0  0  0  0  0  0  0  0  0  0  0
  150.2109  144.6392  159.1799 H   0  0  0  0  0  0  0  0  0  0  0  0
  149.2789  142.1128  155.6212 H   0  0  0  0  0  0  0  0  0  0  0  0
  1  2  1  0  0  0  0
  1 12  1  0  0  0  0
  1 13  1  0  0  0  0
  1 24  1  0  0  0  0
  2  3  1  0  0  0  0
  2 14  1  0  0  0  0
  2 15  1  0  0  0  0
  3  4  1  0  0  0  0
  3 16  1  0  0  0  0
  3 17  1  0  0  0  0
  4  8  1  0  0  0  0
  4  5  2  0  0  0  0
  5  6  1  0  0  0  0
  6  7  2  0  0  0  0
  7  8  1  0  0  0  0
  7 18  1  0  0  0  0
  8  9  1  0  0  0  0
  9 11  1  0  0  0  0
  9 10  1  0  0  0  0
  9 19  1  0  0  0  0
 10 11  1  0  0  0  0
 10 20  1  0  0  0  0
 10 21  1  0  0  0  0
 11 22  1  0  0  0  0
 11 23  1  0  0  0  0
M  CHG  1   1   1
M  END
> <s_m_source_file>
AV-unprocessed.smi

> <i_m_source_file_index>
953

> <i_lp_mmshare_version>
43012

> <i_f3d_flags>
0

> <s_epik_input>
W05IMl1bQ0gyXVtDSDJdYzFubltjSF1uMVtDSF0yW0NIMl1bQ0gyXTI=

> <s_epik_cmdline>
J2VwaWtfcHl0aG9uJywgJy1waCcsICc3LjAnLCAnLXRuJywgJzgnLCAnLW1hJywgJzIwMCcsICctbWV0YWxfYmluZGluZycsICctaW1hZScsICc8aW5maWxlLm1hZT4nLCAnLW9tYWUnLCAnPG91dGZpbGUubWFlPic=

> <r_lp_tautomer_probability>
1

> <r_epik_Ionization_Penalty>
0.00465942

> <r_epik_Ionization_Penalty_Charging>
0.00465044

> <r_epik_Ionization_Penalty_Neutral>
8.98889e-06

> <r_epik_State_Penalty>
-0

> <r_epik_Charging_Adjusted_Penalty>
0.00465044

> <i_epik_Tot_Q>
1

> <i_epik_Tot_abs_Q>
1

> <r_epik_Metal_State_Penalty>
-0

> <b_epik_Metal_Only>
0

> <s_lp_Force_Field>
OPLS_2005

> <r_lp_Energy>
17.0631

> <b_lp_Chiralities_Consistent>
1

> <s_lp_Variant>
AV-unprocessed.smi:953-1

> <Gold.Version>
5.8.1

> <Gold.Id.Protein>
6NUR|6NUR_protein|mol2

> <Gold.PLP.Fitness>
35.7147

> <Gold.PLP.PLP>
-29.9168

> <Gold.PLP.part.hbond>
-1.0000

> <Gold.PLP.part.metal>
0.0000

> <Gold.PLP.part.buried>
-4.4131

> <Gold.PLP.part.nonpolar>
-23.9817

> <Gold.PLP.part.repulsive>
0.0297

> <Gold.PLP.ligand.clash>
0.0000

> <Gold.PLP.ligand.torsion>
0.1372

> <Gold.PLP.Chemscore.Hbond>
2.0000

> <Gold.PLP.Chemscore.CHOScore>
0.0000

> <Gold.PLP.Chemscore.Metal>
0.0000

> <Gold.Chemscore.Hbonds>
donor molecule, donor type, donor heavy atom, donor atom, acceptor molecule, acceptor atom, score
      L1  H     1    12       P1  8028  1.78

> <Gold.PLP.Chemscore.Internal.Correction>
0.0722

> <Gold.Rescore>
     Score         DG    S(hbond)    S(metal)    S(lipo)     H(rot)  DE(clash)    DE(int)     intcor
      9.67     -10.14       0.99        0.00      50.83       1.79       0.01       0.45       ----

> <Gold.Chemscore.Fitness>
9.6710

> <Gold.Chemscore.DG>
-10.1385

> <Gold.Chemscore.ZeroCoef>
-5.4800

> <Gold.Chemscore.Hbond>
0.9882

> <Gold.Chemscore.Metal>
0.0000

> <Gold.Chemscore.Lipo>
50.8287

> <Gold.Chemscore.Internal_Hbond>
0.0000

> <Gold.Chemscore.DEClash>
0.0126

> <Gold.Chemscore.DEInternal>
0.4549

> <Gold.Chemscore.Rot>
1.7926

> <Gold.Chemscore.Internal.Correction>
   9.000000E+99

> <Gold.Chemscore.Hbonds>
donor molecule, donor type, donor heavy atom, donor atom, acceptor molecule, acceptor atom, score
      L1  H     1    12       P1  8028  0.78

> <Gold.Chemscore.Hbond.Weighted>
-3.3007

> <Gold.Chemscore.Metal.Weighted>
-0.0000

> <Gold.Chemscore.Lipo.Weighted>
-5.9470

> <Gold.Chemscore.Internal_Hbond.Weighted>
0.0000

> <Gold.Chemscore.DEClash.Weighted>
0.0126

> <Gold.Chemscore.DEInternal.Weighted>
0.4549

> <Gold.Chemscore.Rot.Weighted>
4.5892

> <Gold.Chemscore.Internal.Correction.Weighted>
   9.000000E+99

> <Gold.Protein.RotatedTorsions>
[ 6907 6896 6895 6894 ] final  153.14 input  -60.11 | X-H torsion
[ 7974 7965 7964 7962 ] final   -7.87 input  175.53 | X-H torsion
[ 8008 7997 7996 7995 ] final  168.00 input   59.86 | X-H torsion
[ 10167 10162 10161 10158 ] final  -16.62 input  -65.29 | X-H torsion
[ 10718 10713 10712 10709 ] final  -97.22 input   66.30 | X-H torsion
[ 10763 10752 10751 10750 ] final   65.16 input  -60.55 | X-H torsion
[ 11005 11000 10999 10996 ] final   62.17 input  -57.11 | X-H torsion

> <Gold.Protein.ActiveResidues>
 VAL166  LYS551  ARG553  GLY616  TRP617  ASP618  TYR619  PRO620  LYS621  CYS622 
 ASP623  PHE694  ASN695  SER759  ASP760  ASP761  ALA762  ILE779  LEU786  VAL792 
 PHE793  MET794  SER795  GLU796  ALA797  LYS798  CYS799  TRP800  GLU811  SER814 

> <Gold.Protein.RotatedAtoms>
  152.0768  133.4133  159.4483 H   0  0  0  0  0  0  0  0  0  0  0  0  # atno 6907 bound_to 6896
  150.6862  134.3028  159.4722 H   0  0  0  0  0  0  0  0  0  0  0  0  # atno 6908 bound_to 6896
  152.0865  134.9435  160.0623 H   0  0  0  0  0  0  0  0  0  0  0  0  # atno 6909 bound_to 6896
  146.2296  140.2383  142.8342 H   0  0  0  0  0  0  0  0  0  0  0  0  # atno 7974 bound_to 7965
  156.1585  140.1602  156.8652 H   0  0  0  0  0  0  0  0  0  0  0  0  # atno 8008 bound_to 7997
  154.5138  140.0794  156.8077 H   0  0  0  0  0  0  0  0  0  0  0  0  # atno 8009 bound_to 7997
  155.3755  140.3402  155.4247 H   0  0  0  0  0  0  0  0  0  0  0  0  # atno 8010 bound_to 7997
  140.7236  143.5097  150.9765 H   0  0  0  0  0  0  0  0  0  0  0  0  # atno 10167 bound_to 10162
  156.0079  130.5185  150.6343 H   0  0  0  0  0  0  0  0  0  0  0  0  # atno 10718 bound_to 10713
  153.0085  135.5367  154.6623 H   0  0  0  0  0  0  0  0  0  0  0  0  # atno 10763 bound_to 10752
  154.5829  135.2851  155.0717 H   0  0  0  0  0  0  0  0  0  0  0  0  # atno 10764 bound_to 10752
  154.1839  135.6511  153.5094 H   0  0  0  0  0  0  0  0  0  0  0  0  # atno 10765 bound_to 10752
  140.0111  134.6295  155.9780 H   0  0  0  0  0  0  0  0  0  0  0  0  # atno 11005 bound_to 11000
  144.9504  140.8172  143.5575 LP  0  0  0  0  0  0  0  0  0  0  0  0  # atno 17320 bound_to 7965
  145.2343  139.2101  143.5026 LP  0  0  0  0  0  0  0  0  0  0  0  0  # atno 17321 bound_to 7965
  139.8811  143.7071  152.3157 LP  0  0  0  0  0  0  0  0  0  0  0  0  # atno 17342 bound_to 10162
  139.7354  144.7572  151.0736 LP  0  0  0  0  0  0  0  0  0  0  0  0  # atno 17343 bound_to 10162
  157.4135  131.0827  151.1199 LP  0  0  0  0  0  0  0  0  0  0  0  0  # atno 17370 bound_to 10713
  157.1823  130.6315  149.5676 LP  0  0  0  0  0  0  0  0  0  0  0  0  # atno 17371 bound_to 10713
  141.1711  133.6537  156.4655 LP  0  0  0  0  0  0  0  0  0  0  0  0  # atno 17394 bound_to 11000
  140.4554  134.6891  157.5060 LP  0  0  0  0  0  0  0  0  0  0  0  0  # atno 17395 bound_to 11000

$$$$
