AV-unprocessed.smi:2253|AV-procd|sdf|9120|dock3
  -GOLD-   2272012323D 1   1.00000     0.00000
 Structure written by MMmdl.
 51 53  0  0  0  0  0  0  0  0  2 V2000
  145.2947  142.7013  155.2465 C   0  0  0  0  0  0  0  0  0  0  0  0
  145.5151  141.3199  154.7672 N   0  3  2  0  0  0  0  0  0  0  0  0
  145.4480  140.3248  155.8659 C   0  0  0  0  0  0  0  0  0  0  0  0
  145.6077  138.8911  155.3285 C   0  0  0  0  0  0  0  0  0  0  0  0
  146.9381  138.7094  154.5532 C   0  0  2  0  0  0  0  0  0  0  0  0
  148.1453  138.7848  155.4086 N   0  0  0  0  0  0  0  0  0  0  0  0
  149.3782  138.6871  154.6088 C   0  0  0  0  0  0  0  0  0  0  0  0
  150.6371  138.8570  155.4763 C   0  0  0  0  0  0  0  0  0  0  0  0
  150.6964  137.7893  156.5746 C   0  0  0  0  0  0  0  0  0  0  0  0
  151.8258  138.0190  157.4709 N   0  0  0  0  0  0  0  0  0  0  0  0
  152.0862  137.3121  158.5803 C   0  0  0  0  0  0  0  0  0  0  0  0
  151.3880  136.3729  158.9604 O   0  0  0  0  0  0  0  0  0  0  0  0
  153.1884  137.7724  159.1977 N   0  0  0  0  0  0  0  0  0  0  0  0
  153.8038  137.3398  160.4063 C   0  0  0  0  0  0  0  0  0  0  0  0
  153.9339  135.9880  160.8109 C   0  0  0  0  0  0  0  0  0  0  0  0
  154.5708  135.7077  162.0368 C   0  0  0  0  0  0  0  0  0  0  0  0
  155.0708  136.6602  162.8516 N   0  0  0  0  0  0  0  0  0  0  0  0
  154.9508  137.9464  162.4614 C   0  0  0  0  0  0  0  0  0  0  0  0
  154.3318  138.3351  161.2565 C   0  0  0  0  0  0  0  0  0  0  0  0
  154.2461  139.6465  160.9260 F   0  0  0  0  0  0  0  0  0  0  0  0
  149.3822  137.8384  157.3577 C   0  0  0  0  0  0  0  0  0  0  0  0
  148.1704  137.7122  156.4176 C   0  0  0  0  0  0  0  0  0  0  0  0
  146.9213  139.7639  153.4166 C   0  0  0  0  0  0  0  0  0  0  0  0
  146.7564  141.1931  153.9645 C   0  0  0  0  0  0  0  0  0  0  0  0
  146.0845  143.0074  155.9338 H   0  0  0  0  0  0  0  0  0  0  0  0
  144.3395  142.7812  155.7662 H   0  0  0  0  0  0  0  0  0  0  0  0
  145.2782  143.4012  154.4106 H   0  0  0  0  0  0  0  0  0  0  0  0
  146.2215  140.5388  156.6051 H   0  0  0  0  0  0  0  0  0  0  0  0
  144.4886  140.4163  156.3766 H   0  0  0  0  0  0  0  0  0  0  0  0
  145.4701  138.1603  156.1226 H   0  0  0  0  0  0  0  0  0  0  0  0
  144.7818  138.6912  154.6443 H   0  0  0  0  0  0  0  0  0  0  0  0
  146.9289  137.7178  154.0976 H   0  0  0  0  0  0  0  0  0  0  0  0
  149.4074  137.7322  154.0815 H   0  0  0  0  0  0  0  0  0  0  0  0
  149.4238  139.4691  153.8558 H   0  0  0  0  0  0  0  0  0  0  0  0
  151.5248  138.7966  154.8457 H   0  0  0  0  0  0  0  0  0  0  0  0
  150.6408  139.8538  155.9200 H   0  0  0  0  0  0  0  0  0  0  0  0
  150.7908  136.8029  156.1162 H   0  0  0  0  0  0  0  0  0  0  0  0
  152.4497  138.7754  157.2312 H   0  0  0  0  0  0  0  0  0  0  0  0
  153.6351  138.5642  158.7587 H   0  0  0  0  0  0  0  0  0  0  0  0
  153.5706  135.1633  160.2193 H   0  0  0  0  0  0  0  0  0  0  0  0
  154.6834  134.6869  162.3704 H   0  0  0  0  0  0  0  0  0  0  0  0
  155.3606  138.6894  163.1295 H   0  0  0  0  0  0  0  0  0  0  0  0
  149.3585  137.0355  158.0956 H   0  0  0  0  0  0  0  0  0  0  0  0
  149.3113  138.7735  157.9158 H   0  0  0  0  0  0  0  0  0  0  0  0
  147.2914  137.7540  157.0555 H   0  0  0  0  0  0  0  0  0  0  0  0
  148.1683  136.7369  155.9281 H   0  0  0  0  0  0  0  0  0  0  0  0
  147.7835  139.7006  152.7567 H   0  0  0  0  0  0  0  0  0  0  0  0
  146.0748  139.5505  152.7622 H   0  0  0  0  0  0  0  0  0  0  0  0
  146.7213  141.8981  153.1331 H   0  0  0  0  0  0  0  0  0  0  0  0
  147.6198  141.4658  154.5734 H   0  0  0  0  0  0  0  0  0  0  0  0
  144.7496  141.1072  154.1434 H   0  0  0  0  0  0  0  0  0  0  0  0
  1  2  1  0  0  0  0
  1 25  1  0  0  0  0
  1 26  1  0  0  0  0
  1 27  1  0  0  0  0
  2 24  1  0  0  0  0
  2  3  1  0  0  0  0
  2 51  1  0  0  0  0
  3  4  1  0  0  0  0
  3 28  1  0  0  0  0
  3 29  1  0  0  0  0
  4  5  1  0  0  0  0
  4 30  1  0  0  0  0
  4 31  1  0  0  0  0
  5  6  1  0  0  0  0
  5 23  1  0  0  0  0
  5 32  1  0  0  0  0
  6 22  1  0  0  0  0
  6  7  1  0  0  0  0
  7  8  1  0  0  0  0
  7 33  1  0  0  0  0
  7 34  1  0  0  0  0
  8  9  1  0  0  0  0
  8 35  1  0  0  0  0
  8 36  1  0  0  0  0
  9 10  1  0  0  0  0
  9 21  1  0  0  0  0
  9 37  1  0  0  0  0
 10 11  1  0  0  0  0
 10 38  1  0  0  0  0
 11 12  2  0  0  0  0
 11 13  1  0  0  0  0
 13 14  1  0  0  0  0
 13 39  1  0  0  0  0
 14 19  1  0  0  0  0
 14 15  2  0  0  0  0
 15 16  1  0  0  0  0
 15 40  1  0  0  0  0
 16 17  2  0  0  0  0
 16 41  1  0  0  0  0
 17 18  1  0  0  0  0
 18 19  2  0  0  0  0
 18 42  1  0  0  0  0
 19 20  1  0  0  0  0
 21 22  1  0  0  0  0
 21 43  1  0  0  0  0
 21 44  1  0  0  0  0
 22 45  1  0  0  0  0
 22 46  1  0  0  0  0
 23 24  1  0  0  0  0
 23 47  1  0  0  0  0
 23 48  1  0  0  0  0
 24 49  1  0  0  0  0
 24 50  1  0  0  0  0
M  CHG  1   2   1
M  END
> <s_m_source_file>
AV-unprocessed.smi

> <i_m_source_file_index>
2253

> <i_lp_mmshare_version>
43012

> <i_f3d_flags>
0

> <s_epik_input>
W0NIM11OMVtDSDJdW0NIMl1bQ0hdKFtDSDJdW0NIMl0xKU4yW0NIMl1bQ0gyXVtDSF0oW0NIMl1bQ0gyXTIpW05IXUMoPU8pW05IXWMzW2NIXVtjSF1uW2NIXWMzRg==

> <s_epik_cmdline>
J2VwaWtfcHl0aG9uJywgJy1waCcsICc3LjAnLCAnLXRuJywgJzgnLCAnLW1hJywgJzIwMCcsICctbWV0YWxfYmluZGluZycsICctaW1hZScsICc8aW5maWxlLm1hZT4nLCAnLW9tYWUnLCAnPG91dGZpbGUubWFlPic=

> <r_epik_Ionization_Penalty>
1.01315

> <r_epik_Ionization_Penalty_Charging>
0.000974969

> <r_epik_Ionization_Penalty_Neutral>
1.01217

> <r_epik_State_Penalty>
1.10286

> <r_epik_Charging_Adjusted_Penalty>
1.10383

> <i_epik_Tot_Q>
1

> <i_epik_Tot_abs_Q>
1

> <r_epik_Metal_State_Penalty>
1.10232

> <b_epik_Metal_Only>
0

> <s_lp_Force_Field>
OPLS_2005

> <r_lp_Energy>
40.3277

> <b_lp_Chiralities_Consistent>
1

> <s_lp_Variant>
AV-unprocessed.smi:2253-6

> <Gold.Version>
5.8.1

> <Gold.Id.Protein>
6NUR|6NUR_protein|mol2

> <Gold.PLP.Fitness>
39.7323

> <Gold.PLP.PLP>
-31.4298

> <Gold.PLP.part.hbond>
-2.0000

> <Gold.PLP.part.metal>
0.0000

> <Gold.PLP.part.buried>
-5.6647

> <Gold.PLP.part.nonpolar>
-24.5411

> <Gold.PLP.part.repulsive>
0.1873

> <Gold.PLP.ligand.clash>
0.0000

> <Gold.PLP.ligand.torsion>
0.3386

> <Gold.PLP.Chemscore.Hbond>
2.9913

> <Gold.PLP.Chemscore.CHOScore>
0.0000

> <Gold.PLP.Chemscore.Metal>
0.0000

> <Gold.Chemscore.Hbonds>
donor molecule, donor type, donor heavy atom, donor atom, acceptor molecule, acceptor atom, score
      L1  H     2    51       P1 10175  1.85
      P1  H  6896  6908       L1    12  0.85

> <Gold.PLP.Chemscore.Internal.Correction>
0.0059

> <Gold.Rescore>
     Score         DG    S(hbond)    S(metal)    S(lipo)     H(rot)  DE(clash)    DE(int)     intcor
     16.36     -17.51       1.94        0.00      74.56       1.24       0.01       1.14       ----

> <Gold.Chemscore.Fitness>
16.3633

> <Gold.Chemscore.DG>
-17.5121

> <Gold.Chemscore.ZeroCoef>
-5.4800

> <Gold.Chemscore.Hbond>
1.9440

> <Gold.Chemscore.Metal>
0.0000

> <Gold.Chemscore.Lipo>
74.5625

> <Gold.Chemscore.Internal_Hbond>
0.0000

> <Gold.Chemscore.DEClash>
0.0086

> <Gold.Chemscore.DEInternal>
1.1402

> <Gold.Chemscore.Rot>
1.2440

> <Gold.Chemscore.Internal.Correction>
   9.000000E+99

> <Gold.Chemscore.Hbonds>
donor molecule, donor type, donor heavy atom, donor atom, acceptor molecule, acceptor atom, score
      L1  H     2    51       P1 10175  0.73
      P1  H  6896  6908       L1    12  0.79

> <Gold.Chemscore.Hbond.Weighted>
-6.4930

> <Gold.Chemscore.Metal.Weighted>
-0.0000

> <Gold.Chemscore.Lipo.Weighted>
-8.7238

> <Gold.Chemscore.Internal_Hbond.Weighted>
0.0000

> <Gold.Chemscore.DEClash.Weighted>
0.0086

> <Gold.Chemscore.DEInternal.Weighted>
1.1402

> <Gold.Chemscore.Rot.Weighted>
3.1847

> <Gold.Chemscore.Internal.Correction.Weighted>
   9.000000E+99

> <Gold.Protein.RotatedTorsions>
[ 6907 6896 6895 6894 ] final -136.24 input  -60.11 | X-H torsion
[ 7974 7965 7964 7962 ] final   75.75 input  175.53 | X-H torsion
[ 8008 7997 7996 7995 ] final   11.92 input   59.86 | X-H torsion
[ 10167 10162 10161 10158 ] final   11.61 input  -65.29 | X-H torsion
[ 10718 10713 10712 10709 ] final  -42.28 input   66.30 | X-H torsion
[ 10763 10752 10751 10750 ] final  129.18 input  -60.55 | X-H torsion
[ 11005 11000 10999 10996 ] final -103.81 input  -57.11 | X-H torsion

> <Gold.Protein.ActiveResidues>
 VAL166  LYS551  ARG553  GLY616  TRP617  ASP618  TYR619  PRO620  LYS621  CYS622 
 ASP623  PHE694  ASN695  SER759  ASP760  ASP761  ALA762  ILE779  LEU786  VAL792 
 PHE793  MET794  SER795  GLU796  ALA797  LYS798  CYS799  TRP800  GLU811  SER814 

> <Gold.Protein.RotatedAtoms>
  151.0076  133.5996  159.2686 H   0  0  0  0  0  0  0  0  0  0  0  0  # atno 6907 bound_to 6896
  151.3159  135.0805  159.9298 H   0  0  0  0  0  0  0  0  0  0  0  0  # atno 6908 bound_to 6896
  152.5291  133.9732  159.7826 H   0  0  0  0  0  0  0  0  0  0  0  0  # atno 6909 bound_to 6896
  145.7117  139.2617  143.1647 H   0  0  0  0  0  0  0  0  0  0  0  0  # atno 7974 bound_to 7965
  154.8136  140.2872  155.5836 H   0  0  0  0  0  0  0  0  0  0  0  0  # atno 8008 bound_to 7997
  156.2991  140.2563  156.2959 H   0  0  0  0  0  0  0  0  0  0  0  0  # atno 8009 bound_to 7997
  154.9420  140.0381  157.2091 H   0  0  0  0  0  0  0  0  0  0  0  0  # atno 8010 bound_to 7997
  140.6121  143.8385  150.7077 H   0  0  0  0  0  0  0  0  0  0  0  0  # atno 10167 bound_to 10162
  156.2613  130.4197  149.8539 H   0  0  0  0  0  0  0  0  0  0  0  0  # atno 10718 bound_to 10713
  153.7376  135.3229  155.3298 H   0  0  0  0  0  0  0  0  0  0  0  0  # atno 10763 bound_to 10752
  154.8305  135.4537  154.1058 H   0  0  0  0  0  0  0  0  0  0  0  0  # atno 10764 bound_to 10752
  153.2224  135.6950  153.8066 H   0  0  0  0  0  0  0  0  0  0  0  0  # atno 10765 bound_to 10752
  141.1129  133.8671  157.1533 H   0  0  0  0  0  0  0  0  0  0  0  0  # atno 11005 bound_to 11000
  146.0707  140.7872  142.9689 LP  0  0  0  0  0  0  0  0  0  0  0  0  # atno 17320 bound_to 7965
  144.6940  140.3337  143.7211 LP  0  0  0  0  0  0  0  0  0  0  0  0  # atno 17321 bound_to 7965
  140.1956  143.4001  152.1830 LP  0  0  0  0  0  0  0  0  0  0  0  0  # atno 17342 bound_to 10162
  139.5369  144.7219  151.4862 LP  0  0  0  0  0  0  0  0  0  0  0  0  # atno 17343 bound_to 10162
  156.6053  130.8564  151.3441 LP  0  0  0  0  0  0  0  0  0  0  0  0  # atno 17370 bound_to 10713
  157.7251  130.9612  150.1602 LP  0  0  0  0  0  0  0  0  0  0  0  0  # atno 17371 bound_to 10713
  140.0033  135.0019  157.0238 LP  0  0  0  0  0  0  0  0  0  0  0  0  # atno 17394 bound_to 11000
  140.4726  134.1371  155.7205 LP  0  0  0  0  0  0  0  0  0  0  0  0  # atno 17395 bound_to 11000

$$$$
