AV-unprocessed.smi:1576|AV-procd|sdf|6348|dock9
  -GOLD-   22720 6563D 1   1.00000     0.00000
 Structure written by MMmdl.
 45 47  0  0  0  0  0  0  0  0  3 V2000
  153.4520  136.6916  160.8683 O   0  0  0  0  0  0  0  0  0  0  0  0
  154.4766  136.8409  161.5436 C   0  0  0  0  0  0  0  0  0  0  0  0
  154.9655  138.0724  161.7748 N   0  0  0  0  0  0  0  0  0  0  0  0
  154.5026  139.3253  161.2911 C   0  0  0  0  0  0  0  0  0  0  0  0
  153.7154  139.3295  160.1201 C   0  0  0  0  0  0  0  0  0  0  0  0
  153.2160  140.5486  159.6179 C   0  0  0  0  0  0  0  0  0  0  0  0
  153.5038  141.7495  160.3055 C   0  0  0  0  0  0  0  0  0  0  0  0
  153.0509  143.0064  159.8840 N   0  0  0  0  0  0  0  0  0  0  0  0
  152.4125  142.9691  158.5708 C   0  0  0  0  0  0  0  0  0  0  0  0
  152.1052  144.3915  158.0704 C   0  0  0  0  0  0  0  0  0  0  0  0
  151.2776  145.1714  159.1048 C   0  0  0  0  0  0  0  0  0  0  0  0
  151.9810  145.1522  160.4715 C   0  0  0  0  0  0  0  0  0  0  0  0
  152.2869  143.7100  160.9108 C   0  0  0  0  0  0  0  0  0  0  0  0
  154.2467  141.7033  161.4326 N   0  3  0  0  0  0  0  0  0  0  0  0
  154.7445  140.5572  161.9457 C   0  0  0  0  0  0  0  0  0  0  0  0
  155.2189  135.8753  162.1490 N   0  5  0  0  0  0  0  0  0  0  0  0
  154.6746  134.6590  162.7597 C   0  0  1  0  0  0  0  0  0  0  0  0
  155.3039  133.4012  162.1285 C   0  0  0  0  0  0  0  0  0  0  0  0
  154.9833  132.1924  163.0189 C   0  0  0  0  0  0  0  0  0  0  0  0
  154.9277  132.8396  164.7347 S   0  0  0  0  0  0  0  0  0  0  0  0
  153.6242  132.5055  165.3303 O   0  0  0  0  0  0  0  0  0  0  0  0
  156.1805  132.5010  165.4278 O   0  0  0  0  0  0  0  0  0  0  0  0
  154.9611  134.6155  164.2693 C   0  0  0  0  0  0  0  0  0  0  0  0
  155.7416  138.1121  162.4192 H   0  0  0  0  0  0  0  0  0  0  0  0
  153.4984  138.4055  159.6041 H   0  0  0  0  0  0  0  0  0  0  0  0
  152.6192  140.5559  158.7180 H   0  0  0  0  0  0  0  0  0  0  0  0
  153.0633  142.4590  157.8591 H   0  0  0  0  0  0  0  0  0  0  0  0
  151.4887  142.3918  158.6301 H   0  0  0  0  0  0  0  0  0  0  0  0
  153.0393  144.9207  157.8767 H   0  0  0  0  0  0  0  0  0  0  0  0
  151.5723  144.3469  157.1204 H   0  0  0  0  0  0  0  0  0  0  0  0
  151.1272  146.1986  158.7717 H   0  0  0  0  0  0  0  0  0  0  0  0
  150.2872  144.7237  159.1955 H   0  0  0  0  0  0  0  0  0  0  0  0
  152.9102  145.7205  160.4117 H   0  0  0  0  0  0  0  0  0  0  0  0
  151.3622  145.6483  161.2195 H   0  0  0  0  0  0  0  0  0  0  0  0
  151.3545  143.1775  161.1026 H   0  0  0  0  0  0  0  0  0  0  0  0
  152.8485  143.7188  161.8460 H   0  0  0  0  0  0  0  0  0  0  0  0
  155.3020  140.6720  162.8633 H   0  0  0  0  0  0  0  0  0  0  0  0
  153.5950  134.5818  162.6208 H   0  0  0  0  0  0  0  0  0  0  0  0
  154.9577  133.2445  161.1064 H   0  0  0  0  0  0  0  0  0  0  0  0
  156.3875  133.5206  162.0821 H   0  0  0  0  0  0  0  0  0  0  0  0
  154.0046  131.7733  162.7808 H   0  0  0  0  0  0  0  0  0  0  0  0
  155.7276  131.4004  162.9392 H   0  0  0  0  0  0  0  0  0  0  0  0
  155.9563  134.9987  164.4973 H   0  0  0  0  0  0  0  0  0  0  0  0
  154.2301  135.1731  164.8547 H   0  0  0  0  0  0  0  0  0  0  0  0
  154.4388  142.5761  161.9244 H   0  0  0  0  0  0  0  0  0  0  0  0
  1  2  2  0  0  0  0
  2  3  1  0  0  0  0
  2 16  1  0  0  0  0
  3  4  1  0  0  0  0
  3 24  1  0  0  0  0
  4 15  1  0  0  0  0
  4  5  2  0  0  0  0
  5  6  1  0  0  0  0
  5 25  1  0  0  0  0
  6  7  2  0  0  0  0
  6 26  1  0  0  0  0
  7  8  1  0  0  0  0
  7 14  1  0  0  0  0
  8 13  1  0  0  0  0
  8  9  1  0  0  0  0
  9 10  1  0  0  0  0
  9 27  1  0  0  0  0
  9 28  1  0  0  0  0
 10 11  1  0  0  0  0
 10 29  1  0  0  0  0
 10 30  1  0  0  0  0
 11 12  1  0  0  0  0
 11 31  1  0  0  0  0
 11 32  1  0  0  0  0
 12 13  1  0  0  0  0
 12 33  1  0  0  0  0
 12 34  1  0  0  0  0
 13 35  1  0  0  0  0
 13 36  1  0  0  0  0
 14 15  2  0  0  0  0
 14 45  1  0  0  0  0
 15 37  1  0  0  0  0
 16 17  1  0  0  0  0
 17 23  1  0  0  0  0
 17 18  1  0  0  0  0
 17 38  1  0  0  0  0
 18 19  1  0  0  0  0
 18 39  1  0  0  0  0
 18 40  1  0  0  0  0
 19 20  1  0  0  0  0
 19 41  1  0  0  0  0
 19 42  1  0  0  0  0
 20 21  2  0  0  0  0
 20 22  2  0  0  0  0
 20 23  1  0  0  0  0
 23 43  1  0  0  0  0
 23 44  1  0  0  0  0
M  CHG  1  14   1
M  CHG  1  16  -1
M  END
> <s_m_source_file>
AV-unprocessed.smi

> <i_m_source_file_index>
1576

> <i_lp_mmshare_version>
43012

> <i_f3d_flags>
0

> <s_epik_input>
Tz1TMSg9TylbQ0gyXVtDSDJdW0NASF0oW0NIMl0xKVtOSF1DKD1PKVtOSF1jMltjSF1bY0hdYyhuW2NIXTIpTjNbQ0gyXVtDSDJdW0NIMl1bQ0gyXVtDSDJdMw==

> <s_epik_cmdline>
J2VwaWtfcHl0aG9uJywgJy1waCcsICc3LjAnLCAnLXRuJywgJzgnLCAnLW1hJywgJzIwMCcsICctbWV0YWxfYmluZGluZycsICctaW1hZScsICc8aW5maWxlLm1hZT4nLCAnLW9tYWUnLCAnPG91dGZpbGUubWFlPic=

> <r_lp_tautomer_probability>
0.999994

> <r_epik_Ionization_Penalty>
8.26491

> <r_epik_Ionization_Penalty_Charging>
8.26491

> <r_epik_Ionization_Penalty_Neutral>
3.15169e-06

> <r_epik_State_Penalty>
7.8977

> <r_epik_Charging_Adjusted_Penalty>
16.1626

> <i_epik_Tot_Q>
0

> <i_epik_Tot_abs_Q>
2

> <r_epik_Metal_State_Penalty>
3.88896

> <b_epik_Metal_Only>
1

> <s_lp_Force_Field>
OPLS_2005

> <r_lp_Energy>
27.2537

> <b_lp_Chiralities_Consistent>
1

> <s_lp_Variant>
AV-unprocessed.smi:1576-6

> <Gold.Version>
5.8.1

> <Gold.Id.Protein>
6NUR|6NUR_protein|mol2

> <Gold.PLP.Fitness>
46.6663

> <Gold.PLP.PLP>
-45.8309

> <Gold.PLP.part.hbond>
-1.2612

> <Gold.PLP.part.metal>
0.0000

> <Gold.PLP.part.buried>
-7.0851

> <Gold.PLP.part.nonpolar>
-37.9488

> <Gold.PLP.part.repulsive>
0.1297

> <Gold.PLP.ligand.clash>
0.0000

> <Gold.PLP.ligand.torsion>
0.4609

> <Gold.PLP.Chemscore.Hbond>
0.5363

> <Gold.PLP.Chemscore.CHOScore>
0.0000

> <Gold.PLP.Chemscore.Metal>
0.0000

> <Gold.Chemscore.Hbonds>
donor molecule, donor type, donor heavy atom, donor atom, acceptor molecule, acceptor atom, score
      P1  H  6896  6909       L1     1  0.36

> <Gold.PLP.Chemscore.Internal.Correction>
0.1484

> <Gold.Rescore>
     Score         DG    S(hbond)    S(metal)    S(lipo)     H(rot)  DE(clash)    DE(int)     intcor
     16.54     -18.26       0.98        0.00     108.43       1.24       0.08       1.64       ----

> <Gold.Chemscore.Fitness>
16.5363

> <Gold.Chemscore.DG>
-18.2619

> <Gold.Chemscore.ZeroCoef>
-5.4800

> <Gold.Chemscore.Hbond>
0.9763

> <Gold.Chemscore.Metal>
0.0000

> <Gold.Chemscore.Lipo>
108.4336

> <Gold.Chemscore.Internal_Hbond>
0.0000

> <Gold.Chemscore.DEClash>
0.0845

> <Gold.Chemscore.DEInternal>
1.6411

> <Gold.Chemscore.Rot>
1.2366

> <Gold.Chemscore.Internal.Correction>
   9.000000E+99

> <Gold.Chemscore.Hbonds>
donor molecule, donor type, donor heavy atom, donor atom, acceptor molecule, acceptor atom, score
      P1  H  6896  6909       L1     1  0.35

> <Gold.Chemscore.Hbond.Weighted>
-3.2609

> <Gold.Chemscore.Metal.Weighted>
-0.0000

> <Gold.Chemscore.Lipo.Weighted>
-12.6867

> <Gold.Chemscore.Internal_Hbond.Weighted>
0.0000

> <Gold.Chemscore.DEClash.Weighted>
0.0845

> <Gold.Chemscore.DEInternal.Weighted>
1.6411

> <Gold.Chemscore.Rot.Weighted>
3.1657

> <Gold.Chemscore.Internal.Correction.Weighted>
   9.000000E+99

> <Gold.Protein.RotatedTorsions>
[ 6907 6896 6895 6894 ] final  155.47 input  -60.11 | X-H torsion
[ 7974 7965 7964 7962 ] final   62.50 input  175.53 | X-H torsion
[ 8008 7997 7996 7995 ] final -126.97 input   59.86 | X-H torsion
[ 10167 10162 10161 10158 ] final   48.07 input  -65.29 | X-H torsion
[ 10718 10713 10712 10709 ] final   -4.12 input   66.30 | X-H torsion
[ 10763 10752 10751 10750 ] final    3.74 input  -60.55 | X-H torsion
[ 11005 11000 10999 10996 ] final  -58.69 input  -57.11 | X-H torsion

> <Gold.Protein.ActiveResidues>
 VAL166  LYS551  ARG553  GLY616  TRP617  ASP618  TYR619  PRO620  LYS621  CYS622 
 ASP623  PHE694  ASN695  SER759  ASP760  ASP761  ALA762  ILE779  LEU786  VAL792 
 PHE793  MET794  SER795  GLU796  ALA797  LYS798  CYS799  TRP800  GLU811  SER814 

> <Gold.Protein.RotatedAtoms>
  152.0437  133.3989  159.4347 H   0  0  0  0  0  0  0  0  0  0  0  0  # atno 6907 bound_to 6896
  150.6874  134.3385  159.4867 H   0  0  0  0  0  0  0  0  0  0  0  0  # atno 6908 bound_to 6896
  152.1187  134.9221  160.0614 H   0  0  0  0  0  0  0  0  0  0  0  0  # atno 6909 bound_to 6896
  145.8726  139.3388  143.0753 H   0  0  0  0  0  0  0  0  0  0  0  0  # atno 7974 bound_to 7965
  155.2384  140.0428  157.2972 H   0  0  0  0  0  0  0  0  0  0  0  0  # atno 8008 bound_to 7997
  154.5843  140.2409  155.7979 H   0  0  0  0  0  0  0  0  0  0  0  0  # atno 8009 bound_to 7997
  156.2215  140.2968  155.9973 H   0  0  0  0  0  0  0  0  0  0  0  0  # atno 8010 bound_to 7997
  140.2971  144.2978  150.6227 H   0  0  0  0  0  0  0  0  0  0  0  0  # atno 10167 bound_to 10162
  156.7659  130.5284  149.5776 H   0  0  0  0  0  0  0  0  0  0  0  0  # atno 10718 bound_to 10713
  153.2797  135.6939  153.7398 H   0  0  0  0  0  0  0  0  0  0  0  0  # atno 10763 bound_to 10752
  153.6390  135.3396  155.3066 H   0  0  0  0  0  0  0  0  0  0  0  0  # atno 10764 bound_to 10752
  154.8491  135.4427  154.1846 H   0  0  0  0  0  0  0  0  0  0  0  0  # atno 10765 bound_to 10752
  141.1218  133.6613  156.4958 H   0  0  0  0  0  0  0  0  0  0  0  0  # atno 11005 bound_to 11000
  145.9119  140.9174  143.0449 LP  0  0  0  0  0  0  0  0  0  0  0  0  # atno 17320 bound_to 7965
  144.6726  140.1171  143.7452 LP  0  0  0  0  0  0  0  0  0  0  0  0  # atno 17321 bound_to 7965
  140.5683  143.2183  151.7645 LP  0  0  0  0  0  0  0  0  0  0  0  0  # atno 17342 bound_to 10162
  139.4924  144.4253  151.9932 LP  0  0  0  0  0  0  0  0  0  0  0  0  # atno 17343 bound_to 10162
  156.1309  130.6177  151.0332 LP  0  0  0  0  0  0  0  0  0  0  0  0  # atno 17370 bound_to 10713
  157.6713  131.0860  150.7605 LP  0  0  0  0  0  0  0  0  0  0  0  0  # atno 17371 bound_to 10713
  140.4486  134.6950  157.5028 LP  0  0  0  0  0  0  0  0  0  0  0  0  # atno 17394 bound_to 11000
  140.0181  134.6588  155.9280 LP  0  0  0  0  0  0  0  0  0  0  0  0  # atno 17395 bound_to 11000

$$$$
