AV-unprocessed.smi:1196|AV-procd|sdf|5005|dock1
  -GOLD-   22720 4 13D 1   1.00000     0.00000
 Structure written by MMmdl.
 36 37  0  0  0  0  0  0  0  0  2 V2000
  150.3419  140.4072  157.7008 C   0  0  0  0  0  0  0  0  0  0  0  0
  149.9218  141.8376  157.3366 C   0  0  1  0  0  0  0  0  0  0  0  0
  151.1500  142.7511  157.1417 C   0  0  0  0  0  0  0  0  0  0  0  0
  151.5420  143.4307  158.3640 N   0  0  0  0  0  0  0  0  0  0  0  0
  151.5177  144.7821  158.6377 C   0  0  0  0  0  0  0  0  0  0  0  0
  151.9875  144.9477  159.9090 C   0  0  0  0  0  0  0  0  0  0  0  0
  152.2724  143.6216  160.3392 C   0  0  0  0  0  0  0  0  0  0  0  0
  152.0014  142.7153  159.4138 N   0  0  0  0  0  0  0  0  0  0  0  0
  149.1019  141.7976  156.1260 N   0  0  0  0  0  0  0  0  0  0  0  0
  149.4627  141.2595  154.9498 C   0  0  0  0  0  0  0  0  0  0  0  0
  150.5531  140.7214  154.7564 O   0  0  0  0  0  0  0  0  0  0  0  0
  148.4262  141.3282  153.8259 C   0  0  0  0  0  0  0  0  0  0  0  0
  147.1770  140.4765  154.1203 C   0  0  0  0  0  0  0  0  0  0  0  0
  147.3528  138.9972  153.7241 C   0  0  2  0  0  0  0  0  0  0  0  0
  147.5549  138.8575  152.2981 N   0  0  0  0  0  0  0  0  0  0  0  0
  146.6304  138.0702  151.7517 C   0  0  0  0  0  0  0  0  0  0  0  0
  146.6353  137.8033  150.5520 O   0  0  0  0  0  0  0  0  0  0  0  0
  145.7566  137.6591  152.6910 N   0  5  0  0  0  0  0  0  0  0  0  0
  146.0862  138.1600  153.9012 C   0  0  0  0  0  0  0  0  0  0  0  0
  145.5434  138.0177  154.9959 O   0  0  0  0  0  0  0  0  0  0  0  0
  150.9320  140.3937  158.6175 H   0  0  0  0  0  0  0  0  0  0  0  0
  150.9437  139.9554  156.9113 H   0  0  0  0  0  0  0  0  0  0  0  0
  149.4709  139.7710  157.8621 H   0  0  0  0  0  0  0  0  0  0  0  0
  149.3323  142.2199  158.1721 H   0  0  0  0  0  0  0  0  0  0  0  0
  152.0032  142.1611  156.8050 H   0  0  0  0  0  0  0  0  0  0  0  0
  150.9583  143.4908  156.3623 H   0  0  0  0  0  0  0  0  0  0  0  0
  151.1787  145.5050  157.9105 H   0  0  0  0  0  0  0  0  0  0  0  0
  152.1097  145.8749  160.4487 H   0  0  0  0  0  0  0  0  0  0  0  0
  152.6645  143.2924  161.2900 H   0  0  0  0  0  0  0  0  0  0  0  0
  148.1827  142.2105  156.1889 H   0  0  0  0  0  0  0  0  0  0  0  0
  148.1457  142.3727  153.6873 H   0  0  0  0  0  0  0  0  0  0  0  0
  148.8798  140.9999  152.8894 H   0  0  0  0  0  0  0  0  0  0  0  0
  146.9586  140.5323  155.1881 H   0  0  0  0  0  0  0  0  0  0  0  0
  146.3066  140.8945  153.6109 H   0  0  0  0  0  0  0  0  0  0  0  0
  148.1765  138.5339  154.2689 H   0  0  0  0  0  0  0  0  0  0  0  0
  148.3166  139.2898  151.7968 H   0  0  0  0  0  0  0  0  0  0  0  0
  1  2  1  0  0  0  0
  1 21  1  0  0  0  0
  1 22  1  0  0  0  0
  1 23  1  0  0  0  0
  2  3  1  0  0  0  0
  2  9  1  0  0  0  0
  2 24  1  0  0  0  0
  3  4  1  0  0  0  0
  3 25  1  0  0  0  0
  3 26  1  0  0  0  0
  4  8  1  0  0  0  0
  4  5  1  0  0  0  0
  5  6  2  0  0  0  0
  5 27  1  0  0  0  0
  6  7  1  0  0  0  0
  6 28  1  0  0  0  0
  7  8  2  0  0  0  0
  7 29  1  0  0  0  0
  9 10  1  0  0  0  0
  9 30  1  0  0  0  0
 10 11  2  0  0  0  0
 10 12  1  0  0  0  0
 12 13  1  0  0  0  0
 12 31  1  0  0  0  0
 12 32  1  0  0  0  0
 13 14  1  0  0  0  0
 13 33  1  0  0  0  0
 13 34  1  0  0  0  0
 14 19  1  0  0  0  0
 14 15  1  0  0  0  0
 14 35  1  0  0  0  0
 15 16  1  0  0  0  0
 15 36  1  0  0  0  0
 16 17  2  0  0  0  0
 16 18  1  0  0  0  0
 18 19  1  0  0  0  0
 19 20  2  0  0  0  0
M  CHG  1  18  -1
M  END
> <s_m_source_file>
AV-unprocessed.smi

> <i_m_source_file_index>
1196

> <i_lp_mmshare_version>
43012

> <i_f3d_flags>
0

> <s_epik_input>
bjFbY0hdW2NIXVtjSF1uMVtDSDJdW0NAQEhdKFtDSDNdKVtOSF1DKD1PKVtDSDJdW0NIMl1bQ0BASF0yW05IXUMoPU8pW05IXUMyPU8=

> <s_epik_cmdline>
J2VwaWtfcHl0aG9uJywgJy1waCcsICc3LjAnLCAnLXRuJywgJzgnLCAnLW1hJywgJzIwMCcsICctbWV0YWxfYmluZGluZycsICctaW1hZScsICc8aW5maWxlLm1hZT4nLCAnLW9tYWUnLCAnPG91dGZpbGUubWFlPic=

> <r_lp_tautomer_probability>
1

> <r_epik_Ionization_Penalty>
2.57056

> <r_epik_Ionization_Penalty_Charging>
2.57023

> <r_epik_Ionization_Penalty_Neutral>
0.000331301

> <r_epik_State_Penalty>
2.56828

> <r_epik_Charging_Adjusted_Penalty>
5.13851

> <i_epik_Tot_Q>
-1

> <i_epik_Tot_abs_Q>
1

> <r_epik_Metal_State_Penalty>
0.444883

> <b_epik_Metal_Only>
1

> <s_lp_Force_Field>
OPLS_2005

> <r_lp_Energy>
8.81211

> <b_lp_Chiralities_Consistent>
1

> <s_lp_Variant>
AV-unprocessed.smi:1196-10

> <Gold.Version>
5.8.1

> <Gold.Id.Protein>
6NUR|6NUR_protein|mol2

> <Gold.PLP.Fitness>
45.2401

> <Gold.PLP.PLP>
-37.4730

> <Gold.PLP.part.hbond>
-4.9359

> <Gold.PLP.part.metal>
0.0000

> <Gold.PLP.part.buried>
-4.0958

> <Gold.PLP.part.nonpolar>
-31.1401

> <Gold.PLP.part.repulsive>
2.7834

> <Gold.PLP.ligand.clash>
0.0000

> <Gold.PLP.ligand.torsion>
0.6672

> <Gold.PLP.Chemscore.Hbond>
2.9520

> <Gold.PLP.Chemscore.CHOScore>
0.0000

> <Gold.PLP.Chemscore.Metal>
0.0000

> <Gold.Chemscore.Hbonds>
donor molecule, donor type, donor heavy atom, donor atom, acceptor molecule, acceptor atom, score
      L1  H    15    36       P1  7957  1.00
      P1  H  7954  7966       L1    17  1.00
      P1  H  7989  7998       L1    11  0.88

> <Gold.PLP.Chemscore.Internal.Correction>
0.2455

> <Gold.Rescore>
     Score         DG    S(hbond)    S(metal)    S(lipo)     H(rot)  DE(clash)    DE(int)     intcor
     13.31     -16.17       2.87        0.00      72.92       2.89       1.36       1.50       ----

> <Gold.Chemscore.Fitness>
13.3095

> <Gold.Chemscore.DG>
-16.1747

> <Gold.Chemscore.ZeroCoef>
-5.4800

> <Gold.Chemscore.Hbond>
2.8661

> <Gold.Chemscore.Metal>
0.0000

> <Gold.Chemscore.Lipo>
72.9230

> <Gold.Chemscore.Internal_Hbond>
0.0000

> <Gold.Chemscore.DEClash>
1.3636

> <Gold.Chemscore.DEInternal>
1.5016

> <Gold.Chemscore.Rot>
2.8946

> <Gold.Chemscore.Internal.Correction>
   9.000000E+99

> <Gold.Chemscore.Hbonds>
donor molecule, donor type, donor heavy atom, donor atom, acceptor molecule, acceptor atom, score
      L1  H    15    36       P1  7957  0.98
      P1  H  7954  7966       L1    17  0.80
      P1  H  7989  7998       L1    11  0.86

> <Gold.Chemscore.Hbond.Weighted>
-9.5728

> <Gold.Chemscore.Metal.Weighted>
-0.0000

> <Gold.Chemscore.Lipo.Weighted>
-8.5320

> <Gold.Chemscore.Internal_Hbond.Weighted>
0.0000

> <Gold.Chemscore.DEClash.Weighted>
1.3636

> <Gold.Chemscore.DEInternal.Weighted>
1.5016

> <Gold.Chemscore.Rot.Weighted>
7.4101

> <Gold.Chemscore.Internal.Correction.Weighted>
   9.000000E+99

> <Gold.Protein.RotatedTorsions>
[ 6907 6896 6895 6894 ] final  100.48 input  -60.11 | X-H torsion
[ 7974 7965 7964 7962 ] final  148.66 input  175.53 | X-H torsion
[ 8008 7997 7996 7995 ] final  163.75 input   59.86 | X-H torsion
[ 10167 10162 10161 10158 ] final  130.19 input  -65.29 | X-H torsion
[ 10718 10713 10712 10709 ] final  -44.40 input   66.30 | X-H torsion
[ 10763 10752 10751 10750 ] final    1.00 input  -60.55 | X-H torsion
[ 11005 11000 10999 10996 ] final  -16.22 input  -57.11 | X-H torsion

> <Gold.Protein.ActiveResidues>
 VAL166  LYS551  ARG553  GLY616  TRP617  ASP618  TYR619  PRO620  LYS621  CYS622 
 ASP623  PHE694  ASN695  SER759  ASP760  ASP761  ALA762  ILE779  LEU786  VAL792 
 PHE793  MET794  SER795  GLU796  ALA797  LYS798  CYS799  TRP800  GLU811  SER814 

> <Gold.Protein.RotatedAtoms>
  152.5371  134.0271  159.8007 H   0  0  0  0  0  0  0  0  0  0  0  0  # atno 6907 bound_to 6896
  151.0448  133.5667  159.2655 H   0  0  0  0  0  0  0  0  0  0  0  0  # atno 6908 bound_to 6896
  151.2623  135.0665  159.9156 H   0  0  0  0  0  0  0  0  0  0  0  0  # atno 6909 bound_to 6896
  144.8497  139.6181  143.5979 H   0  0  0  0  0  0  0  0  0  0  0  0  # atno 7974 bound_to 7965
  156.1933  140.1715  156.8049 H   0  0  0  0  0  0  0  0  0  0  0  0  # atno 8008 bound_to 7997
  154.5498  140.0720  156.8680 H   0  0  0  0  0  0  0  0  0  0  0  0  # atno 8009 bound_to 7997
  155.3051  140.3364  155.4248 H   0  0  0  0  0  0  0  0  0  0  0  0  # atno 8010 bound_to 7997
  139.5442  144.6758  151.4528 H   0  0  0  0  0  0  0  0  0  0  0  0  # atno 10167 bound_to 10162
  156.2389  130.4178  149.8784 H   0  0  0  0  0  0  0  0  0  0  0  0  # atno 10718 bound_to 10713
  153.3136  135.6964  153.7094 H   0  0  0  0  0  0  0  0  0  0  0  0  # atno 10763 bound_to 10752
  153.5961  135.3470  155.2929 H   0  0  0  0  0  0  0  0  0  0  0  0  # atno 10764 bound_to 10752
  154.8581  135.4329  154.2280 H   0  0  0  0  0  0  0  0  0  0  0  0  # atno 10765 bound_to 10752
  140.8045  133.8188  155.9502 H   0  0  0  0  0  0  0  0  0  0  0  0  # atno 11005 bound_to 11000
  146.2774  139.6789  142.9253 LP  0  0  0  0  0  0  0  0  0  0  0  0  # atno 17320 bound_to 7965
  145.4525  141.0429  143.2796 LP  0  0  0  0  0  0  0  0  0  0  0  0  # atno 17321 bound_to 7965
  140.6683  143.8349  150.6969 LP  0  0  0  0  0  0  0  0  0  0  0  0  # atno 17342 bound_to 10162
  140.1765  143.4150  152.1963 LP  0  0  0  0  0  0  0  0  0  0  0  0  # atno 17343 bound_to 10162
  156.6372  130.8690  151.3507 LP  0  0  0  0  0  0  0  0  0  0  0  0  # atno 17370 bound_to 10713
  157.7167  130.9506  150.1280 LP  0  0  0  0  0  0  0  0  0  0  0  0  # atno 17371 bound_to 10713
  140.9261  134.2081  157.4895 LP  0  0  0  0  0  0  0  0  0  0  0  0  # atno 17394 bound_to 11000
  139.8719  134.9813  156.5110 LP  0  0  0  0  0  0  0  0  0  0  0  0  # atno 17395 bound_to 11000

$$$$
