AV-unprocessed.smi:2276|AV-procd|sdf|9175|dock5
  -GOLD-   2272012393D 1   1.00000     0.00000
 Structure written by MMmdl.
 53 54  0  0  0  0  0  0  0  0  2 V2000
  152.0271  145.8550  160.1976 C   0  0  0  0  0  0  0  0  0  0  0  0
  152.0670  144.4984  159.5257 C   0  0  0  0  0  0  0  0  0  0  0  0
  152.8993  143.4734  160.0147 C   0  0  0  0  0  0  0  0  0  0  0  0
  152.8919  142.2344  159.3446 C   0  0  0  0  0  0  0  0  0  0  0  0
  153.7590  141.0866  159.8176 C   0  0  0  0  0  0  0  0  0  0  0  0
  152.1275  141.9887  158.2589 N   0  0  0  0  0  0  0  0  0  0  0  0
  151.3217  142.9682  157.7795 C   0  0  0  0  0  0  0  0  0  0  0  0
  150.4800  142.8116  156.6464 N   0  0  0  0  0  0  0  0  0  0  0  0
  150.2361  141.6929  155.9413 C   0  0  0  0  0  0  0  0  0  0  0  0
  150.7168  140.5835  156.1743 O   0  0  0  0  0  0  0  0  0  0  0  0
  149.3952  141.9327  154.9245 N   0  0  0  0  0  0  0  0  0  0  0  0
  148.9301  140.9346  153.9651 C   0  0  0  0  0  0  0  0  0  0  0  0
  147.4324  141.0835  153.6123 C   0  0  1  0  0  0  0  0  0  0  0  0
  147.0468  140.0699  152.5216 C   0  0  0  0  0  0  0  0  0  0  0  0
  146.5256  140.9383  154.8571 C   0  0  0  0  0  0  0  0  0  0  0  0
  145.2998  141.7726  154.7777 N   0  3  0  0  0  0  0  0  0  0  0  0
  145.5782  143.2236  154.6308 C   0  0  0  0  0  0  0  0  0  0  0  0
  144.2626  144.0145  154.4726 C   0  0  0  0  0  0  0  0  0  0  0  0
  143.3440  143.7909  155.5903 N   0  0  0  0  0  0  0  0  0  0  0  0
  143.7807  144.4288  156.8274 C   0  0  0  0  0  0  0  0  0  0  0  0
  143.0827  142.3587  155.7431 C   0  0  0  0  0  0  0  0  0  0  0  0
  144.3823  141.5453  155.9199 C   0  0  0  0  0  0  0  0  0  0  0  0
  151.2696  144.2401  158.3925 C   0  0  0  0  0  0  0  0  0  0  0  0
  152.5358  145.8343  161.1620 H   0  0  0  0  0  0  0  0  0  0  0  0
  150.9956  146.1661  160.3644 H   0  0  0  0  0  0  0  0  0  0  0  0
  152.5144  146.6007  159.5692 H   0  0  0  0  0  0  0  0  0  0  0  0
  153.5257  143.6323  160.8804 H   0  0  0  0  0  0  0  0  0  0  0  0
  154.3648  141.3759  160.6766 H   0  0  0  0  0  0  0  0  0  0  0  0
  154.4302  140.7644  159.0211 H   0  0  0  0  0  0  0  0  0  0  0  0
  153.1385  140.2386  160.1087 H   0  0  0  0  0  0  0  0  0  0  0  0
  150.0113  143.6500  156.3373 H   0  0  0  0  0  0  0  0  0  0  0  0
  149.0421  142.8717  154.8112 H   0  0  0  0  0  0  0  0  0  0  0  0
  149.5404  140.9987  153.0626 H   0  0  0  0  0  0  0  0  0  0  0  0
  149.1163  139.9478  154.3901 H   0  0  0  0  0  0  0  0  0  0  0  0
  147.2982  142.0774  153.1870 H   0  0  0  0  0  0  0  0  0  0  0  0
  147.1473  139.0444  152.8785 H   0  0  0  0  0  0  0  0  0  0  0  0
  147.6837  140.1786  151.6430 H   0  0  0  0  0  0  0  0  0  0  0  0
  146.0170  140.2083  152.1920 H   0  0  0  0  0  0  0  0  0  0  0  0
  146.2491  139.8874  154.9555 H   0  0  0  0  0  0  0  0  0  0  0  0
  147.0595  141.1945  155.7728 H   0  0  0  0  0  0  0  0  0  0  0  0
  146.1509  143.5848  155.4858 H   0  0  0  0  0  0  0  0  0  0  0  0
  146.1968  143.3993  153.7515 H   0  0  0  0  0  0  0  0  0  0  0  0
  144.4687  145.0811  154.3754 H   0  0  0  0  0  0  0  0  0  0  0  0
  143.7656  143.7117  153.5499 H   0  0  0  0  0  0  0  0  0  0  0  0
  143.0306  144.2912  157.6068 H   0  0  0  0  0  0  0  0  0  0  0  0
  143.9045  145.5014  156.6752 H   0  0  0  0  0  0  0  0  0  0  0  0
  144.7254  144.0300  157.1948 H   0  0  0  0  0  0  0  0  0  0  0  0
  142.4135  142.1965  156.5891 H   0  0  0  0  0  0  0  0  0  0  0  0
  142.5511  142.0069  154.8578 H   0  0  0  0  0  0  0  0  0  0  0  0
  144.1296  140.4859  155.9753 H   0  0  0  0  0  0  0  0  0  0  0  0
  144.8814  141.7952  156.8570 H   0  0  0  0  0  0  0  0  0  0  0  0
  150.6240  145.0132  158.0009 H   0  0  0  0  0  0  0  0  0  0  0  0
  144.7997  141.4788  153.9508 H   0  0  0  0  0  0  0  0  0  0  0  0
  1  2  1  0  0  0  0
  1 24  1  0  0  0  0
  1 25  1  0  0  0  0
  1 26  1  0  0  0  0
  2 23  1  0  0  0  0
  2  3  2  0  0  0  0
  3  4  1  0  0  0  0
  3 27  1  0  0  0  0
  4  5  1  0  0  0  0
  4  6  2  0  0  0  0
  5 28  1  0  0  0  0
  5 29  1  0  0  0  0
  5 30  1  0  0  0  0
  6  7  1  0  0  0  0
  7  8  1  0  0  0  0
  7 23  2  0  0  0  0
  8  9  1  0  0  0  0
  8 31  1  0  0  0  0
  9 10  2  0  0  0  0
  9 11  1  0  0  0  0
 11 12  1  0  0  0  0
 11 32  1  0  0  0  0
 12 13  1  0  0  0  0
 12 33  1  0  0  0  0
 12 34  1  0  0  0  0
 13 14  1  0  0  0  0
 13 15  1  0  0  0  0
 13 35  1  0  0  0  0
 14 36  1  0  0  0  0
 14 37  1  0  0  0  0
 14 38  1  0  0  0  0
 15 16  1  0  0  0  0
 15 39  1  0  0  0  0
 15 40  1  0  0  0  0
 16 22  1  0  0  0  0
 16 17  1  0  0  0  0
 16 53  1  0  0  0  0
 17 18  1  0  0  0  0
 17 41  1  0  0  0  0
 17 42  1  0  0  0  0
 18 19  1  0  0  0  0
 18 43  1  0  0  0  0
 18 44  1  0  0  0  0
 19 20  1  0  0  0  0
 19 21  1  0  0  0  0
 20 45  1  0  0  0  0
 20 46  1  0  0  0  0
 20 47  1  0  0  0  0
 21 22  1  0  0  0  0
 21 48  1  0  0  0  0
 21 49  1  0  0  0  0
 22 50  1  0  0  0  0
 22 51  1  0  0  0  0
 23 52  1  0  0  0  0
M  CHG  1  16   1
M  END
> <s_m_source_file>
AV-unprocessed.smi

> <i_m_source_file_index>
2276

> <i_lp_mmshare_version>
43012

> <i_f3d_flags>
0

> <s_epik_input>
W0NIM11jMVtjSF1jKFtDSDNdKW5jKFtjSF0xKVtOSF1DKD1PKVtOSF1bQ0gyXVtDQEhdKFtDSDNdKVtDSDJdTjJbQ0gyXVtDSDJdTihbQ0gzXSlbQ0gyXVtDSDJdMg==

> <s_epik_cmdline>
J2VwaWtfcHl0aG9uJywgJy1waCcsICc3LjAnLCAnLXRuJywgJzgnLCAnLW1hJywgJzIwMCcsICctbWV0YWxfYmluZGluZycsICctaW1hZScsICc8aW5maWxlLm1hZT4nLCAnLW9tYWUnLCAnPG91dGZpbGUubWFlPic=

> <r_epik_Ionization_Penalty>
0.0485334

> <r_epik_Ionization_Penalty_Charging>
0.0462531

> <r_epik_Ionization_Penalty_Neutral>
0.00228028

> <r_epik_State_Penalty>
0.692588

> <r_epik_Charging_Adjusted_Penalty>
0.738841

> <i_epik_Tot_Q>
1

> <i_epik_Tot_abs_Q>
1

> <r_epik_Metal_State_Penalty>
0.692605

> <b_epik_Metal_Only>
0

> <s_lp_Force_Field>
OPLS_2005

> <r_lp_Energy>
21.6891

> <b_lp_Chiralities_Consistent>
1

> <s_lp_Variant>
AV-unprocessed.smi:2276-4

> <Gold.Version>
5.8.1

> <Gold.Id.Protein>
6NUR|6NUR_protein|mol2

> <Gold.PLP.Fitness>
57.2415

> <Gold.PLP.PLP>
-46.4856

> <Gold.PLP.part.hbond>
-3.0000

> <Gold.PLP.part.metal>
0.0000

> <Gold.PLP.part.buried>
-1.8828

> <Gold.PLP.part.nonpolar>
-42.7785

> <Gold.PLP.part.repulsive>
0.3984

> <Gold.PLP.ligand.clash>
0.0000

> <Gold.PLP.ligand.torsion>
0.5467

> <Gold.PLP.Chemscore.Hbond>
3.9120

> <Gold.PLP.Chemscore.CHOScore>
0.0000

> <Gold.PLP.Chemscore.Metal>
0.0000

> <Gold.Chemscore.Hbonds>
donor molecule, donor type, donor heavy atom, donor atom, acceptor molecule, acceptor atom, score
      L1  H     8    31       P1  8028  1.00
      L1  H    11    32       P1  8028  0.93
      L1  H    16    53       P1 10175  1.76

> <Gold.PLP.Chemscore.Internal.Correction>
0.1133

> <Gold.Rescore>
     Score         DG    S(hbond)    S(metal)    S(lipo)     H(rot)  DE(clash)    DE(int)     intcor
     20.48     -22.64       2.48        0.00     111.61       1.63       0.36       1.80       ----

> <Gold.Chemscore.Fitness>
20.4835

> <Gold.Chemscore.DG>
-22.6406

> <Gold.Chemscore.ZeroCoef>
-5.4800

> <Gold.Chemscore.Hbond>
2.4762

> <Gold.Chemscore.Metal>
0.0000

> <Gold.Chemscore.Lipo>
111.6095

> <Gold.Chemscore.Internal_Hbond>
0.0000

> <Gold.Chemscore.DEClash>
0.3571

> <Gold.Chemscore.DEInternal>
1.7999

> <Gold.Chemscore.Rot>
1.6282

> <Gold.Chemscore.Internal.Correction>
   9.000000E+99

> <Gold.Chemscore.Hbonds>
donor molecule, donor type, donor heavy atom, donor atom, acceptor molecule, acceptor atom, score
      L1  H     8    31       P1  8028  1.00
      L1  H    11    32       P1  8028  0.85
      L1  H    16    53       P1 10175  0.26

> <Gold.Chemscore.Hbond.Weighted>
-8.2704

> <Gold.Chemscore.Metal.Weighted>
-0.0000

> <Gold.Chemscore.Lipo.Weighted>
-13.0583

> <Gold.Chemscore.Internal_Hbond.Weighted>
0.0000

> <Gold.Chemscore.DEClash.Weighted>
0.3571

> <Gold.Chemscore.DEInternal.Weighted>
1.7999

> <Gold.Chemscore.Rot.Weighted>
4.1682

> <Gold.Chemscore.Internal.Correction.Weighted>
   9.000000E+99

> <Gold.Protein.RotatedTorsions>
[ 6907 6896 6895 6894 ] final   35.75 input  -60.11 | X-H torsion
[ 7974 7965 7964 7962 ] final -149.25 input  175.53 | X-H torsion
[ 8008 7997 7996 7995 ] final  107.64 input   59.86 | X-H torsion
[ 10167 10162 10161 10158 ] final  179.55 input  -65.29 | X-H torsion
[ 10718 10713 10712 10709 ] final  -42.10 input   66.30 | X-H torsion
[ 10763 10752 10751 10750 ] final   88.12 input  -60.55 | X-H torsion
[ 11005 11000 10999 10996 ] final  150.26 input  -57.11 | X-H torsion

> <Gold.Protein.ActiveResidues>
 VAL166  LYS551  ARG553  GLY616  TRP617  ASP618  TYR619  PRO620  LYS621  CYS622 
 ASP623  PHE694  ASN695  SER759  ASP760  ASP761  ALA762  ILE779  LEU786  VAL792 
 PHE793  MET794  SER795  GLU796  ALA797  LYS798  CYS799  TRP800  GLU811  SER814 

> <Gold.Protein.RotatedAtoms>
  152.1204  134.9209  160.0563 H   0  0  0  0  0  0  0  0  0  0  0  0  # atno 6907 bound_to 6896
  152.0352  133.3949  159.4322 H   0  0  0  0  0  0  0  0  0  0  0  0  # atno 6908 bound_to 6896
  150.6849  134.3397  159.4906 H   0  0  0  0  0  0  0  0  0  0  0  0  # atno 6909 bound_to 6896
  144.7979  140.5090  143.5727 H   0  0  0  0  0  0  0  0  0  0  0  0  # atno 7974 bound_to 7965
  156.1840  140.3091  155.9203 H   0  0  0  0  0  0  0  0  0  0  0  0  # atno 8008 bound_to 7997
  155.3321  140.0461  157.3060 H   0  0  0  0  0  0  0  0  0  0  0  0  # atno 8009 bound_to 7997
  154.5375  140.2250  155.8708 H   0  0  0  0  0  0  0  0  0  0  0  0  # atno 8010 bound_to 7997
  139.5341  144.2547  152.0756 H   0  0  0  0  0  0  0  0  0  0  0  0  # atno 10167 bound_to 10162
  156.2632  130.4199  149.8519 H   0  0  0  0  0  0  0  0  0  0  0  0  # atno 10718 bound_to 10713
  153.1737  135.4518  154.9936 H   0  0  0  0  0  0  0  0  0  0  0  0  # atno 10763 bound_to 10752
  154.7983  135.3246  154.7615 H   0  0  0  0  0  0  0  0  0  0  0  0  # atno 10764 bound_to 10752
  153.8088  135.6956  153.4899 H   0  0  0  0  0  0  0  0  0  0  0  0  # atno 10765 bound_to 10752
  140.1115  134.8921  157.1944 H   0  0  0  0  0  0  0  0  0  0  0  0  # atno 11005 bound_to 11000
  145.5627  139.1480  143.3332 LP  0  0  0  0  0  0  0  0  0  0  0  0  # atno 17320 bound_to 7965
  146.2252  140.5762  142.8999 LP  0  0  0  0  0  0  0  0  0  0  0  0  # atno 17321 bound_to 7965
  140.2015  144.4653  150.6429 LP  0  0  0  0  0  0  0  0  0  0  0  0  # atno 17342 bound_to 10162
  140.6538  143.2232  151.6016 LP  0  0  0  0  0  0  0  0  0  0  0  0  # atno 17343 bound_to 10162
  156.6026  130.8553  151.3435 LP  0  0  0  0  0  0  0  0  0  0  0  0  # atno 17370 bound_to 10713
  157.7258  130.9621  150.1630 LP  0  0  0  0  0  0  0  0  0  0  0  0  # atno 17371 bound_to 10713
  140.3084  134.3052  155.7272 LP  0  0  0  0  0  0  0  0  0  0  0  0  # atno 17394 bound_to 11000
  141.2131  133.7635  156.9741 LP  0  0  0  0  0  0  0  0  0  0  0  0  # atno 17395 bound_to 11000

$$$$
