AV-unprocessed.smi:617|AV-procd|sdf|3073|dock3
  -GOLD-   2262023593D 1   1.00000     0.00000
 Structure written by MMmdl.
 30 31  0  0  0  0  0  0  0  0  1 V2000
  146.8824  139.1004  153.5040 C   0  0  0  0  0  0  0  0  0  0  0  0
  147.9992  139.7998  154.2001 C   0  0  0  0  0  0  0  0  0  0  0  0
  148.1061  141.0304  154.7843 C   0  0  0  0  0  0  0  0  0  0  0  0
  149.4481  141.0530  155.2497 C   0  0  0  0  0  0  0  0  0  0  0  0
  149.9531  142.1982  155.9293 N   0  0  0  0  0  0  0  0  0  0  0  0
  150.9416  142.3222  156.8402 C   0  0  0  0  0  0  0  0  0  0  0  0
  151.5792  141.3425  157.2227 O   0  0  0  0  0  0  0  0  0  0  0  0
  151.1754  143.5641  157.2957 N   0  0  0  0  0  0  0  0  0  0  0  0
  152.1733  143.9280  158.2975 C   0  0  0  0  0  0  0  0  0  0  0  0
  152.1708  142.9146  159.4589 C   0  0  0  0  0  0  0  0  0  0  0  0
  152.1074  143.7409  160.7450 C   0  0  0  0  0  0  0  0  0  0  0  0
  151.3673  145.0121  160.3420 C   0  0  0  0  0  0  0  0  0  0  0  0
  151.8707  145.3020  158.9280 C   0  0  0  0  0  0  0  0  0  0  0  0
  150.0980  139.9304  154.9771 N   0  0  0  0  0  0  0  0  0  0  0  0
  149.1744  139.1230  154.3035 O   0  0  0  0  0  0  0  0  0  0  0  0
  146.0526  139.7820  153.3160 H   0  0  0  0  0  0  0  0  0  0  0  0
  146.5101  138.2721  154.1071 H   0  0  0  0  0  0  0  0  0  0  0  0
  147.2136  138.6998  152.5457 H   0  0  0  0  0  0  0  0  0  0  0  0
  147.3448  141.7927  154.8616 H   0  0  0  0  0  0  0  0  0  0  0  0
  149.5005  143.0656  155.6803 H   0  0  0  0  0  0  0  0  0  0  0  0
  150.6083  144.3140  156.9260 H   0  0  0  0  0  0  0  0  0  0  0  0
  153.1617  143.9485  157.8344 H   0  0  0  0  0  0  0  0  0  0  0  0
  151.2905  142.2712  159.4076 H   0  0  0  0  0  0  0  0  0  0  0  0
  153.0447  142.2629  159.4381 H   0  0  0  0  0  0  0  0  0  0  0  0
  151.6182  143.2096  161.5621 H   0  0  0  0  0  0  0  0  0  0  0  0
  153.1176  143.9940  161.0696 H   0  0  0  0  0  0  0  0  0  0  0  0
  150.2935  144.8212  160.3181 H   0  0  0  0  0  0  0  0  0  0  0  0
  151.5454  145.8393  161.0296 H   0  0  0  0  0  0  0  0  0  0  0  0
  152.7954  145.8777  158.9881 H   0  0  0  0  0  0  0  0  0  0  0  0
  151.1605  145.8998  158.3551 H   0  0  0  0  0  0  0  0  0  0  0  0
  1  2  1  0  0  0  0
  1 16  1  0  0  0  0
  1 17  1  0  0  0  0
  1 18  1  0  0  0  0
  2 15  1  0  0  0  0
  2  3  2  0  0  0  0
  3  4  1  0  0  0  0
  3 19  1  0  0  0  0
  4  5  1  0  0  0  0
  4 14  2  0  0  0  0
  5  6  1  0  0  0  0
  5 20  1  0  0  0  0
  6  7  2  0  0  0  0
  6  8  1  0  0  0  0
  8  9  1  0  0  0  0
  8 21  1  0  0  0  0
  9 13  1  0  0  0  0
  9 10  1  0  0  0  0
  9 22  1  0  0  0  0
 10 11  1  0  0  0  0
 10 23  1  0  0  0  0
 10 24  1  0  0  0  0
 11 12  1  0  0  0  0
 11 25  1  0  0  0  0
 11 26  1  0  0  0  0
 12 13  1  0  0  0  0
 12 27  1  0  0  0  0
 12 28  1  0  0  0  0
 13 29  1  0  0  0  0
 13 30  1  0  0  0  0
 14 15  1  0  0  0  0
M  END
> <s_m_source_file>
AV-unprocessed.smi

> <i_m_source_file_index>
617

> <i_lp_mmshare_version>
43012

> <i_f3d_flags>
0

> <s_epik_input>
W0NIM11jMVtjSF1jKG5vMSlbTkhdQyg9TylbTkhdW0NIXTJbQ0gyXVtDSDJdW0NIMl1bQ0gyXTI=

> <s_epik_cmdline>
J2VwaWtfcHl0aG9uJywgJy1waCcsICc3LjAnLCAnLXRuJywgJzgnLCAnLW1hJywgJzIwMCcsICctbWV0YWxfYmluZGluZycsICctaW1hZScsICc8aW5maWxlLm1hZT4nLCAnLW9tYWUnLCAnPG91dGZpbGUubWFlPic=

> <r_lp_tautomer_probability>
1

> <r_epik_Ionization_Penalty>
2.37631e-05

> <r_epik_Ionization_Penalty_Charging>
0

> <r_epik_Ionization_Penalty_Neutral>
2.37631e-05

> <r_epik_State_Penalty>
-0

> <r_epik_Charging_Adjusted_Penalty>
0

> <i_epik_Tot_Q>
0

> <i_epik_Tot_abs_Q>
0

> <r_epik_Metal_State_Penalty>
-0

> <b_epik_Metal_Only>
0

> <s_lp_Force_Field>
OPLS_2005

> <r_lp_Energy>
18.7169

> <b_lp_Chiralities_Consistent>
1

> <s_lp_Variant>
AV-unprocessed.smi:617-1

> <Gold.Version>
5.8.1

> <Gold.Id.Protein>
6NUR|6NUR_protein|mol2

> <Gold.PLP.Fitness>
42.1641

> <Gold.PLP.PLP>
-35.2001

> <Gold.PLP.part.hbond>
-3.0000

> <Gold.PLP.part.metal>
0.0000

> <Gold.PLP.part.buried>
-4.1207

> <Gold.PLP.part.nonpolar>
-30.1384

> <Gold.PLP.part.repulsive>
1.5054

> <Gold.PLP.ligand.clash>
0.0000

> <Gold.PLP.ligand.torsion>
0.3944

> <Gold.PLP.Chemscore.Hbond>
2.5834

> <Gold.PLP.Chemscore.CHOScore>
0.0000

> <Gold.PLP.Chemscore.Metal>
0.0000

> <Gold.Chemscore.Hbonds>
donor molecule, donor type, donor heavy atom, donor atom, acceptor molecule, acceptor atom, score
      L1  H     5    20       P1  8028  1.00
      L1  H     8    21       P1  8028  0.63
      P1  H  7989  7998       L1    14  0.21

> <Gold.PLP.Chemscore.Internal.Correction>
0.0025

> <Gold.Rescore>
     Score         DG    S(hbond)    S(metal)    S(lipo)     H(rot)  DE(clash)    DE(int)     intcor
     18.59     -20.57       2.66        0.00      74.84       1.00       0.10       1.89       ----

> <Gold.Chemscore.Fitness>
18.5868

> <Gold.Chemscore.DG>
-20.5736

> <Gold.Chemscore.ZeroCoef>
-5.4800

> <Gold.Chemscore.Hbond>
2.6637

> <Gold.Chemscore.Metal>
0.0000

> <Gold.Chemscore.Lipo>
74.8437

> <Gold.Chemscore.Internal_Hbond>
0.0000

> <Gold.Chemscore.DEClash>
0.0959

> <Gold.Chemscore.DEInternal>
1.8909

> <Gold.Chemscore.Rot>
1.0000

> <Gold.Chemscore.Internal.Correction>
   9.000000E+99

> <Gold.Chemscore.Hbonds>
donor molecule, donor type, donor heavy atom, donor atom, acceptor molecule, acceptor atom, score
      L1  H     5    20       P1  8028  1.00
      L1  H     8    21       P1  8028  0.59
      P1  H  7989  7998       L1    14  0.02

> <Gold.Chemscore.Hbond.Weighted>
-8.8969

> <Gold.Chemscore.Metal.Weighted>
-0.0000

> <Gold.Chemscore.Lipo.Weighted>
-8.7567

> <Gold.Chemscore.Internal_Hbond.Weighted>
0.0000

> <Gold.Chemscore.DEClash.Weighted>
0.0959

> <Gold.Chemscore.DEInternal.Weighted>
1.8909

> <Gold.Chemscore.Rot.Weighted>
2.5600

> <Gold.Chemscore.Internal.Correction.Weighted>
   9.000000E+99

> <Gold.Protein.RotatedTorsions>
[ 6907 6896 6895 6894 ] final  147.54 input  -60.11 | X-H torsion
[ 7974 7965 7964 7962 ] final   93.74 input  175.53 | X-H torsion
[ 8008 7997 7996 7995 ] final -125.73 input   59.86 | X-H torsion
[ 10167 10162 10161 10158 ] final  117.55 input  -65.29 | X-H torsion
[ 10718 10713 10712 10709 ] final   -5.19 input   66.30 | X-H torsion
[ 10763 10752 10751 10750 ] final   17.52 input  -60.55 | X-H torsion
[ 11005 11000 10999 10996 ] final   11.97 input  -57.11 | X-H torsion

> <Gold.Protein.ActiveResidues>
 VAL166  LYS551  ARG553  GLY616  TRP617  ASP618  TYR619  PRO620  LYS621  CYS622 
 ASP623  PHE694  ASN695  SER759  ASP760  ASP761  ALA762  ILE779  LEU786  VAL792 
 PHE793  MET794  SER795  GLU796  ALA797  LYS798  CYS799  TRP800  GLU811  SER814 

> <Gold.Protein.RotatedAtoms>
  152.1535  133.4536  159.4824 H   0  0  0  0  0  0  0  0  0  0  0  0  # atno 6907 bound_to 6896
  150.6898  134.2160  159.4387 H   0  0  0  0  0  0  0  0  0  0  0  0  # atno 6908 bound_to 6896
  152.0058  134.9903  160.0617 H   0  0  0  0  0  0  0  0  0  0  0  0  # atno 6909 bound_to 6896
  145.4749  139.2280  143.2914 H   0  0  0  0  0  0  0  0  0  0  0  0  # atno 7974 bound_to 7965
  155.2180  140.0421  157.2944 H   0  0  0  0  0  0  0  0  0  0  0  0  # atno 8008 bound_to 7997
  154.5968  140.2441  155.7817 H   0  0  0  0  0  0  0  0  0  0  0  0  # atno 8009 bound_to 7997
  156.2295  140.2943  156.0161 H   0  0  0  0  0  0  0  0  0  0  0  0  # atno 8010 bound_to 7997
  139.6171  144.7094  151.2715 H   0  0  0  0  0  0  0  0  0  0  0  0  # atno 10167 bound_to 10162
  156.7503  130.5237  149.5805 H   0  0  0  0  0  0  0  0  0  0  0  0  # atno 10718 bound_to 10713
  153.1332  135.6744  153.9145 H   0  0  0  0  0  0  0  0  0  0  0  0  # atno 10763 bound_to 10752
  153.8625  135.3079  155.3439 H   0  0  0  0  0  0  0  0  0  0  0  0  # atno 10764 bound_to 10752
  154.7725  135.4932  153.9759 H   0  0  0  0  0  0  0  0  0  0  0  0  # atno 10765 bound_to 10752
  140.4972  134.0781  155.7785 H   0  0  0  0  0  0  0  0  0  0  0  0  # atno 11005 bound_to 11000
  146.2375  140.5530  142.8948 LP  0  0  0  0  0  0  0  0  0  0  0  0  # atno 17320 bound_to 7965
  144.7923  140.6056  143.6533 LP  0  0  0  0  0  0  0  0  0  0  0  0  # atno 17321 bound_to 7965
  140.7358  143.6726  150.8068 LP  0  0  0  0  0  0  0  0  0  0  0  0  # atno 17342 bound_to 10162
  140.0331  143.5423  152.2751 LP  0  0  0  0  0  0  0  0  0  0  0  0  # atno 17343 bound_to 10162
  156.1406  130.6242  151.0461 LP  0  0  0  0  0  0  0  0  0  0  0  0  # atno 17370 bound_to 10713
  157.6780  131.0845  150.7444 LP  0  0  0  0  0  0  0  0  0  0  0  0  # atno 17371 bound_to 10713
  141.1454  133.9064  157.2228 LP  0  0  0  0  0  0  0  0  0  0  0  0  # atno 17394 bound_to 11000
  139.9734  135.0121  156.9570 LP  0  0  0  0  0  0  0  0  0  0  0  0  # atno 17395 bound_to 11000

$$$$
