AV-unprocessed.smi:2289|AV-procd|sdf|9208|dock7
  -GOLD-   2272012423D 1   1.00000     0.00000
 Structure written by MMmdl.
 40 41  0  0  0  0  0  0  0  0  1 V2000
  147.3197  136.3683  162.8999 C   0  0  0  0  0  0  0  0  0  0  0  0
  147.7553  136.2161  161.4533 C   0  0  0  0  0  0  0  0  0  0  0  0
  147.9488  137.4095  160.7523 N   0  0  0  0  0  0  0  0  0  0  0  0
  148.3158  137.3766  159.5132 C   0  0  0  0  0  0  0  0  0  0  0  0
  148.5270  136.1644  158.8355 N   0  0  0  0  0  0  0  0  0  0  0  0
  148.9503  136.2850  157.4269 C   0  0  0  0  0  0  0  0  0  0  0  0
  148.4973  137.5932  156.7272 C   0  0  2  0  0  0  0  0  0  0  0  0
  147.1304  137.4805  156.3830 O   0  0  0  0  0  0  0  0  0  0  0  0
  149.3285  138.0308  155.4999 C   0  0  0  0  0  0  0  0  0  0  0  0
  148.8389  139.3361  154.8846 C   0  0  0  0  0  0  0  0  0  0  0  0
  147.7262  139.2787  154.0172 C   0  0  0  0  0  0  0  0  0  0  0  0
  147.2212  140.4449  153.4159 C   0  0  0  0  0  0  0  0  0  0  0  0
  147.8307  141.6836  153.6757 C   0  0  0  0  0  0  0  0  0  0  0  0
  148.9425  141.7527  154.5352 C   0  0  0  0  0  0  0  0  0  0  0  0
  149.4603  140.5887  155.1517 C   0  0  0  0  0  0  0  0  0  0  0  0
  150.6778  140.7111  156.0707 C   0  0  0  0  0  0  0  0  0  0  0  0
  151.0767  141.9780  156.1922 F   0  0  0  0  0  0  0  0  0  0  0  0
  150.4009  140.2620  157.2946 F   0  0  0  0  0  0  0  0  0  0  0  0
  151.6944  140.0108  155.5676 F   0  0  0  0  0  0  0  0  0  0  0  0
  148.3730  134.9544  159.4500 C   0  0  0  0  0  0  0  0  0  0  0  0
  148.5683  133.8931  158.8542 O   0  0  0  0  0  0  0  0  0  0  0  0
  147.9511  135.0075  160.8591 C   0  0  0  0  0  0  0  0  0  0  0  0
  147.7558  133.6756  161.5731 C   0  0  0  0  0  0  0  0  0  0  0  0
  148.0599  135.9292  163.5692 H   0  0  0  0  0  0  0  0  0  0  0  0
  146.3619  135.8743  163.0652 H   0  0  0  0  0  0  0  0  0  0  0  0
  147.2034  137.4181  163.1720 H   0  0  0  0  0  0  0  0  0  0  0  0
  148.4815  138.2782  158.9210 H   0  0  0  0  0  0  0  0  0  0  0  0
  150.0321  136.1616  157.3417 H   0  0  0  0  0  0  0  0  0  0  0  0
  148.5548  135.4461  156.8525 H   0  0  0  0  0  0  0  0  0  0  0  0
  148.5485  138.3813  157.4793 H   0  0  0  0  0  0  0  0  0  0  0  0
  146.6101  137.7075  157.1386 H   0  0  0  0  0  0  0  0  0  0  0  0
  150.3719  138.1505  155.7789 H   0  0  0  0  0  0  0  0  0  0  0  0
  149.3255  137.2466  154.7411 H   0  0  0  0  0  0  0  0  0  0  0  0
  147.2508  138.3305  153.8119 H   0  0  0  0  0  0  0  0  0  0  0  0
  146.3682  140.3878  152.7557 H   0  0  0  0  0  0  0  0  0  0  0  0
  147.4475  142.5816  153.2143 H   0  0  0  0  0  0  0  0  0  0  0  0
  149.3944  142.7170  154.7122 H   0  0  0  0  0  0  0  0  0  0  0  0
  146.9926  133.0853  161.0652 H   0  0  0  0  0  0  0  0  0  0  0  0
  147.4476  133.7861  162.6115 H   0  0  0  0  0  0  0  0  0  0  0  0
  148.6852  133.1051  161.5660 H   0  0  0  0  0  0  0  0  0  0  0  0
  1  2  1  0  0  0  0
  1 24  1  0  0  0  0
  1 25  1  0  0  0  0
  1 26  1  0  0  0  0
  2 22  2  0  0  0  0
  2  3  1  0  0  0  0
  3  4  2  0  0  0  0
  4  5  1  0  0  0  0
  4 27  1  0  0  0  0
  5  6  1  0  0  0  0
  5 20  1  0  0  0  0
  6  7  1  0  0  0  0
  6 28  1  0  0  0  0
  6 29  1  0  0  0  0
  7  8  1  0  0  0  0
  7  9  1  0  0  0  0
  7 30  1  0  0  0  0
  8 31  1  0  0  0  0
  9 10  1  0  0  0  0
  9 32  1  0  0  0  0
  9 33  1  0  0  0  0
 10 15  1  0  0  0  0
 10 11  2  0  0  0  0
 11 12  1  0  0  0  0
 11 34  1  0  0  0  0
 12 13  2  0  0  0  0
 12 35  1  0  0  0  0
 13 14  1  0  0  0  0
 13 36  1  0  0  0  0
 14 15  2  0  0  0  0
 14 37  1  0  0  0  0
 15 16  1  0  0  0  0
 16 17  1  0  0  0  0
 16 18  1  0  0  0  0
 16 19  1  0  0  0  0
 20 21  2  0  0  0  0
 20 22  1  0  0  0  0
 22 23  1  0  0  0  0
 23 38  1  0  0  0  0
 23 39  1  0  0  0  0
 23 40  1  0  0  0  0
M  END
> <s_m_source_file>
AV-unprocessed.smi

> <i_m_source_file_index>
2289

> <i_lp_mmshare_version>
43012

> <i_f3d_flags>
0

> <s_epik_input>
W0NIM11jMW5bY0hdbihjKD1PKWMxW0NIM10pW0NIMl1bQ0BIXShbT0hdKVtDSDJdYzJbY0hdW2NIXVtjSF1bY0hdYzJDKEYpKEYpRg==

> <s_epik_cmdline>
J2VwaWtfcHl0aG9uJywgJy1waCcsICc3LjAnLCAnLXRuJywgJzgnLCAnLW1hJywgJzIwMCcsICctbWV0YWxfYmluZGluZycsICctaW1hZScsICc8aW5maWxlLm1hZT4nLCAnLW9tYWUnLCAnPG91dGZpbGUubWFlPic=

> <r_lp_tautomer_probability>
1

> <r_epik_Ionization_Penalty>
8.92636e-05

> <r_epik_Ionization_Penalty_Charging>
8.63033e-08

> <r_epik_Ionization_Penalty_Neutral>
8.91773e-05

> <r_epik_State_Penalty>
-0

> <r_epik_Charging_Adjusted_Penalty>
8.63033e-08

> <i_epik_Tot_Q>
0

> <i_epik_Tot_abs_Q>
0

> <r_epik_Metal_State_Penalty>
-0

> <b_epik_Metal_Only>
0

> <s_lp_Force_Field>
OPLS_2005

> <r_lp_Energy>
23.7682

> <b_lp_Chiralities_Consistent>
1

> <s_lp_Variant>
AV-unprocessed.smi:2289-1

> <Gold.Version>
5.8.1

> <Gold.Id.Protein>
6NUR|6NUR_protein|mol2

> <Gold.PLP.Fitness>
43.2934

> <Gold.PLP.PLP>
-37.8898

> <Gold.PLP.part.hbond>
-3.0000

> <Gold.PLP.part.metal>
0.0000

> <Gold.PLP.part.buried>
-1.9987

> <Gold.PLP.part.nonpolar>
-32.2841

> <Gold.PLP.part.repulsive>
0.0000

> <Gold.PLP.ligand.clash>
1.3965

> <Gold.PLP.ligand.torsion>
0.8540

> <Gold.PLP.Chemscore.Hbond>
2.3461

> <Gold.PLP.Chemscore.CHOScore>
0.0000

> <Gold.PLP.Chemscore.Metal>
0.0000

> <Gold.Chemscore.Hbonds>
donor molecule, donor type, donor heavy atom, donor atom, acceptor molecule, acceptor atom, score
      P1  H  6896  6909       L1    21  0.34
      P1  H  6931  6943       L1     3  0.74
      P1  H  6934  6947       L1     3  0.74

> <Gold.PLP.Chemscore.Internal.Correction>
1.4696

> <Gold.Rescore>
     Score         DG    S(hbond)    S(metal)    S(lipo)     H(rot)  DE(clash)    DE(int)     intcor
      9.62     -11.80       0.85        0.00      81.54       2.37       0.42       1.76       ----

> <Gold.Chemscore.Fitness>
9.6206

> <Gold.Chemscore.DG>
-11.7974

> <Gold.Chemscore.ZeroCoef>
-5.4800

> <Gold.Chemscore.Hbond>
0.8503

> <Gold.Chemscore.Metal>
0.0000

> <Gold.Chemscore.Lipo>
81.5356

> <Gold.Chemscore.Internal_Hbond>
0.0000

> <Gold.Chemscore.DEClash>
0.4169

> <Gold.Chemscore.DEInternal>
1.7599

> <Gold.Chemscore.Rot>
2.3681

> <Gold.Chemscore.Internal.Correction>
   9.000000E+99

> <Gold.Chemscore.Hbonds>
donor molecule, donor type, donor heavy atom, donor atom, acceptor molecule, acceptor atom, score
      P1  H  6896  6909       L1    21  0.04
      P1  H  6931  6943       L1     3  0.18
      P1  H  6934  6947       L1     3  0.33

> <Gold.Chemscore.Hbond.Weighted>
-2.8401

> <Gold.Chemscore.Metal.Weighted>
-0.0000

> <Gold.Chemscore.Lipo.Weighted>
-9.5397

> <Gold.Chemscore.Internal_Hbond.Weighted>
0.0000

> <Gold.Chemscore.DEClash.Weighted>
0.4169

> <Gold.Chemscore.DEInternal.Weighted>
1.7599

> <Gold.Chemscore.Rot.Weighted>
6.0624

> <Gold.Chemscore.Internal.Correction.Weighted>
   9.000000E+99

> <Gold.Protein.RotatedTorsions>
[ 6907 6896 6895 6894 ] final    1.09 input  -60.11 | X-H torsion
[ 7974 7965 7964 7962 ] final   57.09 input  175.53 | X-H torsion
[ 8008 7997 7996 7995 ] final   51.26 input   59.86 | X-H torsion
[ 10167 10162 10161 10158 ] final   -0.14 input  -65.29 | X-H torsion
[ 10718 10713 10712 10709 ] final   50.32 input   66.30 | X-H torsion
[ 10763 10752 10751 10750 ] final  135.93 input  -60.55 | X-H torsion
[ 11005 11000 10999 10996 ] final   39.85 input  -57.11 | X-H torsion

> <Gold.Protein.ActiveResidues>
 VAL166  LYS551  ARG553  GLY616  TRP617  ASP618  TYR619  PRO620  LYS621  CYS622 
 ASP623  PHE694  ASN695  SER759  ASP760  ASP761  ALA762  ILE779  LEU786  VAL792 
 PHE793  MET794  SER795  GLU796  ALA797  LYS798  CYS799  TRP800  GLU811  SER814 

> <Gold.Protein.RotatedAtoms>
  151.5870  135.1055  160.0030 H   0  0  0  0  0  0  0  0  0  0  0  0  # atno 6907 bound_to 6896
  152.4325  133.7299  159.6592 H   0  0  0  0  0  0  0  0  0  0  0  0  # atno 6908 bound_to 6896
  150.8219  133.8167  159.3158 H   0  0  0  0  0  0  0  0  0  0  0  0  # atno 6909 bound_to 6896
  145.9328  139.3822  143.0411 H   0  0  0  0  0  0  0  0  0  0  0  0  # atno 7974 bound_to 7965
  155.4323  140.3451  155.4281 H   0  0  0  0  0  0  0  0  0  0  0  0  # atno 8008 bound_to 7997
  156.1329  140.1519  156.9069 H   0  0  0  0  0  0  0  0  0  0  0  0  # atno 8009 bound_to 7997
  154.4909  140.0841  156.7571 H   0  0  0  0  0  0  0  0  0  0  0  0  # atno 8010 bound_to 7997
  140.6754  143.6930  150.8012 H   0  0  0  0  0  0  0  0  0  0  0  0  # atno 10167 bound_to 10162
  157.4873  130.8353  149.8161 H   0  0  0  0  0  0  0  0  0  0  0  0  # atno 10718 bound_to 10713
  153.8482  135.3082  155.3431 H   0  0  0  0  0  0  0  0  0  0  0  0  # atno 10763 bound_to 10752
  154.7903  135.4786  154.0040 H   0  0  0  0  0  0  0  0  0  0  0  0  # atno 10764 bound_to 10752
  153.1534  135.6847  153.8941 H   0  0  0  0  0  0  0  0  0  0  0  0  # atno 10765 bound_to 10752
  140.1988  134.3896  155.8107 H   0  0  0  0  0  0  0  0  0  0  0  0  # atno 11005 bound_to 11000
  145.8403  140.9584  143.0802 LP  0  0  0  0  0  0  0  0  0  0  0  0  # atno 17320 bound_to 7965
  144.6767  140.0276  143.7483 LP  0  0  0  0  0  0  0  0  0  0  0  0  # atno 17321 bound_to 7965
  140.0623  143.5143  152.2622 LP  0  0  0  0  0  0  0  0  0  0  0  0  # atno 17342 bound_to 10162
  139.6044  144.7592  151.3097 LP  0  0  0  0  0  0  0  0  0  0  0  0  # atno 17343 bound_to 10162
  156.0154  130.3816  150.2129 LP  0  0  0  0  0  0  0  0  0  0  0  0  # atno 17370 bound_to 10713
  157.0317  131.0009  151.3310 LP  0  0  0  0  0  0  0  0  0  0  0  0  # atno 17371 bound_to 10713
  141.2227  133.7083  156.8222 LP  0  0  0  0  0  0  0  0  0  0  0  0  # atno 17394 bound_to 11000
  140.2077  134.8850  157.3240 LP  0  0  0  0  0  0  0  0  0  0  0  0  # atno 17395 bound_to 11000

$$$$
