AV-unprocessed.smi:2505|AV-procd|sdf|9856|dock6
  -GOLD-   2272013483D 1   1.00000     0.00000
 Structure written by MMmdl.
 48 52  0  0  0  0  0  0  0  0  1 V2000
  147.1703  137.5304  153.8763 O   0  0  0  0  0  0  0  0  0  0  0  0
  146.2526  138.2314  153.4579 C   0  0  0  0  0  0  0  0  0  0  0  0
  145.3055  137.8288  152.5895 N   0  0  0  0  0  0  0  0  0  0  0  0
  145.1237  136.5622  151.9728 C   0  0  0  0  0  0  0  0  0  0  0  0
  146.0487  135.5376  152.2633 C   0  0  0  0  0  0  0  0  0  0  0  0
  145.9547  134.3087  151.7132 N   0  0  0  0  0  0  0  0  0  0  0  0
  144.9322  134.0987  150.8801 C   0  0  0  0  0  0  0  0  0  0  0  0
  144.8541  132.7471  150.2407 C   0  0  0  0  0  0  0  0  0  0  0  0
  143.8136  132.4481  149.1806 C   0  0  0  0  0  0  0  0  0  0  0  0
  143.6976  131.8149  150.5392 C   0  0  0  0  0  0  0  0  0  0  0  0
  144.0048  134.9892  150.5179 N   0  0  0  0  0  0  0  0  0  0  0  0
  144.0911  136.2221  151.0634 C   0  0  0  0  0  0  0  0  0  0  0  0
  146.1258  139.5136  153.8418 N   0  0  0  0  0  0  0  0  0  0  0  0
  146.9833  140.2548  154.7691 C   0  0  1  0  0  0  0  0  0  0  0  0
  148.3411  140.6098  154.1411 C   0  0  2  0  0  0  0  0  0  0  0  0
  149.6032  140.0063  154.6956 C   0  0  0  0  0  0  0  0  0  0  0  0
  150.1050  141.0886  155.6552 C   0  0  0  0  0  0  0  0  0  0  0  0
  148.9456  141.8579  155.9658 O   0  0  0  0  0  0  0  0  0  0  0  0
  148.1820  141.9860  154.7687 C   0  0  2  0  0  0  0  0  0  0  0  0
  146.6592  141.7645  154.8899 C   0  0  0  0  0  0  0  0  0  0  0  0
  145.8091  142.4451  153.8133 C   0  0  0  0  0  0  0  0  0  0  0  0
  145.4488  143.8319  154.3501 C   0  0  0  0  0  0  0  0  0  0  0  0
  145.5230  143.7119  155.8758 C   0  0  0  0  0  0  0  0  0  0  0  0
  145.9830  142.2781  156.1588 C   0  0  0  0  0  0  0  0  0  0  0  0
  144.6321  138.5336  152.3261 H   0  0  0  0  0  0  0  0  0  0  0  0
  146.8737  135.7045  152.9404 H   0  0  0  0  0  0  0  0  0  0  0  0
  145.8428  132.3083  150.1211 H   0  0  0  0  0  0  0  0  0  0  0  0
  143.1020  133.2330  148.9316 H   0  0  0  0  0  0  0  0  0  0  0  0
  144.1122  131.8100  148.3516 H   0  0  0  0  0  0  0  0  0  0  0  0
  143.9191  130.7528  150.6210 H   0  0  0  0  0  0  0  0  0  0  0  0
  142.9077  132.1780  151.1940 H   0  0  0  0  0  0  0  0  0  0  0  0
  143.3291  136.9163  150.7480 H   0  0  0  0  0  0  0  0  0  0  0  0
  145.3562  140.0314  153.4424 H   0  0  0  0  0  0  0  0  0  0  0  0
  147.1069  139.7796  155.7451 H   0  0  0  0  0  0  0  0  0  0  0  0
  148.3005  140.6628  153.0515 H   0  0  0  0  0  0  0  0  0  0  0  0
  149.3894  139.0814  155.2319 H   0  0  0  0  0  0  0  0  0  0  0  0
  150.3385  139.7828  153.9222 H   0  0  0  0  0  0  0  0  0  0  0  0
  150.5659  140.6759  156.5527 H   0  0  0  0  0  0  0  0  0  0  0  0
  150.8349  141.7309  155.1600 H   0  0  0  0  0  0  0  0  0  0  0  0
  148.5035  142.8098  154.1295 H   0  0  0  0  0  0  0  0  0  0  0  0
  146.3194  142.5078  152.8516 H   0  0  0  0  0  0  0  0  0  0  0  0
  144.8859  141.8890  153.6462 H   0  0  0  0  0  0  0  0  0  0  0  0
  146.1740  144.5684  154.0023 H   0  0  0  0  0  0  0  0  0  0  0  0
  144.4640  144.1527  154.0087 H   0  0  0  0  0  0  0  0  0  0  0  0
  146.2455  144.4280  156.2691 H   0  0  0  0  0  0  0  0  0  0  0  0
  144.5628  143.9208  156.3488 H   0  0  0  0  0  0  0  0  0  0  0  0
  145.1133  141.6630  156.3910 H   0  0  0  0  0  0  0  0  0  0  0  0
  146.6340  142.2354  157.0322 H   0  0  0  0  0  0  0  0  0  0  0  0
  1  2  2  0  0  0  0
  2  3  1  0  0  0  0
  2 13  1  0  0  0  0
  3  4  1  0  0  0  0
  3 25  1  0  0  0  0
  4 12  1  0  0  0  0
  4  5  2  0  0  0  0
  5  6  1  0  0  0  0
  5 26  1  0  0  0  0
  6  7  2  0  0  0  0
  7  8  1  0  0  0  0
  7 11  1  0  0  0  0
  8 10  1  0  0  0  0
  8  9  1  0  0  0  0
  8 27  1  0  0  0  0
  9 10  1  0  0  0  0
  9 28  1  0  0  0  0
  9 29  1  0  0  0  0
 10 30  1  0  0  0  0
 10 31  1  0  0  0  0
 11 12  2  0  0  0  0
 12 32  1  0  0  0  0
 13 14  1  0  0  0  0
 13 33  1  0  0  0  0
 14 20  1  0  0  0  0
 14 15  1  0  0  0  0
 14 34  1  0  0  0  0
 15 19  1  0  0  0  0
 15 16  1  0  0  0  0
 15 35  1  0  0  0  0
 16 17  1  0  0  0  0
 16 36  1  0  0  0  0
 16 37  1  0  0  0  0
 17 18  1  0  0  0  0
 17 38  1  0  0  0  0
 17 39  1  0  0  0  0
 18 19  1  0  0  0  0
 19 20  1  0  0  0  0
 19 40  1  0  0  0  0
 20 24  1  0  0  0  0
 20 21  1  0  0  0  0
 21 22  1  0  0  0  0
 21 41  1  0  0  0  0
 21 42  1  0  0  0  0
 22 23  1  0  0  0  0
 22 43  1  0  0  0  0
 22 44  1  0  0  0  0
 23 24  1  0  0  0  0
 23 45  1  0  0  0  0
 23 46  1  0  0  0  0
 24 47  1  0  0  0  0
 24 48  1  0  0  0  0
M  END
> <s_m_source_file>
AV-unprocessed.smi

> <i_m_source_file_index>
2505

> <i_lp_mmshare_version>
43012

> <i_f3d_flags>
0

> <s_epik_input>
W0NIMl0xW0NIMl1bQ0hdMWMobltjSF0yKW5bY0hdYzJbTkhdQyg9TylbTkhdW0NAQEhdM1tDQEBIXShbQ0gyXVtDSDJdTzQpW0NASF00QzM1W0NIMl1bQ0gyXVtDSDJdW0NIMl01

> <s_epik_cmdline>
J2VwaWtfcHl0aG9uJywgJy1waCcsICc3LjAnLCAnLXRuJywgJzgnLCAnLW1hJywgJzIwMCcsICctbWV0YWxfYmluZGluZycsICctaW1hZScsICc8aW5maWxlLm1hZT4nLCAnLW9tYWUnLCAnPG91dGZpbGUubWFlPic=

> <r_lp_tautomer_probability>
1

> <r_epik_Ionization_Penalty>
2.6075e-05

> <r_epik_Ionization_Penalty_Charging>
0

> <r_epik_Ionization_Penalty_Neutral>
2.6075e-05

> <r_epik_State_Penalty>
-0

> <r_epik_Charging_Adjusted_Penalty>
0

> <i_epik_Tot_Q>
0

> <i_epik_Tot_abs_Q>
0

> <r_epik_Metal_State_Penalty>
-0

> <b_epik_Metal_Only>
0

> <s_lp_Force_Field>
OPLS_2005

> <r_lp_Energy>
62.9039

> <b_lp_Chiralities_Consistent>
1

> <s_lp_Variant>
AV-unprocessed.smi:2505-4

> <Gold.Version>
5.8.1

> <Gold.Id.Protein>
6NUR|6NUR_protein|mol2

> <Gold.PLP.Fitness>
41.5412

> <Gold.PLP.PLP>
-32.1314

> <Gold.PLP.part.hbond>
-2.0500

> <Gold.PLP.part.metal>
0.0000

> <Gold.PLP.part.buried>
0.5926

> <Gold.PLP.part.nonpolar>
-34.3970

> <Gold.PLP.part.repulsive>
3.6331

> <Gold.PLP.ligand.clash>
0.0000

> <Gold.PLP.ligand.torsion>
0.1589

> <Gold.PLP.Chemscore.Hbond>
1.6825

> <Gold.PLP.Chemscore.CHOScore>
1.4593

> <Gold.PLP.Chemscore.Metal>
0.0000

> <Gold.Chemscore.Hbonds>
donor molecule, donor type, donor heavy atom, donor atom, acceptor molecule, acceptor atom, score
      L1  H     3    25       P1 10175  0.71
      L1  H    13    33       P1 10175  1.00
      L1  C     5    26       P1  7948  0.68
      L1  C    12    32       P1 10171  0.68

> <Gold.PLP.Chemscore.Internal.Correction>
0.3023

> <Gold.Rescore>
     Score         DG    S(hbond)    S(metal)    S(lipo)     H(rot)  DE(clash)    DE(int)     intcor
     16.52     -20.33       1.90        0.00      98.54       1.17       2.22       1.60       ----

> <Gold.Chemscore.Fitness>
16.5206

> <Gold.Chemscore.DG>
-20.3347

> <Gold.Chemscore.ZeroCoef>
-5.4800

> <Gold.Chemscore.Hbond>
1.8957

> <Gold.Chemscore.Metal>
0.0000

> <Gold.Chemscore.Lipo>
98.5440

> <Gold.Chemscore.Internal_Hbond>
0.0000

> <Gold.Chemscore.DEClash>
2.2169

> <Gold.Chemscore.DEInternal>
1.5973

> <Gold.Chemscore.Rot>
1.1744

> <Gold.Chemscore.Internal.Correction>
   9.000000E+99

> <Gold.Chemscore.Hbonds>
donor molecule, donor type, donor heavy atom, donor atom, acceptor molecule, acceptor atom, score
      L1  H     3    25       P1 10175  0.70
      L1  H    13    33       P1 10175  0.97

> <Gold.Chemscore.Hbond.Weighted>
-6.3315

> <Gold.Chemscore.Metal.Weighted>
-0.0000

> <Gold.Chemscore.Lipo.Weighted>
-11.5296

> <Gold.Chemscore.Internal_Hbond.Weighted>
0.0000

> <Gold.Chemscore.DEClash.Weighted>
2.2169

> <Gold.Chemscore.DEInternal.Weighted>
1.5973

> <Gold.Chemscore.Rot.Weighted>
3.0064

> <Gold.Chemscore.Internal.Correction.Weighted>
   9.000000E+99

> <Gold.Protein.RotatedTorsions>
[ 6907 6896 6895 6894 ] final -124.76 input  -60.11 | X-H torsion
[ 7974 7965 7964 7962 ] final  -33.19 input  175.53 | X-H torsion
[ 8008 7997 7996 7995 ] final  -90.43 input   59.86 | X-H torsion
[ 10167 10162 10161 10158 ] final -135.15 input  -65.29 | X-H torsion
[ 10718 10713 10712 10709 ] final  143.89 input   66.30 | X-H torsion
[ 10763 10752 10751 10750 ] final   64.82 input  -60.55 | X-H torsion
[ 11005 11000 10999 10996 ] final -104.69 input  -57.11 | X-H torsion

> <Gold.Protein.ActiveResidues>
 VAL166  LYS551  ARG553  GLY616  TRP617  ASP618  TYR619  PRO620  LYS621  CYS622 
 ASP623  PHE694  ASN695  SER759  ASP760  ASP761  ALA762  ILE779  LEU786  VAL792 
 PHE793  MET794  SER795  GLU796  ALA797  LYS798  CYS799  TRP800  GLU811  SER814 

> <Gold.Protein.RotatedAtoms>
  150.8800  133.7385  159.2934 H   0  0  0  0  0  0  0  0  0  0  0  0  # atno 6907 bound_to 6896
  151.4969  135.1058  159.9828 H   0  0  0  0  0  0  0  0  0  0  0  0  # atno 6908 bound_to 6896
  152.4753  133.8079  159.7043 H   0  0  0  0  0  0  0  0  0  0  0  0  # atno 6909 bound_to 6896
  146.0930  140.5885  142.8855 H   0  0  0  0  0  0  0  0  0  0  0  0  # atno 7974 bound_to 7965
  154.6985  140.0530  157.0434 H   0  0  0  0  0  0  0  0  0  0  0  0  # atno 8008 bound_to 7997
  155.0718  140.3200  155.4609 H   0  0  0  0  0  0  0  0  0  0  0  0  # atno 8009 bound_to 7997
  156.2752  140.2080  156.5845 H   0  0  0  0  0  0  0  0  0  0  0  0  # atno 8010 bound_to 7997
  139.8808  143.6842  152.2627 H   0  0  0  0  0  0  0  0  0  0  0  0  # atno 10167 bound_to 10162
  157.3637  131.0969  151.0892 H   0  0  0  0  0  0  0  0  0  0  0  0  # atno 10718 bound_to 10713
  153.0071  135.5379  154.6570 H   0  0  0  0  0  0  0  0  0  0  0  0  # atno 10763 bound_to 10752
  154.5788  135.2848  155.0755 H   0  0  0  0  0  0  0  0  0  0  0  0  # atno 10764 bound_to 10752
  154.1892  135.6503  153.5108 H   0  0  0  0  0  0  0  0  0  0  0  0  # atno 10765 bound_to 10752
  141.1088  133.8745  157.1642 H   0  0  0  0  0  0  0  0  0  0  0  0  # atno 11005 bound_to 11000
  144.7374  140.4848  143.6893 LP  0  0  0  0  0  0  0  0  0  0  0  0  # atno 17320 bound_to 7965
  145.6002  139.1503  143.3133 LP  0  0  0  0  0  0  0  0  0  0  0  0  # atno 17321 bound_to 7965
  139.7198  144.7605  151.0974 LP  0  0  0  0  0  0  0  0  0  0  0  0  # atno 17342 bound_to 10162
  140.7745  143.5222  150.9523 LP  0  0  0  0  0  0  0  0  0  0  0  0  # atno 17343 bound_to 10162
  157.2023  130.6400  149.5743 LP  0  0  0  0  0  0  0  0  0  0  0  0  # atno 17370 bound_to 10713
  155.9742  130.4687  150.6369 LP  0  0  0  0  0  0  0  0  0  0  0  0  # atno 17371 bound_to 10713
  139.9972  135.0042  157.0109 LP  0  0  0  0  0  0  0  0  0  0  0  0  # atno 17394 bound_to 11000
  140.4830  134.1270  155.7220 LP  0  0  0  0  0  0  0  0  0  0  0  0  # atno 17395 bound_to 11000

$$$$
