AV-unprocessed.smi:3168|AV-procd|sdf|12101|dock6
  -GOLD-   2272017533D 1   1.00000     0.00000
 Structure written by MMmdl.
 33 34  0  0  0  0  0  0  0  0  1 V2000
  151.0431  145.1093  158.7392 C   0  0  0  0  0  0  0  0  0  0  0  0
  151.6972  143.7470  158.4297 C   0  0  2  0  0  0  0  0  0  0  0  0
  150.7328  142.7550  157.7558 C   0  0  0  0  0  0  0  0  0  0  0  0
  149.7679  142.2979  158.3699 O   0  0  0  0  0  0  0  0  0  0  0  0
  151.0019  142.4412  156.4781 N   0  0  0  0  0  0  0  0  0  0  0  0
  150.2035  141.5527  155.6419 C   0  0  0  0  0  0  0  0  0  0  0  0
  150.6931  140.0994  155.7464 C   0  0  1  0  0  0  0  0  0  0  0  0
  149.7158  139.0802  155.1654 C   0  0  0  0  0  0  0  0  0  0  0  0
  150.6303  137.9098  154.8853 C   0  0  0  0  0  0  0  0  0  0  0  0
  151.9023  138.6069  154.4083 C   0  0  0  0  0  0  0  0  0  0  0  0
  151.8912  139.9044  154.9995 O   0  0  0  0  0  0  0  0  0  0  0  0
  152.3059  143.1538  159.6155 N   0  0  0  0  0  0  0  0  0  0  0  0
  153.0742  142.0094  159.6931 C   0  0  0  0  0  0  0  0  0  0  0  0
  153.3990  141.8204  161.0058 C   0  0  0  0  0  0  0  0  0  0  0  0
  152.7697  142.9098  161.6695 C   0  0  0  0  0  0  0  0  0  0  0  0
  152.1121  143.7015  160.8383 N   0  0  0  0  0  0  0  0  0  0  0  0
  150.6460  145.5705  157.8341 H   0  0  0  0  0  0  0  0  0  0  0  0
  151.7704  145.8012  159.1648 H   0  0  0  0  0  0  0  0  0  0  0  0
  150.2211  145.0161  159.4503 H   0  0  0  0  0  0  0  0  0  0  0  0
  152.5014  143.9335  157.7162 H   0  0  0  0  0  0  0  0  0  0  0  0
  151.8139  142.8608  156.0493 H   0  0  0  0  0  0  0  0  0  0  0  0
  149.1714  141.6158  155.9875 H   0  0  0  0  0  0  0  0  0  0  0  0
  150.2000  141.8852  154.6025 H   0  0  0  0  0  0  0  0  0  0  0  0
  150.8973  139.8430  156.7875 H   0  0  0  0  0  0  0  0  0  0  0  0
  148.9020  138.8335  155.8477 H   0  0  0  0  0  0  0  0  0  0  0  0
  149.2836  139.4476  154.2332 H   0  0  0  0  0  0  0  0  0  0  0  0
  150.8259  137.3616  155.8078 H   0  0  0  0  0  0  0  0  0  0  0  0
  150.2251  137.2118  154.1522 H   0  0  0  0  0  0  0  0  0  0  0  0
  152.8009  138.0543  154.6833 H   0  0  0  0  0  0  0  0  0  0  0  0
  151.8946  138.7219  153.3240 H   0  0  0  0  0  0  0  0  0  0  0  0
  153.3231  141.4298  158.8163 H   0  0  0  0  0  0  0  0  0  0  0  0
  153.9929  141.0235  161.4280 H   0  0  0  0  0  0  0  0  0  0  0  0
  152.7681  143.1457  162.7235 H   0  0  0  0  0  0  0  0  0  0  0  0
  1  2  1  0  0  0  0
  1 17  1  0  0  0  0
  1 18  1  0  0  0  0
  1 19  1  0  0  0  0
  2  3  1  0  0  0  0
  2 12  1  0  0  0  0
  2 20  1  0  0  0  0
  3  4  2  0  0  0  0
  3  5  1  0  0  0  0
  5  6  1  0  0  0  0
  5 21  1  0  0  0  0
  6  7  1  0  0  0  0
  6 22  1  0  0  0  0
  6 23  1  0  0  0  0
  7 11  1  0  0  0  0
  7  8  1  0  0  0  0
  7 24  1  0  0  0  0
  8  9  1  0  0  0  0
  8 25  1  0  0  0  0
  8 26  1  0  0  0  0
  9 10  1  0  0  0  0
  9 27  1  0  0  0  0
  9 28  1  0  0  0  0
 10 11  1  0  0  0  0
 10 29  1  0  0  0  0
 10 30  1  0  0  0  0
 12 16  1  0  0  0  0
 12 13  1  0  0  0  0
 13 14  2  0  0  0  0
 13 31  1  0  0  0  0
 14 15  1  0  0  0  0
 14 32  1  0  0  0  0
 15 16  2  0  0  0  0
 15 33  1  0  0  0  0
M  END
> <s_m_source_file>
AV-unprocessed.smi

> <i_m_source_file_index>
3168

> <i_lp_mmshare_version>
43012

> <i_f3d_flags>
0

> <s_epik_input>
bjFbY0hdW2NIXVtjSF1uMVtDQEhdKFtDSDNdKUMoPU8pW05IXVtDSDJdW0NAQEhdMltDSDJdW0NIMl1bQ0gyXU8y

> <s_epik_cmdline>
J2VwaWtfcHl0aG9uJywgJy1waCcsICc3LjAnLCAnLXRuJywgJzgnLCAnLW1hJywgJzIwMCcsICctbWV0YWxfYmluZGluZycsICctaW1hZScsICc8aW5maWxlLm1hZT4nLCAnLW9tYWUnLCAnPG91dGZpbGUubWFlPic=

> <r_lp_tautomer_probability>
1

> <r_epik_Ionization_Penalty>
4.14877e-05

> <r_epik_Ionization_Penalty_Charging>
0

> <r_epik_Ionization_Penalty_Neutral>
4.14877e-05

> <r_epik_State_Penalty>
-0

> <r_epik_Charging_Adjusted_Penalty>
0

> <i_epik_Tot_Q>
0

> <i_epik_Tot_abs_Q>
0

> <r_epik_Metal_State_Penalty>
-0

> <b_epik_Metal_Only>
0

> <s_lp_Force_Field>
OPLS_2005

> <r_lp_Energy>
21.5397

> <b_lp_Chiralities_Consistent>
1

> <s_lp_Variant>
AV-unprocessed.smi:3168-3

> <Gold.Version>
5.8.1

> <Gold.Id.Protein>
6NUR|6NUR_protein|mol2

> <Gold.PLP.Fitness>
42.0108

> <Gold.PLP.PLP>
-40.0314

> <Gold.PLP.part.hbond>
-1.3965

> <Gold.PLP.part.metal>
0.0000

> <Gold.PLP.part.buried>
-6.4115

> <Gold.PLP.part.nonpolar>
-32.6996

> <Gold.PLP.part.repulsive>
0.3341

> <Gold.PLP.ligand.clash>
0.0000

> <Gold.PLP.ligand.torsion>
0.4076

> <Gold.PLP.Chemscore.Hbond>
0.8968

> <Gold.PLP.Chemscore.CHOScore>
0.0000

> <Gold.PLP.Chemscore.Metal>
0.0000

> <Gold.Chemscore.Hbonds>
donor molecule, donor type, donor heavy atom, donor atom, acceptor molecule, acceptor atom, score
      P1  H  7989  7998       L1    11  0.84

> <Gold.PLP.Chemscore.Internal.Correction>
0.1042

> <Gold.Rescore>
     Score         DG    S(hbond)    S(metal)    S(lipo)     H(rot)  DE(clash)    DE(int)     intcor
     14.11     -14.70       0.92        0.00      87.75       1.61       0.05       0.55       ----

> <Gold.Chemscore.Fitness>
14.1050

> <Gold.Chemscore.DG>
-14.7004

> <Gold.Chemscore.ZeroCoef>
-5.4800

> <Gold.Chemscore.Hbond>
0.9202

> <Gold.Chemscore.Metal>
0.0000

> <Gold.Chemscore.Lipo>
87.7535

> <Gold.Chemscore.Internal_Hbond>
0.0000

> <Gold.Chemscore.DEClash>
0.0467

> <Gold.Chemscore.DEInternal>
0.5487

> <Gold.Chemscore.Rot>
1.6094

> <Gold.Chemscore.Internal.Correction>
   9.000000E+99

> <Gold.Chemscore.Hbonds>
donor molecule, donor type, donor heavy atom, donor atom, acceptor molecule, acceptor atom, score
      P1  H  7989  7998       L1    11  0.08

> <Gold.Chemscore.Hbond.Weighted>
-3.0733

> <Gold.Chemscore.Metal.Weighted>
-0.0000

> <Gold.Chemscore.Lipo.Weighted>
-10.2672

> <Gold.Chemscore.Internal_Hbond.Weighted>
0.0000

> <Gold.Chemscore.DEClash.Weighted>
0.0467

> <Gold.Chemscore.DEInternal.Weighted>
0.5487

> <Gold.Chemscore.Rot.Weighted>
4.1201

> <Gold.Chemscore.Internal.Correction.Weighted>
   9.000000E+99

> <Gold.Protein.RotatedTorsions>
[ 6907 6896 6895 6894 ] final -160.56 input  -60.11 | X-H torsion
[ 7974 7965 7964 7962 ] final -176.86 input  175.53 | X-H torsion
[ 8008 7997 7996 7995 ] final -171.23 input   59.86 | X-H torsion
[ 10167 10162 10161 10158 ] final  135.67 input  -65.29 | X-H torsion
[ 10718 10713 10712 10709 ] final  159.61 input   66.30 | X-H torsion
[ 10763 10752 10751 10750 ] final   79.60 input  -60.55 | X-H torsion
[ 11005 11000 10999 10996 ] final   58.02 input  -57.11 | X-H torsion

> <Gold.Protein.ActiveResidues>
 VAL166  LYS551  ARG553  GLY616  TRP617  ASP618  TYR619  PRO620  LYS621  CYS622 
 ASP623  PHE694  ASN695  SER759  ASP760  ASP761  ALA762  ILE779  LEU786  VAL792 
 PHE793  MET794  SER795  GLU796  ALA797  LYS798  CYS799  TRP800  GLU811  SER814 

> <Gold.Protein.RotatedAtoms>
  151.3510  133.3925  159.2679 H   0  0  0  0  0  0  0  0  0  0  0  0  # atno 6907 bound_to 6896
  150.9801  134.9159  159.7850 H   0  0  0  0  0  0  0  0  0  0  0  0  # atno 6908 bound_to 6896
  152.5214  134.3474  159.9291 H   0  0  0  0  0  0  0  0  0  0  0  0  # atno 6909 bound_to 6896
  144.7127  140.1107  143.6411 H   0  0  0  0  0  0  0  0  0  0  0  0  # atno 7974 bound_to 7965
  155.9289  140.1087  157.1148 H   0  0  0  0  0  0  0  0  0  0  0  0  # atno 8008 bound_to 7997
  154.4067  140.1241  156.4842 H   0  0  0  0  0  0  0  0  0  0  0  0  # atno 8009 bound_to 7997
  155.7105  140.3471  155.4974 H   0  0  0  0  0  0  0  0  0  0  0  0  # atno 8010 bound_to 7997
  139.5208  144.6505  151.5316 H   0  0  0  0  0  0  0  0  0  0  0  0  # atno 10167 bound_to 10162
  157.1618  131.0589  151.2228 H   0  0  0  0  0  0  0  0  0  0  0  0  # atno 10718 bound_to 10713
  153.0966  135.4833  154.8789 H   0  0  0  0  0  0  0  0  0  0  0  0  # atno 10763 bound_to 10752
  154.7331  135.3065  154.8860 H   0  0  0  0  0  0  0  0  0  0  0  0  # atno 10764 bound_to 10752
  153.9490  135.6825  153.4797 H   0  0  0  0  0  0  0  0  0  0  0  0  # atno 10765 bound_to 10752
  140.0409  134.5875  155.9383 H   0  0  0  0  0  0  0  0  0  0  0  0  # atno 11005 bound_to 11000
  145.9457  139.2699  143.1242 LP  0  0  0  0  0  0  0  0  0  0  0  0  # atno 17320 bound_to 7965
  145.9376  140.9003  143.0324 LP  0  0  0  0  0  0  0  0  0  0  0  0  # atno 17321 bound_to 7965
  140.6308  143.9080  150.6603 LP  0  0  0  0  0  0  0  0  0  0  0  0  # atno 17342 bound_to 10162
  140.2384  143.3682  152.1507 LP  0  0  0  0  0  0  0  0  0  0  0  0  # atno 17343 bound_to 10162
  157.4126  130.7393  149.6850 LP  0  0  0  0  0  0  0  0  0  0  0  0  # atno 17370 bound_to 10713
  155.9752  130.4091  150.3863 LP  0  0  0  0  0  0  0  0  0  0  0  0  # atno 17371 bound_to 10713
  141.1882  133.6562  156.5315 LP  0  0  0  0  0  0  0  0  0  0  0  0  # atno 17394 bound_to 11000
  140.4071  134.7305  157.4814 LP  0  0  0  0  0  0  0  0  0  0  0  0  # atno 17395 bound_to 11000

$$$$
