AV-unprocessed.smi:1603|AV-procd|sdf|6445|dock2
  -GOLD-   22720 7 93D 1   1.00000     0.00000
 Structure written by MMmdl.
 44 46  0  0  0  0  0  0  0  0  1 V2000
  152.7029  136.8174  159.7684 O   0  0  0  0  0  0  0  0  0  0  0  0
  152.8811  138.0351  159.8108 C   0  0  0  0  0  0  0  0  0  0  0  0
  153.7387  138.6917  160.8093 C   0  0  0  0  0  0  0  0  0  0  0  0
  154.4598  137.8085  161.8242 C   0  0  0  0  0  0  0  0  0  0  0  0
  155.2960  138.5141  162.5871 F   0  0  0  0  0  0  0  0  0  0  0  0
  153.5817  137.2076  162.6279 F   0  0  0  0  0  0  0  0  0  0  0  0
  155.1711  136.8655  161.2046 F   0  0  0  0  0  0  0  0  0  0  0  0
  153.8793  140.0396  160.8041 C   0  0  0  0  0  0  0  0  0  0  0  0
  153.1821  140.8435  159.8212 C   0  0  0  0  0  0  0  0  0  0  0  0
  153.2754  142.3416  159.7691 C   0  0  0  0  0  0  0  0  0  0  0  0
  152.0981  143.2353  160.0871 C   0  0  0  0  0  0  0  0  0  0  0  0
  152.6138  143.1391  158.6695 C   0  0  0  0  0  0  0  0  0  0  0  0
  152.4391  140.2643  158.9395 N   0  0  0  0  0  0  0  0  0  0  0  0
  152.2958  138.8903  158.9202 N   0  0  0  0  0  0  0  0  0  0  0  0
  151.4263  138.4061  157.8382 C   0  0  0  0  0  0  0  0  0  0  0  0
  151.8907  138.8901  156.4463 C   0  0  2  0  0  0  0  0  0  0  0  0
  153.3043  138.8661  156.4468 O   0  0  0  0  0  0  0  0  0  0  0  0
  151.4148  140.3176  156.0917 C   0  0  0  0  0  0  0  0  0  0  0  0
  150.3877  140.3900  155.0533 N   0  0  0  0  0  0  0  0  0  0  0  0
  149.5286  139.2112  155.0845 C   0  0  0  0  0  0  0  0  0  0  0  0
  148.4401  139.2642  153.9986 C   0  0  0  0  0  0  0  0  0  0  0  0
  147.6702  140.4516  154.1551 O   0  0  0  0  0  0  0  0  0  0  0  0
  148.4629  141.6325  154.0867 C   0  0  0  0  0  0  0  0  0  0  0  0
  149.5569  141.5864  155.1680 C   0  0  0  0  0  0  0  0  0  0  0  0
  154.5087  140.5386  161.5257 H   0  0  0  0  0  0  0  0  0  0  0  0
  154.2539  142.6786  160.1063 H   0  0  0  0  0  0  0  0  0  0  0  0
  151.1372  142.7697  160.2983 H   0  0  0  0  0  0  0  0  0  0  0  0
  152.2997  144.1544  160.6336 H   0  0  0  0  0  0  0  0  0  0  0  0
  153.1588  143.9931  158.2726 H   0  0  0  0  0  0  0  0  0  0  0  0
  151.9979  142.6036  157.9492 H   0  0  0  0  0  0  0  0  0  0  0  0
  151.3229  137.3197  157.8428 H   0  0  0  0  0  0  0  0  0  0  0  0
  150.4203  138.7832  158.0331 H   0  0  0  0  0  0  0  0  0  0  0  0
  151.5468  138.1817  155.6911 H   0  0  0  0  0  0  0  0  0  0  0  0
  153.5916  138.1324  156.9684 H   0  0  0  0  0  0  0  0  0  0  0  0
  150.9934  140.7650  156.9903 H   0  0  0  0  0  0  0  0  0  0  0  0
  152.2650  140.9513  155.8340 H   0  0  0  0  0  0  0  0  0  0  0  0
  150.1286  138.3110  154.9472 H   0  0  0  0  0  0  0  0  0  0  0  0
  149.0551  139.1241  156.0637 H   0  0  0  0  0  0  0  0  0  0  0  0
  148.8857  139.2385  153.0030 H   0  0  0  0  0  0  0  0  0  0  0  0
  147.7818  138.3993  154.0786 H   0  0  0  0  0  0  0  0  0  0  0  0
  148.9058  141.7235  153.0935 H   0  0  0  0  0  0  0  0  0  0  0  0
  147.8219  142.5019  154.2327 H   0  0  0  0  0  0  0  0  0  0  0  0
  149.0922  141.6208  156.1546 H   0  0  0  0  0  0  0  0  0  0  0  0
  150.1717  142.4819  155.0806 H   0  0  0  0  0  0  0  0  0  0  0  0
  1  2  2  0  0  0  0
  2 14  1  0  0  0  0
  2  3  1  0  0  0  0
  3  4  1  0  0  0  0
  3  8  2  0  0  0  0
  4  5  1  0  0  0  0
  4  6  1  0  0  0  0
  4  7  1  0  0  0  0
  8  9  1  0  0  0  0
  8 25  1  0  0  0  0
  9 10  1  0  0  0  0
  9 13  2  0  0  0  0
 10 12  1  0  0  0  0
 10 11  1  0  0  0  0
 10 26  1  0  0  0  0
 11 12  1  0  0  0  0
 11 27  1  0  0  0  0
 11 28  1  0  0  0  0
 12 29  1  0  0  0  0
 12 30  1  0  0  0  0
 13 14  1  0  0  0  0
 14 15  1  0  0  0  0
 15 16  1  0  0  0  0
 15 31  1  0  0  0  0
 15 32  1  0  0  0  0
 16 17  1  0  0  0  0
 16 18  1  0  0  0  0
 16 33  1  0  0  0  0
 17 34  1  0  0  0  0
 18 19  1  0  0  0  0
 18 35  1  0  0  0  0
 18 36  1  0  0  0  0
 19 24  1  0  0  0  0
 19 20  1  0  0  0  0
 20 21  1  0  0  0  0
 20 37  1  0  0  0  0
 20 38  1  0  0  0  0
 21 22  1  0  0  0  0
 21 39  1  0  0  0  0
 21 40  1  0  0  0  0
 22 23  1  0  0  0  0
 23 24  1  0  0  0  0
 23 41  1  0  0  0  0
 23 42  1  0  0  0  0
 24 43  1  0  0  0  0
 24 44  1  0  0  0  0
M  END
> <s_m_source_file>
AV-unprocessed.smi

> <i_m_source_file_index>
1603

> <i_lp_mmshare_version>
43012

> <i_f3d_flags>
0

> <s_epik_input>
Tz1jMWMoQyhGKShGKUYpW2NIXWMoW0NIXTJbQ0gyXVtDSDJdMilubjFbQ0gyXVtDQEhdKFtPSF0pW0NIMl1OM1tDSDJdW0NIMl1PW0NIMl1bQ0gyXTM=

> <s_epik_cmdline>
J2VwaWtfcHl0aG9uJywgJy1waCcsICc3LjAnLCAnLXRuJywgJzgnLCAnLW1hJywgJzIwMCcsICctbWV0YWxfYmluZGluZycsICctaW1hZScsICc8aW5maWxlLm1hZT4nLCAnLW9tYWUnLCAnPG91dGZpbGUubWFlPic=

> <r_lp_tautomer_probability>
1

> <r_epik_Ionization_Penalty>
0.450313

> <r_epik_Ionization_Penalty_Charging>
7.22079e-10

> <r_epik_Ionization_Penalty_Neutral>
0.450313

> <r_epik_State_Penalty>
0.45306

> <r_epik_Charging_Adjusted_Penalty>
0.45306

> <i_epik_Tot_Q>
0

> <i_epik_Tot_abs_Q>
0

> <r_epik_Metal_State_Penalty>
0.45306

> <b_epik_Metal_Only>
0

> <s_lp_Force_Field>
OPLS_2005

> <r_lp_Energy>
49.46

> <b_lp_Chiralities_Consistent>
1

> <s_lp_Variant>
AV-unprocessed.smi:1603-3

> <Gold.Version>
5.8.1

> <Gold.Id.Protein>
6NUR|6NUR_protein|mol2

> <Gold.PLP.Fitness>
50.1770

> <Gold.PLP.PLP>
-44.1483

> <Gold.PLP.part.hbond>
-2.6366

> <Gold.PLP.part.metal>
0.0000

> <Gold.PLP.part.buried>
-3.3884

> <Gold.PLP.part.nonpolar>
-38.8396

> <Gold.PLP.part.repulsive>
0.1954

> <Gold.PLP.ligand.clash>
0.4886

> <Gold.PLP.ligand.torsion>
1.4443

> <Gold.PLP.Chemscore.Hbond>
2.8688

> <Gold.PLP.Chemscore.CHOScore>
0.0000

> <Gold.PLP.Chemscore.Metal>
0.0000

> <Gold.Chemscore.Hbonds>
donor molecule, donor type, donor heavy atom, donor atom, acceptor molecule, acceptor atom, score
      P1  H  6896  6908       L1     1  1.00
      P1  H  7989  7998       L1    19  0.81
      P1  H  7997  8009       L1    17  0.99

> <Gold.PLP.Chemscore.Internal.Correction>
0.7994

> <Gold.Rescore>
     Score         DG    S(hbond)    S(metal)    S(lipo)     H(rot)  DE(clash)    DE(int)     intcor
     13.66     -17.87       1.92        0.00     104.23       2.43       0.01       4.20       ----

> <Gold.Chemscore.Fitness>
13.6605

> <Gold.Chemscore.DG>
-17.8674

> <Gold.Chemscore.ZeroCoef>
-5.4800

> <Gold.Chemscore.Hbond>
1.9179

> <Gold.Chemscore.Metal>
0.0000

> <Gold.Chemscore.Lipo>
104.2327

> <Gold.Chemscore.Internal_Hbond>
0.0000

> <Gold.Chemscore.DEClash>
0.0110

> <Gold.Chemscore.DEInternal>
4.1958

> <Gold.Chemscore.Rot>
2.4272

> <Gold.Chemscore.Internal.Correction>
   9.000000E+99

> <Gold.Chemscore.Hbonds>
donor molecule, donor type, donor heavy atom, donor atom, acceptor molecule, acceptor atom, score
      P1  H  6896  6908       L1     1  0.98
      P1  H  7989  7998       L1    19  0.04
      P1  H  7997  8009       L1    17  0.86

> <Gold.Chemscore.Hbond.Weighted>
-6.4057

> <Gold.Chemscore.Metal.Weighted>
-0.0000

> <Gold.Chemscore.Lipo.Weighted>
-12.1952

> <Gold.Chemscore.Internal_Hbond.Weighted>
0.0000

> <Gold.Chemscore.DEClash.Weighted>
0.0110

> <Gold.Chemscore.DEInternal.Weighted>
4.1958

> <Gold.Chemscore.Rot.Weighted>
6.2135

> <Gold.Chemscore.Internal.Correction.Weighted>
   9.000000E+99

> <Gold.Protein.RotatedTorsions>
[ 6907 6896 6895 6894 ] final -112.70 input  -60.11 | X-H torsion
[ 7974 7965 7964 7962 ] final -173.83 input  175.53 | X-H torsion
[ 8008 7997 7996 7995 ] final -159.12 input   59.86 | X-H torsion
[ 10167 10162 10161 10158 ] final -141.75 input  -65.29 | X-H torsion
[ 10718 10713 10712 10709 ] final   68.02 input   66.30 | X-H torsion
[ 10763 10752 10751 10750 ] final -155.82 input  -60.55 | X-H torsion
[ 11005 11000 10999 10996 ] final  145.12 input  -57.11 | X-H torsion

> <Gold.Protein.ActiveResidues>
 VAL166  LYS551  ARG553  GLY616  TRP617  ASP618  TYR619  PRO620  LYS621  CYS622 
 ASP623  PHE694  ASN695  SER759  ASP760  ASP761  ALA762  ILE779  LEU786  VAL792 
 PHE793  MET794  SER795  GLU796  ALA797  LYS798  CYS799  TRP800  GLU811  SER814 

> <Gold.Protein.RotatedAtoms>
  150.7777  133.9052  159.3352 H   0  0  0  0  0  0  0  0  0  0  0  0  # atno 6907 bound_to 6896
  151.6922  135.0942  160.0245 H   0  0  0  0  0  0  0  0  0  0  0  0  # atno 6908 bound_to 6896
  152.3818  133.6518  159.6202 H   0  0  0  0  0  0  0  0  0  0  0  0  # atno 6909 bound_to 6896
  144.7135  140.1563  143.6380 H   0  0  0  0  0  0  0  0  0  0  0  0  # atno 7974 bound_to 7965
  155.7577  140.0835  157.2170 H   0  0  0  0  0  0  0  0  0  0  0  0  # atno 8008 bound_to 7997
  154.4006  140.1548  156.2853 H   0  0  0  0  0  0  0  0  0  0  0  0  # atno 8009 bound_to 7997
  155.8869  140.3417  155.5931 H   0  0  0  0  0  0  0  0  0  0  0  0  # atno 8010 bound_to 7997
  139.8155  143.7645  152.2665 H   0  0  0  0  0  0  0  0  0  0  0  0  # atno 10167 bound_to 10162
  157.6264  130.9351  150.0320 H   0  0  0  0  0  0  0  0  0  0  0  0  # atno 10718 bound_to 10713
  154.7759  135.3159  154.8093 H   0  0  0  0  0  0  0  0  0  0  0  0  # atno 10763 bound_to 10752
  153.8817  135.6834  153.4771 H   0  0  0  0  0  0  0  0  0  0  0  0  # atno 10764 bound_to 10752
  153.1383  135.4750  154.9392 H   0  0  0  0  0  0  0  0  0  0  0  0  # atno 10765 bound_to 10752
  140.0686  134.9164  157.1307 H   0  0  0  0  0  0  0  0  0  0  0  0  # atno 11005 bound_to 11000
  145.9071  139.2464  143.1459 LP  0  0  0  0  0  0  0  0  0  0  0  0  # atno 17320 bound_to 7965
  145.9753  140.8727  143.0141 LP  0  0  0  0  0  0  0  0  0  0  0  0  # atno 17321 bound_to 7965
  139.7807  144.7445  151.0092 LP  0  0  0  0  0  0  0  0  0  0  0  0  # atno 17342 bound_to 10162
  140.7816  143.4545  151.0365 LP  0  0  0  0  0  0  0  0  0  0  0  0  # atno 17343 bound_to 10162
  156.1440  130.3642  149.9539 LP  0  0  0  0  0  0  0  0  0  0  0  0  # atno 17370 bound_to 10713
  156.7574  130.9138  151.3640 LP  0  0  0  0  0  0  0  0  0  0  0  0  # atno 17371 bound_to 10713
  140.3661  134.2441  155.7182 LP  0  0  0  0  0  0  0  0  0  0  0  0  # atno 17394 bound_to 11000
  141.2003  133.7991  157.0496 LP  0  0  0  0  0  0  0  0  0  0  0  0  # atno 17395 bound_to 11000

$$$$
