AV-unprocessed.smi:1840|AV-procd|sdf|7494|dock2
  -GOLD-   22720 9193D 1   1.00000     0.00000
 Structure written by MMmdl.
 43 44  0  0  0  0  0  0  0  0  1 V2000
  146.7870  139.5986  151.4355 C   0  0  0  0  0  0  0  0  0  0  0  0
  146.2493  138.7264  152.5781 C   0  0  2  0  0  0  0  0  0  0  0  0
  146.8667  139.1304  153.9334 C   0  0  0  0  0  0  0  0  0  0  0  0
  146.7703  140.5576  154.1873 N   0  0  0  0  0  0  0  0  0  0  0  0
  147.5076  141.5788  153.6263 C   0  0  0  0  0  0  0  0  0  0  0  0
  147.0512  142.7500  154.1595 C   0  0  0  0  0  0  0  0  0  0  0  0
  146.0255  142.3360  155.0545 C   0  0  0  0  0  0  0  0  0  0  0  0
  145.8604  141.0234  155.0703 N   0  0  0  0  0  0  0  0  0  0  0  0
  146.5286  137.3218  152.2799 N   0  0  0  0  0  0  0  0  0  0  0  0
  145.6298  136.3266  152.2963 C   0  0  0  0  0  0  0  0  0  0  0  0
  144.4317  136.4808  152.5352 O   0  0  0  0  0  0  0  0  0  0  0  0
  146.2004  135.1407  152.0386 N   0  0  0  0  0  0  0  0  0  0  0  0
  145.5093  133.8527  151.9836 C   0  0  1  0  0  0  0  0  0  0  0  0
  144.4554  133.9046  150.8598 C   0  0  0  0  0  0  0  0  0  0  0  0
  143.7174  132.5663  150.7114 C   0  0  0  0  0  0  0  0  0  0  0  0
  144.7065  131.4168  150.4766 C   0  0  0  0  0  0  0  0  0  0  0  0
  145.7532  131.3523  151.5992 C   0  0  0  0  0  0  0  0  0  0  0  0
  146.5088  132.6874  151.7596 C   0  0  2  0  0  0  0  0  0  0  0  0
  147.5630  132.5780  152.8757 C   0  0  0  0  0  0  0  0  0  0  0  0
  146.5706  140.6528  151.6117 H   0  0  0  0  0  0  0  0  0  0  0  0
  146.3307  139.3243  150.4838 H   0  0  0  0  0  0  0  0  0  0  0  0
  147.8674  139.4943  151.3296 H   0  0  0  0  0  0  0  0  0  0  0  0
  145.1711  138.8904  152.6265 H   0  0  0  0  0  0  0  0  0  0  0  0
  146.3887  138.5861  154.7497 H   0  0  0  0  0  0  0  0  0  0  0  0
  147.9230  138.8602  153.9575 H   0  0  0  0  0  0  0  0  0  0  0  0
  148.2812  141.3890  152.8968 H   0  0  0  0  0  0  0  0  0  0  0  0
  147.3964  143.7496  153.9420 H   0  0  0  0  0  0  0  0  0  0  0  0
  145.3977  142.9463  155.6871 H   0  0  0  0  0  0  0  0  0  0  0  0
  147.4886  137.0866  152.0753 H   0  0  0  0  0  0  0  0  0  0  0  0
  147.1952  135.1244  151.8677 H   0  0  0  0  0  0  0  0  0  0  0  0
  144.9805  133.6758  152.9224 H   0  0  0  0  0  0  0  0  0  0  0  0
  143.7340  134.6979  151.0603 H   0  0  0  0  0  0  0  0  0  0  0  0
  144.9354  134.1574  149.9131 H   0  0  0  0  0  0  0  0  0  0  0  0
  143.1315  132.3691  151.6100 H   0  0  0  0  0  0  0  0  0  0  0  0
  143.0085  132.6220  149.8849 H   0  0  0  0  0  0  0  0  0  0  0  0
  144.1686  130.4705  150.4145 H   0  0  0  0  0  0  0  0  0  0  0  0
  145.2065  131.5525  149.5167 H   0  0  0  0  0  0  0  0  0  0  0  0
  145.2618  131.0929  152.5380 H   0  0  0  0  0  0  0  0  0  0  0  0
  146.4583  130.5473  151.3896 H   0  0  0  0  0  0  0  0  0  0  0  0
  147.0439  132.8754  150.8272 H   0  0  0  0  0  0  0  0  0  0  0  0
  147.0950  132.4550  153.8529 H   0  0  0  0  0  0  0  0  0  0  0  0
  148.1936  133.4654  152.9173 H   0  0  0  0  0  0  0  0  0  0  0  0
  148.2222  131.7252  152.7122 H   0  0  0  0  0  0  0  0  0  0  0  0
  1  2  1  0  0  0  0
  1 20  1  0  0  0  0
  1 21  1  0  0  0  0
  1 22  1  0  0  0  0
  2  3  1  0  0  0  0
  2  9  1  0  0  0  0
  2 23  1  0  0  0  0
  3  4  1  0  0  0  0
  3 24  1  0  0  0  0
  3 25  1  0  0  0  0
  4  8  1  0  0  0  0
  4  5  1  0  0  0  0
  5  6  2  0  0  0  0
  5 26  1  0  0  0  0
  6  7  1  0  0  0  0
  6 27  1  0  0  0  0
  7  8  2  0  0  0  0
  7 28  1  0  0  0  0
  9 10  1  0  0  0  0
  9 29  1  0  0  0  0
 10 11  2  0  0  0  0
 10 12  1  0  0  0  0
 12 13  1  0  0  0  0
 12 30  1  0  0  0  0
 13 18  1  0  0  0  0
 13 14  1  0  0  0  0
 13 31  1  0  0  0  0
 14 15  1  0  0  0  0
 14 32  1  0  0  0  0
 14 33  1  0  0  0  0
 15 16  1  0  0  0  0
 15 34  1  0  0  0  0
 15 35  1  0  0  0  0
 16 17  1  0  0  0  0
 16 36  1  0  0  0  0
 16 37  1  0  0  0  0
 17 18  1  0  0  0  0
 17 38  1  0  0  0  0
 17 39  1  0  0  0  0
 18 19  1  0  0  0  0
 18 40  1  0  0  0  0
 19 41  1  0  0  0  0
 19 42  1  0  0  0  0
 19 43  1  0  0  0  0
M  END
> <s_m_source_file>
AV-unprocessed.smi

> <i_m_source_file_index>
1840

> <i_lp_mmshare_version>
43012

> <i_f3d_flags>
0

> <s_epik_input>
bjFbY0hdW2NIXVtjSF1uMVtDSDJdW0NAQEhdKFtDSDNdKVtOSF1DKD1PKVtOSF1bQ0BASF0yW0NIMl1bQ0gyXVtDSDJdW0NIMl1bQ0BIXTJbQ0gzXQ==

> <s_epik_cmdline>
J2VwaWtfcHl0aG9uJywgJy1waCcsICc3LjAnLCAnLXRuJywgJzgnLCAnLW1hJywgJzIwMCcsICctbWV0YWxfYmluZGluZycsICctaW1hZScsICc8aW5maWxlLm1hZT4nLCAnLW9tYWUnLCAnPG91dGZpbGUubWFlPic=

> <r_lp_tautomer_probability>
1

> <r_epik_Ionization_Penalty>
7.38659e-05

> <r_epik_Ionization_Penalty_Charging>
0

> <r_epik_Ionization_Penalty_Neutral>
7.38659e-05

> <r_epik_State_Penalty>
-0

> <r_epik_Charging_Adjusted_Penalty>
0

> <i_epik_Tot_Q>
0

> <i_epik_Tot_abs_Q>
0

> <r_epik_Metal_State_Penalty>
-0

> <b_epik_Metal_Only>
0

> <s_lp_Force_Field>
OPLS_2005

> <r_lp_Energy>
7.66905

> <b_lp_Chiralities_Consistent>
1

> <s_lp_Variant>
AV-unprocessed.smi:1840-7

> <Gold.Version>
5.8.1

> <Gold.Id.Protein>
6NUR|6NUR_protein|mol2

> <Gold.PLP.Fitness>
42.5811

> <Gold.PLP.PLP>
-34.3608

> <Gold.PLP.part.hbond>
-2.0000

> <Gold.PLP.part.metal>
0.0000

> <Gold.PLP.part.buried>
-1.0553

> <Gold.PLP.part.nonpolar>
-31.7579

> <Gold.PLP.part.repulsive>
0.3501

> <Gold.PLP.ligand.clash>
0.0000

> <Gold.PLP.ligand.torsion>
0.3261

> <Gold.PLP.Chemscore.Hbond>
1.9440

> <Gold.PLP.Chemscore.CHOScore>
1.0000

> <Gold.PLP.Chemscore.Metal>
0.0000

> <Gold.Chemscore.Hbonds>
donor molecule, donor type, donor heavy atom, donor atom, acceptor molecule, acceptor atom, score
      L1  H     9    29       P1  7948  1.00
      L1  H    12    30       P1  7948  0.94
      L1  C     5    26       P1  7957  0.95

> <Gold.PLP.Chemscore.Internal.Correction>
0.0405

> <Gold.Rescore>
     Score         DG    S(hbond)    S(metal)    S(lipo)     H(rot)  DE(clash)    DE(int)     intcor
     16.73     -18.40       1.89        0.00      90.41       1.56       1.28       0.40       ----

> <Gold.Chemscore.Fitness>
16.7262

> <Gold.Chemscore.DG>
-18.3974

> <Gold.Chemscore.ZeroCoef>
-5.4800

> <Gold.Chemscore.Hbond>
1.8942

> <Gold.Chemscore.Metal>
0.0000

> <Gold.Chemscore.Lipo>
90.4134

> <Gold.Chemscore.Internal_Hbond>
0.0000

> <Gold.Chemscore.DEClash>
1.2753

> <Gold.Chemscore.DEInternal>
0.3958

> <Gold.Chemscore.Rot>
1.5576

> <Gold.Chemscore.Internal.Correction>
   9.000000E+99

> <Gold.Chemscore.Hbonds>
donor molecule, donor type, donor heavy atom, donor atom, acceptor molecule, acceptor atom, score
      L1  H     9    29       P1  7948  1.00
      L1  H    12    30       P1  7948  0.81

> <Gold.Chemscore.Hbond.Weighted>
-6.3265

> <Gold.Chemscore.Metal.Weighted>
-0.0000

> <Gold.Chemscore.Lipo.Weighted>
-10.5784

> <Gold.Chemscore.Internal_Hbond.Weighted>
0.0000

> <Gold.Chemscore.DEClash.Weighted>
1.2753

> <Gold.Chemscore.DEInternal.Weighted>
0.3958

> <Gold.Chemscore.Rot.Weighted>
3.9875

> <Gold.Chemscore.Internal.Correction.Weighted>
   9.000000E+99

> <Gold.Protein.RotatedTorsions>
[ 6907 6896 6895 6894 ] final -108.64 input  -60.11 | X-H torsion
[ 7974 7965 7964 7962 ] final  107.09 input  175.53 | X-H torsion
[ 8008 7997 7996 7995 ] final   20.17 input   59.86 | X-H torsion
[ 10167 10162 10161 10158 ] final   -1.64 input  -65.29 | X-H torsion
[ 10718 10713 10712 10709 ] final  -85.38 input   66.30 | X-H torsion
[ 10763 10752 10751 10750 ] final  154.82 input  -60.55 | X-H torsion
[ 11005 11000 10999 10996 ] final -135.91 input  -57.11 | X-H torsion

> <Gold.Protein.ActiveResidues>
 VAL166  LYS551  ARG553  GLY616  TRP617  ASP618  TYR619  PRO620  LYS621  CYS622 
 ASP623  PHE694  ASN695  SER759  ASP760  ASP761  ALA762  ILE779  LEU786  VAL792 
 PHE793  MET794  SER795  GLU796  ALA797  LYS798  CYS799  TRP800  GLU811  SER814 

> <Gold.Protein.RotatedAtoms>
  150.7514  133.9647  159.3526 H   0  0  0  0  0  0  0  0  0  0  0  0  # atno 6907 bound_to 6896
  151.7576  135.0816  160.0350 H   0  0  0  0  0  0  0  0  0  0  0  0  # atno 6908 bound_to 6896
  152.3425  133.6046  159.5922 H   0  0  0  0  0  0  0  0  0  0  0  0  # atno 6909 bound_to 6896
  145.2982  139.2578  143.3828 H   0  0  0  0  0  0  0  0  0  0  0  0  # atno 7974 bound_to 7965
  154.9316  140.3041  155.5165 H   0  0  0  0  0  0  0  0  0  0  0  0  # atno 8008 bound_to 7997
  156.3003  140.2353  156.4313 H   0  0  0  0  0  0  0  0  0  0  0  0  # atno 8009 bound_to 7997
  154.8232  140.0422  157.1414 H   0  0  0  0  0  0  0  0  0  0  0  0  # atno 8010 bound_to 7997
  140.6818  143.6751  150.8152 H   0  0  0  0  0  0  0  0  0  0  0  0  # atno 10167 bound_to 10162
  155.9997  130.4729  150.4553 H   0  0  0  0  0  0  0  0  0  0  0  0  # atno 10718 bound_to 10713
  154.1585  135.2811  155.3115 H   0  0  0  0  0  0  0  0  0  0  0  0  # atno 10763 bound_to 10752
  154.6165  135.5481  153.7532 H   0  0  0  0  0  0  0  0  0  0  0  0  # atno 10764 bound_to 10752
  153.0199  135.6428  154.1727 H   0  0  0  0  0  0  0  0  0  0  0  0  # atno 10765 bound_to 10752
  140.8854  134.1879  157.4563 H   0  0  0  0  0  0  0  0  0  0  0  0  # atno 11005 bound_to 11000
  146.3161  140.3489  142.8654 LP  0  0  0  0  0  0  0  0  0  0  0  0  # atno 17320 bound_to 7965
  144.9116  140.7763  143.5804 LP  0  0  0  0  0  0  0  0  0  0  0  0  # atno 17321 bound_to 7965
  140.0453  143.5305  152.2699 LP  0  0  0  0  0  0  0  0  0  0  0  0  # atno 17342 bound_to 10162
  139.6147  144.7616  151.2874 LP  0  0  0  0  0  0  0  0  0  0  0  0  # atno 17343 bound_to 10162
  157.2582  131.0561  151.2337 LP  0  0  0  0  0  0  0  0  0  0  0  0  # atno 17370 bound_to 10713
  157.3461  130.7058  149.6411 LP  0  0  0  0  0  0  0  0  0  0  0  0  # atno 17371 bound_to 10713
  139.8724  134.9835  156.5203 LP  0  0  0  0  0  0  0  0  0  0  0  0  # atno 17394 bound_to 11000
  140.8411  133.8204  155.9076 LP  0  0  0  0  0  0  0  0  0  0  0  0  # atno 17395 bound_to 11000

$$$$
