AV-unprocessed.smi:1047|AV-procd|sdf|4565|dock8
  -GOLD-   22720 3 13D 1   1.00000     0.00000
 Structure written by MMmdl.
 57 59  0  0  0  0  0  0  0  0  3 V2000
  142.7601  137.2305  152.6498 C   0  0  0  0  0  0  0  0  0  0  0  0
  143.5740  136.1315  153.3472 C   0  0  0  0  0  0  0  0  0  0  0  0
  144.8928  135.9005  152.6991 N   0  3  2  0  0  0  0  0  0  0  0  0
  145.7766  134.9885  153.4653 C   0  0  0  0  0  0  0  0  0  0  0  0
  146.4322  135.7170  154.6518 C   0  0  0  0  0  0  0  0  0  0  0  0
  147.1466  136.8508  154.1736 O   0  0  0  0  0  0  0  0  0  0  0  0
  146.3015  137.8042  153.5368 C   0  0  1  0  0  0  0  0  0  0  0  0
  147.1676  139.0028  153.1201 C   0  0  0  0  0  0  0  0  0  0  0  0
  148.6052  138.6654  153.1530 N   0  3  0  0  0  0  0  0  0  0  0  0
  149.2762  139.0157  154.4204 C   0  0  0  0  0  0  0  0  0  0  0  0
  150.0022  140.3702  154.3149 C   0  0  1  0  0  0  0  0  0  0  0  0
  149.4683  141.0801  153.2141 O   0  0  0  0  0  0  0  0  0  0  0  0
  149.8795  141.2381  155.5867 C   0  0  0  0  0  0  0  0  0  0  0  0
  150.8757  140.9306  156.6004 N   0  0  0  0  0  0  0  0  0  0  0  0
  151.7250  139.8846  156.6142 C   0  0  0  0  0  0  0  0  0  0  0  0
  152.5662  139.7960  157.6399 N   0  0  0  0  0  0  0  0  0  0  0  0
  152.2175  140.9096  158.3840 C   0  0  0  0  0  0  0  0  0  0  0  0
  152.7369  141.3968  159.6031 C   0  0  0  0  0  0  0  0  0  0  0  0
  152.2218  142.5734  160.1920 C   0  0  0  0  0  0  0  0  0  0  0  0
  152.8098  143.0606  161.5045 C   0  0  0  0  0  0  0  0  0  0  0  0
  151.1686  143.2819  159.5600 C   0  0  0  0  0  0  0  0  0  0  0  0
  150.5976  144.5471  160.1756 C   0  0  0  0  0  0  0  0  0  0  0  0
  150.6372  142.8085  158.3422 C   0  0  0  0  0  0  0  0  0  0  0  0
  151.1601  141.6378  157.7644 C   0  0  0  0  0  0  0  0  0  0  0  0
  145.6280  137.1344  152.3174 C   0  0  0  0  0  0  0  0  0  0  0  0
  141.7630  137.3011  153.0849 H   0  0  0  0  0  0  0  0  0  0  0  0
  142.6399  137.0183  151.5870 H   0  0  0  0  0  0  0  0  0  0  0  0
  143.2230  138.2117  152.7486 H   0  0  0  0  0  0  0  0  0  0  0  0
  143.6921  136.3599  154.4062 H   0  0  0  0  0  0  0  0  0  0  0  0
  142.9908  135.2109  153.2978 H   0  0  0  0  0  0  0  0  0  0  0  0
  145.2269  134.1096  153.8044 H   0  0  0  0  0  0  0  0  0  0  0  0
  146.5548  134.6212  152.7947 H   0  0  0  0  0  0  0  0  0  0  0  0
  145.6901  136.0205  155.3918 H   0  0  0  0  0  0  0  0  0  0  0  0
  147.1302  135.0512  155.1594 H   0  0  0  0  0  0  0  0  0  0  0  0
  145.5420  138.1482  154.2405 H   0  0  0  0  0  0  0  0  0  0  0  0
  146.8918  139.3378  152.1190 H   0  0  0  0  0  0  0  0  0  0  0  0
  146.9930  139.8395  153.7977 H   0  0  0  0  0  0  0  0  0  0  0  0
  148.7153  137.6744  152.9934 H   0  0  0  0  0  0  0  0  0  0  0  0
  148.5414  139.0327  155.2269 H   0  0  0  0  0  0  0  0  0  0  0  0
  149.9948  138.2305  154.6577 H   0  0  0  0  0  0  0  0  0  0  0  0
  151.0617  140.1994  154.1199 H   0  0  0  0  0  0  0  0  0  0  0  0
  149.2793  140.4652  152.5208 H   0  0  0  0  0  0  0  0  0  0  0  0
  149.9746  142.2923  155.3243 H   0  0  0  0  0  0  0  0  0  0  0  0
  148.8887  141.1248  156.0294 H   0  0  0  0  0  0  0  0  0  0  0  0
  151.7306  139.1497  155.8224 H   0  0  0  0  0  0  0  0  0  0  0  0
  153.5383  140.8562  160.0851 H   0  0  0  0  0  0  0  0  0  0  0  0
  152.0405  143.1016  162.2759 H   0  0  0  0  0  0  0  0  0  0  0  0
  153.2357  144.0572  161.3858 H   0  0  0  0  0  0  0  0  0  0  0  0
  153.6012  142.3984  161.8570 H   0  0  0  0  0  0  0  0  0  0  0  0
  149.8056  144.9689  159.5562 H   0  0  0  0  0  0  0  0  0  0  0  0
  151.3747  145.3039  160.2860 H   0  0  0  0  0  0  0  0  0  0  0  0
  150.1767  144.3364  161.1589 H   0  0  0  0  0  0  0  0  0  0  0  0
  149.8332  143.3381  157.8535 H   0  0  0  0  0  0  0  0  0  0  0  0
  146.3938  136.8545  151.5925 H   0  0  0  0  0  0  0  0  0  0  0  0
  144.9728  137.8368  151.8041 H   0  0  0  0  0  0  0  0  0  0  0  0
  149.0693  139.1663  152.4079 H   0  0  0  0  0  0  0  0  0  0  0  0
  144.6786  135.4149  151.8391 H   0  0  0  0  0  0  0  0  0  0  0  0
  1  2  1  0  0  0  0
  1 26  1  0  0  0  0
  1 27  1  0  0  0  0
  1 28  1  0  0  0  0
  2  3  1  0  0  0  0
  2 29  1  0  0  0  0
  2 30  1  0  0  0  0
  3 25  1  0  0  0  0
  3  4  1  0  0  0  0
  3 57  1  0  0  0  0
  4  5  1  0  0  0  0
  4 31  1  0  0  0  0
  4 32  1  0  0  0  0
  5  6  1  0  0  0  0
  5 33  1  0  0  0  0
  5 34  1  0  0  0  0
  6  7  1  0  0  0  0
  7  8  1  0  0  0  0
  7 25  1  0  0  0  0
  7 35  1  0  0  0  0
  8  9  1  0  0  0  0
  8 36  1  0  0  0  0
  8 37  1  0  0  0  0
  9 10  1  0  0  0  0
  9 38  1  0  0  0  0
  9 56  1  0  0  0  0
 10 11  1  0  0  0  0
 10 39  1  0  0  0  0
 10 40  1  0  0  0  0
 11 12  1  0  0  0  0
 11 13  1  0  0  0  0
 11 41  1  0  0  0  0
 12 42  1  0  0  0  0
 13 14  1  0  0  0  0
 13 43  1  0  0  0  0
 13 44  1  0  0  0  0
 14 24  1  0  0  0  0
 14 15  1  0  0  0  0
 15 16  2  0  0  0  0
 15 45  1  0  0  0  0
 16 17  1  0  0  0  0
 17 24  2  0  0  0  0
 17 18  1  0  0  0  0
 18 19  2  0  0  0  0
 18 46  1  0  0  0  0
 19 20  1  0  0  0  0
 19 21  1  0  0  0  0
 20 47  1  0  0  0  0
 20 48  1  0  0  0  0
 20 49  1  0  0  0  0
 21 22  1  0  0  0  0
 21 23  2  0  0  0  0
 22 50  1  0  0  0  0
 22 51  1  0  0  0  0
 22 52  1  0  0  0  0
 23 24  1  0  0  0  0
 23 53  1  0  0  0  0
 25 54  1  0  0  0  0
 25 55  1  0  0  0  0
M  CHG  1   3   1
M  CHG  1   9   1
M  END
> <s_m_source_file>
AV-unprocessed.smi

> <i_m_source_file_index>
1047

> <i_lp_mmshare_version>
43012

> <i_f3d_flags>
0

> <s_epik_input>
W0NIM11bQ0gyXU4xW0NIMl1bQ0gyXU9bQ0BIXShbQ0gyXTEpW0NIMl1bTkhdW0NIMl1bQ0BIXShbT0hdKVtDSDJdbihbY0hdbjIpYyhjMjMpW2NIXWMoW0NIM10pYyhbY0hdMylbQ0gzXQ==

> <s_epik_cmdline>
J2VwaWtfcHl0aG9uJywgJy1waCcsICc3LjAnLCAnLXRuJywgJzgnLCAnLW1hJywgJzIwMCcsICctbWV0YWxfYmluZGluZycsICctaW1hZScsICc8aW5maWxlLm1hZT4nLCAnLW9tYWUnLCAnPG91dGZpbGUubWFlPic=

> <r_epik_Ionization_Penalty>
0.528991

> <r_epik_Ionization_Penalty_Charging>
0.438567

> <r_epik_Ionization_Penalty_Neutral>
0.0904237

> <r_epik_State_Penalty>
0.533036

> <r_epik_Charging_Adjusted_Penalty>
0.971603

> <i_epik_Tot_Q>
2

> <i_epik_Tot_abs_Q>
2

> <r_epik_Metal_State_Penalty>
0.448985

> <b_epik_Metal_Only>
0

> <s_lp_Force_Field>
OPLS_2005

> <r_lp_Energy>
30.0062

> <b_lp_Chiralities_Consistent>
1

> <s_lp_Variant>
AV-unprocessed.smi:1047-6

> <Gold.Version>
5.8.1

> <Gold.Id.Protein>
6NUR|6NUR_protein|mol2

> <Gold.PLP.Fitness>
58.1916

> <Gold.PLP.PLP>
-44.9832

> <Gold.PLP.part.hbond>
-5.4013

> <Gold.PLP.part.metal>
0.0000

> <Gold.PLP.part.buried>
-4.3347

> <Gold.PLP.part.nonpolar>
-35.8103

> <Gold.PLP.part.repulsive>
0.1636

> <Gold.PLP.ligand.clash>
0.0000

> <Gold.PLP.ligand.torsion>
2.1468

> <Gold.PLP.Chemscore.Hbond>
5.7820

> <Gold.PLP.Chemscore.CHOScore>
0.0000

> <Gold.PLP.Chemscore.Metal>
0.0000

> <Gold.Chemscore.Hbonds>
donor molecule, donor type, donor heavy atom, donor atom, acceptor molecule, acceptor atom, score
      L1  H     9    38       P1  7948  2.00
      L1  H     9    56       P1  7957  1.00
      L1  H    12    42       P1  7957  0.74
      P1  H  7997  8009       L1    16  0.91
      P1  H  8011  8017       L1    12  1.00

> <Gold.PLP.Chemscore.Internal.Correction>
0.1560

> <Gold.Rescore>
     Score         DG    S(hbond)    S(metal)    S(lipo)     H(rot)  DE(clash)    DE(int)     intcor
     21.29     -25.58       3.94        0.00     118.24       2.70       2.14       2.15       ----

> <Gold.Chemscore.Fitness>
21.2891

> <Gold.Chemscore.DG>
-25.5820

> <Gold.Chemscore.ZeroCoef>
-5.4800

> <Gold.Chemscore.Hbond>
3.9450

> <Gold.Chemscore.Metal>
0.0000

> <Gold.Chemscore.Lipo>
118.2394

> <Gold.Chemscore.Internal_Hbond>
0.0000

> <Gold.Chemscore.DEClash>
2.1411

> <Gold.Chemscore.DEInternal>
2.1518

> <Gold.Chemscore.Rot>
2.6985

> <Gold.Chemscore.Internal.Correction>
   9.000000E+99

> <Gold.Chemscore.Hbonds>
donor molecule, donor type, donor heavy atom, donor atom, acceptor molecule, acceptor atom, score
      L1  H     9    38       P1  7948  0.94
      L1  H     9    56       P1  7957  0.98
      L1  H    12    42       P1  7957  0.71
      P1  H  7997  8009       L1    16  0.29
      P1  H  8011  8017       L1    12  0.25

> <Gold.Chemscore.Hbond.Weighted>
-13.1761

> <Gold.Chemscore.Metal.Weighted>
-0.0000

> <Gold.Chemscore.Lipo.Weighted>
-13.8340

> <Gold.Chemscore.Internal_Hbond.Weighted>
0.0000

> <Gold.Chemscore.DEClash.Weighted>
2.1411

> <Gold.Chemscore.DEInternal.Weighted>
2.1518

> <Gold.Chemscore.Rot.Weighted>
6.9081

> <Gold.Chemscore.Internal.Correction.Weighted>
   9.000000E+99

> <Gold.Protein.RotatedTorsions>
[ 6907 6896 6895 6894 ] final -141.07 input  -60.11 | X-H torsion
[ 7974 7965 7964 7962 ] final  165.55 input  175.53 | X-H torsion
[ 8008 7997 7996 7995 ] final  171.10 input   59.86 | X-H torsion
[ 10167 10162 10161 10158 ] final  129.58 input  -65.29 | X-H torsion
[ 10718 10713 10712 10709 ] final  -59.86 input   66.30 | X-H torsion
[ 10763 10752 10751 10750 ] final  -72.77 input  -60.55 | X-H torsion
[ 11005 11000 10999 10996 ] final  174.71 input  -57.11 | X-H torsion

> <Gold.Protein.ActiveResidues>
 VAL166  LYS551  ARG553  GLY616  TRP617  ASP618  TYR619  PRO620  LYS621  CYS622 
 ASP623  PHE694  ASN695  SER759  ASP760  ASP761  ALA762  ILE779  LEU786  VAL792 
 PHE793  MET794  SER795  GLU796  ALA797  LYS798  CYS799  TRP800  GLU811  SER814 

> <Gold.Protein.RotatedAtoms>
  151.0690  133.5482  159.2628 H   0  0  0  0  0  0  0  0  0  0  0  0  # atno 6907 bound_to 6896
  151.2428  135.0594  159.9041 H   0  0  0  0  0  0  0  0  0  0  0  0  # atno 6908 bound_to 6896
  152.5409  134.0462  159.8143 H   0  0  0  0  0  0  0  0  0  0  0  0  # atno 6909 bound_to 6896
  144.7498  139.8487  143.6370 H   0  0  0  0  0  0  0  0  0  0  0  0  # atno 7974 bound_to 7965
  156.1303  140.1521  156.9075 H   0  0  0  0  0  0  0  0  0  0  0  0  # atno 8008 bound_to 7997
  154.4904  140.0853  156.7621 H   0  0  0  0  0  0  0  0  0  0  0  0  # atno 8009 bound_to 7997
  155.4267  140.3425  155.4278 H   0  0  0  0  0  0  0  0  0  0  0  0  # atno 8010 bound_to 7997
  139.5471  144.6782  151.4440 H   0  0  0  0  0  0  0  0  0  0  0  0  # atno 10167 bound_to 10162
  156.1031  130.4184  150.0774 H   0  0  0  0  0  0  0  0  0  0  0  0  # atno 10718 bound_to 10713
  154.4503  135.5919  153.6187 H   0  0  0  0  0  0  0  0  0  0  0  0  # atno 10763 bound_to 10752
  152.9813  135.6019  154.3613 H   0  0  0  0  0  0  0  0  0  0  0  0  # atno 10764 bound_to 10752
  154.3473  135.2841  155.2369 H   0  0  0  0  0  0  0  0  0  0  0  0  # atno 10765 bound_to 10752
  140.3542  134.7168  157.4288 H   0  0  0  0  0  0  0  0  0  0  0  0  # atno 11005 bound_to 11000
  146.1431  139.4494  143.0096 LP  0  0  0  0  0  0  0  0  0  0  0  0  # atno 17320 bound_to 7965
  145.6986  141.0142  143.1516 LP  0  0  0  0  0  0  0  0  0  0  0  0  # atno 17321 bound_to 7965
  140.6722  143.8268  150.7014 LP  0  0  0  0  0  0  0  0  0  0  0  0  # atno 17342 bound_to 10162
  140.1696  143.4206  152.2010 LP  0  0  0  0  0  0  0  0  0  0  0  0  # atno 17343 bound_to 10162
  156.8756  130.9539  151.3605 LP  0  0  0  0  0  0  0  0  0  0  0  0  # atno 17370 bound_to 10713
  157.6204  130.8651  149.9099 LP  0  0  0  0  0  0  0  0  0  0  0  0  # atno 17371 bound_to 10713
  140.0678  134.5905  155.8676 LP  0  0  0  0  0  0  0  0  0  0  0  0  # atno 17394 bound_to 11000
  141.2003  133.6612  156.5890 LP  0  0  0  0  0  0  0  0  0  0  0  0  # atno 17395 bound_to 11000

$$$$
