AV-unprocessed.smi:1997|AV-procd|sdf|8086|dock3
  -GOLD-   2272010303D 1   1.00000     0.00000
 Structure written by MMmdl.
 37 39  0  0  0  0  0  0  0  0  1 V2000
  152.6000  135.9685  156.6289 O   0  0  0  0  0  0  0  0  0  0  0  0
  151.4588  136.4211  156.7259 C   0  0  0  0  0  0  0  0  0  0  0  0
  151.1384  137.6208  157.2415 N   0  0  0  0  0  0  0  0  0  0  0  0
  152.0065  138.6099  157.7749 C   0  0  0  0  0  0  0  0  0  0  0  0
  153.3312  138.4501  157.8999 N   0  0  0  0  0  0  0  0  0  0  0  0
  153.9383  139.5713  158.4483 N   0  0  0  0  0  0  0  0  0  0  0  0
  153.0599  140.5437  158.7197 C   0  0  0  0  0  0  0  0  0  0  0  0
  153.4741  141.8484  159.3147 C   0  0  0  0  0  0  0  0  0  0  0  0
  153.0083  142.2760  160.6896 C   0  0  0  0  0  0  0  0  0  0  0  0
  152.4829  142.9798  159.4646 C   0  0  0  0  0  0  0  0  0  0  0  0
  151.3884  140.1591  158.3211 S   0  0  0  0  0  0  0  0  0  0  0  0
  150.3635  135.7577  156.3246 N   0  0  0  0  0  0  0  0  0  0  0  0
  150.3507  134.4084  155.7547 C   0  0  2  0  0  0  0  0  0  0  0  0
  149.1760  134.3344  154.7525 C   0  0  0  0  0  0  0  0  0  0  0  0
  149.3310  133.2253  153.6973 C   0  0  0  0  0  0  0  0  0  0  0  0
  149.3121  131.7928  154.2523 C   0  0  0  0  0  0  0  0  0  0  0  0
  150.4681  131.4884  155.2205 C   0  0  0  0  0  0  0  0  0  0  0  0
  150.2364  132.0500  156.5447 N   0  0  0  0  0  0  0  0  0  0  0  0
  150.1403  133.3499  156.8626 C   0  0  0  0  0  0  0  0  0  0  0  0
  149.8831  133.6902  158.0175 O   0  0  0  0  0  0  0  0  0  0  0  0
  150.1559  137.8512  157.2614 H   0  0  0  0  0  0  0  0  0  0  0  0
  154.4921  142.0982  159.0222 H   0  0  0  0  0  0  0  0  0  0  0  0
  152.3165  141.6286  161.2248 H   0  0  0  0  0  0  0  0  0  0  0  0
  153.7173  142.8162  161.3138 H   0  0  0  0  0  0  0  0  0  0  0  0
  152.8412  143.9886  159.2707 H   0  0  0  0  0  0  0  0  0  0  0  0
  151.4500  142.7884  159.1805 H   0  0  0  0  0  0  0  0  0  0  0  0
  149.4664  136.2039  156.4466 H   0  0  0  0  0  0  0  0  0  0  0  0
  151.2966  134.2302  155.2397 H   0  0  0  0  0  0  0  0  0  0  0  0
  148.2224  134.2297  155.2731 H   0  0  0  0  0  0  0  0  0  0  0  0
  149.1098  135.2803  154.2125 H   0  0  0  0  0  0  0  0  0  0  0  0
  148.5244  133.3234  152.9701 H   0  0  0  0  0  0  0  0  0  0  0  0
  150.2538  133.3851  153.1382 H   0  0  0  0  0  0  0  0  0  0  0  0
  148.3545  131.5863  154.7324 H   0  0  0  0  0  0  0  0  0  0  0  0
  149.3779  131.1036  153.4099 H   0  0  0  0  0  0  0  0  0  0  0  0
  150.5582  130.4087  155.3413 H   0  0  0  0  0  0  0  0  0  0  0  0
  151.4225  131.8328  154.8195 H   0  0  0  0  0  0  0  0  0  0  0  0
  150.1067  131.3852  157.2937 H   0  0  0  0  0  0  0  0  0  0  0  0
  1  2  2  0  0  0  0
  2  3  1  0  0  0  0
  2 12  1  0  0  0  0
  3  4  1  0  0  0  0
  3 21  1  0  0  0  0
  4 11  1  0  0  0  0
  4  5  2  0  0  0  0
  5  6  1  0  0  0  0
  6  7  2  0  0  0  0
  7  8  1  0  0  0  0
  7 11  1  0  0  0  0
  8 10  1  0  0  0  0
  8  9  1  0  0  0  0
  8 22  1  0  0  0  0
  9 10  1  0  0  0  0
  9 23  1  0  0  0  0
  9 24  1  0  0  0  0
 10 25  1  0  0  0  0
 10 26  1  0  0  0  0
 12 13  1  0  0  0  0
 12 27  1  0  0  0  0
 13 19  1  0  0  0  0
 13 14  1  0  0  0  0
 13 28  1  0  0  0  0
 14 15  1  0  0  0  0
 14 29  1  0  0  0  0
 14 30  1  0  0  0  0
 15 16  1  0  0  0  0
 15 31  1  0  0  0  0
 15 32  1  0  0  0  0
 16 17  1  0  0  0  0
 16 33  1  0  0  0  0
 16 34  1  0  0  0  0
 17 18  1  0  0  0  0
 17 35  1  0  0  0  0
 17 36  1  0  0  0  0
 18 19  1  0  0  0  0
 18 37  1  0  0  0  0
 19 20  2  0  0  0  0
M  END
> <s_m_source_file>
AV-unprocessed.smi

> <i_m_source_file_index>
1997

> <i_lp_mmshare_version>
43012

> <i_f3d_flags>
0

> <s_epik_input>
W0NIMl0xW0NIMl1bQ0hdMWMoczIpbm5jMltOSF1DKD1PKVtOSF1bQ0BASF0zW0NIMl1bQ0gyXVtDSDJdW0NIMl1bTkhdQzM9Tw==

> <s_epik_cmdline>
J2VwaWtfcHl0aG9uJywgJy1waCcsICc3LjAnLCAnLXRuJywgJzgnLCAnLW1hJywgJzIwMCcsICctbWV0YWxfYmluZGluZycsICctaW1hZScsICc8aW5maWxlLm1hZT4nLCAnLW9tYWUnLCAnPG91dGZpbGUubWFlPic=

> <r_lp_tautomer_probability>
1

> <r_epik_Ionization_Penalty>
0.000421558

> <r_epik_Ionization_Penalty_Charging>
0

> <r_epik_Ionization_Penalty_Neutral>
0.000421558

> <r_epik_State_Penalty>
-0

> <r_epik_Charging_Adjusted_Penalty>
0

> <i_epik_Tot_Q>
0

> <i_epik_Tot_abs_Q>
0

> <r_epik_Metal_State_Penalty>
0.200761

> <b_epik_Metal_Only>
0

> <s_lp_Force_Field>
OPLS_2005

> <r_lp_Energy>
8.57521

> <b_lp_Chiralities_Consistent>
1

> <s_lp_Variant>
AV-unprocessed.smi:1997-1

> <Gold.Version>
5.8.1

> <Gold.Id.Protein>
6NUR|6NUR_protein|mol2

> <Gold.PLP.Fitness>
41.3398

> <Gold.PLP.PLP>
-33.0941

> <Gold.PLP.part.hbond>
-3.1037

> <Gold.PLP.part.metal>
0.0000

> <Gold.PLP.part.buried>
-4.4549

> <Gold.PLP.part.nonpolar>
-26.3039

> <Gold.PLP.part.repulsive>
0.1793

> <Gold.PLP.ligand.clash>
0.0000

> <Gold.PLP.ligand.torsion>
0.4404

> <Gold.PLP.Chemscore.Hbond>
3.0000

> <Gold.PLP.Chemscore.CHOScore>
0.0000

> <Gold.PLP.Chemscore.Metal>
0.0000

> <Gold.Chemscore.Hbonds>
donor molecule, donor type, donor heavy atom, donor atom, acceptor molecule, acceptor atom, score
      P1  H  6896  6909       L1    20  0.99
      P1  H  7997  8009       L1     6  1.00
      P1  H 10752 10764       L1     1  1.00

> <Gold.PLP.Chemscore.Internal.Correction>
0.1265

> <Gold.Rescore>
     Score         DG    S(hbond)    S(metal)    S(lipo)     H(rot)  DE(clash)    DE(int)     intcor
     17.19     -18.96       2.56        0.00      70.37       1.29       0.00       1.77       ----

> <Gold.Chemscore.Fitness>
17.1877

> <Gold.Chemscore.DG>
-18.9557

> <Gold.Chemscore.ZeroCoef>
-5.4800

> <Gold.Chemscore.Hbond>
2.5551

> <Gold.Chemscore.Metal>
0.0000

> <Gold.Chemscore.Lipo>
70.3747

> <Gold.Chemscore.Internal_Hbond>
0.0000

> <Gold.Chemscore.DEClash>
0.0000

> <Gold.Chemscore.DEInternal>
1.7679

> <Gold.Chemscore.Rot>
1.2860

> <Gold.Chemscore.Internal.Correction>
   9.000000E+99

> <Gold.Chemscore.Hbonds>
donor molecule, donor type, donor heavy atom, donor atom, acceptor molecule, acceptor atom, score
      P1  H  6896  6909       L1    20  0.92
      P1  H  7997  8009       L1     6  0.32
      P1  H 10752 10764       L1     1  1.00

> <Gold.Chemscore.Hbond.Weighted>
-8.5341

> <Gold.Chemscore.Metal.Weighted>
-0.0000

> <Gold.Chemscore.Lipo.Weighted>
-8.2338

> <Gold.Chemscore.Internal_Hbond.Weighted>
0.0000

> <Gold.Chemscore.DEClash.Weighted>
0.0000

> <Gold.Chemscore.DEInternal.Weighted>
1.7679

> <Gold.Chemscore.Rot.Weighted>
3.2923

> <Gold.Chemscore.Internal.Correction.Weighted>
   9.000000E+99

> <Gold.Protein.RotatedTorsions>
[ 6907 6896 6895 6894 ] final  -14.45 input  -60.11 | X-H torsion
[ 7974 7965 7964 7962 ] final -178.81 input  175.53 | X-H torsion
[ 8008 7997 7996 7995 ] final  124.50 input   59.86 | X-H torsion
[ 10167 10162 10161 10158 ] final -120.09 input  -65.29 | X-H torsion
[ 10718 10713 10712 10709 ] final   21.20 input   66.30 | X-H torsion
[ 10763 10752 10751 10750 ] final   -8.98 input  -60.55 | X-H torsion
[ 11005 11000 10999 10996 ] final -148.16 input  -57.11 | X-H torsion

> <Gold.Protein.ActiveResidues>
 VAL166  LYS551  ARG553  GLY616  TRP617  ASP618  TYR619  PRO620  LYS621  CYS622 
 ASP623  PHE694  ASN695  SER759  ASP760  ASP761  ALA762  ILE779  LEU786  VAL792 
 PHE793  MET794  SER795  GLU796  ALA797  LYS798  CYS799  TRP800  GLU811  SER814 

> <Gold.Protein.RotatedAtoms>
  151.3392  135.0860  159.9364 H   0  0  0  0  0  0  0  0  0  0  0  0  # atno 6907 bound_to 6896
  152.5215  133.9464  159.7661 H   0  0  0  0  0  0  0  0  0  0  0  0  # atno 6908 bound_to 6896
  150.9818  133.6185  159.2751 H   0  0  0  0  0  0  0  0  0  0  0  0  # atno 6909 bound_to 6896
  144.7133  140.0812  143.6425 H   0  0  0  0  0  0  0  0  0  0  0  0  # atno 7974 bound_to 7965
  156.2803  140.2738  156.1799 H   0  0  0  0  0  0  0  0  0  0  0  0  # atno 8008 bound_to 7997
  155.0567  140.0386  157.2580 H   0  0  0  0  0  0  0  0  0  0  0  0  # atno 8009 bound_to 7997
  154.7150  140.2676  155.6599 H   0  0  0  0  0  0  0  0  0  0  0  0  # atno 8010 bound_to 7997
  140.0396  143.5166  152.2136 H   0  0  0  0  0  0  0  0  0  0  0  0  # atno 10167 bound_to 10162
  157.1351  130.6608  149.5963 H   0  0  0  0  0  0  0  0  0  0  0  0  # atno 10718 bound_to 10713
  153.4483  135.7014  153.6125 H   0  0  0  0  0  0  0  0  0  0  0  0  # atno 10763 bound_to 10752
  153.4471  135.3766  155.2262 H   0  0  0  0  0  0  0  0  0  0  0  0  # atno 10764 bound_to 10752
  154.8728  135.3988  154.3891 H   0  0  0  0  0  0  0  0  0  0  0  0  # atno 10765 bound_to 10752
  140.7642  134.3264  157.5093 H   0  0  0  0  0  0  0  0  0  0  0  0  # atno 11005 bound_to 11000
  145.9700  139.2863  143.1104 LP  0  0  0  0  0  0  0  0  0  0  0  0  # atno 17320 bound_to 7965
  145.9127  140.9169  143.0446 LP  0  0  0  0  0  0  0  0  0  0  0  0  # atno 17321 bound_to 7965
  139.6022  144.7586  151.3144 LP  0  0  0  0  0  0  0  0  0  0  0  0  # atno 17342 bound_to 10162
  140.7266  143.6986  150.7863 LP  0  0  0  0  0  0  0  0  0  0  0  0  # atno 17343 bound_to 10162
  155.9800  130.4797  150.6746 LP  0  0  0  0  0  0  0  0  0  0  0  0  # atno 17370 bound_to 10713
  157.4357  131.0855  151.0994 LP  0  0  0  0  0  0  0  0  0  0  0  0  # atno 17371 bound_to 10713
  139.8766  134.9221  156.3291 LP  0  0  0  0  0  0  0  0  0  0  0  0  # atno 17394 bound_to 11000
  140.9635  133.7373  156.0434 LP  0  0  0  0  0  0  0  0  0  0  0  0  # atno 17395 bound_to 11000

$$$$
