AV-unprocessed.smi:1768|AV-procd|sdf|7146|dock1
  -GOLD-   22720 8383D 1   1.00000     0.00000
 Structure written by MMmdl.
 33 34  0  0  0  0  0  0  0  0  1 V2000
  148.5421  129.7436  156.6744 C   0  0  0  0  0  0  0  0  0  0  0  0
  149.0060  131.1480  156.4890 C   0  0  0  0  0  0  0  0  0  0  0  0
  150.0814  131.6464  157.1113 N   0  0  0  0  0  0  0  0  0  0  0  0
  150.3111  132.9750  156.7824 N   0  0  0  0  0  0  0  0  0  0  0  0
  149.3984  133.4407  155.9186 C   0  0  0  0  0  0  0  0  0  0  0  0
  149.3938  134.7673  155.4125 N   0  0  0  0  0  0  0  0  0  0  0  0
  150.2354  135.7742  155.7049 C   0  0  0  0  0  0  0  0  0  0  0  0
  151.1680  135.7109  156.5059 O   0  0  0  0  0  0  0  0  0  0  0  0
  149.9265  136.8774  155.0076 N   0  0  0  0  0  0  0  0  0  0  0  0
  150.6305  138.1575  155.0681 C   0  0  1  0  0  0  0  0  0  0  0  0
  152.0755  137.9524  154.5904 C   0  0  0  0  0  0  0  0  0  0  0  0
  149.8870  139.2127  154.2252 C   0  0  1  0  0  0  0  0  0  0  0  0
  148.4310  139.4518  154.6350 C   0  0  0  0  0  0  0  0  0  0  0  0
  148.1989  140.8595  154.1374 C   0  0  0  0  0  0  0  0  0  0  0  0
  149.5368  141.5194  154.4531 C   0  0  0  0  0  0  0  0  0  0  0  0
  150.5147  140.4880  154.3500 O   0  0  0  0  0  0  0  0  0  0  0  0
  148.1746  132.2809  155.4309 S   0  0  0  0  0  0  0  0  0  0  0  0
  149.1964  129.2085  157.3635 H   0  0  0  0  0  0  0  0  0  0  0  0
  148.5416  129.2220  155.7173 H   0  0  0  0  0  0  0  0  0  0  0  0
  147.5297  129.7370  157.0782 H   0  0  0  0  0  0  0  0  0  0  0  0
  148.6678  134.9710  154.7417 H   0  0  0  0  0  0  0  0  0  0  0  0
  149.1389  136.8298  154.3780 H   0  0  0  0  0  0  0  0  0  0  0  0
  150.6721  138.5162  156.0980 H   0  0  0  0  0  0  0  0  0  0  0  0
  152.6467  138.8790  154.6518 H   0  0  0  0  0  0  0  0  0  0  0  0
  152.1079  137.6102  153.5556 H   0  0  0  0  0  0  0  0  0  0  0  0
  152.5891  137.2109  155.2032 H   0  0  0  0  0  0  0  0  0  0  0  0
  149.9137  138.9363  153.1696 H   0  0  0  0  0  0  0  0  0  0  0  0
  147.7412  138.7270  154.2017 H   0  0  0  0  0  0  0  0  0  0  0  0
  148.3243  139.4186  155.7205 H   0  0  0  0  0  0  0  0  0  0  0  0
  148.0261  140.8520  153.0603 H   0  0  0  0  0  0  0  0  0  0  0  0
  147.3545  141.3540  154.6185 H   0  0  0  0  0  0  0  0  0  0  0  0
  149.7608  142.3500  153.7833 H   0  0  0  0  0  0  0  0  0  0  0  0
  149.5426  141.8976  155.4760 H   0  0  0  0  0  0  0  0  0  0  0  0
  1  2  1  0  0  0  0
  1 18  1  0  0  0  0
  1 19  1  0  0  0  0
  1 20  1  0  0  0  0
  2 17  1  0  0  0  0
  2  3  2  0  0  0  0
  3  4  1  0  0  0  0
  4  5  2  0  0  0  0
  5  6  1  0  0  0  0
  5 17  1  0  0  0  0
  6  7  1  0  0  0  0
  6 21  1  0  0  0  0
  7  8  2  0  0  0  0
  7  9  1  0  0  0  0
  9 10  1  0  0  0  0
  9 22  1  0  0  0  0
 10 11  1  0  0  0  0
 10 12  1  0  0  0  0
 10 23  1  0  0  0  0
 11 24  1  0  0  0  0
 11 25  1  0  0  0  0
 11 26  1  0  0  0  0
 12 16  1  0  0  0  0
 12 13  1  0  0  0  0
 12 27  1  0  0  0  0
 13 14  1  0  0  0  0
 13 28  1  0  0  0  0
 13 29  1  0  0  0  0
 14 15  1  0  0  0  0
 14 30  1  0  0  0  0
 14 31  1  0  0  0  0
 15 16  1  0  0  0  0
 15 32  1  0  0  0  0
 15 33  1  0  0  0  0
M  END
> <s_m_source_file>
AV-unprocessed.smi

> <i_m_source_file_index>
1768

> <i_lp_mmshare_version>
43012

> <i_f3d_flags>
0

> <s_epik_input>
W0NIM11jMW5uYyhzMSlbTkhdQyg9TylbTkhdW0NASF0oW0NIM10pW0NAQEhdMltDSDJdW0NIMl1bQ0gyXU8y

> <s_epik_cmdline>
J2VwaWtfcHl0aG9uJywgJy1waCcsICc3LjAnLCAnLXRuJywgJzgnLCAnLW1hJywgJzIwMCcsICctbWV0YWxfYmluZGluZycsICctaW1hZScsICc8aW5maWxlLm1hZT4nLCAnLW9tYWUnLCAnPG91dGZpbGUubWFlPic=

> <r_lp_tautomer_probability>
1

> <r_epik_Ionization_Penalty>
0.000523083

> <r_epik_Ionization_Penalty_Charging>
0

> <r_epik_Ionization_Penalty_Neutral>
0.000523083

> <r_epik_State_Penalty>
-0

> <r_epik_Charging_Adjusted_Penalty>
0

> <i_epik_Tot_Q>
0

> <i_epik_Tot_abs_Q>
0

> <r_epik_Metal_State_Penalty>
0.223408

> <b_epik_Metal_Only>
0

> <s_lp_Force_Field>
OPLS_2005

> <r_lp_Energy>
16.9545

> <b_lp_Chiralities_Consistent>
1

> <s_lp_Variant>
AV-unprocessed.smi:1768-4

> <Gold.Version>
5.8.1

> <Gold.Id.Protein>
6NUR|6NUR_protein|mol2

> <Gold.PLP.Fitness>
43.1411

> <Gold.PLP.PLP>
-31.9865

> <Gold.PLP.part.hbond>
-4.5943

> <Gold.PLP.part.metal>
0.0000

> <Gold.PLP.part.buried>
-2.0060

> <Gold.PLP.part.nonpolar>
-25.7938

> <Gold.PLP.part.repulsive>
0.2545

> <Gold.PLP.ligand.clash>
0.0000

> <Gold.PLP.ligand.torsion>
0.0270

> <Gold.PLP.Chemscore.Hbond>
3.7328

> <Gold.PLP.Chemscore.CHOScore>
0.0000

> <Gold.PLP.Chemscore.Metal>
0.0000

> <Gold.Chemscore.Hbonds>
donor molecule, donor type, donor heavy atom, donor atom, acceptor molecule, acceptor atom, score
      P1  H  7989  7998       L1    16  0.79

> <Gold.PLP.Chemscore.Internal.Correction>
0.0103

> <Gold.Rescore>
     Score         DG    S(hbond)    S(metal)    S(lipo)     H(rot)  DE(clash)    DE(int)     intcor
     13.94     -15.64       2.20        0.00      52.36       1.29       0.07       1.63       ----

> <Gold.Chemscore.Fitness>
13.9441

> <Gold.Chemscore.DG>
-15.6438

> <Gold.Chemscore.ZeroCoef>
-5.4800

> <Gold.Chemscore.Hbond>
2.1991

> <Gold.Chemscore.Metal>
0.0000

> <Gold.Chemscore.Lipo>
52.3580

> <Gold.Chemscore.Internal_Hbond>
0.0000

> <Gold.Chemscore.DEClash>
0.0718

> <Gold.Chemscore.DEInternal>
1.6279

> <Gold.Chemscore.Rot>
1.2919

> <Gold.Chemscore.Internal.Correction>
   9.000000E+99

> <Gold.Chemscore.Hbonds>
donor molecule, donor type, donor heavy atom, donor atom, acceptor molecule, acceptor atom, score
      P1  H  7989  7998       L1    16  0.58

> <Gold.Chemscore.Hbond.Weighted>
-7.3451

> <Gold.Chemscore.Metal.Weighted>
-0.0000

> <Gold.Chemscore.Lipo.Weighted>
-6.1259

> <Gold.Chemscore.Internal_Hbond.Weighted>
0.0000

> <Gold.Chemscore.DEClash.Weighted>
0.0718

> <Gold.Chemscore.DEInternal.Weighted>
1.6279

> <Gold.Chemscore.Rot.Weighted>
3.3072

> <Gold.Chemscore.Internal.Correction.Weighted>
   9.000000E+99

> <Gold.Protein.RotatedTorsions>
[ 6907 6896 6895 6894 ] final  153.52 input  -60.11 | X-H torsion
[ 7974 7965 7964 7962 ] final  -60.93 input  175.53 | X-H torsion
[ 8008 7997 7996 7995 ] final  162.99 input   59.86 | X-H torsion
[ 10167 10162 10161 10158 ] final -109.12 input  -65.29 | X-H torsion
[ 10718 10713 10712 10709 ] final  102.82 input   66.30 | X-H torsion
[ 10763 10752 10751 10750 ] final -170.98 input  -60.55 | X-H torsion
[ 11005 11000 10999 10996 ] final -105.05 input  -57.11 | X-H torsion

> <Gold.Protein.ActiveResidues>
 VAL166  LYS551  ARG553  GLY616  TRP617  ASP618  TYR619  PRO620  LYS621  CYS622 
 ASP623  PHE694  ASN695  SER759  ASP760  ASP761  ALA762  ILE779  LEU786  VAL792 
 PHE793  MET794  SER795  GLU796  ALA797  LYS798  CYS799  TRP800  GLU811  SER814 

> <Gold.Protein.RotatedAtoms>
  152.0715  133.4109  159.4461 H   0  0  0  0  0  0  0  0  0  0  0  0  # atno 6907 bound_to 6896
  150.6863  134.3086  159.4746 H   0  0  0  0  0  0  0  0  0  0  0  0  # atno 6908 bound_to 6896
  152.0918  134.9401  160.0622 H   0  0  0  0  0  0  0  0  0  0  0  0  # atno 6909 bound_to 6896
  145.8096  140.8606  143.0189 H   0  0  0  0  0  0  0  0  0  0  0  0  # atno 7974 bound_to 7965
  156.1990  140.1735  156.7938 H   0  0  0  0  0  0  0  0  0  0  0  0  # atno 8008 bound_to 7997
  154.5567  140.0707  156.8785 H   0  0  0  0  0  0  0  0  0  0  0  0  # atno 8009 bound_to 7997
  155.2925  140.3356  155.4254 H   0  0  0  0  0  0  0  0  0  0  0  0  # atno 8010 bound_to 7997
  140.1588  143.4138  152.1441 H   0  0  0  0  0  0  0  0  0  0  0  0  # atno 10167 bound_to 10162
  157.6791  131.0763  150.5461 H   0  0  0  0  0  0  0  0  0  0  0  0  # atno 10718 bound_to 10713
  154.6356  135.2892  155.0165 H   0  0  0  0  0  0  0  0  0  0  0  0  # atno 10763 bound_to 10752
  154.1310  135.6533  153.4926 H   0  0  0  0  0  0  0  0  0  0  0  0  # atno 10764 bound_to 10752
  153.0301  135.5310  154.7201 H   0  0  0  0  0  0  0  0  0  0  0  0  # atno 10765 bound_to 10752
  141.1072  133.8775  157.1687 H   0  0  0  0  0  0  0  0  0  0  0  0  # atno 11005 bound_to 11000
  144.6759  140.0377  143.7481 LP  0  0  0  0  0  0  0  0  0  0  0  0  # atno 17320 bound_to 7965
  145.9791  139.2927  143.1053 LP  0  0  0  0  0  0  0  0  0  0  0  0  # atno 17321 bound_to 7965
  139.5391  144.7239  151.4794 LP  0  0  0  0  0  0  0  0  0  0  0  0  # atno 17342 bound_to 10162
  140.6656  143.8404  150.6938 LP  0  0  0  0  0  0  0  0  0  0  0  0  # atno 17343 bound_to 10162
  156.5767  130.4294  149.5995 LP  0  0  0  0  0  0  0  0  0  0  0  0  # atno 17370 bound_to 10713
  156.2695  130.7009  151.1802 LP  0  0  0  0  0  0  0  0  0  0  0  0  # atno 17371 bound_to 10713
  139.9947  135.0051  157.0056 LP  0  0  0  0  0  0  0  0  0  0  0  0  # atno 17394 bound_to 11000
  140.4872  134.1230  155.7226 LP  0  0  0  0  0  0  0  0  0  0  0  0  # atno 17395 bound_to 11000

$$$$
