#       Name:                AV-unprocessed.smi:3281
#       Creating user name   scv26
#       Creation time:       Fri Mar 27 18:47:38 2020


#       File generated by GOLD software.
#

@<TRIPOS>MOLECULE
AV-unprocessed.smi:3281
    38    39     1
SMALL
NO_CHARGES


@<TRIPOS>ATOM
      1 ****        -6.1027   0.1340   2.8614 C.3            1 S1                 0.0000
      2 ****        -5.5548  -0.0964   1.4491 C.3            1 S1                 0.0000
      3 ****        -4.1112  -0.4775   1.4328 C.2            1 S1                 0.0000
      4 ****        -3.5764  -1.7252   1.2264 C.2            1 S1                 0.0000
      5 ****        -2.1804  -1.7553   1.2678 N.2            1 S1                 0.0000
      6 ****        -1.6523  -0.5557   1.5196 C.2            1 S1                 0.0000
      7 ****        -0.1840  -0.3000   1.5816 C.3            1 S1                 0.0000
      8 ****         0.4096   0.0219   0.2045 C.3            1 S1                 0.0000
      9 ****         1.8629   0.2725   0.3011 N.4            1 S1                 1.0000
     10 ****         2.5220   0.6851  -0.9585 C.3            1 S1                 0.0000
     11 ****         2.7185  -0.5189  -1.9070 C.3            1 S1                 0.0000
     12 ****         3.3604  -0.1254  -3.2482 C.3            1 S1                 0.0000
     13 ****         4.7527   0.4959  -3.0761 C.3            1 S1                 0.0000
     14 ****         4.6662   2.0268  -2.1104 S.3            1 S1                 0.0000
     15 ****         3.8656   1.3595  -0.6267 C.3            1 S1                 0.0000
     16 ****        -2.8604   0.7112   1.6937 S.3            1 S1                 0.0000
     17 ****        -7.1576   0.4072   2.8286 H              1 S1                 0.0000
     18 ****        -5.5671   0.9378   3.3672 H              1 S1                 0.0000
     19 ****        -6.0102  -0.7660   3.4700 H              1 S1                 0.0000
     20 ****        -6.1425  -0.8728   0.9582 H              1 S1                 0.0000
     21 ****        -5.6958   0.8076   0.8560 H              1 S1                 0.0000
     22 ****        -4.1137  -2.6434   1.0395 H              1 S1                 0.0000
     23 ****        -0.0054   0.5255   2.2716 H              1 S1                 0.0000
     24 ****         0.3062  -1.1764   2.0083 H              1 S1                 0.0000
     25 ****         0.2204  -0.8075  -0.4770 H              1 S1                 0.0000
     26 ****        -0.0820   0.9021  -0.2123 H              1 S1                 0.0000
     27 ****         1.9911   1.0200   0.9683 H              1 S1                 0.0000
     28 ****         1.8851   1.4260  -1.4449 H              1 S1                 0.0000
     29 ****         3.3313  -1.2784  -1.4193 H              1 S1                 0.0000
     30 ****         1.7603  -0.9923  -2.1189 H              1 S1                 0.0000
     31 ****         3.4395  -1.0098  -3.8810 H              1 S1                 0.0000
     32 ****         2.7099   0.5711  -3.7790 H              1 S1                 0.0000
     33 ****         5.4242  -0.2040  -2.5775 H              1 S1                 0.0000
     34 ****         5.1896   0.7205  -4.0494 H              1 S1                 0.0000
     35 ****         3.7157   2.1814   0.0742 H              1 S1                 0.0000
     36 ****         4.5439   0.6520  -0.1480 H              1 S1                 0.0000
     37 ****         2.3222  -0.5541   0.6560 H              1 S1                 0.0000
     38 ****        -1.6376  -2.5829   1.1248 LP             1 S1                 0.0000
@<TRIPOS>BOND
    1    1    2 1     
    2    1   17 1     
    3    1   18 1     
    4    1   19 1     
    5    2    3 1     
    6    2   20 1     
    7    2   21 1     
    8    3   16 1     
    9    3    4 2     
   10    4    5 1     
   11    4   22 1     
   12    5    6 2     
   13    6    7 1     
   14    6   16 1     
   15    7    8 1     
   16    7   23 1     
   17    7   24 1     
   18    8    9 1     
   19    8   25 1     
   20    8   26 1     
   21    9   10 1     
   22    9   27 1     
   23    9   37 1     
   24   10   15 1     
   25   10   11 1     
   26   10   28 1     
   27   11   12 1     
   28   11   29 1     
   29   11   30 1     
   30   12   13 1     
   31   12   31 1     
   32   12   32 1     
   33   13   14 1     
   34   13   33 1     
   35   13   34 1     
   36   14   15 1     
   37   15   35 1     
   38   15   36 1     
   39    5   38 1     
@<TRIPOS>SUBSTRUCTURE
      1 S1             1
@<TRIPOS>SET
LONE_PAIRS      STATIC     ATOMS    <user>   **** ""
1 38
DONOR_HYDROGENS      STATIC     ATOMS    <user>   **** ""
2 27 37
ATOM$BLUE        STATIC     ATOMS    COLORGROUP SYSTEM
1 38
ATOM$RED        STATIC     ATOMS    COLORGROUP SYSTEM
2 27 37
