AV-unprocessed.smi:1917|AV-procd|sdf|7768|dock6
  -GOLD-   22720 9513D 1   1.00000     0.00000
 Structure written by MMmdl.
 44 45  0  0  0  0  0  0  0  0  1 V2000
  147.1141  135.4489  162.7025 C   0  0  0  0  0  0  0  0  0  0  0  0
  147.5448  136.1705  161.4222 C   0  0  0  0  0  0  0  0  0  0  0  0
  148.5749  136.8449  161.4553 O   0  0  0  0  0  0  0  0  0  0  0  0
  146.7910  136.0485  160.3021 N   0  0  0  0  0  0  0  0  0  0  0  0
  145.5907  135.2070  160.3236 C   0  0  0  0  0  0  0  0  0  0  0  0
  147.1048  136.6935  159.0172 C   0  0  0  0  0  0  0  0  0  0  0  0
  148.4746  136.2767  158.4658 C   0  0  0  0  0  0  0  0  0  0  0  0
  149.2641  135.6316  159.1565 O   0  0  0  0  0  0  0  0  0  0  0  0
  148.7433  136.6564  157.2072 N   0  0  0  0  0  0  0  0  0  0  0  0
  149.9577  136.3156  156.4717 C   0  0  0  0  0  0  0  0  0  0  0  0
  150.9269  137.4723  156.2486 C   0  0  0  0  0  0  0  0  0  0  0  0
  151.4087  137.7271  154.9504 C   0  0  0  0  0  0  0  0  0  0  0  0
  152.3024  138.7967  154.7627 C   0  0  0  0  0  0  0  0  0  0  0  0
  152.7215  139.5952  155.7658 N   0  0  0  0  0  0  0  0  0  0  0  0
  152.2699  139.3657  157.0223 C   0  0  0  0  0  0  0  0  0  0  0  0
  152.7224  140.2484  158.0285 N   0  0  0  0  0  0  0  0  0  0  0  0
  151.9022  141.4087  158.3675 C   0  0  0  0  0  0  0  0  0  0  0  0
  152.7094  142.4137  159.2060 C   0  0  0  0  0  0  0  0  0  0  0  0
  153.2520  141.7607  160.3482 O   0  0  0  0  0  0  0  0  0  0  0  0
  154.1517  140.7200  159.9816 C   0  0  0  0  0  0  0  0  0  0  0  0
  153.4064  139.6454  159.1714 C   0  0  0  0  0  0  0  0  0  0  0  0
  151.3758  138.3016  157.3028 C   0  0  0  0  0  0  0  0  0  0  0  0
  146.0904  135.7061  162.9743 H   0  0  0  0  0  0  0  0  0  0  0  0
  147.7576  135.7322  163.5361 H   0  0  0  0  0  0  0  0  0  0  0  0
  147.1868  134.3683  162.5788 H   0  0  0  0  0  0  0  0  0  0  0  0
  144.8518  135.6089  161.0183 H   0  0  0  0  0  0  0  0  0  0  0  0
  145.8368  134.1903  160.6344 H   0  0  0  0  0  0  0  0  0  0  0  0
  145.1187  135.1374  159.3430 H   0  0  0  0  0  0  0  0  0  0  0  0
  146.3315  136.4325  158.2927 H   0  0  0  0  0  0  0  0  0  0  0  0
  147.0680  137.7807  159.0823 H   0  0  0  0  0  0  0  0  0  0  0  0
  148.0444  137.1904  156.7114 H   0  0  0  0  0  0  0  0  0  0  0  0
  150.4803  135.5366  157.0272 H   0  0  0  0  0  0  0  0  0  0  0  0
  149.6894  135.8791  155.5080 H   0  0  0  0  0  0  0  0  0  0  0  0
  151.1001  137.1180  154.1133 H   0  0  0  0  0  0  0  0  0  0  0  0
  152.6901  139.0192  153.7796 H   0  0  0  0  0  0  0  0  0  0  0  0
  151.5562  141.9057  157.4608 H   0  0  0  0  0  0  0  0  0  0  0  0
  151.0224  141.0792  158.9217 H   0  0  0  0  0  0  0  0  0  0  0  0
  153.5096  142.8602  158.6134 H   0  0  0  0  0  0  0  0  0  0  0  0
  152.0652  143.2294  159.5345 H   0  0  0  0  0  0  0  0  0  0  0  0
  154.9849  141.1301  159.4083 H   0  0  0  0  0  0  0  0  0  0  0  0
  154.5741  140.2811  160.8855 H   0  0  0  0  0  0  0  0  0  0  0  0
  152.6665  139.1490  159.8005 H   0  0  0  0  0  0  0  0  0  0  0  0
  154.1208  138.8841  158.8579 H   0  0  0  0  0  0  0  0  0  0  0  0
  151.0348  138.1148  158.3088 H   0  0  0  0  0  0  0  0  0  0  0  0
  1  2  1  0  0  0  0
  1 23  1  0  0  0  0
  1 24  1  0  0  0  0
  1 25  1  0  0  0  0
  2  3  2  0  0  0  0
  2  4  1  0  0  0  0
  4  5  1  0  0  0  0
  4  6  1  0  0  0  0
  5 26  1  0  0  0  0
  5 27  1  0  0  0  0
  5 28  1  0  0  0  0
  6  7  1  0  0  0  0
  6 29  1  0  0  0  0
  6 30  1  0  0  0  0
  7  8  2  0  0  0  0
  7  9  1  0  0  0  0
  9 10  1  0  0  0  0
  9 31  1  0  0  0  0
 10 11  1  0  0  0  0
 10 32  1  0  0  0  0
 10 33  1  0  0  0  0
 11 22  1  0  0  0  0
 11 12  2  0  0  0  0
 12 13  1  0  0  0  0
 12 34  1  0  0  0  0
 13 14  2  0  0  0  0
 13 35  1  0  0  0  0
 14 15  1  0  0  0  0
 15 16  1  0  0  0  0
 15 22  2  0  0  0  0
 16 21  1  0  0  0  0
 16 17  1  0  0  0  0
 17 18  1  0  0  0  0
 17 36  1  0  0  0  0
 17 37  1  0  0  0  0
 18 19  1  0  0  0  0
 18 38  1  0  0  0  0
 18 39  1  0  0  0  0
 19 20  1  0  0  0  0
 20 21  1  0  0  0  0
 20 40  1  0  0  0  0
 20 41  1  0  0  0  0
 21 42  1  0  0  0  0
 21 43  1  0  0  0  0
 22 44  1  0  0  0  0
M  END
> <s_m_source_file>
AV-unprocessed.smi

> <i_m_source_file_index>
1917

> <i_lp_mmshare_version>
43012

> <i_f3d_flags>
0

> <s_epik_input>
W0NIM11DKD1PKU4oW0NIM10pW0NIMl1DKD1PKVtOSF1bQ0gyXWMxW2NIXVtjSF1uYyhbY0hdMSlOMltDSDJdW0NIMl1PW0NIMl1bQ0gyXTI=

> <s_epik_cmdline>
J2VwaWtfcHl0aG9uJywgJy1waCcsICc3LjAnLCAnLXRuJywgJzgnLCAnLW1hJywgJzIwMCcsICctbWV0YWxfYmluZGluZycsICctaW1hZScsICc8aW5maWxlLm1hZT4nLCAnLW9tYWUnLCAnPG91dGZpbGUubWFlPic=

> <r_lp_tautomer_probability>
1

> <r_epik_Ionization_Penalty>
0.00469141

> <r_epik_Ionization_Penalty_Charging>
0

> <r_epik_Ionization_Penalty_Neutral>
0.00469141

> <r_epik_State_Penalty>
0.00339539

> <r_epik_Charging_Adjusted_Penalty>
0.00339539

> <i_epik_Tot_Q>
0

> <i_epik_Tot_abs_Q>
0

> <r_epik_Metal_State_Penalty>
-0

> <b_epik_Metal_Only>
0

> <s_lp_Force_Field>
OPLS_2005

> <r_lp_Energy>
17.0747

> <b_lp_Chiralities_Consistent>
1

> <s_lp_Variant>
AV-unprocessed.smi:1917-1

> <Gold.Version>
5.8.1

> <Gold.Id.Protein>
6NUR|6NUR_protein|mol2

> <Gold.PLP.Fitness>
41.7017

> <Gold.PLP.PLP>
-33.3752

> <Gold.PLP.part.hbond>
-4.0306

> <Gold.PLP.part.metal>
0.0000

> <Gold.PLP.part.buried>
-5.4810

> <Gold.PLP.part.nonpolar>
-24.4718

> <Gold.PLP.part.repulsive>
0.0165

> <Gold.PLP.ligand.clash>
0.0000

> <Gold.PLP.ligand.torsion>
0.5948

> <Gold.PLP.Chemscore.Hbond>
3.0000

> <Gold.PLP.Chemscore.CHOScore>
0.0000

> <Gold.PLP.Chemscore.Metal>
0.0000

> <Gold.Chemscore.Hbonds>
donor molecule, donor type, donor heavy atom, donor atom, acceptor molecule, acceptor atom, score
      P1  H  6896  6908       L1     8  1.00
      P1  H  6931  6943       L1     3  1.00
      P1  H  7997  8010       L1    14  1.00

> <Gold.PLP.Chemscore.Internal.Correction>
0.5161

> <Gold.Rescore>
     Score         DG    S(hbond)    S(metal)    S(lipo)     H(rot)  DE(clash)    DE(int)     intcor
     20.01     -20.83       3.59        0.00      72.40       2.00       0.03       0.79       ----

> <Gold.Chemscore.Fitness>
20.0069

> <Gold.Chemscore.DG>
-20.8327

> <Gold.Chemscore.ZeroCoef>
-5.4800

> <Gold.Chemscore.Hbond>
3.5899

> <Gold.Chemscore.Metal>
0.0000

> <Gold.Chemscore.Lipo>
72.4032

> <Gold.Chemscore.Internal_Hbond>
0.0000

> <Gold.Chemscore.DEClash>
0.0320

> <Gold.Chemscore.DEInternal>
0.7937

> <Gold.Chemscore.Rot>
1.9956

> <Gold.Chemscore.Internal.Correction>
   9.000000E+99

> <Gold.Chemscore.Hbonds>
donor molecule, donor type, donor heavy atom, donor atom, acceptor molecule, acceptor atom, score
      P1  H  6896  6908       L1     8  1.00
      P1  H  6931  6943       L1     3  0.94
      P1  H  7997  8010       L1    14  0.45

> <Gold.Chemscore.Hbond.Weighted>
-11.9902

> <Gold.Chemscore.Metal.Weighted>
-0.0000

> <Gold.Chemscore.Lipo.Weighted>
-8.4712

> <Gold.Chemscore.Internal_Hbond.Weighted>
0.0000

> <Gold.Chemscore.DEClash.Weighted>
0.0320

> <Gold.Chemscore.DEInternal.Weighted>
0.7937

> <Gold.Chemscore.Rot.Weighted>
5.1087

> <Gold.Chemscore.Internal.Correction.Weighted>
   9.000000E+99

> <Gold.Protein.RotatedTorsions>
[ 6907 6896 6895 6894 ] final  164.22 input  -60.11 | X-H torsion
[ 7974 7965 7964 7962 ] final -100.68 input  175.53 | X-H torsion
[ 8008 7997 7996 7995 ] final   98.04 input   59.86 | X-H torsion
[ 10167 10162 10161 10158 ] final   77.68 input  -65.29 | X-H torsion
[ 10718 10713 10712 10709 ] final -116.68 input   66.30 | X-H torsion
[ 10763 10752 10751 10750 ] final  -18.16 input  -60.55 | X-H torsion
[ 11005 11000 10999 10996 ] final  -36.22 input  -57.11 | X-H torsion

> <Gold.Protein.ActiveResidues>
 VAL166  LYS551  ARG553  GLY616  TRP617  ASP618  TYR619  PRO620  LYS621  CYS622 
 ASP623  PHE694  ASN695  SER759  ASP760  ASP761  ALA762  ILE779  LEU786  VAL792 
 PHE793  MET794  SER795  GLU796  ALA797  LYS798  CYS799  TRP800  GLU811  SER814 

> <Gold.Protein.RotatedAtoms>
  151.9132  133.3566  159.3870 H   0  0  0  0  0  0  0  0  0  0  0  0  # atno 6907 bound_to 6896
  150.7053  134.4711  159.5435 H   0  0  0  0  0  0  0  0  0  0  0  0  # atno 6908 bound_to 6896
  152.2321  134.8312  160.0523 H   0  0  0  0  0  0  0  0  0  0  0  0  # atno 6909 bound_to 6896
  145.2915  140.9354  143.2875 H   0  0  0  0  0  0  0  0  0  0  0  0  # atno 7974 bound_to 7965
  156.0964  140.3249  155.7883 H   0  0  0  0  0  0  0  0  0  0  0  0  # atno 8008 bound_to 7997
  155.4911  140.0561  157.2971 H   0  0  0  0  0  0  0  0  0  0  0  0  # atno 8009 bound_to 7997
  154.4669  140.1993  156.0111 H   0  0  0  0  0  0  0  0  0  0  0  0  # atno 8010 bound_to 7997
  139.9789  144.5840  150.7918 H   0  0  0  0  0  0  0  0  0  0  0  0  # atno 10167 bound_to 10162
  156.0980  130.6148  150.9066 H   0  0  0  0  0  0  0  0  0  0  0  0  # atno 10718 bound_to 10713
  153.5849  135.7004  153.5447 H   0  0  0  0  0  0  0  0  0  0  0  0  # atno 10763 bound_to 10752
  153.3228  135.4069  155.1431 H   0  0  0  0  0  0  0  0  0  0  0  0  # atno 10764 bound_to 10752
  154.8611  135.3700  154.5378 H   0  0  0  0  0  0  0  0  0  0  0  0  # atno 10765 bound_to 10752
  140.9858  133.7031  156.1762 H   0  0  0  0  0  0  0  0  0  0  0  0  # atno 11005 bound_to 11000
  144.9169  139.4459  143.6560 LP  0  0  0  0  0  0  0  0  0  0  0  0  # atno 17320 bound_to 7965
  146.3183  139.8008  142.8966 LP  0  0  0  0  0  0  0  0  0  0  0  0  # atno 17321 bound_to 7965
  140.7496  143.2941  151.3252 LP  0  0  0  0  0  0  0  0  0  0  0  0  # atno 17342 bound_to 10162
  139.6424  144.0514  152.2565 LP  0  0  0  0  0  0  0  0  0  0  0  0  # atno 17343 bound_to 10162
  157.6145  131.0934  150.8735 LP  0  0  0  0  0  0  0  0  0  0  0  0  # atno 17370 bound_to 10713
  156.8869  130.5199  149.5288 LP  0  0  0  0  0  0  0  0  0  0  0  0  # atno 17371 bound_to 10713
  140.7117  134.4454  157.5581 LP  0  0  0  0  0  0  0  0  0  0  0  0  # atno 17394 bound_to 11000
  139.8970  134.8647  156.2064 LP  0  0  0  0  0  0  0  0  0  0  0  0  # atno 17395 bound_to 11000

$$$$
