AV-unprocessed.smi:3285|AV-procd|sdf|12580|dock6
  -GOLD-   2272018503D 1   1.00000     0.00000
 Structure written by MMmdl.
 45 46  0  0  0  0  0  0  0  0  2 V2000
  151.2047  137.5867  155.0064 C   0  0  0  0  0  0  0  0  0  0  0  0
  150.1437  138.5904  154.6560 C   0  0  0  0  0  0  0  0  0  0  0  0
  149.0659  138.1997  153.9973 N   0  0  0  0  0  0  0  0  0  0  0  0
  148.2843  139.3461  153.8260 O   0  0  0  0  0  0  0  0  0  0  0  0
  148.9311  140.3954  154.3938 C   0  0  0  0  0  0  0  0  0  0  0  0
  148.2528  141.7212  154.3158 C   0  0  0  0  0  0  0  0  0  0  0  0
  150.1176  139.9863  154.9379 C   0  0  0  0  0  0  0  0  0  0  0  0
  151.1524  140.8055  155.6608 C   0  0  0  0  0  0  0  0  0  0  0  0
  150.5156  141.6930  156.7380 C   0  0  0  0  0  0  0  0  0  0  0  0
  151.0496  143.0694  156.6729 N   0  3  0  0  0  0  0  0  0  0  0  0
  151.6760  143.5632  157.9194 C   0  0  2  0  0  0  0  0  0  0  0  0
  152.5330  142.4486  158.5459 C   0  0  0  0  0  0  0  0  0  0  0  0
  153.1706  142.8948  159.8712 C   0  0  0  0  0  0  0  0  0  0  0  0
  152.1047  143.3825  160.8714 C   0  0  1  0  0  0  0  0  0  0  0  0
  152.7198  143.7471  162.2324 C   0  0  0  0  0  0  0  0  0  0  0  0
  151.2329  144.5128  160.2677 C   0  0  1  0  0  0  0  0  0  0  0  0
  151.9605  145.8648  160.1224 C   0  0  0  0  0  0  0  0  0  0  0  0
  150.6143  144.0528  158.9303 C   0  0  0  0  0  0  0  0  0  0  0  0
  152.1402  137.8157  154.4962 H   0  0  0  0  0  0  0  0  0  0  0  0
  150.9133  136.5740  154.7248 H   0  0  0  0  0  0  0  0  0  0  0  0
  151.4020  137.5861  156.0784 H   0  0  0  0  0  0  0  0  0  0  0  0
  148.9724  142.5151  154.1171 H   0  0  0  0  0  0  0  0  0  0  0  0
  147.7464  141.9501  155.2534 H   0  0  0  0  0  0  0  0  0  0  0  0
  147.5100  141.7353  153.5180 H   0  0  0  0  0  0  0  0  0  0  0  0
  151.8954  140.1549  156.1237 H   0  0  0  0  0  0  0  0  0  0  0  0
  151.7051  141.4309  154.9587 H   0  0  0  0  0  0  0  0  0  0  0  0
  149.4332  141.7209  156.6053 H   0  0  0  0  0  0  0  0  0  0  0  0
  150.7089  141.2673  157.7224 H   0  0  0  0  0  0  0  0  0  0  0  0
  151.7244  143.1304  155.9238 H   0  0  0  0  0  0  0  0  0  0  0  0
  152.3384  144.3891  157.6564 H   0  0  0  0  0  0  0  0  0  0  0  0
  151.9178  141.5653  158.7239 H   0  0  0  0  0  0  0  0  0  0  0  0
  153.3159  142.1430  157.8507 H   0  0  0  0  0  0  0  0  0  0  0  0
  153.7268  142.0613  160.3015 H   0  0  0  0  0  0  0  0  0  0  0  0
  153.9012  143.6822  159.6837 H   0  0  0  0  0  0  0  0  0  0  0  0
  151.4373  142.5393  161.0581 H   0  0  0  0  0  0  0  0  0  0  0  0
  153.4751  144.5278  162.1395 H   0  0  0  0  0  0  0  0  0  0  0  0
  153.2027  142.8805  162.6852 H   0  0  0  0  0  0  0  0  0  0  0  0
  151.9572  144.0979  162.9284 H   0  0  0  0  0  0  0  0  0  0  0  0
  150.4044  144.6863  160.9561 H   0  0  0  0  0  0  0  0  0  0  0  0
  152.8469  145.7919  159.4932 H   0  0  0  0  0  0  0  0  0  0  0  0
  152.2732  146.2564  161.0902 H   0  0  0  0  0  0  0  0  0  0  0  0
  151.3036  146.6129  159.6775 H   0  0  0  0  0  0  0  0  0  0  0  0
  150.0239  144.8664  158.5096 H   0  0  0  0  0  0  0  0  0  0  0  0
  149.9091  143.2435  159.1274 H   0  0  0  0  0  0  0  0  0  0  0  0
  150.2754  143.6807  156.4557 H   0  0  0  0  0  0  0  0  0  0  0  0
  1  2  1  0  0  0  0
  1 19  1  0  0  0  0
  1 20  1  0  0  0  0
  1 21  1  0  0  0  0
  2  7  1  0  0  0  0
  2  3  2  0  0  0  0
  3  4  1  0  0  0  0
  4  5  1  0  0  0  0
  5  6  1  0  0  0  0
  5  7  2  0  0  0  0
  6 22  1  0  0  0  0
  6 23  1  0  0  0  0
  6 24  1  0  0  0  0
  7  8  1  0  0  0  0
  8  9  1  0  0  0  0
  8 25  1  0  0  0  0
  8 26  1  0  0  0  0
  9 10  1  0  0  0  0
  9 27  1  0  0  0  0
  9 28  1  0  0  0  0
 10 11  1  0  0  0  0
 10 29  1  0  0  0  0
 10 45  1  0  0  0  0
 11 18  1  0  0  0  0
 11 12  1  0  0  0  0
 11 30  1  0  0  0  0
 12 13  1  0  0  0  0
 12 31  1  0  0  0  0
 12 32  1  0  0  0  0
 13 14  1  0  0  0  0
 13 33  1  0  0  0  0
 13 34  1  0  0  0  0
 14 15  1  0  0  0  0
 14 16  1  0  0  0  0
 14 35  1  0  0  0  0
 15 36  1  0  0  0  0
 15 37  1  0  0  0  0
 15 38  1  0  0  0  0
 16 17  1  0  0  0  0
 16 18  1  0  0  0  0
 16 39  1  0  0  0  0
 17 40  1  0  0  0  0
 17 41  1  0  0  0  0
 17 42  1  0  0  0  0
 18 43  1  0  0  0  0
 18 44  1  0  0  0  0
M  CHG  1  10   1
M  END
> <s_m_source_file>
AV-unprocessed.smi

> <i_m_source_file_index>
3285

> <i_lp_mmshare_version>
43012

> <i_f3d_flags>
0

> <s_epik_input>
W0NIM11jMW5vYyhbQ0gzXSljMVtDSDJdW0NIMl1bTkhdW0NAQEhdMltDSDJdW0NIMl1bQ0BASF0oW0NIM10pW0NAQEhdKFtDSDNdKVtDSDJdMg==

> <s_epik_cmdline>
J2VwaWtfcHl0aG9uJywgJy1waCcsICc3LjAnLCAnLXRuJywgJzgnLCAnLW1hJywgJzIwMCcsICctbWV0YWxfYmluZGluZycsICctaW1hZScsICc8aW5maWxlLm1hZT4nLCAnLW9tYWUnLCAnPG91dGZpbGUubWFlPic=

> <r_lp_tautomer_probability>
1

> <r_epik_Ionization_Penalty>
0.000204615

> <r_epik_Ionization_Penalty_Charging>
0.000204615

> <r_epik_Ionization_Penalty_Neutral>
9.28663e-11

> <r_epik_State_Penalty>
-0

> <r_epik_Charging_Adjusted_Penalty>
0.000204615

> <i_epik_Tot_Q>
1

> <i_epik_Tot_abs_Q>
1

> <r_epik_Metal_State_Penalty>
-0

> <b_epik_Metal_Only>
0

> <s_lp_Force_Field>
OPLS_2005

> <r_lp_Energy>
12.1865

> <b_lp_Chiralities_Consistent>
1

> <s_lp_Variant>
AV-unprocessed.smi:3285-1

> <Gold.Version>
5.8.1

> <Gold.Id.Protein>
6NUR|6NUR_protein|mol2

> <Gold.PLP.Fitness>
47.8768

> <Gold.PLP.PLP>
-43.8639

> <Gold.PLP.part.hbond>
-1.0000

> <Gold.PLP.part.metal>
0.0000

> <Gold.PLP.part.buried>
-4.1981

> <Gold.PLP.part.nonpolar>
-40.1274

> <Gold.PLP.part.repulsive>
2.1933

> <Gold.PLP.ligand.clash>
0.0000

> <Gold.PLP.ligand.torsion>
1.0012

> <Gold.PLP.Chemscore.Hbond>
2.0000

> <Gold.PLP.Chemscore.CHOScore>
0.0000

> <Gold.PLP.Chemscore.Metal>
0.0000

> <Gold.Chemscore.Hbonds>
donor molecule, donor type, donor heavy atom, donor atom, acceptor molecule, acceptor atom, score
      L1  H    10    45       P1  8028  2.00

> <Gold.PLP.Chemscore.Internal.Correction>
0.0152

> <Gold.Rescore>
     Score         DG    S(hbond)    S(metal)    S(lipo)     H(rot)  DE(clash)    DE(int)     intcor
     20.43     -21.23       1.00        0.00     135.53       1.35       0.04       0.76       ----

> <Gold.Chemscore.Fitness>
20.4254

> <Gold.Chemscore.DG>
-21.2271

> <Gold.Chemscore.ZeroCoef>
-5.4800

> <Gold.Chemscore.Hbond>
0.9992

> <Gold.Chemscore.Metal>
0.0000

> <Gold.Chemscore.Lipo>
135.5286

> <Gold.Chemscore.Internal_Hbond>
0.0000

> <Gold.Chemscore.DEClash>
0.0385

> <Gold.Chemscore.DEInternal>
0.7632

> <Gold.Chemscore.Rot>
1.3465

> <Gold.Chemscore.Internal.Correction>
   9.000000E+99

> <Gold.Chemscore.Hbonds>
donor molecule, donor type, donor heavy atom, donor atom, acceptor molecule, acceptor atom, score
      L1  H    10    45       P1  8028  1.00

> <Gold.Chemscore.Hbond.Weighted>
-3.3372

> <Gold.Chemscore.Metal.Weighted>
-0.0000

> <Gold.Chemscore.Lipo.Weighted>
-15.8568

> <Gold.Chemscore.Internal_Hbond.Weighted>
0.0000

> <Gold.Chemscore.DEClash.Weighted>
0.0385

> <Gold.Chemscore.DEInternal.Weighted>
0.7632

> <Gold.Chemscore.Rot.Weighted>
3.4470

> <Gold.Chemscore.Internal.Correction.Weighted>
   9.000000E+99

> <Gold.Protein.RotatedTorsions>
[ 6907 6896 6895 6894 ] final  -39.69 input  -60.11 | X-H torsion
[ 7974 7965 7964 7962 ] final  -79.13 input  175.53 | X-H torsion
[ 8008 7997 7996 7995 ] final -167.88 input   59.86 | X-H torsion
[ 10167 10162 10161 10158 ] final  -25.64 input  -65.29 | X-H torsion
[ 10718 10713 10712 10709 ] final    3.32 input   66.30 | X-H torsion
[ 10763 10752 10751 10750 ] final  -22.14 input  -60.55 | X-H torsion
[ 11005 11000 10999 10996 ] final   12.17 input  -57.11 | X-H torsion

> <Gold.Protein.ActiveResidues>
 VAL166  LYS551  ARG553  GLY616  TRP617  ASP618  TYR619  PRO620  LYS621  CYS622 
 ASP623  PHE694  ASN695  SER759  ASP760  ASP761  ALA762  ILE779  LEU786  VAL792 
 PHE793  MET794  SER795  GLU796  ALA797  LYS798  CYS799  TRP800  GLU811  SER814 

> <Gold.Protein.RotatedAtoms>
  150.9873  134.9216  159.7878 H   0  0  0  0  0  0  0  0  0  0  0  0  # atno 6907 bound_to 6896
  152.5240  134.3329  159.9199 H   0  0  0  0  0  0  0  0  0  0  0  0  # atno 6908 bound_to 6896
  151.3335  133.3950  159.2699 H   0  0  0  0  0  0  0  0  0  0  0  0  # atno 6909 bound_to 6896
  145.5773  140.9455  143.1363 H   0  0  0  0  0  0  0  0  0  0  0  0  # atno 7974 bound_to 7965
  155.8838  140.1013  157.1467 H   0  0  0  0  0  0  0  0  0  0  0  0  # atno 8008 bound_to 7997
  154.4008  140.1324  156.4293 H   0  0  0  0  0  0  0  0  0  0  0  0  # atno 8009 bound_to 7997
  155.7612  140.3463  155.5201 H   0  0  0  0  0  0  0  0  0  0  0  0  # atno 8010 bound_to 7997
  140.7286  143.4247  151.0895 H   0  0  0  0  0  0  0  0  0  0  0  0  # atno 10167 bound_to 10162
  156.8761  130.5637  149.5655 H   0  0  0  0  0  0  0  0  0  0  0  0  # atno 10718 bound_to 10713
  153.6473  135.6982  153.5221 H   0  0  0  0  0  0  0  0  0  0  0  0  # atno 10763 bound_to 10752
  153.2734  135.4208  155.1009 H   0  0  0  0  0  0  0  0  0  0  0  0  # atno 10764 bound_to 10752
  154.8485  135.3584  154.6017 H   0  0  0  0  0  0  0  0  0  0  0  0  # atno 10765 bound_to 10752
  140.4950  134.0802  155.7780 H   0  0  0  0  0  0  0  0  0  0  0  0  # atno 11005 bound_to 11000
  144.7410  139.7450  143.7311 LP  0  0  0  0  0  0  0  0  0  0  0  0  # atno 17320 bound_to 7965
  146.1741  139.4904  142.9908 LP  0  0  0  0  0  0  0  0  0  0  0  0  # atno 17321 bound_to 7965
  139.7897  143.8236  152.3150 LP  0  0  0  0  0  0  0  0  0  0  0  0  # atno 17342 bound_to 10162
  139.8216  144.7293  150.9566 LP  0  0  0  0  0  0  0  0  0  0  0  0  # atno 17343 bound_to 10162
  156.0701  130.5736  150.9367 LP  0  0  0  0  0  0  0  0  0  0  0  0  # atno 17370 bound_to 10713
  157.6168  131.0932  150.8696 LP  0  0  0  0  0  0  0  0  0  0  0  0  # atno 17371 bound_to 10713
  141.1465  133.9046  157.2204 LP  0  0  0  0  0  0  0  0  0  0  0  0  # atno 17394 bound_to 11000
  139.9746  135.0117  156.9600 LP  0  0  0  0  0  0  0  0  0  0  0  0  # atno 17395 bound_to 11000

$$$$
