AV-unprocessed.smi:578|AV-procd|sdf|2986|dock6
  -GOLD-   2262023493D 1   1.00000     0.00000
 Structure written by MMmdl.
 32 33  0  0  0  0  0  0  0  0  2 V2000
  151.0359  145.2268  158.8805 C   0  0  0  0  0  0  0  0  0  0  0  0
  150.5052  143.8913  159.4312 C   0  0  1  0  0  0  0  0  0  0  0  0
  150.1492  142.8708  158.3312 C   0  0  0  0  0  0  0  0  0  0  0  0
  151.3555  142.2985  157.7484 N   0  0  0  0  0  0  0  0  0  0  0  0
  151.0943  141.4514  156.6626 C   0  0  0  0  0  0  0  0  0  0  0  0
  149.9630  141.6870  155.8581 C   0  0  0  0  0  0  0  0  0  0  0  0
  149.7204  140.8248  154.7724 C   0  0  0  0  0  0  0  0  0  0  0  0
  150.5162  139.7806  154.4628 N   0  0  0  0  0  0  0  0  0  0  0  0
  151.6062  139.5439  155.2324 C   0  0  0  0  0  0  0  0  0  0  0  0
  152.4773  138.3714  154.8678 C   0  0  0  0  0  0  0  0  0  0  0  0
  151.9738  137.4214  154.2268 O   0  0  0  0  0  0  0  0  0  0  0  0
  153.6802  138.3783  155.2149 O   0  5  0  0  0  0  0  0  0  0  0  0
  151.9303  140.3582  156.3438 C   0  0  0  0  0  0  0  0  0  0  0  0
  152.2271  141.7062  158.7527 C   0  0  0  0  0  0  0  0  0  0  0  0
  152.5971  142.7588  159.8129 C   0  0  2  0  0  0  0  0  0  0  0  0
  153.4300  142.1584  160.9498 C   0  0  0  0  0  0  0  0  0  0  0  0
  151.4040  143.3048  160.3772 O   0  0  0  0  0  0  0  0  0  0  0  0
  150.2832  145.7136  158.2605 H   0  0  0  0  0  0  0  0  0  0  0  0
  151.9261  145.0968  158.2656 H   0  0  0  0  0  0  0  0  0  0  0  0
  151.2857  145.9104  159.6923 H   0  0  0  0  0  0  0  0  0  0  0  0
  149.5914  144.1183  159.9808 H   0  0  0  0  0  0  0  0  0  0  0  0
  149.5454  142.0705  158.7618 H   0  0  0  0  0  0  0  0  0  0  0  0
  149.5446  143.3430  157.5557 H   0  0  0  0  0  0  0  0  0  0  0  0
  149.2954  142.5105  156.0649 H   0  0  0  0  0  0  0  0  0  0  0  0
  148.8628  140.9785  154.1343 H   0  0  0  0  0  0  0  0  0  0  0  0
  152.8040  140.1492  156.9442 H   0  0  0  0  0  0  0  0  0  0  0  0
  151.7248  140.8617  159.2268 H   0  0  0  0  0  0  0  0  0  0  0  0
  153.1284  141.3197  158.2751 H   0  0  0  0  0  0  0  0  0  0  0  0
  153.1814  143.5544  159.3500 H   0  0  0  0  0  0  0  0  0  0  0  0
  154.3594  141.7318  160.5714 H   0  0  0  0  0  0  0  0  0  0  0  0
  152.8830  141.3681  161.4646 H   0  0  0  0  0  0  0  0  0  0  0  0
  153.6892  142.9194  161.6862 H   0  0  0  0  0  0  0  0  0  0  0  0
  1  2  1  0  0  0  0
  1 18  1  0  0  0  0
  1 19  1  0  0  0  0
  1 20  1  0  0  0  0
  2 17  1  0  0  0  0
  2  3  1  0  0  0  0
  2 21  1  0  0  0  0
  3  4  1  0  0  0  0
  3 22  1  0  0  0  0
  3 23  1  0  0  0  0
  4  5  1  0  0  0  0
  4 14  1  0  0  0  0
  5 13  1  0  0  0  0
  5  6  2  0  0  0  0
  6  7  1  0  0  0  0
  6 24  1  0  0  0  0
  7  8  2  0  0  0  0
  7 25  1  0  0  0  0
  8  9  1  0  0  0  0
  9 10  1  0  0  0  0
  9 13  2  0  0  0  0
 10 11  2  0  0  0  0
 10 12  1  0  0  0  0
 13 26  1  0  0  0  0
 14 15  1  0  0  0  0
 14 27  1  0  0  0  0
 14 28  1  0  0  0  0
 15 16  1  0  0  0  0
 15 17  1  0  0  0  0
 15 29  1  0  0  0  0
 16 30  1  0  0  0  0
 16 31  1  0  0  0  0
 16 32  1  0  0  0  0
M  CHG  1  12  -1
M  END
> <s_m_source_file>
AV-unprocessed.smi

> <i_m_source_file_index>
578

> <i_lp_mmshare_version>
43012

> <i_f3d_flags>
0

> <s_epik_input>
W0NIM11bQ0BASF0xW0NIMl1OKFtDSDJdW0NASF0oTzEpW0NIM10pYzJbY0hdW2NIXW5jKFtjSF0yKUMoPU8pW09IXQ==

> <s_epik_cmdline>
J2VwaWtfcHl0aG9uJywgJy1waCcsICc3LjAnLCAnLXRuJywgJzgnLCAnLW1hJywgJzIwMCcsICctbWV0YWxfYmluZGluZycsICctaW1hZScsICc8aW5maWxlLm1hZT4nLCAnLW9tYWUnLCAnPG91dGZpbGUubWFlPic=

> <r_epik_Ionization_Penalty>
2.00764

> <r_epik_Ionization_Penalty_Charging>
0.000210348

> <r_epik_Ionization_Penalty_Neutral>
2.00743

> <r_epik_State_Penalty>
2.13668

> <r_epik_Charging_Adjusted_Penalty>
2.13689

> <i_epik_Tot_Q>
-1

> <i_epik_Tot_abs_Q>
1

> <r_epik_Metal_State_Penalty>
0.0208571

> <b_epik_Metal_Only>
0

> <s_lp_Force_Field>
OPLS_2005

> <r_lp_Energy>
23.987

> <b_lp_Chiralities_Consistent>
1

> <s_lp_Variant>
AV-unprocessed.smi:578-6

> <Gold.Version>
5.8.1

> <Gold.Id.Protein>
6NUR|6NUR_protein|mol2

> <Gold.PLP.Fitness>
47.6743

> <Gold.PLP.PLP>
-38.8819

> <Gold.PLP.part.hbond>
-3.7006

> <Gold.PLP.part.metal>
0.0000

> <Gold.PLP.part.buried>
-3.8752

> <Gold.PLP.part.nonpolar>
-30.6896

> <Gold.PLP.part.repulsive>
0.4025

> <Gold.PLP.ligand.clash>
0.0689

> <Gold.PLP.ligand.torsion>
0.9288

> <Gold.PLP.Chemscore.Hbond>
3.5420

> <Gold.PLP.Chemscore.CHOScore>
0.0000

> <Gold.PLP.Chemscore.Metal>
0.0000

> <Gold.Chemscore.Hbonds>
donor molecule, donor type, donor heavy atom, donor atom, acceptor molecule, acceptor atom, score
      P1  H  7989  7998       L1     8  0.14
      P1  H  7997  8008       L1    12  1.37
      P1  H 10752 10765       L1    11  1.86

> <Gold.PLP.Chemscore.Internal.Correction>
0.0928

> <Gold.Rescore>
     Score         DG    S(hbond)    S(metal)    S(lipo)     H(rot)  DE(clash)    DE(int)     intcor
     18.18     -19.20       1.58        0.00      94.00       1.00       0.10       0.92       ----

> <Gold.Chemscore.Fitness>
18.1785

> <Gold.Chemscore.DG>
-19.2027

> <Gold.Chemscore.ZeroCoef>
-5.4800

> <Gold.Chemscore.Hbond>
1.5823

> <Gold.Chemscore.Metal>
0.0000

> <Gold.Chemscore.Lipo>
93.9970

> <Gold.Chemscore.Internal_Hbond>
0.0000

> <Gold.Chemscore.DEClash>
0.1003

> <Gold.Chemscore.DEInternal>
0.9239

> <Gold.Chemscore.Rot>
1.0000

> <Gold.Chemscore.Internal.Correction>
   9.000000E+99

> <Gold.Chemscore.Hbonds>
donor molecule, donor type, donor heavy atom, donor atom, acceptor molecule, acceptor atom, score
      P1  H  7997  8008       L1    12  0.63
      P1  H 10752 10765       L1    11  0.84

> <Gold.Chemscore.Hbond.Weighted>
-5.2850

> <Gold.Chemscore.Metal.Weighted>
-0.0000

> <Gold.Chemscore.Lipo.Weighted>
-10.9977

> <Gold.Chemscore.Internal_Hbond.Weighted>
0.0000

> <Gold.Chemscore.DEClash.Weighted>
0.1003

> <Gold.Chemscore.DEInternal.Weighted>
0.9239

> <Gold.Chemscore.Rot.Weighted>
2.5600

> <Gold.Chemscore.Internal.Correction.Weighted>
   9.000000E+99

> <Gold.Protein.RotatedTorsions>
[ 6907 6896 6895 6894 ] final   66.24 input  -60.11 | X-H torsion
[ 7974 7965 7964 7962 ] final -164.77 input  175.53 | X-H torsion
[ 8008 7997 7996 7995 ] final  -18.84 input   59.86 | X-H torsion
[ 10167 10162 10161 10158 ] final  119.64 input  -65.29 | X-H torsion
[ 10718 10713 10712 10709 ] final  -63.52 input   66.30 | X-H torsion
[ 10763 10752 10751 10750 ] final  149.99 input  -60.55 | X-H torsion
[ 11005 11000 10999 10996 ] final  144.05 input  -57.11 | X-H torsion

> <Gold.Protein.ActiveResidues>
 VAL166  LYS551  ARG553  GLY616  TRP617  ASP618  TYR619  PRO620  LYS621  CYS622 
 ASP623  PHE694  ASN695  SER759  ASP760  ASP761  ALA762  ILE779  LEU786  VAL792 
 PHE793  MET794  SER795  GLU796  ALA797  LYS798  CYS799  TRP800  GLU811  SER814 

> <Gold.Protein.RotatedAtoms>
  152.4466  134.5481  159.9858 H   0  0  0  0  0  0  0  0  0  0  0  0  # atno 6907 bound_to 6896
  151.5565  133.3404  159.2971 H   0  0  0  0  0  0  0  0  0  0  0  0  # atno 6908 bound_to 6896
  150.8384  134.7699  159.6975 H   0  0  0  0  0  0  0  0  0  0  0  0  # atno 6909 bound_to 6896
  144.7288  140.2912  143.6220 H   0  0  0  0  0  0  0  0  0  0  0  0  # atno 7974 bound_to 7965
  154.4878  140.2105  155.9617 H   0  0  0  0  0  0  0  0  0  0  0  0  # atno 8008 bound_to 7997
  156.1261  140.3205  155.8248 H   0  0  0  0  0  0  0  0  0  0  0  0  # atno 8009 bound_to 7997
  155.4381  140.0508  157.3003 H   0  0  0  0  0  0  0  0  0  0  0  0  # atno 8010 bound_to 7997
  139.6033  144.7063  151.3012 H   0  0  0  0  0  0  0  0  0  0  0  0  # atno 10167 bound_to 10162
  156.0786  130.4222  150.1289 H   0  0  0  0  0  0  0  0  0  0  0  0  # atno 10718 bound_to 10713
  154.0802  135.2860  155.3291 H   0  0  0  0  0  0  0  0  0  0  0  0  # atno 10763 bound_to 10752
  154.6688  135.5307  153.8115 H   0  0  0  0  0  0  0  0  0  0  0  0  # atno 10764 bound_to 10752
  153.0451  135.6552  154.0978 H   0  0  0  0  0  0  0  0  0  0  0  0  # atno 10765 bound_to 10752
  140.0602  134.9209  157.1170 H   0  0  0  0  0  0  0  0  0  0  0  0  # atno 11005 bound_to 11000
  145.7853  139.1906  143.2134 LP  0  0  0  0  0  0  0  0  0  0  0  0  # atno 17320 bound_to 7965
  146.0801  140.7774  142.9646 LP  0  0  0  0  0  0  0  0  0  0  0  0  # atno 17321 bound_to 7965
  140.7266  143.6986  150.7863 LP  0  0  0  0  0  0  0  0  0  0  0  0  # atno 17342 bound_to 10162
  140.0567  143.5196  152.2648 LP  0  0  0  0  0  0  0  0  0  0  0  0  # atno 17343 bound_to 10162
  156.9325  130.9718  151.3530 LP  0  0  0  0  0  0  0  0  0  0  0  0  # atno 17370 bound_to 10713
  157.5893  130.8432  149.8635 LP  0  0  0  0  0  0  0  0  0  0  0  0  # atno 17371 bound_to 10713
  140.3782  134.2316  155.7173 LP  0  0  0  0  0  0  0  0  0  0  0  0  # atno 17394 bound_to 11000
  141.1969  133.8070  157.0649 LP  0  0  0  0  0  0  0  0  0  0  0  0  # atno 17395 bound_to 11000

$$$$
