AV-unprocessed.smi:1560|AV-procd|sdf|6275|dock9
  -GOLD-   22720 6463D 1   1.00000     0.00000
 Structure written by MMmdl.
 47 48  0  0  0  0  0  0  0  0  1 V2000
  152.4010  139.3983  155.2550 C   0  0  0  0  0  0  0  0  0  0  0  0
  151.1968  138.9161  156.0816 C   0  0  0  0  0  0  0  0  0  0  0  0
  150.3653  140.0467  156.7738 C   0  0  1  0  0  0  0  0  0  0  0  0
  149.8524  140.9743  155.6404 C   0  0  0  0  0  0  0  0  0  0  0  0
  149.1151  139.4022  157.4564 C   0  0  0  0  0  0  0  0  0  0  0  0
  149.4122  138.1390  158.1205 N   0  0  0  0  0  0  0  0  0  0  0  0
  148.5678  137.4264  158.8809 C   0  0  0  0  0  0  0  0  0  0  0  0
  147.4135  137.7842  159.1120 O   0  0  0  0  0  0  0  0  0  0  0  0
  149.0872  136.1088  159.4833 C   0  0  0  0  0  0  0  0  0  0  0  0
  148.1202  135.4131  160.3505 N   0  0  0  0  0  0  0  0  0  0  0  0
  147.7817  134.0916  160.0956 C   0  0  0  0  0  0  0  0  0  0  0  0
  146.8760  133.3991  160.8261 C   0  0  0  0  0  0  0  0  0  0  0  0
  146.1939  134.0323  161.9495 C   0  0  0  0  0  0  0  0  0  0  0  0
  145.3573  133.4904  162.6682 O   0  0  0  0  0  0  0  0  0  0  0  0
  146.5618  135.3613  162.1753 N   0  0  0  0  0  0  0  0  0  0  0  0
  147.4939  136.0807  161.4263 C   0  0  0  0  0  0  0  0  0  0  0  0
  147.7345  137.2550  161.7024 O   0  0  0  0  0  0  0  0  0  0  0  0
  151.1868  140.7841  157.7804 N   0  0  0  0  0  0  0  0  0  0  0  0
  150.5678  142.0006  158.3250 C   0  0  0  0  0  0  0  0  0  0  0  0
  151.5173  142.7723  159.2568 C   0  0  0  0  0  0  0  0  0  0  0  0
  151.9473  141.9225  160.3121 O   0  0  0  0  0  0  0  0  0  0  0  0
  152.6149  140.7635  159.8310 C   0  0  0  0  0  0  0  0  0  0  0  0
  151.6795  139.9713  158.9013 C   0  0  0  0  0  0  0  0  0  0  0  0
  146.1140  135.8417  162.9422 H   0  0  0  0  0  0  0  0  0  0  0  0
  152.9030  138.5534  154.7835 H   0  0  0  0  0  0  0  0  0  0  0  0
  153.1386  139.9077  155.8746 H   0  0  0  0  0  0  0  0  0  0  0  0
  152.0967  140.0821  154.4625 H   0  0  0  0  0  0  0  0  0  0  0  0
  150.5576  138.3053  155.4453 H   0  0  0  0  0  0  0  0  0  0  0  0
  151.5600  138.2006  156.8201 H   0  0  0  0  0  0  0  0  0  0  0  0
  149.2727  140.4206  154.9008 H   0  0  0  0  0  0  0  0  0  0  0  0
  150.6679  141.4488  155.0951 H   0  0  0  0  0  0  0  0  0  0  0  0
  149.2029  141.7638  156.0174 H   0  0  0  0  0  0  0  0  0  0  0  0
  148.6808  140.0839  158.1889 H   0  0  0  0  0  0  0  0  0  0  0  0
  148.3378  139.2026  156.7183 H   0  0  0  0  0  0  0  0  0  0  0  0
  150.3422  137.7696  157.9859 H   0  0  0  0  0  0  0  0  0  0  0  0
  149.3850  135.4552  158.6620 H   0  0  0  0  0  0  0  0  0  0  0  0
  150.0095  136.3155  160.0290 H   0  0  0  0  0  0  0  0  0  0  0  0
  148.2575  133.5844  159.2683 H   0  0  0  0  0  0  0  0  0  0  0  0
  146.6529  132.3718  160.5763 H   0  0  0  0  0  0  0  0  0  0  0  0
  150.2743  142.6821  157.5297 H   0  0  0  0  0  0  0  0  0  0  0  0
  149.6638  141.7490  158.8794 H   0  0  0  0  0  0  0  0  0  0  0  0
  152.3805  143.1475  158.7048 H   0  0  0  0  0  0  0  0  0  0  0  0
  151.0087  143.6377  159.6821 H   0  0  0  0  0  0  0  0  0  0  0  0
  153.5272  141.0512  159.3060 H   0  0  0  0  0  0  0  0  0  0  0  0
  152.9151  140.1484  160.6793 H   0  0  0  0  0  0  0  0  0  0  0  0
  150.8433  139.5889  159.4866 H   0  0  0  0  0  0  0  0  0  0  0  0
  152.2391  139.1092  158.5448 H   0  0  0  0  0  0  0  0  0  0  0  0
  1  2  1  0  0  0  0
  1 25  1  0  0  0  0
  1 26  1  0  0  0  0
  1 27  1  0  0  0  0
  2  3  1  0  0  0  0
  2 28  1  0  0  0  0
  2 29  1  0  0  0  0
  3  4  1  0  0  0  0
  3  5  1  0  0  0  0
  3 18  1  0  0  0  0
  4 30  1  0  0  0  0
  4 31  1  0  0  0  0
  4 32  1  0  0  0  0
  5  6  1  0  0  0  0
  5 33  1  0  0  0  0
  5 34  1  0  0  0  0
  6  7  1  0  0  0  0
  6 35  1  0  0  0  0
  7  8  2  0  0  0  0
  7  9  1  0  0  0  0
  9 10  1  0  0  0  0
  9 36  1  0  0  0  0
  9 37  1  0  0  0  0
 10 16  1  0  0  0  0
 10 11  1  0  0  0  0
 11 12  2  0  0  0  0
 11 38  1  0  0  0  0
 12 13  1  0  0  0  0
 12 39  1  0  0  0  0
 13 14  2  0  0  0  0
 13 15  1  0  0  0  0
 15 24  1  0  0  0  0
 15 16  1  0  0  0  0
 16 17  2  0  0  0  0
 18 23  1  0  0  0  0
 18 19  1  0  0  0  0
 19 20  1  0  0  0  0
 19 40  1  0  0  0  0
 19 41  1  0  0  0  0
 20 21  1  0  0  0  0
 20 42  1  0  0  0  0
 20 43  1  0  0  0  0
 21 22  1  0  0  0  0
 22 23  1  0  0  0  0
 22 44  1  0  0  0  0
 22 45  1  0  0  0  0
 23 46  1  0  0  0  0
 23 47  1  0  0  0  0
M  END
> <s_m_source_file>
AV-unprocessed.smi

> <i_m_source_file_index>
1560

> <i_lp_mmshare_version>
43012

> <i_f3d_flags>
0

> <s_epik_input>
W0NIMl0xW0NIMl1PW0NIMl1bQ0gyXU4xW0NAQF0oW0NIM10pKFtDSDJdW0NIM10pW0NIMl1bTkhdQyg9TylbQ0gyXW4yW2NIXVtjSF1jKD1PKVtuSF1jMj1P

> <s_epik_cmdline>
J2VwaWtfcHl0aG9uJywgJy1waCcsICc3LjAnLCAnLXRuJywgJzgnLCAnLW1hJywgJzIwMCcsICctbWV0YWxfYmluZGluZycsICctaW1hZScsICc8aW5maWxlLm1hZT4nLCAnLW9tYWUnLCAnPG91dGZpbGUubWFlPic=

> <r_lp_tautomer_probability>
0.999537

> <r_epik_Ionization_Penalty>
0.321965

> <r_epik_Ionization_Penalty_Charging>
0.00329831

> <r_epik_Ionization_Penalty_Neutral>
0.318667

> <r_epik_State_Penalty>
0.288097

> <r_epik_Charging_Adjusted_Penalty>
0.291396

> <i_epik_Tot_Q>
0

> <i_epik_Tot_abs_Q>
0

> <r_epik_Metal_State_Penalty>
0.654595

> <b_epik_Metal_Only>
0

> <s_lp_Force_Field>
OPLS_2005

> <r_lp_Energy>
42.3402

> <b_lp_Chiralities_Consistent>
1

> <s_lp_Variant>
AV-unprocessed.smi:1560-1

> <Gold.Version>
5.8.1

> <Gold.Id.Protein>
6NUR|6NUR_protein|mol2

> <Gold.PLP.Fitness>
38.4663

> <Gold.PLP.PLP>
-34.4493

> <Gold.PLP.part.hbond>
-3.6182

> <Gold.PLP.part.metal>
0.0000

> <Gold.PLP.part.buried>
-3.7746

> <Gold.PLP.part.nonpolar>
-27.3572

> <Gold.PLP.part.repulsive>
0.2778

> <Gold.PLP.ligand.clash>
0.0000

> <Gold.PLP.ligand.torsion>
0.4601

> <Gold.PLP.Chemscore.Hbond>
1.6160

> <Gold.PLP.Chemscore.CHOScore>
0.0000

> <Gold.PLP.Chemscore.Metal>
0.0000

> <Gold.Chemscore.Hbonds>
donor molecule, donor type, donor heavy atom, donor atom, acceptor molecule, acceptor atom, score
      P1  H  6931  6943       L1    17  1.00
      P1  H  6934  6947       L1    17  0.69

> <Gold.PLP.Chemscore.Internal.Correction>
0.0893

> <Gold.Rescore>
     Score         DG    S(hbond)    S(metal)    S(lipo)     H(rot)  DE(clash)    DE(int)     intcor
      8.44     -13.12       1.76        0.00      69.42       2.49       0.10       4.57       ----

> <Gold.Chemscore.Fitness>
8.4414

> <Gold.Chemscore.DG>
-13.1155

> <Gold.Chemscore.ZeroCoef>
-5.4800

> <Gold.Chemscore.Hbond>
1.7600

> <Gold.Chemscore.Metal>
0.0000

> <Gold.Chemscore.Lipo>
69.4172

> <Gold.Chemscore.Internal_Hbond>
0.0000

> <Gold.Chemscore.DEClash>
0.1047

> <Gold.Chemscore.DEInternal>
4.5695

> <Gold.Chemscore.Rot>
2.4862

> <Gold.Chemscore.Internal.Correction>
   9.000000E+99

> <Gold.Chemscore.Hbonds>
donor molecule, donor type, donor heavy atom, donor atom, acceptor molecule, acceptor atom, score
      P1  H  6931  6943       L1    17  0.94
      P1  H  6934  6947       L1    17  0.66

> <Gold.Chemscore.Hbond.Weighted>
-5.8784

> <Gold.Chemscore.Metal.Weighted>
-0.0000

> <Gold.Chemscore.Lipo.Weighted>
-8.1218

> <Gold.Chemscore.Internal_Hbond.Weighted>
0.0000

> <Gold.Chemscore.DEClash.Weighted>
0.1047

> <Gold.Chemscore.DEInternal.Weighted>
4.5695

> <Gold.Chemscore.Rot.Weighted>
6.3646

> <Gold.Chemscore.Internal.Correction.Weighted>
   9.000000E+99

> <Gold.Protein.RotatedTorsions>
[ 6907 6896 6895 6894 ] final  140.76 input  -60.11 | X-H torsion
[ 7974 7965 7964 7962 ] final  163.49 input  175.53 | X-H torsion
[ 8008 7997 7996 7995 ] final   95.53 input   59.86 | X-H torsion
[ 10167 10162 10161 10158 ] final -106.19 input  -65.29 | X-H torsion
[ 10718 10713 10712 10709 ] final  106.98 input   66.30 | X-H torsion
[ 10763 10752 10751 10750 ] final -112.70 input  -60.55 | X-H torsion
[ 11005 11000 10999 10996 ] final   14.26 input  -57.11 | X-H torsion

> <Gold.Protein.ActiveResidues>
 VAL166  LYS551  ARG553  GLY616  TRP617  ASP618  TYR619  PRO620  LYS621  CYS622 
 ASP623  PHE694  ASN695  SER759  ASP760  ASP761  ALA762  ILE779  LEU786  VAL792 
 PHE793  MET794  SER795  GLU796  ALA797  LYS798  CYS799  TRP800  GLU811  SER814 

> <Gold.Protein.RotatedAtoms>
  152.2391  133.5120  159.5259 H   0  0  0  0  0  0  0  0  0  0  0  0  # atno 6907 bound_to 6896
  150.7059  134.1113  159.4010 H   0  0  0  0  0  0  0  0  0  0  0  0  # atno 6908 bound_to 6896
  151.9034  135.0369  160.0559 H   0  0  0  0  0  0  0  0  0  0  0  0  # atno 6909 bound_to 6896
  144.7587  139.8190  143.6340 H   0  0  0  0  0  0  0  0  0  0  0  0  # atno 7974 bound_to 7965
  156.0699  140.3285  155.7563 H   0  0  0  0  0  0  0  0  0  0  0  0  # atno 8008 bound_to 7997
  155.5323  140.0594  157.2904 H   0  0  0  0  0  0  0  0  0  0  0  0  # atno 8009 bound_to 7997
  154.4524  140.1925  156.0496 H   0  0  0  0  0  0  0  0  0  0  0  0  # atno 8010 bound_to 7997
  140.1904  143.3896  152.1211 H   0  0  0  0  0  0  0  0  0  0  0  0  # atno 10167 bound_to 10162
  157.6647  131.0863  150.6088 H   0  0  0  0  0  0  0  0  0  0  0  0  # atno 10718 bound_to 10713
  154.8362  135.4481  154.1235 H   0  0  0  0  0  0  0  0  0  0  0  0  # atno 10763 bound_to 10752
  153.2465  135.6922  153.7732 H   0  0  0  0  0  0  0  0  0  0  0  0  # atno 10764 bound_to 10752
  153.7060  135.3364  155.3211 H   0  0  0  0  0  0  0  0  0  0  0  0  # atno 10765 bound_to 10752
  140.4716  134.1026  155.7733 H   0  0  0  0  0  0  0  0  0  0  0  0  # atno 11005 bound_to 11000
  146.1627  139.4748  142.9978 LP  0  0  0  0  0  0  0  0  0  0  0  0  # atno 17320 bound_to 7965
  145.6690  141.0221  143.1668 LP  0  0  0  0  0  0  0  0  0  0  0  0  # atno 17321 bound_to 7965
  139.5258  144.7100  151.5234 LP  0  0  0  0  0  0  0  0  0  0  0  0  # atno 17342 bound_to 10162
  140.6460  143.8794  150.6737 LP  0  0  0  0  0  0  0  0  0  0  0  0  # atno 17343 bound_to 10162
  156.6389  130.4453  149.5759 LP  0  0  0  0  0  0  0  0  0  0  0  0  # atno 17370 bound_to 10713
  156.2224  130.6745  151.1381 LP  0  0  0  0  0  0  0  0  0  0  0  0  # atno 17371 bound_to 10713
  141.1574  133.8856  157.1940 LP  0  0  0  0  0  0  0  0  0  0  0  0  # atno 17394 bound_to 11000
  139.9882  135.0074  156.9912 LP  0  0  0  0  0  0  0  0  0  0  0  0  # atno 17395 bound_to 11000

$$$$
