#       Name:                AV-unprocessed.smi:1394
#       Creating user name   scv26
#       Creation time:       Fri Mar 27 05:29:11 2020


#       File generated by GOLD software.
#

@<TRIPOS>MOLECULE
AV-unprocessed.smi:1394
    45    46     1
SMALL
NO_CHARGES


@<TRIPOS>ATOM
      1 ****        -0.9606  -2.8085   2.7136 C.3            1 S1                 0.0000
      2 ****        -1.6150  -2.6153   1.3337 C.3            1 S1                 0.0000
      3 ****        -3.1094  -2.9933   1.3874 C.3            1 S1                 0.0000
      4 ****        -3.7936  -2.8214   0.0228 C.3            1 S1                 0.0000
      5 ****        -3.6229  -1.3894  -0.5016 C.3            1 S1                 0.0000
      6 ****        -2.1383  -1.0059  -0.5772 C.3            1 S1                 0.0000
      7 ****        -1.4348  -1.1767   0.7865 C.3            1 S1                 0.0000
      8 ****        -0.0152  -0.8556   0.6549 N.am           1 S1                 0.0000
      9 ****         0.5089   0.3793   0.6720 C.2            1 S1                 0.0000
     10 ****        -0.1667   1.3986   0.8188 O.2            1 S1                 0.0000
     11 ****         2.0336   0.4659   0.5176 C.3            1 S1                 0.0000
     12 ****         2.4777   1.7099  -0.1343 N.am           1 S1                 0.0000
     13 ****         2.9455   2.7380   0.7035 C.2            1 S1                 0.0000
     14 ****         3.3706   3.9097   0.2122 C.2            1 S1                 0.0000
     15 ****         3.3414   4.1013  -1.2173 C.2            1 S1                 0.0000
     16 ****         2.8948   3.1313  -2.0487 C.2            1 S1                 0.0000
     17 ****         2.8607   3.3151  -3.5642 C.3            1 S1                 0.0000
     18 ****         1.6135   3.2007  -4.0222 F              1 S1                 0.0000
     19 ****         3.3206   4.5130  -3.9284 F              1 S1                 0.0000
     20 ****         3.6116   2.3912  -4.1654 F              1 S1                 0.0000
     21 ****         2.4243   1.8446  -1.4959 C.2            1 S1                 0.0000
     22 ****         2.0044   0.9336  -2.2118 O.2            1 S1                 0.0000
     23 ****        -1.3872  -2.1282   3.4511 H              1 S1                 0.0000
     24 ****         0.1144  -2.6308   2.6798 H              1 S1                 0.0000
     25 ****        -1.1075  -3.8257   3.0772 H              1 S1                 0.0000
     26 ****        -1.1269  -3.3036   0.6418 H              1 S1                 0.0000
     27 ****        -3.2218  -4.0255   1.7211 H              1 S1                 0.0000
     28 ****        -3.6187  -2.3743   2.1273 H              1 S1                 0.0000
     29 ****        -3.3691  -3.5272  -0.6924 H              1 S1                 0.0000
     30 ****        -4.8536  -3.0630   0.1054 H              1 S1                 0.0000
     31 ****        -4.0821  -1.2959  -1.4861 H              1 S1                 0.0000
     32 ****        -4.1487  -0.6930   0.1529 H              1 S1                 0.0000
     33 ****        -1.6441  -1.6249  -1.3275 H              1 S1                 0.0000
     34 ****        -2.0489   0.0249  -0.9223 H              1 S1                 0.0000
     35 ****        -1.8877  -0.4855   1.5005 H              1 S1                 0.0000
     36 ****         0.6160  -1.6346   0.5349 H              1 S1                 0.0000
     37 ****         2.4786   0.3691   1.5087 H              1 S1                 0.0000
     38 ****         2.3967  -0.3980  -0.0426 H              1 S1                 0.0000
     39 ****         2.9296   2.5165   1.7607 H              1 S1                 0.0000
     40 ****         3.7239   4.6907   0.8694 H              1 S1                 0.0000
     41 ****         3.6870   5.0436  -1.6152 H              1 S1                 0.0000
     42 ****        -1.1578   1.3294   0.9330 LP             1 S1                 0.0000
     43 ****         0.2758   2.2953   0.8238 LP             1 S1                 0.0000
     44 ****         1.6947   0.0765  -1.8002 LP             1 S1                 0.0000
     45 ****         1.9733   1.0515  -3.2044 LP             1 S1                 0.0000
@<TRIPOS>BOND
    1    1    2 1     
    2    1   23 1     
    3    1   24 1     
    4    1   25 1     
    5    2    7 1     
    6    2    3 1     
    7    2   26 1     
    8    3    4 1     
    9    3   27 1     
   10    3   28 1     
   11    4    5 1     
   12    4   29 1     
   13    4   30 1     
   14    5    6 1     
   15    5   31 1     
   16    5   32 1     
   17    6    7 1     
   18    6   33 1     
   19    6   34 1     
   20    7    8 1     
   21    7   35 1     
   22    8    9 am    
   23    8   36 1     
   24    9   10 2     
   25    9   11 1     
   26   11   12 1     
   27   11   37 1     
   28   11   38 1     
   29   12   21 am    
   30   12   13 1     
   31   13   14 2     
   32   13   39 1     
   33   14   15 1     
   34   14   40 1     
   35   15   16 2     
   36   15   41 1     
   37   16   17 1     
   38   16   21 1     
   39   17   18 1     
   40   17   19 1     
   41   17   20 1     
   42   21   22 2     
   43   10   42 1     
   44   10   43 1     
   45   22   44 1     
   46   22   45 1     
@<TRIPOS>SUBSTRUCTURE
      1 S1             1
@<TRIPOS>SET
LONE_PAIRS      STATIC     ATOMS    <user>   **** ""
4 42 43 44 45
DONOR_HYDROGENS      STATIC     ATOMS    <user>   **** ""
1 36
ATOM$BLUE        STATIC     ATOMS    COLORGROUP SYSTEM
4 42 43 44 45
ATOM$RED        STATIC     ATOMS    COLORGROUP SYSTEM
1 36
