#       Name:                AV-unprocessed.smi:1397
#       Creating user name   scv26
#       Creation time:       Fri Mar 27 05:30:25 2020


#       File generated by GOLD software.
#

@<TRIPOS>MOLECULE
AV-unprocessed.smi:1397
    42    43     1
SMALL
NO_CHARGES


@<TRIPOS>ATOM
      1 ****        -4.1089  -3.7517  -0.8720 C.3            1 S1                 0.0000
      2 ****        -3.7577  -2.9157   0.3608 C.2            1 S1                 0.0000
      3 ****        -3.8277  -3.4564   1.4645 O.2            1 S1                 0.0000
      4 ****        -3.3825  -1.6235   0.2007 N.am           1 S1                 0.0000
      5 ****        -2.9705  -0.7715   1.3229 C.3            1 S1                 0.0000
      6 ****        -1.4621  -0.4861   1.2096 C.3            1 S1                 0.0000
      7 ****        -1.1118   0.1436  -0.1578 C.3            1 S1                 0.0000
      8 ****         0.3351   0.2406  -0.3275 N.am           1 S1                 0.0000
      9 ****         1.1069   1.2227   0.1613 C.2            1 S1                 0.0000
     10 ****         0.6696   2.1618   0.8272 O.2            1 S1                 0.0000
     11 ****         2.3968   1.0399  -0.1723 N.am           1 S1                 0.0000
     12 ****         3.5112   1.8631   0.1426 C.ar           1 S1                 0.0000
     13 ****         4.7506   1.4131  -0.3664 C.ar           1 S1                 0.0000
     14 ****         5.9171   2.1598  -0.1106 C.ar           1 S1                 0.0000
     15 ****         5.8141   3.3387   0.6490 C.ar           1 S1                 0.0000
     16 ****         4.5425   3.7159   1.1190 C.ar           1 S1                 0.0000
     17 ****         3.4234   3.0019   0.8748 N.ar           1 S1                 0.0000
     18 ****        -1.7191  -0.6699  -1.3202 C.3            1 S1                 0.0000
     19 ****        -3.2167  -0.9396  -1.0883 C.3            1 S1                 0.0000
     20 ****        -3.2639  -3.8024  -1.5592 H              1 S1                 0.0000
     21 ****        -4.9673  -3.3283  -1.3940 H              1 S1                 0.0000
     22 ****        -4.3653  -4.7719  -0.5845 H              1 S1                 0.0000
     23 ****        -3.5314   0.1637   1.2912 H              1 S1                 0.0000
     24 ****        -3.1900  -1.2156   2.2947 H              1 S1                 0.0000
     25 ****        -1.1490   0.1734   2.0200 H              1 S1                 0.0000
     26 ****        -0.9115  -1.4192   1.3399 H              1 S1                 0.0000
     27 ****        -1.5442   1.1455  -0.1964 H              1 S1                 0.0000
     28 ****         0.7791  -0.4924  -0.8611 H              1 S1                 0.0000
     29 ****         2.6058   0.2196  -0.7215 H              1 S1                 0.0000
     30 ****         4.8120   0.5049  -0.9486 H              1 S1                 0.0000
     31 ****         6.8737   1.8329  -0.4910 H              1 S1                 0.0000
     32 ****         6.6862   3.9375   0.8662 H              1 S1                 0.0000
     33 ****         4.4202   4.6132   1.7074 H              1 S1                 0.0000
     34 ****        -1.5785  -0.1381  -2.2619 H              1 S1                 0.0000
     35 ****        -1.1960  -1.6224  -1.4210 H              1 S1                 0.0000
     36 ****        -3.6274  -1.4905  -1.9329 H              1 S1                 0.0000
     37 ****        -3.7645   0.0036  -1.0638 H              1 S1                 0.0000
     38 ****        -4.1073  -4.4139   1.5354 LP             1 S1                 0.0000
     39 ****        -3.6049  -2.9382   2.2902 LP             1 S1                 0.0000
     40 ****        -0.3082   2.2193   1.0286 LP             1 S1                 0.0000
     41 ****         1.2924   2.8668   1.1665 LP             1 S1                 0.0000
     42 ****         2.5401   3.3086   1.2293 LP             1 S1                 0.0000
@<TRIPOS>BOND
    1    1    2 1     
    2    1   20 1     
    3    1   21 1     
    4    1   22 1     
    5    2    3 2     
    6    2    4 am    
    7    4   19 1     
    8    4    5 1     
    9    5    6 1     
   10    5   23 1     
   11    5   24 1     
   12    6    7 1     
   13    6   25 1     
   14    6   26 1     
   15    7    8 1     
   16    7   18 1     
   17    7   27 1     
   18    8    9 am    
   19    8   28 1     
   20    9   10 2     
   21    9   11 am    
   22   11   12 1     
   23   11   29 1     
   24   12   17 ar    
   25   12   13 ar    
   26   13   14 ar    
   27   13   30 1     
   28   14   15 ar    
   29   14   31 1     
   30   15   16 ar    
   31   15   32 1     
   32   16   17 ar    
   33   16   33 1     
   34   18   19 1     
   35   18   34 1     
   36   18   35 1     
   37   19   36 1     
   38   19   37 1     
   39    3   38 1     
   40    3   39 1     
   41   10   40 1     
   42   10   41 1     
   43   17   42 1     
@<TRIPOS>SUBSTRUCTURE
      1 S1             1
@<TRIPOS>SET
LONE_PAIRS      STATIC     ATOMS    <user>   **** ""
5 38 39 40 41 42
DONOR_HYDROGENS      STATIC     ATOMS    <user>   **** ""
2 28 29
ATOM$BLUE        STATIC     ATOMS    COLORGROUP SYSTEM
5 38 39 40 41 42
ATOM$RED        STATIC     ATOMS    COLORGROUP SYSTEM
2 28 29
