AV-unprocessed.smi:392|AV-procd|sdf|2480|dock1
  -GOLD-   2262022423D 1   1.00000     0.00000
 Structure written by MMmdl.
 32 34  0  0  0  0  0  0  0  0  1 V2000
  150.6802  144.0078  157.7060 O   0  0  0  0  0  0  0  0  0  0  0  0
  151.3076  142.8030  158.0968 C   0  0  2  0  0  0  0  0  0  0  0  0
  150.2766  141.6640  157.9766 C   0  0  0  0  0  0  0  0  0  0  0  0
  150.0974  141.2298  156.6031 N   0  0  0  0  0  0  0  0  0  0  0  0
  150.9833  140.5630  155.8380 C   0  0  0  0  0  0  0  0  0  0  0  0
  150.6152  140.2701  154.5940 N   0  0  0  0  0  0  0  0  0  0  0  0
  149.3398  140.8068  154.5466 C   0  0  0  0  0  0  0  0  0  0  0  0
  148.3944  140.8349  153.4964 C   0  0  0  0  0  0  0  0  0  0  0  0
  147.1380  141.4484  153.6824 C   0  0  0  0  0  0  0  0  0  0  0  0
  146.8079  142.0425  154.9180 C   0  0  0  0  0  0  0  0  0  0  0  0
  147.7339  142.0280  155.9788 C   0  0  0  0  0  0  0  0  0  0  0  0
  148.9856  141.4139  155.7892 C   0  0  0  0  0  0  0  0  0  0  0  0
  151.9084  142.8905  159.4955 C   0  0  0  0  0  0  0  0  0  0  0  0
  151.6764  144.0291  160.2991 C   0  0  0  0  0  0  0  0  0  0  0  0
  152.2127  144.1055  161.5987 C   0  0  0  0  0  0  0  0  0  0  0  0
  152.9834  143.0425  162.1059 C   0  0  0  0  0  0  0  0  0  0  0  0
  153.2155  141.9029  161.3127 C   0  0  0  0  0  0  0  0  0  0  0  0
  152.6798  141.8241  160.0123 C   0  0  0  0  0  0  0  0  0  0  0  0
  152.9040  140.7146  159.2679 F   0  0  0  0  0  0  0  0  0  0  0  0
  150.2054  143.8510  156.9040 H   0  0  0  0  0  0  0  0  0  0  0  0
  152.1071  142.6346  157.3745 H   0  0  0  0  0  0  0  0  0  0  0  0
  150.5722  140.8071  158.5839 H   0  0  0  0  0  0  0  0  0  0  0  0
  149.3059  141.9922  158.3511 H   0  0  0  0  0  0  0  0  0  0  0  0
  151.9568  140.2836  156.2137 H   0  0  0  0  0  0  0  0  0  0  0  0
  148.6364  140.3830  152.5460 H   0  0  0  0  0  0  0  0  0  0  0  0
  146.4234  141.4636  152.8727 H   0  0  0  0  0  0  0  0  0  0  0  0
  145.8432  142.5099  155.0509 H   0  0  0  0  0  0  0  0  0  0  0  0
  147.4859  142.4832  156.9261 H   0  0  0  0  0  0  0  0  0  0  0  0
  151.0809  144.8480  159.9228 H   0  0  0  0  0  0  0  0  0  0  0  0
  152.0308  144.9792  162.2072 H   0  0  0  0  0  0  0  0  0  0  0  0
  153.3939  143.1002  163.1032 H   0  0  0  0  0  0  0  0  0  0  0  0
  153.8037  141.0856  161.7035 H   0  0  0  0  0  0  0  0  0  0  0  0
  1  2  1  0  0  0  0
  1 20  1  0  0  0  0
  2  3  1  0  0  0  0
  2 13  1  0  0  0  0
  2 21  1  0  0  0  0
  3  4  1  0  0  0  0
  3 22  1  0  0  0  0
  3 23  1  0  0  0  0
  4 12  1  0  0  0  0
  4  5  1  0  0  0  0
  5  6  2  0  0  0  0
  5 24  1  0  0  0  0
  6  7  1  0  0  0  0
  7 12  2  0  0  0  0
  7  8  1  0  0  0  0
  8  9  2  0  0  0  0
  8 25  1  0  0  0  0
  9 10  1  0  0  0  0
  9 26  1  0  0  0  0
 10 11  2  0  0  0  0
 10 27  1  0  0  0  0
 11 12  1  0  0  0  0
 11 28  1  0  0  0  0
 13 18  1  0  0  0  0
 13 14  2  0  0  0  0
 14 15  1  0  0  0  0
 14 29  1  0  0  0  0
 15 16  2  0  0  0  0
 15 30  1  0  0  0  0
 16 17  1  0  0  0  0
 16 31  1  0  0  0  0
 17 18  2  0  0  0  0
 17 32  1  0  0  0  0
 18 19  1  0  0  0  0
M  END
> <s_m_source_file>
AV-unprocessed.smi

> <i_m_source_file_index>
392

> <i_lp_mmshare_version>
43012

> <i_f3d_flags>
0

> <s_epik_input>
RmMxW2NIXVtjSF1bY0hdW2NIXWMxW0NASF0oW09IXSlbQ0gyXW4oW2NIXW4yKWMoYzIzKVtjSF1bY0hdW2NIXVtjSF0z

> <s_epik_cmdline>
J2VwaWtfcHl0aG9uJywgJy1waCcsICc3LjAnLCAnLXRuJywgJzgnLCAnLW1hJywgJzIwMCcsICctbWV0YWxfYmluZGluZycsICctaW1hZScsICc8aW5maWxlLm1hZT4nLCAnLW9tYWUnLCAnPG91dGZpbGUubWFlPic=

> <r_epik_Ionization_Penalty>
0.0696512

> <r_epik_Ionization_Penalty_Charging>
0

> <r_epik_Ionization_Penalty_Neutral>
0.0696512

> <r_epik_State_Penalty>
0.0610247

> <r_epik_Charging_Adjusted_Penalty>
0.0610247

> <i_epik_Tot_Q>
0

> <i_epik_Tot_abs_Q>
0

> <r_epik_Metal_State_Penalty>
6.42746e-05

> <b_epik_Metal_Only>
0

> <s_lp_Force_Field>
OPLS_2005

> <r_lp_Energy>
12.7977

> <b_lp_Chiralities_Consistent>
1

> <s_lp_Variant>
AV-unprocessed.smi:392-1

> <Gold.Version>
5.8.1

> <Gold.Id.Protein>
6NUR|6NUR_protein|mol2

> <Gold.PLP.Fitness>
50.9612

> <Gold.PLP.PLP>
-46.1280

> <Gold.PLP.part.hbond>
-2.0000

> <Gold.PLP.part.metal>
0.0000

> <Gold.PLP.part.buried>
-1.4868

> <Gold.PLP.part.nonpolar>
-42.4477

> <Gold.PLP.part.repulsive>
0.0920

> <Gold.PLP.ligand.clash>
0.0000

> <Gold.PLP.ligand.torsion>
0.3412

> <Gold.PLP.Chemscore.Hbond>
1.8160

> <Gold.PLP.Chemscore.CHOScore>
0.0000

> <Gold.PLP.Chemscore.Metal>
0.0000

> <Gold.Chemscore.Hbonds>
donor molecule, donor type, donor heavy atom, donor atom, acceptor molecule, acceptor atom, score
      L1  H     1    20       P1  8028  0.80
      P1  H  7989  7998       L1     6  1.00

> <Gold.PLP.Chemscore.Internal.Correction>
0.0675

> <Gold.Rescore>
     Score         DG    S(hbond)    S(metal)    S(lipo)     H(rot)  DE(clash)    DE(int)     intcor
     17.86     -19.68       1.56        0.00     118.60       1.91       1.38       0.44       ----

> <Gold.Chemscore.Fitness>
17.8632

> <Gold.Chemscore.DG>
-19.6805

> <Gold.Chemscore.ZeroCoef>
-5.4800

> <Gold.Chemscore.Hbond>
1.5623

> <Gold.Chemscore.Metal>
0.0000

> <Gold.Chemscore.Lipo>
118.6005

> <Gold.Chemscore.Internal_Hbond>
0.0000

> <Gold.Chemscore.DEClash>
1.3812

> <Gold.Chemscore.DEInternal>
0.4361

> <Gold.Chemscore.Rot>
1.9116

> <Gold.Chemscore.Internal.Correction>
   9.000000E+99

> <Gold.Chemscore.Hbonds>
donor molecule, donor type, donor heavy atom, donor atom, acceptor molecule, acceptor atom, score
      L1  H     1    20       P1  8028  0.76
      P1  H  7989  7998       L1     6  0.74

> <Gold.Chemscore.Hbond.Weighted>
-5.2180

> <Gold.Chemscore.Metal.Weighted>
-0.0000

> <Gold.Chemscore.Lipo.Weighted>
-13.8763

> <Gold.Chemscore.Internal_Hbond.Weighted>
0.0000

> <Gold.Chemscore.DEClash.Weighted>
1.3812

> <Gold.Chemscore.DEInternal.Weighted>
0.4361

> <Gold.Chemscore.Rot.Weighted>
4.8937

> <Gold.Chemscore.Internal.Correction.Weighted>
   9.000000E+99

> <Gold.Protein.RotatedTorsions>
[ 6907 6896 6895 6894 ] final  -34.18 input  -60.11 | X-H torsion
[ 7974 7965 7964 7962 ] final  -28.66 input  175.53 | X-H torsion
[ 8008 7997 7996 7995 ] final   69.71 input   59.86 | X-H torsion
[ 10167 10162 10161 10158 ] final   38.27 input  -65.29 | X-H torsion
[ 10718 10713 10712 10709 ] final -134.83 input   66.30 | X-H torsion
[ 10763 10752 10751 10750 ] final   -3.29 input  -60.55 | X-H torsion
[ 11005 11000 10999 10996 ] final  -41.69 input  -57.11 | X-H torsion

> <Gold.Protein.ActiveResidues>
 VAL166  LYS551  ARG553  GLY616  TRP617  ASP618  TYR619  PRO620  LYS621  CYS622 
 ASP623  PHE694  ASN695  SER759  ASP760  ASP761  ALA762  ILE779  LEU786  VAL792 
 PHE793  MET794  SER795  GLU796  ALA797  LYS798  CYS799  TRP800  GLU811  SER814 

> <Gold.Protein.RotatedAtoms>
  151.0560  134.9705  159.8235 H   0  0  0  0  0  0  0  0  0  0  0  0  # atno 6907 bound_to 6896
  152.5388  134.2478  159.8897 H   0  0  0  0  0  0  0  0  0  0  0  0  # atno 6908 bound_to 6896
  151.2495  133.4314  159.2644 H   0  0  0  0  0  0  0  0  0  0  0  0  # atno 6909 bound_to 6896
  146.1272  140.5311  142.8709 H   0  0  0  0  0  0  0  0  0  0  0  0  # atno 7974 bound_to 7965
  155.7278  140.3492  155.5045 H   0  0  0  0  0  0  0  0  0  0  0  0  # atno 8008 bound_to 7997
  155.9211  140.1067  157.1228 H   0  0  0  0  0  0  0  0  0  0  0  0  # atno 8009 bound_to 7997
  154.4070  140.1249  156.4667 H   0  0  0  0  0  0  0  0  0  0  0  0  # atno 8010 bound_to 7997
  140.3953  144.1797  150.6132 H   0  0  0  0  0  0  0  0  0  0  0  0  # atno 10167 bound_to 10162
  156.2596  130.7202  151.1131 H   0  0  0  0  0  0  0  0  0  0  0  0  # atno 10718 bound_to 10713
  153.3693  135.6994  153.6650 H   0  0  0  0  0  0  0  0  0  0  0  0  # atno 10763 bound_to 10752
  153.5307  135.3593  155.2675 H   0  0  0  0  0  0  0  0  0  0  0  0  # atno 10764 bound_to 10752
  154.8679  135.4180  154.2968 H   0  0  0  0  0  0  0  0  0  0  0  0  # atno 10765 bound_to 10752
  141.0263  133.6840  156.2492 H   0  0  0  0  0  0  0  0  0  0  0  0  # atno 11005 bound_to 11000
  144.7654  140.5519  143.6706 LP  0  0  0  0  0  0  0  0  0  0  0  0  # atno 17320 bound_to 7965
  145.5339  139.1475  143.3484 LP  0  0  0  0  0  0  0  0  0  0  0  0  # atno 17321 bound_to 7965
  140.4797  143.2383  151.8973 LP  0  0  0  0  0  0  0  0  0  0  0  0  # atno 17342 bound_to 10162
  139.4787  144.5282  151.8704 LP  0  0  0  0  0  0  0  0  0  0  0  0  # atno 17343 bound_to 10162
  157.7245  131.0659  150.5990 LP  0  0  0  0  0  0  0  0  0  0  0  0  # atno 17370 bound_to 10713
  156.6077  130.4371  149.5871 LP  0  0  0  0  0  0  0  0  0  0  0  0  # atno 17371 bound_to 10713
  140.6485  134.5092  157.5575 LP  0  0  0  0  0  0  0  0  0  0  0  0  # atno 17394 bound_to 11000
  139.9178  134.8210  156.1308 LP  0  0  0  0  0  0  0  0  0  0  0  0  # atno 17395 bound_to 11000

$$$$
