#       Name:                AV-unprocessed.smi:2696
#       Creating user name   scv26
#       Creation time:       Fri Mar 27 14:45:08 2020


#       File generated by GOLD software.
#

@<TRIPOS>MOLECULE
AV-unprocessed.smi:2696
    48    49     1
SMALL
NO_CHARGES


@<TRIPOS>ATOM
      1 ****        -3.5113   3.4171  -1.3301 C.3            1 S1                 0.0000
      2 ****        -2.3648   3.0154  -0.3898 C.3            1 S1                 0.0000
      3 ****        -1.2328   4.0552  -0.3973 C.3            1 S1                 0.0000
      4 ****        -1.8458   1.6191  -0.7063 C.2            1 S1                 0.0000
      5 ****        -1.2307   1.3212  -1.8759 C.2            1 S1                 0.0000
      6 ****        -0.7246  -0.0264  -2.1348 C.2            1 S1                 0.0000
      7 ****        -0.1859  -0.3361  -3.1971 O.2            1 S1                 0.0000
      8 ****        -0.8848  -0.9096  -1.1063 N.am           1 S1                 0.0000
      9 ****        -0.3553  -2.2871  -1.1968 C.3            1 S1                 0.0000
     10 ****         1.1646  -2.4258  -0.8720 C.3            1 S1                 0.0000
     11 ****         1.4930  -3.8858  -0.4936 C.3            1 S1                 0.0000
     12 ****         1.8641  -2.2616  -2.0931 O.3            1 S1                 0.0000
     13 ****         1.6395  -1.4489   0.2156 C.ar           1 S1                 0.0000
     14 ****         2.3971  -0.2999  -0.1139 C.ar           1 S1                 0.0000
     15 ****         2.7909   0.6085   0.8861 C.ar           1 S1                 0.0000
     16 ****         2.4292   0.3829   2.2263 C.ar           1 S1                 0.0000
     17 ****         1.6684  -0.7514   2.5750 C.ar           1 S1                 0.0000
     18 ****         1.2767  -0.9751   4.0282 C.3            1 S1                 0.0000
     19 ****         0.3689  -1.9438   4.1550 F              1 S1                 0.0000
     20 ****         2.3589  -1.3112   4.7291 F              1 S1                 0.0000
     21 ****         0.7659   0.1460   4.5374 F              1 S1                 0.0000
     22 ****         1.2832  -1.6630   1.5677 C.ar           1 S1                 0.0000
     23 ****        -1.5687  -0.5583   0.0765 C.2            1 S1                 0.0000
     24 ****        -2.0216   0.6381   0.2749 N.2            1 S1                 0.0000
     25 ****        -4.3227   2.6897  -1.2899 H              1 S1                 0.0000
     26 ****        -3.1766   3.4870  -2.3655 H              1 S1                 0.0000
     27 ****        -3.9249   4.3864  -1.0504 H              1 S1                 0.0000
     28 ****        -2.7712   2.9923   0.6228 H              1 S1                 0.0000
     29 ****        -0.4336   3.7683   0.2870 H              1 S1                 0.0000
     30 ****        -1.5988   5.0331  -0.0836 H              1 S1                 0.0000
     31 ****        -0.7968   4.1699  -1.3900 H              1 S1                 0.0000
     32 ****        -1.0987   2.0844  -2.6288 H              1 S1                 0.0000
     33 ****        -0.9079  -2.9182  -0.4979 H              1 S1                 0.0000
     34 ****        -0.5868  -2.7245  -2.1702 H              1 S1                 0.0000
     35 ****         0.9658  -4.2092   0.4036 H              1 S1                 0.0000
     36 ****         2.5605  -4.0177  -0.3108 H              1 S1                 0.0000
     37 ****         1.2083  -4.5765  -1.2887 H              1 S1                 0.0000
     38 ****         1.5255  -2.8813  -2.7210 H              1 S1                 0.0000
     39 ****         2.6744  -0.0921  -1.1366 H              1 S1                 0.0000
     40 ****         3.3668   1.4833   0.6228 H              1 S1                 0.0000
     41 ****         2.7325   1.0861   2.9880 H              1 S1                 0.0000
     42 ****         0.6885  -2.5238   1.8319 H              1 S1                 0.0000
     43 ****        -1.6771  -1.3558   0.8133 H              1 S1                 0.0000
     44 ****        -0.0813   0.3449  -3.9219 LP             1 S1                 0.0000
     45 ****         0.1472  -1.2688  -3.3355 LP             1 S1                 0.0000
     46 ****         2.8393  -2.4285  -1.9476 LP             1 S1                 0.0000
     47 ****         1.7324  -1.3308  -2.4341 LP             1 S1                 0.0000
     48 ****        -2.4956   0.8601   1.1269 LP             1 S1                 0.0000
@<TRIPOS>BOND
    1    1    2 1     
    2    1   25 1     
    3    1   26 1     
    4    1   27 1     
    5    2    3 1     
    6    2    4 1     
    7    2   28 1     
    8    3   29 1     
    9    3   30 1     
   10    3   31 1     
   11    4   24 1     
   12    4    5 2     
   13    5    6 1     
   14    5   32 1     
   15    6    7 2     
   16    6    8 am    
   17    8    9 1     
   18    8   23 1     
   19    9   10 1     
   20    9   33 1     
   21    9   34 1     
   22   10   11 1     
   23   10   12 1     
   24   10   13 1     
   25   11   35 1     
   26   11   36 1     
   27   11   37 1     
   28   12   38 1     
   29   13   22 ar    
   30   13   14 ar    
   31   14   15 ar    
   32   14   39 1     
   33   15   16 ar    
   34   15   40 1     
   35   16   17 ar    
   36   16   41 1     
   37   17   18 1     
   38   17   22 ar    
   39   18   19 1     
   40   18   20 1     
   41   18   21 1     
   42   22   42 1     
   43   23   24 2     
   44   23   43 1     
   45    7   44 1     
   46    7   45 1     
   47   12   46 1     
   48   12   47 1     
   49   24   48 1     
@<TRIPOS>SUBSTRUCTURE
      1 S1             1
@<TRIPOS>SET
LONE_PAIRS      STATIC     ATOMS    <user>   **** ""
5 44 45 46 47 48
DONOR_HYDROGENS      STATIC     ATOMS    <user>   **** ""
1 38
ATOM$BLUE        STATIC     ATOMS    COLORGROUP SYSTEM
5 44 45 46 47 48
ATOM$RED        STATIC     ATOMS    COLORGROUP SYSTEM
1 38
