AV-unprocessed.smi:21|AV-procd|sdf|143|dock2
  -GOLD-   2262015353D 1   1.00000     0.00000
 Structure written by MMmdl.
 62 65  0  0  0  0  0  0  0  0  2 V2000
  144.4907  131.4920  150.9993 C   0  0  0  0  0  0  0  0  0  0  0  0
  144.1676  132.8702  151.0969 O   0  0  0  0  0  0  0  0  0  0  0  0
  145.1351  133.7293  150.5078 C   0  0  1  0  0  0  0  0  0  0  0  0
  144.6681  135.1681  150.6838 C   0  0  0  0  0  0  0  0  0  0  0  0
  145.1363  135.5324  152.0960 C   0  0  2  0  0  0  0  0  0  0  0  0
  145.3002  137.0485  152.3341 C   0  0  0  0  0  0  0  0  0  0  0  0
  144.6318  137.5079  153.5520 N   0  0  0  0  0  0  0  0  0  0  0  0
  143.1774  137.5994  153.5542 C   0  0  0  0  0  0  0  0  0  0  0  0
  145.3471  138.2444  154.4434 C   0  0  0  0  0  0  0  0  0  0  0  0
  145.0429  138.1138  155.7612 N   0  0  0  0  0  0  0  0  0  0  0  0
  145.7175  138.8014  156.6859 C   0  0  0  0  0  0  0  0  0  0  0  0
  146.7291  139.6523  156.5165 N   0  0  0  0  0  0  0  0  0  0  0  0
  147.0542  139.7820  155.1990 C   0  0  0  0  0  0  0  0  0  0  0  0
  146.4149  139.1295  154.1050 C   0  0  0  0  0  0  0  0  0  0  0  0
  147.0278  139.5098  152.9166 N   0  0  0  0  0  0  0  0  0  0  0  0
  147.9630  140.3408  153.2843 C   0  0  0  0  0  0  0  0  0  0  0  0
  148.0659  140.5464  154.6413 N   0  0  0  0  0  0  0  0  0  0  0  0
  149.0229  141.4062  155.3248 C   0  0  0  0  0  0  0  0  0  0  0  0
  149.9282  140.6722  156.3534 C   0  0  1  0  0  0  0  0  0  0  0  0
  150.6171  139.4288  155.7433 C   0  0  0  0  0  0  0  0  0  0  0  0
  151.6424  139.8099  154.8500 O   0  0  0  0  0  0  0  0  0  0  0  0
  150.9592  141.6217  157.0193 C   0  0  2  0  0  0  0  0  0  0  0  0
  151.8205  140.9853  158.0980 C   0  0  0  0  0  0  0  0  0  0  0  0
  152.3372  142.1950  158.8720 C   0  0  0  0  0  0  0  0  0  0  0  0
  151.3514  143.2101  158.7180 O   0  0  0  0  0  0  0  0  0  0  0  0
  150.3366  142.7660  157.8258 C   0  0  0  0  0  0  0  0  0  0  0  0
  146.4209  134.8143  152.2619 N   0  3  1  0  0  0  0  0  0  0  0  0
  146.7139  134.4105  153.6546 C   0  0  0  0  0  0  0  0  0  0  0  0
  146.4528  133.6884  151.2969 C   0  0  0  0  0  0  0  0  0  0  0  0
  145.2707  133.4913  149.4512 H   0  0  0  0  0  0  0  0  0  0  0  0
  144.4192  135.1194  152.8080 H   0  0  0  0  0  0  0  0  0  0  0  0
  143.7113  130.9016  151.4808 H   0  0  0  0  0  0  0  0  0  0  0  0
  145.4359  131.2597  151.4900 H   0  0  0  0  0  0  0  0  0  0  0  0
  144.5526  131.1760  149.9572 H   0  0  0  0  0  0  0  0  0  0  0  0
  145.1648  135.8032  149.9488 H   0  0  0  0  0  0  0  0  0  0  0  0
  143.5920  135.2810  150.5479 H   0  0  0  0  0  0  0  0  0  0  0  0
  146.3594  137.2863  152.4347 H   0  0  0  0  0  0  0  0  0  0  0  0
  144.9626  137.6052  151.4595 H   0  0  0  0  0  0  0  0  0  0  0  0
  142.7870  137.6061  154.5725 H   0  0  0  0  0  0  0  0  0  0  0  0
  142.7418  136.7427  153.0397 H   0  0  0  0  0  0  0  0  0  0  0  0
  142.8445  138.5039  153.0445 H   0  0  0  0  0  0  0  0  0  0  0  0
  145.4042  138.6451  157.7077 H   0  0  0  0  0  0  0  0  0  0  0  0
  148.6121  140.8200  152.5672 H   0  0  0  0  0  0  0  0  0  0  0  0
  149.6326  141.9019  154.5693 H   0  0  0  0  0  0  0  0  0  0  0  0
  148.4693  142.2067  155.8167 H   0  0  0  0  0  0  0  0  0  0  0  0
  149.2715  140.3118  157.1469 H   0  0  0  0  0  0  0  0  0  0  0  0
  151.0241  138.7779  156.5169 H   0  0  0  0  0  0  0  0  0  0  0  0
  149.9097  138.8305  155.1705 H   0  0  0  0  0  0  0  0  0  0  0  0
  152.4542  139.4218  155.1387 H   0  0  0  0  0  0  0  0  0  0  0  0
  151.6241  142.0402  156.2624 H   0  0  0  0  0  0  0  0  0  0  0  0
  151.2110  140.3584  158.7507 H   0  0  0  0  0  0  0  0  0  0  0  0
  152.6321  140.3755  157.7001 H   0  0  0  0  0  0  0  0  0  0  0  0
  152.5132  141.9678  159.9237 H   0  0  0  0  0  0  0  0  0  0  0  0
  153.2728  142.5536  158.4413 H   0  0  0  0  0  0  0  0  0  0  0  0
  149.9816  143.5866  157.2040 H   0  0  0  0  0  0  0  0  0  0  0  0
  149.4935  142.4061  158.4172 H   0  0  0  0  0  0  0  0  0  0  0  0
  145.9690  133.7037  154.0229 H   0  0  0  0  0  0  0  0  0  0  0  0
  146.7208  135.2769  154.3162 H   0  0  0  0  0  0  0  0  0  0  0  0
  147.6941  133.9365  153.7146 H   0  0  0  0  0  0  0  0  0  0  0  0
  146.6186  132.7254  151.7811 H   0  0  0  0  0  0  0  0  0  0  0  0
  147.2942  133.8565  150.6241 H   0  0  0  0  0  0  0  0  0  0  0  0
  147.1486  135.4527  151.9734 H   0  0  0  0  0  0  0  0  0  0  0  0
  1  2  1  0  0  0  0
  1 32  1  0  0  0  0
  1 33  1  0  0  0  0
  1 34  1  0  0  0  0
  2  3  1  0  0  0  0
  3 30  1  0  0  0  0
  3 29  1  0  0  0  0
  3  4  1  0  0  0  0
  4  5  1  0  0  0  0
  4 35  1  0  0  0  0
  4 36  1  0  0  0  0
  5 31  1  0  0  0  0
  5  6  1  0  0  0  0
  5 27  1  0  0  0  0
  6  7  1  0  0  0  0
  6 37  1  0  0  0  0
  6 38  1  0  0  0  0
  7  8  1  0  0  0  0
  7  9  1  0  0  0  0
  8 39  1  0  0  0  0
  8 40  1  0  0  0  0
  8 41  1  0  0  0  0
  9 14  1  0  0  0  0
  9 10  2  0  0  0  0
 10 11  1  0  0  0  0
 11 12  2  0  0  0  0
 11 42  1  0  0  0  0
 12 13  1  0  0  0  0
 13 17  1  0  0  0  0
 13 14  2  0  0  0  0
 14 15  1  0  0  0  0
 15 16  2  0  0  0  0
 16 17  1  0  0  0  0
 16 43  1  0  0  0  0
 17 18  1  0  0  0  0
 18 19  1  0  0  0  0
 18 44  1  0  0  0  0
 18 45  1  0  0  0  0
 19 20  1  0  0  0  0
 19 22  1  0  0  0  0
 19 46  1  0  0  0  0
 20 21  1  0  0  0  0
 20 47  1  0  0  0  0
 20 48  1  0  0  0  0
 21 49  1  0  0  0  0
 22 26  1  0  0  0  0
 22 23  1  0  0  0  0
 22 50  1  0  0  0  0
 23 24  1  0  0  0  0
 23 51  1  0  0  0  0
 23 52  1  0  0  0  0
 24 25  1  0  0  0  0
 24 53  1  0  0  0  0
 24 54  1  0  0  0  0
 25 26  1  0  0  0  0
 26 55  1  0  0  0  0
 26 56  1  0  0  0  0
 27 28  1  0  0  0  0
 27 29  1  0  0  0  0
 27 62  1  0  0  0  0
 28 57  1  0  0  0  0
 28 58  1  0  0  0  0
 28 59  1  0  0  0  0
 29 60  1  0  0  0  0
 29 61  1  0  0  0  0
M  CHG  1  27   1
M  END
> <s_m_source_file>
AV-unprocessed.smi

> <i_m_source_file_index>
21

> <i_lp_mmshare_version>
43012

> <i_f3d_flags>
0

> <s_epik_input>
W0NIM11PW0NASF0xW0NIMl1bQ0BIXShOKFtDSDNdKVtDSDJdMSlbQ0gyXU4oW0NIM10pYyhuW2NIXW4yKWMoYzIzKW5bY0hdbjNbQ0gyXVtDQEhdKFtDSDJdW09IXSlbQ0BASF00W0NIMl1bQ0gyXU9bQ0gyXTQ=

> <s_epik_cmdline>
J2VwaWtfcHl0aG9uJywgJy1waCcsICc3LjAnLCAnLXRuJywgJzgnLCAnLW1hJywgJzIwMCcsICctbWV0YWxfYmluZGluZycsICctaW1hZScsICc8aW5maWxlLm1hZT4nLCAnLW9tYWUnLCAnPG91dGZpbGUubWFlPic=

> <r_lp_tautomer_probability>
1

> <r_epik_Ionization_Penalty>
0.0157465

> <r_epik_Ionization_Penalty_Charging>
0.015354

> <r_epik_Ionization_Penalty_Neutral>
0.000392529

> <r_epik_State_Penalty>
0.0120612

> <r_epik_Charging_Adjusted_Penalty>
0.0274152

> <i_epik_Tot_Q>
1

> <i_epik_Tot_abs_Q>
1

> <r_epik_Metal_State_Penalty>
0.0121253

> <b_epik_Metal_Only>
0

> <s_lp_Force_Field>
OPLS_2005

> <r_lp_Energy>
58.9185

> <b_lp_Chiralities_Consistent>
1

> <s_lp_Variant>
AV-unprocessed.smi:21-23

> <Gold.Version>
5.8.1

> <Gold.Id.Protein>
6NUR|6NUR_protein|mol2

> <Gold.PLP.Fitness>
46.8246

> <Gold.PLP.PLP>
-37.4843

> <Gold.PLP.part.hbond>
-1.8717

> <Gold.PLP.part.metal>
0.0000

> <Gold.PLP.part.buried>
-3.7151

> <Gold.PLP.part.nonpolar>
-32.8576

> <Gold.PLP.part.repulsive>
0.5141

> <Gold.PLP.ligand.clash>
0.0000

> <Gold.PLP.ligand.torsion>
1.6228

> <Gold.PLP.Chemscore.Hbond>
3.0000

> <Gold.PLP.Chemscore.CHOScore>
0.9115

> <Gold.PLP.Chemscore.Metal>
0.0000

> <Gold.Chemscore.Hbonds>
donor molecule, donor type, donor heavy atom, donor atom, acceptor molecule, acceptor atom, score
      L1  H    27    62       P1  7948  2.00
      P1  H  7989  7998       L1    21  1.00
      L1  C    16    43       P1  7957  0.62

> <Gold.PLP.Chemscore.Internal.Correction>
0.8514

> <Gold.Rescore>
     Score         DG    S(hbond)    S(metal)    S(lipo)     H(rot)  DE(clash)    DE(int)     intcor
     12.15     -15.25       1.94        0.00      95.48       3.08       1.40       1.70       ----

> <Gold.Chemscore.Fitness>
12.1504

> <Gold.Chemscore.DG>
-15.2526

> <Gold.Chemscore.ZeroCoef>
-5.4800

> <Gold.Chemscore.Hbond>
1.9387

> <Gold.Chemscore.Metal>
0.0000

> <Gold.Chemscore.Lipo>
95.4823

> <Gold.Chemscore.Internal_Hbond>
0.0000

> <Gold.Chemscore.DEClash>
1.3990

> <Gold.Chemscore.DEInternal>
1.7032

> <Gold.Chemscore.Rot>
3.0758

> <Gold.Chemscore.Internal.Correction>
   9.000000E+99

> <Gold.Chemscore.Hbonds>
donor molecule, donor type, donor heavy atom, donor atom, acceptor molecule, acceptor atom, score
      L1  H    27    62       P1  7948  0.98
      P1  H  7989  7998       L1    21  0.95

> <Gold.Chemscore.Hbond.Weighted>
-6.4753

> <Gold.Chemscore.Metal.Weighted>
-0.0000

> <Gold.Chemscore.Lipo.Weighted>
-11.1714

> <Gold.Chemscore.Internal_Hbond.Weighted>
0.0000

> <Gold.Chemscore.DEClash.Weighted>
1.3990

> <Gold.Chemscore.DEInternal.Weighted>
1.7032

> <Gold.Chemscore.Rot.Weighted>
7.8741

> <Gold.Chemscore.Internal.Correction.Weighted>
   9.000000E+99

> <Gold.Protein.RotatedTorsions>
[ 6907 6896 6895 6894 ] final  -18.99 input  -60.11 | X-H torsion
[ 7974 7965 7964 7962 ] final    6.40 input  175.53 | X-H torsion
[ 8008 7997 7996 7995 ] final  -79.95 input   59.86 | X-H torsion
[ 10167 10162 10161 10158 ] final  149.65 input  -65.29 | X-H torsion
[ 10718 10713 10712 10709 ] final   44.54 input   66.30 | X-H torsion
[ 10763 10752 10751 10750 ] final  148.25 input  -60.55 | X-H torsion
[ 11005 11000 10999 10996 ] final   25.05 input  -57.11 | X-H torsion

> <Gold.Protein.ActiveResidues>
 VAL166  LYS551  ARG553  GLY616  TRP617  ASP618  TYR619  PRO620  LYS621  CYS622 
 ASP623  PHE694  ASN695  SER759  ASP760  ASP761  ALA762  ILE779  LEU786  VAL792 
 PHE793  MET794  SER795  GLU796  ALA797  LYS798  CYS799  TRP800  GLU811  SER814 

> <Gold.Protein.RotatedAtoms>
  151.2699  135.0681  159.9129 H   0  0  0  0  0  0  0  0  0  0  0  0  # atno 6907 bound_to 6896
  152.5352  134.0142  159.7962 H   0  0  0  0  0  0  0  0  0  0  0  0  # atno 6908 bound_to 6896
  151.0378  133.5683  159.2685 H   0  0  0  0  0  0  0  0  0  0  0  0  # atno 6909 bound_to 6896
  146.2435  140.0239  142.8395 H   0  0  0  0  0  0  0  0  0  0  0  0  # atno 7974 bound_to 7965
  154.5835  140.0670  156.9137 H   0  0  0  0  0  0  0  0  0  0  0  0  # atno 8008 bound_to 7997
  155.2421  140.3345  155.4273 H   0  0  0  0  0  0  0  0  0  0  0  0  # atno 8009 bound_to 7997
  156.2206  140.1797  156.7471 H   0  0  0  0  0  0  0  0  0  0  0  0  # atno 8010 bound_to 7997
  139.4859  144.5585  151.7274 H   0  0  0  0  0  0  0  0  0  0  0  0  # atno 10167 bound_to 10162
  157.4280  130.8008  149.7576 H   0  0  0  0  0  0  0  0  0  0  0  0  # atno 10718 bound_to 10713
  154.0517  135.2881  155.3339 H   0  0  0  0  0  0  0  0  0  0  0  0  # atno 10763 bound_to 10752
  154.6865  135.5243  153.8336 H   0  0  0  0  0  0  0  0  0  0  0  0  # atno 10764 bound_to 10752
  153.0558  135.6594  154.0713 H   0  0  0  0  0  0  0  0  0  0  0  0  # atno 10765 bound_to 10752
  140.3520  134.2218  155.7679 H   0  0  0  0  0  0  0  0  0  0  0  0  # atno 11005 bound_to 11000
  145.1216  140.9465  143.4597 LP  0  0  0  0  0  0  0  0  0  0  0  0  # atno 17320 bound_to 7965
  145.0476  139.3208  143.5945 LP  0  0  0  0  0  0  0  0  0  0  0  0  # atno 17321 bound_to 7965
  140.5150  144.0966  150.6006 LP  0  0  0  0  0  0  0  0  0  0  0  0  # atno 17342 bound_to 10162
  140.3905  143.2755  152.0066 LP  0  0  0  0  0  0  0  0  0  0  0  0  # atno 17343 bound_to 10162
  155.9903  130.3945  150.3034 LP  0  0  0  0  0  0  0  0  0  0  0  0  # atno 17370 bound_to 10713
  157.1188  131.0241  151.3018 LP  0  0  0  0  0  0  0  0  0  0  0  0  # atno 17371 bound_to 10713
  141.2009  133.7975  157.0466 LP  0  0  0  0  0  0  0  0  0  0  0  0  # atno 17394 bound_to 11000
  140.0695  134.9710  157.1443 LP  0  0  0  0  0  0  0  0  0  0  0  0  # atno 17395 bound_to 11000

$$$$
