AV-unprocessed.smi:1945|AV-procd|sdf|7860|dock1
  -GOLD-   2272010 03D 1   1.00000     0.00000
 Structure written by MMmdl.
 47 48  0  0  0  0  0  0  0  0  1 V2000
  143.5275  132.4474  148.8775 C   0  0  0  0  0  0  0  0  0  0  0  0
  144.4186  133.2217  149.8027 C   0  0  0  0  0  0  0  0  0  0  0  0
  145.5979  132.7735  150.4651 C   0  0  0  0  0  0  0  0  0  0  0  0
  145.9893  133.8807  151.1676 C   0  0  0  0  0  0  0  0  0  0  0  0
  147.0628  134.0334  151.9884 N   0  0  0  0  0  0  0  0  0  0  0  0
  147.5172  133.2016  152.9415 C   0  0  0  0  0  0  0  0  0  0  0  0
  147.0365  132.1023  153.2179 O   0  0  0  0  0  0  0  0  0  0  0  0
  148.5750  133.7271  153.5765 N   0  0  0  0  0  0  0  0  0  0  0  0
  149.2609  133.1175  154.7113 C   0  0  0  0  0  0  0  0  0  0  0  0
  149.3998  131.5996  154.5270 C   0  0  0  0  0  0  0  0  0  0  0  0
  149.2934  130.9676  155.7939 O   0  0  0  0  0  0  0  0  0  0  0  0
  150.5212  130.4959  156.3306 C   0  0  1  0  0  0  0  0  0  0  0  0
  151.1102  129.4287  155.3832 C   0  0  0  0  0  0  0  0  0  0  0  0
  152.5117  128.9866  155.8282 C   0  0  0  0  0  0  0  0  0  0  0  0
  153.4561  130.1906  155.9482 C   0  0  0  0  0  0  0  0  0  0  0  0
  152.8792  131.2506  156.8985 C   0  0  0  0  0  0  0  0  0  0  0  0
  151.4728  131.7067  156.4604 C   0  0  2  0  0  0  0  0  0  0  0  0
  150.9198  132.7659  157.4275 C   0  0  0  0  0  0  0  0  0  0  0  0
  145.0964  134.9017  150.9209 N   0  0  0  0  0  0  0  0  0  0  0  0
  145.0679  136.2621  151.4228 C   0  0  0  0  0  0  0  0  0  0  0  0
  144.1260  134.4875  150.0786 N   0  0  0  0  0  0  0  0  0  0  0  0
  143.8968  131.4320  148.7328 H   0  0  0  0  0  0  0  0  0  0  0  0
  143.4708  132.9221  147.8978 H   0  0  0  0  0  0  0  0  0  0  0  0
  142.5147  132.3782  149.2750 H   0  0  0  0  0  0  0  0  0  0  0  0
  146.0600  131.7990  150.4187 H   0  0  0  0  0  0  0  0  0  0  0  0
  147.5634  134.9034  151.8831 H   0  0  0  0  0  0  0  0  0  0  0  0
  148.9077  134.6324  153.2787 H   0  0  0  0  0  0  0  0  0  0  0  0
  150.2363  133.5783  154.8767 H   0  0  0  0  0  0  0  0  0  0  0  0
  148.6684  133.3218  155.6032 H   0  0  0  0  0  0  0  0  0  0  0  0
  148.6061  131.2298  153.8766 H   0  0  0  0  0  0  0  0  0  0  0  0
  150.3487  131.3703  154.0417 H   0  0  0  0  0  0  0  0  0  0  0  0
  150.3619  130.0671  157.3221 H   0  0  0  0  0  0  0  0  0  0  0  0
  150.4597  128.5561  155.3328 H   0  0  0  0  0  0  0  0  0  0  0  0
  151.1622  129.8307  154.3705 H   0  0  0  0  0  0  0  0  0  0  0  0
  152.4464  128.4734  156.7883 H   0  0  0  0  0  0  0  0  0  0  0  0
  152.9169  128.2657  155.1177 H   0  0  0  0  0  0  0  0  0  0  0  0
  154.4331  129.8630  156.3046 H   0  0  0  0  0  0  0  0  0  0  0  0
  153.6170  130.6301  154.9631 H   0  0  0  0  0  0  0  0  0  0  0  0
  152.8363  130.8448  157.9103 H   0  0  0  0  0  0  0  0  0  0  0  0
  153.5531  132.1071  156.9387 H   0  0  0  0  0  0  0  0  0  0  0  0
  151.5639  132.1720  155.4776 H   0  0  0  0  0  0  0  0  0  0  0  0
  150.7989  132.3605  158.4325 H   0  0  0  0  0  0  0  0  0  0  0  0
  149.9482  133.1360  157.0991 H   0  0  0  0  0  0  0  0  0  0  0  0
  151.5894  133.6240  157.4929 H   0  0  0  0  0  0  0  0  0  0  0  0
  145.9966  136.5012  151.9408 H   0  0  0  0  0  0  0  0  0  0  0  0
  144.2352  136.3785  152.1169 H   0  0  0  0  0  0  0  0  0  0  0  0
  144.9409  136.9591  150.5937 H   0  0  0  0  0  0  0  0  0  0  0  0
  1  2  1  0  0  0  0
  1 22  1  0  0  0  0
  1 23  1  0  0  0  0
  1 24  1  0  0  0  0
  2 21  2  0  0  0  0
  2  3  1  0  0  0  0
  3  4  2  0  0  0  0
  3 25  1  0  0  0  0
  4  5  1  0  0  0  0
  4 19  1  0  0  0  0
  5  6  1  0  0  0  0
  5 26  1  0  0  0  0
  6  7  2  0  0  0  0
  6  8  1  0  0  0  0
  8  9  1  0  0  0  0
  8 27  1  0  0  0  0
  9 10  1  0  0  0  0
  9 28  1  0  0  0  0
  9 29  1  0  0  0  0
 10 11  1  0  0  0  0
 10 30  1  0  0  0  0
 10 31  1  0  0  0  0
 11 12  1  0  0  0  0
 12 17  1  0  0  0  0
 12 13  1  0  0  0  0
 12 32  1  0  0  0  0
 13 14  1  0  0  0  0
 13 33  1  0  0  0  0
 13 34  1  0  0  0  0
 14 15  1  0  0  0  0
 14 35  1  0  0  0  0
 14 36  1  0  0  0  0
 15 16  1  0  0  0  0
 15 37  1  0  0  0  0
 15 38  1  0  0  0  0
 16 17  1  0  0  0  0
 16 39  1  0  0  0  0
 16 40  1  0  0  0  0
 17 18  1  0  0  0  0
 17 41  1  0  0  0  0
 18 42  1  0  0  0  0
 18 43  1  0  0  0  0
 18 44  1  0  0  0  0
 19 20  1  0  0  0  0
 19 21  1  0  0  0  0
 20 45  1  0  0  0  0
 20 46  1  0  0  0  0
 20 47  1  0  0  0  0
M  END
> <s_m_source_file>
AV-unprocessed.smi

> <i_m_source_file_index>
1945

> <i_lp_mmshare_version>
43012

> <i_f3d_flags>
0

> <s_epik_input>
W0NIM11jMVtjSF1jKG4objEpW0NIM10pW05IXUMoPU8pW05IXVtDSDJdW0NIMl1PW0NAQEhdMltDSDJdW0NIMl1bQ0gyXVtDSDJdW0NASF0yW0NIM10=

> <s_epik_cmdline>
J2VwaWtfcHl0aG9uJywgJy1waCcsICc3LjAnLCAnLXRuJywgJzgnLCAnLW1hJywgJzIwMCcsICctbWV0YWxfYmluZGluZycsICctaW1hZScsICc8aW5maWxlLm1hZT4nLCAnLW9tYWUnLCAnPG91dGZpbGUubWFlPic=

> <r_lp_tautomer_probability>
1

> <r_epik_Ionization_Penalty>
9.47735e-05

> <r_epik_Ionization_Penalty_Charging>
0

> <r_epik_Ionization_Penalty_Neutral>
9.47735e-05

> <r_epik_State_Penalty>
-0

> <r_epik_Charging_Adjusted_Penalty>
0

> <i_epik_Tot_Q>
0

> <i_epik_Tot_abs_Q>
0

> <r_epik_Metal_State_Penalty>
-0

> <b_epik_Metal_Only>
0

> <s_lp_Force_Field>
OPLS_2005

> <r_lp_Energy>
11.6834

> <b_lp_Chiralities_Consistent>
1

> <s_lp_Variant>
AV-unprocessed.smi:1945-4

> <Gold.Version>
5.8.1

> <Gold.Id.Protein>
6NUR|6NUR_protein|mol2

> <Gold.PLP.Fitness>
41.6863

> <Gold.PLP.PLP>
-39.0263

> <Gold.PLP.part.hbond>
-2.0000

> <Gold.PLP.part.metal>
0.0000

> <Gold.PLP.part.buried>
-3.7832

> <Gold.PLP.part.nonpolar>
-34.2490

> <Gold.PLP.part.repulsive>
0.3816

> <Gold.PLP.ligand.clash>
0.0730

> <Gold.PLP.ligand.torsion>
1.0615

> <Gold.PLP.Chemscore.Hbond>
1.5558

> <Gold.PLP.Chemscore.CHOScore>
0.0000

> <Gold.PLP.Chemscore.Metal>
0.0000

> <Gold.Chemscore.Hbonds>
donor molecule, donor type, donor heavy atom, donor atom, acceptor molecule, acceptor atom, score
      L1  H     5    26       P1  7948  1.00
      L1  H     8    27       P1  7948  0.72

> <Gold.PLP.Chemscore.Internal.Correction>
0.1889

> <Gold.Rescore>
     Score         DG    S(hbond)    S(metal)    S(lipo)     H(rot)  DE(clash)    DE(int)     intcor
     12.49     -15.56       1.16        0.00      88.75       1.63       0.52       2.55       ----

> <Gold.Chemscore.Fitness>
12.4886

> <Gold.Chemscore.DG>
-15.5585

> <Gold.Chemscore.ZeroCoef>
-5.4800

> <Gold.Chemscore.Hbond>
1.1592

> <Gold.Chemscore.Metal>
0.0000

> <Gold.Chemscore.Lipo>
88.7489

> <Gold.Chemscore.Internal_Hbond>
0.0000

> <Gold.Chemscore.DEClash>
0.5212

> <Gold.Chemscore.DEInternal>
2.5487

> <Gold.Chemscore.Rot>
1.6316

> <Gold.Chemscore.Internal.Correction>
   9.000000E+99

> <Gold.Chemscore.Hbonds>
donor molecule, donor type, donor heavy atom, donor atom, acceptor molecule, acceptor atom, score
      L1  H     5    26       P1  7948  0.74
      L1  H     8    27       P1  7948  0.11

> <Gold.Chemscore.Hbond.Weighted>
-3.8717

> <Gold.Chemscore.Metal.Weighted>
-0.0000

> <Gold.Chemscore.Lipo.Weighted>
-10.3836

> <Gold.Chemscore.Internal_Hbond.Weighted>
0.0000

> <Gold.Chemscore.DEClash.Weighted>
0.5212

> <Gold.Chemscore.DEInternal.Weighted>
2.5487

> <Gold.Chemscore.Rot.Weighted>
4.1768

> <Gold.Chemscore.Internal.Correction.Weighted>
   9.000000E+99

> <Gold.Protein.RotatedTorsions>
[ 6907 6896 6895 6894 ] final   90.75 input  -60.11 | X-H torsion
[ 7974 7965 7964 7962 ] final  -36.79 input  175.53 | X-H torsion
[ 8008 7997 7996 7995 ] final  143.14 input   59.86 | X-H torsion
[ 10167 10162 10161 10158 ] final  174.71 input  -65.29 | X-H torsion
[ 10718 10713 10712 10709 ] final  -96.91 input   66.30 | X-H torsion
[ 10763 10752 10751 10750 ] final -158.01 input  -60.55 | X-H torsion
[ 11005 11000 10999 10996 ] final   95.33 input  -57.11 | X-H torsion

> <Gold.Protein.ActiveResidues>
 VAL166  LYS551  ARG553  GLY616  TRP617  ASP618  TYR619  PRO620  LYS621  CYS622 
 ASP623  PHE694  ASN695  SER759  ASP760  ASP761  ALA762  ILE779  LEU786  VAL792 
 PHE793  MET794  SER795  GLU796  ALA797  LYS798  CYS799  TRP800  GLU811  SER814 

> <Gold.Protein.RotatedAtoms>
  152.5446  134.1763  159.8617 H   0  0  0  0  0  0  0  0  0  0  0  0  # atno 6907 bound_to 6896
  151.1769  133.4742  159.2601 H   0  0  0  0  0  0  0  0  0  0  0  0  # atno 6908 bound_to 6896
  151.1218  135.0094  159.8597 H   0  0  0  0  0  0  0  0  0  0  0  0  # atno 6909 bound_to 6896
  146.0631  140.6320  142.8988 H   0  0  0  0  0  0  0  0  0  0  0  0  # atno 7974 bound_to 7965
  156.2936  140.2270  156.4842 H   0  0  0  0  0  0  0  0  0  0  0  0  # atno 8008 bound_to 7997
  154.7827  140.0459  157.1160 H   0  0  0  0  0  0  0  0  0  0  0  0  # atno 8009 bound_to 7997
  154.9740  140.3070  155.4979 H   0  0  0  0  0  0  0  0  0  0  0  0  # atno 8010 bound_to 7997
  139.5151  144.3115  152.0287 H   0  0  0  0  0  0  0  0  0  0  0  0  # atno 10167 bound_to 10162
  156.0072  130.5172  150.6297 H   0  0  0  0  0  0  0  0  0  0  0  0  # atno 10718 bound_to 10713
  154.7591  135.3113  154.8414 H   0  0  0  0  0  0  0  0  0  0  0  0  # atno 10763 bound_to 10752
  153.9179  135.6799  153.4753 H   0  0  0  0  0  0  0  0  0  0  0  0  # atno 10764 bound_to 10752
  153.1190  135.4831  154.9094 H   0  0  0  0  0  0  0  0  0  0  0  0  # atno 10765 bound_to 10752
  139.8790  134.8893  156.3995 H   0  0  0  0  0  0  0  0  0  0  0  0  # atno 11005 bound_to 11000
  144.7186  140.4297  143.7025 LP  0  0  0  0  0  0  0  0  0  0  0  0  # atno 17320 bound_to 7965
  145.6525  139.1567  143.2854 LP  0  0  0  0  0  0  0  0  0  0  0  0  # atno 17321 bound_to 7965
  140.2560  144.4119  150.6204 LP  0  0  0  0  0  0  0  0  0  0  0  0  # atno 17342 bound_to 10162
  140.6191  143.2175  151.6730 LP  0  0  0  0  0  0  0  0  0  0  0  0  # atno 17343 bound_to 10162
  157.4097  131.0822  151.1232 LP  0  0  0  0  0  0  0  0  0  0  0  0  # atno 17370 bound_to 10713
  157.1868  130.6334  149.5690 LP  0  0  0  0  0  0  0  0  0  0  0  0  # atno 17371 bound_to 10713
  140.9277  133.7601  155.9985 LP  0  0  0  0  0  0  0  0  0  0  0  0  # atno 17394 bound_to 11000
  140.8367  134.3115  157.5329 LP  0  0  0  0  0  0  0  0  0  0  0  0  # atno 17395 bound_to 11000

$$$$
