AV-unprocessed.smi:2044|AV-procd|sdf|8300|dock6
  -GOLD-   2272010563D 1   1.00000     0.00000
 Structure written by MMmdl.
 40 41  0  0  0  0  0  0  0  0  2 V2000
  151.7731  138.4515  155.2723 C   0  0  0  0  0  0  0  0  0  0  0  0
  150.8688  139.6275  155.4121 C   0  0  0  0  0  0  0  0  0  0  0  0
  150.1838  140.1524  156.4713 C   0  0  0  0  0  0  0  0  0  0  0  0
  149.5167  141.2728  155.8960 C   0  0  0  0  0  0  0  0  0  0  0  0
  148.6502  142.1721  156.5695 N   0  0  0  0  0  0  0  0  0  0  0  0
  147.9324  141.9612  157.6853 C   0  0  0  0  0  0  0  0  0  0  0  0
  147.9215  140.9191  158.3400 O   0  0  0  0  0  0  0  0  0  0  0  0
  147.2215  143.0492  158.0186 N   0  0  0  0  0  0  0  0  0  0  0  0
  146.3261  143.1564  159.1689 C   0  0  0  0  0  0  0  0  0  0  0  0
  146.6122  144.3995  160.0533 C   0  0  2  0  0  0  0  0  0  0  0  0
  146.0286  144.2111  161.4757 C   0  0  0  0  0  0  0  0  0  0  0  0
  146.1188  145.6407  159.3692 N   0  3  0  0  0  0  0  0  0  0  0  0
  144.7219  145.5833  158.8549 C   0  0  0  0  0  0  0  0  0  0  0  0
  144.3383  146.8913  158.1412 C   0  0  0  0  0  0  0  0  0  0  0  0
  144.5112  147.9922  159.0205 O   0  0  0  0  0  0  0  0  0  0  0  0
  145.8644  148.1221  159.4298 C   0  0  0  0  0  0  0  0  0  0  0  0
  146.2882  146.8627  160.2024 C   0  0  0  0  0  0  0  0  0  0  0  0
  149.7750  141.4132  154.6088 N   0  0  0  0  0  0  0  0  0  0  0  0
  150.6433  140.3626  154.2899 O   0  0  0  0  0  0  0  0  0  0  0  0
  151.8255  137.8879  156.2041 H   0  0  0  0  0  0  0  0  0  0  0  0
  152.7826  138.7697  155.0119 H   0  0  0  0  0  0  0  0  0  0  0  0
  151.4168  137.7799  154.4912 H   0  0  0  0  0  0  0  0  0  0  0  0
  150.1715  139.7792  157.4842 H   0  0  0  0  0  0  0  0  0  0  0  0
  148.5706  143.0863  156.1494 H   0  0  0  0  0  0  0  0  0  0  0  0
  147.2938  143.8614  157.4229 H   0  0  0  0  0  0  0  0  0  0  0  0
  145.3208  143.1929  158.7538 H   0  0  0  0  0  0  0  0  0  0  0  0
  146.3625  142.2511  159.7775 H   0  0  0  0  0  0  0  0  0  0  0  0
  147.6927  144.4955  160.1728 H   0  0  0  0  0  0  0  0  0  0  0  0
  146.4028  143.3050  161.9506 H   0  0  0  0  0  0  0  0  0  0  0  0
  144.9403  144.1442  161.4550 H   0  0  0  0  0  0  0  0  0  0  0  0
  146.3109  145.0214  162.1478 H   0  0  0  0  0  0  0  0  0  0  0  0
  144.6048  144.7761  158.1327 H   0  0  0  0  0  0  0  0  0  0  0  0
  144.0343  145.3905  159.6801 H   0  0  0  0  0  0  0  0  0  0  0  0
  144.9370  147.0327  157.2397 H   0  0  0  0  0  0  0  0  0  0  0  0
  143.2954  146.8529  157.8259 H   0  0  0  0  0  0  0  0  0  0  0  0
  146.5095  148.2876  158.5652 H   0  0  0  0  0  0  0  0  0  0  0  0
  145.9561  149.0010  160.0681 H   0  0  0  0  0  0  0  0  0  0  0  0
  145.6901  146.7708  161.1105 H   0  0  0  0  0  0  0  0  0  0  0  0
  147.3223  146.9875  160.5172 H   0  0  0  0  0  0  0  0  0  0  0  0
  146.7028  145.7596  158.5534 H   0  0  0  0  0  0  0  0  0  0  0  0
  1  2  1  0  0  0  0
  1 20  1  0  0  0  0
  1 21  1  0  0  0  0
  1 22  1  0  0  0  0
  2 19  1  0  0  0  0
  2  3  2  0  0  0  0
  3  4  1  0  0  0  0
  3 23  1  0  0  0  0
  4  5  1  0  0  0  0
  4 18  2  0  0  0  0
  5  6  1  0  0  0  0
  5 24  1  0  0  0  0
  6  7  2  0  0  0  0
  6  8  1  0  0  0  0
  8  9  1  0  0  0  0
  8 25  1  0  0  0  0
  9 10  1  0  0  0  0
  9 26  1  0  0  0  0
  9 27  1  0  0  0  0
 10 11  1  0  0  0  0
 10 12  1  0  0  0  0
 10 28  1  0  0  0  0
 11 29  1  0  0  0  0
 11 30  1  0  0  0  0
 11 31  1  0  0  0  0
 12 17  1  0  0  0  0
 12 13  1  0  0  0  0
 12 40  1  0  0  0  0
 13 14  1  0  0  0  0
 13 32  1  0  0  0  0
 13 33  1  0  0  0  0
 14 15  1  0  0  0  0
 14 34  1  0  0  0  0
 14 35  1  0  0  0  0
 15 16  1  0  0  0  0
 16 17  1  0  0  0  0
 16 36  1  0  0  0  0
 16 37  1  0  0  0  0
 17 38  1  0  0  0  0
 17 39  1  0  0  0  0
 18 19  1  0  0  0  0
M  CHG  1  12   1
M  END
> <s_m_source_file>
AV-unprocessed.smi

> <i_m_source_file_index>
2044

> <i_lp_mmshare_version>
43012

> <i_f3d_flags>
0

> <s_epik_input>
W0NIM11jMVtjSF1jKG5vMSlbTkhdQyg9TylbTkhdW0NIMl1bQ0BIXShbQ0gzXSlOMltDSDJdW0NIMl1PW0NIMl1bQ0gyXTI=

> <s_epik_cmdline>
J2VwaWtfcHl0aG9uJywgJy1waCcsICc3LjAnLCAnLXRuJywgJzgnLCAnLW1hJywgJzIwMCcsICctbWV0YWxfYmluZGluZycsICctaW1hZScsICc8aW5maWxlLm1hZT4nLCAnLW9tYWUnLCAnPG91dGZpbGUubWFlPic=

> <r_epik_Ionization_Penalty>
0.707076

> <r_epik_Ionization_Penalty_Charging>
0.707039

> <r_epik_Ionization_Penalty_Neutral>
3.67886e-05

> <r_epik_State_Penalty>
0.730276

> <r_epik_Charging_Adjusted_Penalty>
1.43732

> <i_epik_Tot_Q>
1

> <i_epik_Tot_abs_Q>
1

> <r_epik_Metal_State_Penalty>
0.743216

> <b_epik_Metal_Only>
0

> <s_lp_Force_Field>
OPLS_2005

> <r_lp_Energy>
20.903

> <b_lp_Chiralities_Consistent>
1

> <s_lp_Variant>
AV-unprocessed.smi:2044-3

> <Gold.Version>
5.8.1

> <Gold.Id.Protein>
6NUR|6NUR_protein|mol2

> <Gold.PLP.Fitness>
39.6493

> <Gold.PLP.PLP>
-28.0641

> <Gold.PLP.part.hbond>
-7.1921

> <Gold.PLP.part.metal>
0.0000

> <Gold.PLP.part.buried>
-4.1426

> <Gold.PLP.part.nonpolar>
-18.3062

> <Gold.PLP.part.repulsive>
1.1787

> <Gold.PLP.ligand.clash>
0.0000

> <Gold.PLP.ligand.torsion>
0.4127

> <Gold.PLP.Chemscore.Hbond>
4.1205

> <Gold.PLP.Chemscore.CHOScore>
0.0000

> <Gold.PLP.Chemscore.Metal>
0.0000

> <Gold.Chemscore.Hbonds>
donor molecule, donor type, donor heavy atom, donor atom, acceptor molecule, acceptor atom, score
      L1  H     5    24       P1  8028  1.00
      L1  H     8    25       P1  8029  0.10
      L1  H    12    40       P1  8029  2.00
      P1  H  7989  7998       L1    19  0.57

> <Gold.PLP.Chemscore.Internal.Correction>
0.0491

> <Gold.Rescore>
     Score         DG    S(hbond)    S(metal)    S(lipo)     H(rot)  DE(clash)    DE(int)     intcor
     15.34     -16.04       2.54        0.00      53.11       1.62       0.22       0.48       ----

> <Gold.Chemscore.Fitness>
15.3362

> <Gold.Chemscore.DG>
-16.0368

> <Gold.Chemscore.ZeroCoef>
-5.4800

> <Gold.Chemscore.Hbond>
2.5430

> <Gold.Chemscore.Metal>
0.0000

> <Gold.Chemscore.Lipo>
53.1094

> <Gold.Chemscore.Internal_Hbond>
0.0000

> <Gold.Chemscore.DEClash>
0.2249

> <Gold.Chemscore.DEInternal>
0.4757

> <Gold.Chemscore.Rot>
1.6213

> <Gold.Chemscore.Internal.Correction>
   9.000000E+99

> <Gold.Chemscore.Hbonds>
donor molecule, donor type, donor heavy atom, donor atom, acceptor molecule, acceptor atom, score
      L1  H     5    24       P1  8028  0.96
      L1  H    12    40       P1  8029  1.00
      P1  H  7989  7998       L1    19  0.35

> <Gold.Chemscore.Hbond.Weighted>
-8.4937

> <Gold.Chemscore.Metal.Weighted>
-0.0000

> <Gold.Chemscore.Lipo.Weighted>
-6.2138

> <Gold.Chemscore.Internal_Hbond.Weighted>
0.0000

> <Gold.Chemscore.DEClash.Weighted>
0.2249

> <Gold.Chemscore.DEInternal.Weighted>
0.4757

> <Gold.Chemscore.Rot.Weighted>
4.1506

> <Gold.Chemscore.Internal.Correction.Weighted>
   9.000000E+99

> <Gold.Protein.RotatedTorsions>
[ 6907 6896 6895 6894 ] final   82.79 input  -60.11 | X-H torsion
[ 7974 7965 7964 7962 ] final  146.59 input  175.53 | X-H torsion
[ 8008 7997 7996 7995 ] final   83.24 input   59.86 | X-H torsion
[ 10167 10162 10161 10158 ] final -101.55 input  -65.29 | X-H torsion
[ 10718 10713 10712 10709 ] final  -35.60 input   66.30 | X-H torsion
[ 10763 10752 10751 10750 ] final  115.12 input  -60.55 | X-H torsion
[ 11005 11000 10999 10996 ] final   85.51 input  -57.11 | X-H torsion

> <Gold.Protein.ActiveResidues>
 VAL166  LYS551  ARG553  GLY616  TRP617  ASP618  TYR619  PRO620  LYS621  CYS622 
 ASP623  PHE694  ASN695  SER759  ASP760  ASP761  ALA762  ILE779  LEU786  VAL792 
 PHE793  MET794  SER795  GLU796  ALA797  LYS798  CYS799  TRP800  GLU811  SER814 

> <Gold.Protein.RotatedAtoms>
  152.5309  134.2995  159.9072 H   0  0  0  0  0  0  0  0  0  0  0  0  # atno 6907 bound_to 6896
  151.2946  133.4143  159.2643 H   0  0  0  0  0  0  0  0  0  0  0  0  # atno 6908 bound_to 6896
  151.0171  134.9457  159.8096 H   0  0  0  0  0  0  0  0  0  0  0  0  # atno 6909 bound_to 6896
  144.8659  139.5924  143.5909 H   0  0  0  0  0  0  0  0  0  0  0  0  # atno 7974 bound_to 7965
  155.9213  140.3421  155.6175 H   0  0  0  0  0  0  0  0  0  0  0  0  # atno 8008 bound_to 7997
  155.7270  140.0790  157.2324 H   0  0  0  0  0  0  0  0  0  0  0  0  # atno 8009 bound_to 7997
  154.4070  140.1595  156.2453 H   0  0  0  0  0  0  0  0  0  0  0  0  # atno 8010 bound_to 7997
  140.2401  143.3544  152.0809 H   0  0  0  0  0  0  0  0  0  0  0  0  # atno 10167 bound_to 10162
  156.3368  130.4287  149.7823 H   0  0  0  0  0  0  0  0  0  0  0  0  # atno 10718 bound_to 10713
  153.5174  135.3605  155.2616 H   0  0  0  0  0  0  0  0  0  0  0  0  # atno 10763 bound_to 10752
  154.8737  135.4037  154.3299 H   0  0  0  0  0  0  0  0  0  0  0  0  # atno 10764 bound_to 10752
  153.3963  135.7073  153.6525 H   0  0  0  0  0  0  0  0  0  0  0  0  # atno 10765 bound_to 10752
  139.8969  134.8292  156.2592 H   0  0  0  0  0  0  0  0  0  0  0  0  # atno 11005 bound_to 11000
  146.2895  139.7098  142.9171 LP  0  0  0  0  0  0  0  0  0  0  0  0  # atno 17320 bound_to 7965
  145.4223  141.0407  143.2957 LP  0  0  0  0  0  0  0  0  0  0  0  0  # atno 17321 bound_to 7965
  139.5080  144.6842  151.5930 LP  0  0  0  0  0  0  0  0  0  0  0  0  # atno 17342 bound_to 10162
  140.6120  143.9419  150.6460 LP  0  0  0  0  0  0  0  0  0  0  0  0  # atno 17343 bound_to 10162
  156.5075  130.8157  151.3156 LP  0  0  0  0  0  0  0  0  0  0  0  0  # atno 17370 bound_to 10713
  157.7440  130.9925  150.2637 LP  0  0  0  0  0  0  0  0  0  0  0  0  # atno 17371 bound_to 10713
  141.0173  133.7061  156.1210 LP  0  0  0  0  0  0  0  0  0  0  0  0  # atno 17394 bound_to 11000
  140.7283  134.4282  157.5568 LP  0  0  0  0  0  0  0  0  0  0  0  0  # atno 17395 bound_to 11000

$$$$
