AV-unprocessed.smi:1768|AV-procd|sdf|7144|dock5
  -GOLD-   22720 8383D 1   1.00000     0.00000
 Structure written by MMmdl.
 33 34  0  0  0  0  0  0  0  0  1 V2000
  151.8038  131.5618  157.2049 C   0  0  0  0  0  0  0  0  0  0  0  0
  150.8987  132.5309  156.5245 C   0  0  0  0  0  0  0  0  0  0  0  0
  150.5103  133.6812  157.0884 N   0  0  0  0  0  0  0  0  0  0  0  0
  149.6734  134.4162  156.2608 N   0  0  0  0  0  0  0  0  0  0  0  0
  149.4547  133.7962  155.0931 C   0  0  0  0  0  0  0  0  0  0  0  0
  148.6415  134.3271  154.0577 N   0  0  0  0  0  0  0  0  0  0  0  0
  147.3659  134.0230  153.7613 C   0  0  0  0  0  0  0  0  0  0  0  0
  146.6793  133.1875  154.3498 O   0  0  0  0  0  0  0  0  0  0  0  0
  146.9257  134.7539  152.7270 N   0  0  0  0  0  0  0  0  0  0  0  0
  145.5956  134.6732  152.1268 C   0  0  1  0  0  0  0  0  0  0  0  0
  145.4389  135.8225  151.1191 C   0  0  0  0  0  0  0  0  0  0  0  0
  145.4117  133.2868  151.4792 C   0  0  2  0  0  0  0  0  0  0  0  0
  146.4380  132.9479  150.3962 C   0  0  0  0  0  0  0  0  0  0  0  0
  145.6854  131.9351  149.5649 C   0  0  0  0  0  0  0  0  0  0  0  0
  144.2751  132.5145  149.5777 C   0  0  0  0  0  0  0  0  0  0  0  0
  144.1505  133.2098  150.8153 O   0  0  0  0  0  0  0  0  0  0  0  0
  150.2592  132.2469  154.9103 S   0  0  0  0  0  0  0  0  0  0  0  0
  152.0719  131.9179  158.2002 H   0  0  0  0  0  0  0  0  0  0  0  0
  152.7158  131.4332  156.6221 H   0  0  0  0  0  0  0  0  0  0  0  0
  151.3097  130.5950  157.3005 H   0  0  0  0  0  0  0  0  0  0  0  0
  149.0800  135.0289  153.4799 H   0  0  0  0  0  0  0  0  0  0  0  0
  147.5668  135.4116  152.3087 H   0  0  0  0  0  0  0  0  0  0  0  0
  144.8272  134.7949  152.8923 H   0  0  0  0  0  0  0  0  0  0  0  0
  144.4429  135.8307  150.6765 H   0  0  0  0  0  0  0  0  0  0  0  0
  146.1639  135.7426  150.3083 H   0  0  0  0  0  0  0  0  0  0  0  0
  145.5857  136.7886  151.6032 H   0  0  0  0  0  0  0  0  0  0  0  0
  145.4293  132.5071  152.2428 H   0  0  0  0  0  0  0  0  0  0  0  0
  146.6669  133.8272  149.7921 H   0  0  0  0  0  0  0  0  0  0  0  0
  147.3719  132.5569  150.8009 H   0  0  0  0  0  0  0  0  0  0  0  0
  146.0893  131.8164  148.5591 H   0  0  0  0  0  0  0  0  0  0  0  0
  145.6979  130.9620  150.0578 H   0  0  0  0  0  0  0  0  0  0  0  0
  144.1501  133.2312  148.7651 H   0  0  0  0  0  0  0  0  0  0  0  0
  143.5086  131.7464  149.4727 H   0  0  0  0  0  0  0  0  0  0  0  0
  1  2  1  0  0  0  0
  1 18  1  0  0  0  0
  1 19  1  0  0  0  0
  1 20  1  0  0  0  0
  2 17  1  0  0  0  0
  2  3  2  0  0  0  0
  3  4  1  0  0  0  0
  4  5  2  0  0  0  0
  5  6  1  0  0  0  0
  5 17  1  0  0  0  0
  6  7  1  0  0  0  0
  6 21  1  0  0  0  0
  7  8  2  0  0  0  0
  7  9  1  0  0  0  0
  9 10  1  0  0  0  0
  9 22  1  0  0  0  0
 10 11  1  0  0  0  0
 10 12  1  0  0  0  0
 10 23  1  0  0  0  0
 11 24  1  0  0  0  0
 11 25  1  0  0  0  0
 11 26  1  0  0  0  0
 12 16  1  0  0  0  0
 12 13  1  0  0  0  0
 12 27  1  0  0  0  0
 13 14  1  0  0  0  0
 13 28  1  0  0  0  0
 13 29  1  0  0  0  0
 14 15  1  0  0  0  0
 14 30  1  0  0  0  0
 14 31  1  0  0  0  0
 15 16  1  0  0  0  0
 15 32  1  0  0  0  0
 15 33  1  0  0  0  0
M  END
> <s_m_source_file>
AV-unprocessed.smi

> <i_m_source_file_index>
1768

> <i_lp_mmshare_version>
43012

> <i_f3d_flags>
0

> <s_epik_input>
W0NIM11jMW5uYyhzMSlbTkhdQyg9TylbTkhdW0NASF0oW0NIM10pW0NAQEhdMltDSDJdW0NIMl1bQ0gyXU8y

> <s_epik_cmdline>
J2VwaWtfcHl0aG9uJywgJy1waCcsICc3LjAnLCAnLXRuJywgJzgnLCAnLW1hJywgJzIwMCcsICctbWV0YWxfYmluZGluZycsICctaW1hZScsICc8aW5maWxlLm1hZT4nLCAnLW9tYWUnLCAnPG91dGZpbGUubWFlPic=

> <r_lp_tautomer_probability>
1

> <r_epik_Ionization_Penalty>
0.000523083

> <r_epik_Ionization_Penalty_Charging>
0

> <r_epik_Ionization_Penalty_Neutral>
0.000523083

> <r_epik_State_Penalty>
-0

> <r_epik_Charging_Adjusted_Penalty>
0

> <i_epik_Tot_Q>
0

> <i_epik_Tot_abs_Q>
0

> <r_epik_Metal_State_Penalty>
0.223408

> <b_epik_Metal_Only>
0

> <s_lp_Force_Field>
OPLS_2005

> <r_lp_Energy>
16.97

> <b_lp_Chiralities_Consistent>
1

> <s_lp_Variant>
AV-unprocessed.smi:1768-2

> <Gold.Version>
5.8.1

> <Gold.Id.Protein>
6NUR|6NUR_protein|mol2

> <Gold.PLP.Fitness>
35.0240

> <Gold.PLP.PLP>
-29.0222

> <Gold.PLP.part.hbond>
-3.0000

> <Gold.PLP.part.metal>
0.0000

> <Gold.PLP.part.buried>
-5.1459

> <Gold.PLP.part.nonpolar>
-22.3143

> <Gold.PLP.part.repulsive>
0.2336

> <Gold.PLP.ligand.clash>
0.0000

> <Gold.PLP.ligand.torsion>
0.7885

> <Gold.PLP.Chemscore.Hbond>
2.5221

> <Gold.PLP.Chemscore.CHOScore>
0.0000

> <Gold.PLP.Chemscore.Metal>
0.0000

> <Gold.Chemscore.Hbonds>
donor molecule, donor type, donor heavy atom, donor atom, acceptor molecule, acceptor atom, score
      L1  H     6    21       P1  7948  0.96
      L1  H     9    22       P1  7948  1.00
      P1  H  6896  6909       L1     3  0.46

> <Gold.PLP.Chemscore.Internal.Correction>
0.0124

> <Gold.Rescore>
     Score         DG    S(hbond)    S(metal)    S(lipo)     H(rot)  DE(clash)    DE(int)     intcor
     14.74     -15.59       1.77        0.00      64.16       1.29       0.01       0.84       ----

> <Gold.Chemscore.Fitness>
14.7391

> <Gold.Chemscore.DG>
-15.5940

> <Gold.Chemscore.ZeroCoef>
-5.4800

> <Gold.Chemscore.Hbond>
1.7709

> <Gold.Chemscore.Metal>
0.0000

> <Gold.Chemscore.Lipo>
64.1563

> <Gold.Chemscore.Internal_Hbond>
0.0000

> <Gold.Chemscore.DEClash>
0.0111

> <Gold.Chemscore.DEInternal>
0.8437

> <Gold.Chemscore.Rot>
1.2919

> <Gold.Chemscore.Internal.Correction>
   9.000000E+99

> <Gold.Chemscore.Hbonds>
donor molecule, donor type, donor heavy atom, donor atom, acceptor molecule, acceptor atom, score
      L1  H     6    21       P1  7948  0.23
      L1  H     9    22       P1  7948  1.00
      P1  H  6896  6909       L1     3  0.25

> <Gold.Chemscore.Hbond.Weighted>
-5.9149

> <Gold.Chemscore.Metal.Weighted>
-0.0000

> <Gold.Chemscore.Lipo.Weighted>
-7.5063

> <Gold.Chemscore.Internal_Hbond.Weighted>
0.0000

> <Gold.Chemscore.DEClash.Weighted>
0.0111

> <Gold.Chemscore.DEInternal.Weighted>
0.8437

> <Gold.Chemscore.Rot.Weighted>
3.3072

> <Gold.Chemscore.Internal.Correction.Weighted>
   9.000000E+99

> <Gold.Protein.RotatedTorsions>
[ 6907 6896 6895 6894 ] final  -23.06 input  -60.11 | X-H torsion
[ 7974 7965 7964 7962 ] final  -91.06 input  175.53 | X-H torsion
[ 8008 7997 7996 7995 ] final  -32.61 input   59.86 | X-H torsion
[ 10167 10162 10161 10158 ] final  109.09 input  -65.29 | X-H torsion
[ 10718 10713 10712 10709 ] final   25.31 input   66.30 | X-H torsion
[ 10763 10752 10751 10750 ] final -114.12 input  -60.55 | X-H torsion
[ 11005 11000 10999 10996 ] final  -50.17 input  -57.11 | X-H torsion

> <Gold.Protein.ActiveResidues>
 VAL166  LYS551  ARG553  GLY616  TRP617  ASP618  TYR619  PRO620  LYS621  CYS622 
 ASP623  PHE694  ASN695  SER759  ASP760  ASP761  ALA762  ILE779  LEU786  VAL792 
 PHE793  MET794  SER795  GLU796  ALA797  LYS798  CYS799  TRP800  GLU811  SER814 

> <Gold.Protein.RotatedAtoms>
  151.2095  135.0475  159.8905 H   0  0  0  0  0  0  0  0  0  0  0  0  # atno 6907 bound_to 6896
  152.5426  134.0760  159.8225 H   0  0  0  0  0  0  0  0  0  0  0  0  # atno 6908 bound_to 6896
  151.0912  133.5267  159.2647 H   0  0  0  0  0  0  0  0  0  0  0  0  # atno 6909 bound_to 6896
  145.4182  140.9549  143.2196 H   0  0  0  0  0  0  0  0  0  0  0  0  # atno 7974 bound_to 7965
  154.4174  140.1733  156.1754 H   0  0  0  0  0  0  0  0  0  0  0  0  # atno 8008 bound_to 7997
  155.9726  140.3384  155.6565 H   0  0  0  0  0  0  0  0  0  0  0  0  # atno 8009 bound_to 7997
  155.6605  140.0700  157.2546 H   0  0  0  0  0  0  0  0  0  0  0  0  # atno 8010 bound_to 7997
  139.6794  144.7119  151.1543 H   0  0  0  0  0  0  0  0  0  0  0  0  # atno 10167 bound_to 10162
  157.1917  130.6849  149.6152 H   0  0  0  0  0  0  0  0  0  0  0  0  # atno 10718 bound_to 10713
  154.8426  135.4429  154.1456 H   0  0  0  0  0  0  0  0  0  0  0  0  # atno 10763 bound_to 10752
  153.2630  135.6938  153.7565 H   0  0  0  0  0  0  0  0  0  0  0  0  # atno 10764 bound_to 10752
  153.6834  135.3399  155.3159 H   0  0  0  0  0  0  0  0  0  0  0  0  # atno 10765 bound_to 10752
  141.0801  133.6655  156.3693 H   0  0  0  0  0  0  0  0  0  0  0  0  # atno 11005 bound_to 11000
  144.8263  139.5704  143.6964 LP  0  0  0  0  0  0  0  0  0  0  0  0  # atno 17320 bound_to 7965
  146.2670  139.6544  142.9322 LP  0  0  0  0  0  0  0  0  0  0  0  0  # atno 17321 bound_to 7965
  140.7647  143.5722  150.8983 LP  0  0  0  0  0  0  0  0  0  0  0  0  # atno 17342 bound_to 10162
  139.9393  143.6401  152.3057 LP  0  0  0  0  0  0  0  0  0  0  0  0  # atno 17343 bound_to 10162
  155.9711  130.4612  150.6102 LP  0  0  0  0  0  0  0  0  0  0  0  0  # atno 17370 bound_to 10713
  157.3854  131.0787  151.1440 LP  0  0  0  0  0  0  0  0  0  0  0  0  # atno 17371 bound_to 10713
  140.5487  134.6049  157.5401 LP  0  0  0  0  0  0  0  0  0  0  0  0  # atno 17394 bound_to 11000
  139.9614  134.7445  156.0228 LP  0  0  0  0  0  0  0  0  0  0  0  0  # atno 17395 bound_to 11000

$$$$
