#       Name:                AV-unprocessed.smi:703
#       Creating user name   scv26
#       Creation time:       Fri Mar 27 00:42:03 2020


#       File generated by GOLD software.
#

@<TRIPOS>MOLECULE
AV-unprocessed.smi:703
    41    42     1
SMALL
NO_CHARGES


@<TRIPOS>ATOM
      1 ****        -4.1774  -1.3806   1.7961 C.3            1 S1                 0.0000
      2 ****        -2.9647  -0.4421   1.8582 C.3            1 S1                 0.0000
      3 ****        -2.3195  -0.2702   0.5349 N.4            1 S1                 1.0000
      4 ****        -1.7000  -1.4936  -0.0204 C.3            1 S1                 0.0000
      5 ****        -0.5817  -0.9983  -0.9359 C.3            1 S1                 0.0000
      6 ****         0.4562  -2.0630  -1.3283 C.3            1 S1                 0.0000
      7 ****        -0.0533   0.2370  -0.1961 C.3            1 S1                 0.0000
      8 ****         0.9559  -0.1279   0.8061 N.pl3          1 S1                 0.0000
      9 ****         2.0409   1.0257   1.4924 S.o2           1 S1                 0.0000
     10 ****         1.4028   2.3487   1.4090 O.2            1 S1                 0.0000
     11 ****         2.4628   0.4837   2.7926 O.2            1 S1                 0.0000
     12 ****         3.4925   0.9530   0.3484 C.3            1 S1                 0.0000
     13 ****         3.2103   1.6755  -0.9397 C.2            1 S1                 0.0000
     14 ****         2.9187   1.1182  -2.2157 C.2            1 S1                 0.0000
     15 ****         2.7601   2.2138  -3.0146 C.2            1 S1                 0.0000
     16 ****         2.9452   3.3524  -2.3010 O.3            1 S1                 0.0000
     17 ****         3.2402   2.9984  -0.9796 N.2            1 S1                 0.0000
     18 ****        -1.3053   0.8115   0.4903 C.3            1 S1                 0.0000
     19 ****        -4.6684  -1.4390   2.7677 H              1 S1                 0.0000
     20 ****        -3.8893  -2.3937   1.5146 H              1 S1                 0.0000
     21 ****        -4.9140  -1.0265   1.0746 H              1 S1                 0.0000
     22 ****        -3.2982   0.5342   2.2126 H              1 S1                 0.0000
     23 ****        -2.2359  -0.8075   2.5833 H              1 S1                 0.0000
     24 ****        -1.2782  -2.0955   0.7865 H              1 S1                 0.0000
     25 ****        -2.4299  -2.1064  -0.5503 H              1 S1                 0.0000
     26 ****        -1.0486  -0.6436  -1.8566 H              1 S1                 0.0000
     27 ****         0.9296  -2.5134  -0.4556 H              1 S1                 0.0000
     28 ****         1.2407  -1.6336  -1.9508 H              1 S1                 0.0000
     29 ****        -0.0117  -2.8672  -1.8964 H              1 S1                 0.0000
     30 ****         0.3817   0.9564  -0.8898 H              1 S1                 0.0000
     31 ****         0.8262  -0.9971   1.3234 H              1 S1                 0.0000
     32 ****         4.3399   1.4105   0.8597 H              1 S1                 0.0000
     33 ****         3.7455  -0.0926   0.1748 H              1 S1                 0.0000
     34 ****         2.8386   0.0801  -2.5006 H              1 S1                 0.0000
     35 ****         2.5288   2.3425  -4.0616 H              1 S1                 0.0000
     36 ****        -1.7155   1.6329  -0.0978 H              1 S1                 0.0000
     37 ****        -1.0836   1.2108   1.4817 H              1 S1                 0.0000
     38 ****        -3.0416   0.0067  -0.1146 H              1 S1                 0.0000
     39 ****         2.1127   3.9059  -2.3252 LP             1 S1                 0.0000
     40 ****         3.7044   3.8751  -2.6888 LP             1 S1                 0.0000
     41 ****         3.4342   3.6188  -0.2198 LP             1 S1                 0.0000
@<TRIPOS>BOND
    1    1    2 1     
    2    1   19 1     
    3    1   20 1     
    4    1   21 1     
    5    2    3 1     
    6    2   22 1     
    7    2   23 1     
    8    3   18 1     
    9    3    4 1     
   10    3   38 1     
   11    4    5 1     
   12    4   24 1     
   13    4   25 1     
   14    5    6 1     
   15    5    7 1     
   16    5   26 1     
   17    6   27 1     
   18    6   28 1     
   19    6   29 1     
   20    7    8 1     
   21    7   18 1     
   22    7   30 1     
   23    8    9 1     
   24    8   31 1     
   25    9   10 2     
   26    9   11 2     
   27    9   12 1     
   28   12   13 1     
   29   12   32 1     
   30   12   33 1     
   31   13   17 2     
   32   13   14 1     
   33   14   15 2     
   34   14   34 1     
   35   15   16 1     
   36   15   35 1     
   37   16   17 1     
   38   18   36 1     
   39   18   37 1     
   40   16   39 1     
   41   16   40 1     
   42   17   41 1     
@<TRIPOS>SUBSTRUCTURE
      1 S1             1
@<TRIPOS>SET
LONE_PAIRS      STATIC     ATOMS    <user>   **** ""
5 10 11 39 40 41
DONOR_HYDROGENS      STATIC     ATOMS    <user>   **** ""
2 38 31
ATOM$BLUE        STATIC     ATOMS    COLORGROUP SYSTEM
5 10 11 39 40 41
ATOM$RED        STATIC     ATOMS    COLORGROUP SYSTEM
2 38 31
