#       Name:                AV-unprocessed.smi:2700
#       Creating user name   scv26
#       Creation time:       Fri Mar 27 14:46:48 2020


#       File generated by GOLD software.
#

@<TRIPOS>MOLECULE
AV-unprocessed.smi:2700
    25    26     1
SMALL
NO_CHARGES


@<TRIPOS>ATOM
      1 ****        -2.6936   1.1018  -1.2268 O.co2          1 S1                 0.0000
      2 ****        -2.1156  -0.0068  -1.2124 C.2            1 S1                 0.0000
      3 ****        -2.6761  -1.1246  -1.2185 O.co2          1 S1                -1.0000
      4 ****        -0.5877   0.0050  -1.1409 C.3            1 S1                 0.0000
      5 ****        -0.0055   0.0140   0.2396 C.ar           1 S1                 0.0000
      6 ****         0.2606   1.2315   0.9051 C.ar           1 S1                 0.0000
      7 ****         0.7924   1.2121   2.2111 C.ar           1 S1                 0.0000
      8 ****         1.0443  -0.0290   2.8295 C.ar           1 S1                 0.0000
      9 ****         0.7741  -1.1750   2.1678 N.pl3          1 S1                 1.0000
     10 ****         0.2654  -1.1952   0.9165 C.ar           1 S1                 0.0000
     11 ****         0.1247  -0.7481  -2.2493 C.3            1 S1                 0.0000
     12 ****         0.1162   0.7586  -2.2545 C.3            1 S1                 0.0000
     13 ****         0.0529   2.1735   0.4183 H              1 S1                 0.0000
     14 ****         0.9991   2.1362   2.7307 H              1 S1                 0.0000
     15 ****         1.4463  -0.1390   3.8260 H              1 S1                 0.0000
     16 ****         0.0843  -2.1736   0.4957 H              1 S1                 0.0000
     17 ****         1.0666  -1.2382  -2.0112 H              1 S1                 0.0000
     18 ****        -0.4726  -1.2395  -3.0155 H              1 S1                 0.0000
     19 ****        -0.4866   1.2391  -3.0233 H              1 S1                 0.0000
     20 ****         1.0532   1.2602  -2.0207 H              1 S1                 0.0000
     21 ****         0.9578  -2.0639   2.6335 H              1 S1                 0.0000
     22 ****        -3.6925   1.1447  -1.2450 LP             1 S1                 0.0000
     23 ****        -2.1570   1.9456  -1.2202 LP             1 S1                 0.0000
     24 ****        -3.6742  -1.1833  -1.2363 LP             1 S1                 0.0000
     25 ****        -2.1262  -1.9597  -1.2056 LP             1 S1                 0.0000
@<TRIPOS>BOND
    1    1    2 ar    
    2    2    3 ar    
    3    2    4 1     
    4    4   12 1     
    5    4    5 1     
    6    4   11 1     
    7    5   10 ar    
    8    5    6 ar    
    9    6    7 ar    
   10    6   13 1     
   11    7    8 ar    
   12    7   14 1     
   13    8    9 ar    
   14    8   15 1     
   15    9   10 ar    
   16    9   21 1     
   17   10   16 1     
   18   11   12 1     
   19   11   17 1     
   20   11   18 1     
   21   12   19 1     
   22   12   20 1     
   23    1   22 1     
   24    1   23 1     
   25    3   24 1     
   26    3   25 1     
@<TRIPOS>SUBSTRUCTURE
      1 S1             1
@<TRIPOS>SET
LONE_PAIRS      STATIC     ATOMS    <user>   **** ""
4 22 23 24 25
DONOR_HYDROGENS      STATIC     ATOMS    <user>   **** ""
1 21
ATOM$BLUE        STATIC     ATOMS    COLORGROUP SYSTEM
4 22 23 24 25
ATOM$RED        STATIC     ATOMS    COLORGROUP SYSTEM
1 21
