AV-unprocessed.smi:3131|AV-procd|sdf|11927|dock5
  -GOLD-   2272017313D 1   1.00000     0.00000
 Structure written by MMmdl.
 43 43  0  0  0  0  0  0  0  0  2 V2000
  151.9256  145.4064  159.2034 C   0  0  0  0  0  0  0  0  0  0  0  0
  151.1903  144.1125  159.5838 C   0  0  0  0  0  0  0  0  0  0  0  0
  151.4407  142.9280  158.6201 C   0  0  0  0  0  0  0  0  0  0  0  0
  152.8608  142.3417  158.8118 C   0  0  0  0  0  0  0  0  0  0  0  0
  153.2737  142.1482  160.2786 C   0  0  0  0  0  0  0  0  0  0  0  0
  151.2187  143.3491  157.1500 C   0  0  0  0  0  0  0  0  0  0  0  0
  150.3099  142.4224  156.4460 N   0  3  0  0  0  0  0  0  0  0  0  0
  150.9824  141.2527  155.8417 C   0  0  0  0  0  0  0  0  0  0  0  0
  149.9941  140.3610  155.0594 C   0  0  1  0  0  0  0  0  0  0  0  0
  148.6345  140.3050  155.7777 C   0  0  0  0  0  0  0  0  0  0  0  0
  149.7499  140.9928  153.8164 O   0  0  0  0  0  0  0  0  0  0  0  0
  150.5476  138.9626  154.8829 C   0  0  0  0  0  0  0  0  0  0  0  0
  151.7690  138.5650  154.2625 C   0  0  0  0  0  0  0  0  0  0  0  0
  151.9625  137.2570  154.2901 N   0  0  0  0  0  0  0  0  0  0  0  0
  150.8746  136.7700  154.9191 N   0  0  0  0  0  0  0  0  0  0  0  0
  150.7480  135.3432  155.1247 C   0  0  0  0  0  0  0  0  0  0  0  0
  150.0051  137.7734  155.2870 C   0  0  0  0  0  0  0  0  0  0  0  0
  151.6295  146.2220  159.8638 H   0  0  0  0  0  0  0  0  0  0  0  0
  151.6900  145.7086  158.1828 H   0  0  0  0  0  0  0  0  0  0  0  0
  153.0072  145.3050  159.2851 H   0  0  0  0  0  0  0  0  0  0  0  0
  151.4555  143.8257  160.6021 H   0  0  0  0  0  0  0  0  0  0  0  0
  150.1276  144.3489  159.6105 H   0  0  0  0  0  0  0  0  0  0  0  0
  150.7188  142.1448  158.8577 H   0  0  0  0  0  0  0  0  0  0  0  0
  152.9249  141.3650  158.3320 H   0  0  0  0  0  0  0  0  0  0  0  0
  153.5941  142.9695  158.3041 H   0  0  0  0  0  0  0  0  0  0  0  0
  154.2398  141.6466  160.3411 H   0  0  0  0  0  0  0  0  0  0  0  0
  152.5495  141.5345  160.8150 H   0  0  0  0  0  0  0  0  0  0  0  0
  153.3695  143.0957  160.8075 H   0  0  0  0  0  0  0  0  0  0  0  0
  150.7739  144.3417  157.0960 H   0  0  0  0  0  0  0  0  0  0  0  0
  152.1725  143.4007  156.6231 H   0  0  0  0  0  0  0  0  0  0  0  0
  149.6192  142.0865  157.1022 H   0  0  0  0  0  0  0  0  0  0  0  0
  151.7649  141.6126  155.1719 H   0  0  0  0  0  0  0  0  0  0  0  0
  151.4790  140.6769  156.6244 H   0  0  0  0  0  0  0  0  0  0  0  0
  148.7260  139.8617  156.7698 H   0  0  0  0  0  0  0  0  0  0  0  0
  147.9141  139.7074  155.2172 H   0  0  0  0  0  0  0  0  0  0  0  0
  148.2076  141.3007  155.9050 H   0  0  0  0  0  0  0  0  0  0  0  0
  149.5146  140.3333  153.1813 H   0  0  0  0  0  0  0  0  0  0  0  0
  152.5214  139.1869  153.8001 H   0  0  0  0  0  0  0  0  0  0  0  0
  149.8636  135.1286  155.7257 H   0  0  0  0  0  0  0  0  0  0  0  0
  151.6291  134.9639  155.6437 H   0  0  0  0  0  0  0  0  0  0  0  0
  150.6536  134.8392  154.1624 H   0  0  0  0  0  0  0  0  0  0  0  0
  149.0807  137.5614  155.8037 H   0  0  0  0  0  0  0  0  0  0  0  0
  149.8345  142.9298  155.7132 H   0  0  0  0  0  0  0  0  0  0  0  0
  1  2  1  0  0  0  0
  1 18  1  0  0  0  0
  1 19  1  0  0  0  0
  1 20  1  0  0  0  0
  2  3  1  0  0  0  0
  2 21  1  0  0  0  0
  2 22  1  0  0  0  0
  3  4  1  0  0  0  0
  3  6  1  0  0  0  0
  3 23  1  0  0  0  0
  4  5  1  0  0  0  0
  4 24  1  0  0  0  0
  4 25  1  0  0  0  0
  5 26  1  0  0  0  0
  5 27  1  0  0  0  0
  5 28  1  0  0  0  0
  6  7  1  0  0  0  0
  6 29  1  0  0  0  0
  6 30  1  0  0  0  0
  7  8  1  0  0  0  0
  7 31  1  0  0  0  0
  7 43  1  0  0  0  0
  8  9  1  0  0  0  0
  8 32  1  0  0  0  0
  8 33  1  0  0  0  0
  9 10  1  0  0  0  0
  9 11  1  0  0  0  0
  9 12  1  0  0  0  0
 10 34  1  0  0  0  0
 10 35  1  0  0  0  0
 10 36  1  0  0  0  0
 11 37  1  0  0  0  0
 12 17  2  0  0  0  0
 12 13  1  0  0  0  0
 13 14  2  0  0  0  0
 13 38  1  0  0  0  0
 14 15  1  0  0  0  0
 15 16  1  0  0  0  0
 15 17  1  0  0  0  0
 16 39  1  0  0  0  0
 16 40  1  0  0  0  0
 16 41  1  0  0  0  0
 17 42  1  0  0  0  0
M  CHG  1   7   1
M  END
> <s_m_source_file>
AV-unprocessed.smi

> <i_m_source_file_index>
3131

> <i_lp_mmshare_version>
43012

> <i_f3d_flags>
0

> <s_epik_input>
W0NIM11bQ0gyXVtDSF0oW0NIMl1bQ0gzXSlbQ0gyXVtOSF1bQ0gyXVtDQEBdKFtDSDNdKShbT0hdKWMxW2NIXW5uKFtDSDNdKVtjSF0x

> <s_epik_cmdline>
J2VwaWtfcHl0aG9uJywgJy1waCcsICc3LjAnLCAnLXRuJywgJzgnLCAnLW1hJywgJzIwMCcsICctbWV0YWxfYmluZGluZycsICctaW1hZScsICc8aW5maWxlLm1hZT4nLCAnLW9tYWUnLCAnPG91dGZpbGUubWFlPic=

> <r_lp_tautomer_probability>
1

> <r_epik_Ionization_Penalty>
0.00304809

> <r_epik_Ionization_Penalty_Charging>
0.00302982

> <r_epik_Ionization_Penalty_Neutral>
1.82731e-05

> <r_epik_State_Penalty>
0.00212874

> <r_epik_Charging_Adjusted_Penalty>
0.00515857

> <i_epik_Tot_Q>
1

> <i_epik_Tot_abs_Q>
1

> <r_epik_Metal_State_Penalty>
-0

> <b_epik_Metal_Only>
0

> <s_lp_Force_Field>
OPLS_2005

> <r_lp_Energy>
10.206

> <b_lp_Chiralities_Consistent>
1

> <s_lp_Variant>
AV-unprocessed.smi:3131-1

> <Gold.Version>
5.8.1

> <Gold.Id.Protein>
6NUR|6NUR_protein|mol2

> <Gold.PLP.Fitness>
48.1612

> <Gold.PLP.PLP>
-39.6970

> <Gold.PLP.part.hbond>
-4.8127

> <Gold.PLP.part.metal>
0.0000

> <Gold.PLP.part.buried>
-4.0410

> <Gold.PLP.part.nonpolar>
-30.5950

> <Gold.PLP.part.repulsive>
0.2386

> <Gold.PLP.ligand.clash>
0.0000

> <Gold.PLP.ligand.torsion>
1.3127

> <Gold.PLP.Chemscore.Hbond>
3.5936

> <Gold.PLP.Chemscore.CHOScore>
0.0000

> <Gold.PLP.Chemscore.Metal>
0.0000

> <Gold.Chemscore.Hbonds>
donor molecule, donor type, donor heavy atom, donor atom, acceptor molecule, acceptor atom, score
      L1  H     7    43       P1  8028  1.34
      L1  H    11    37       P1  7957  0.75
      P1  H  7989  7998       L1    11  0.13
      P1  H  8011  8017       L1    11  0.43
      P1  H 10752 10763       L1    14  0.96

> <Gold.PLP.Chemscore.Internal.Correction>
0.3087

> <Gold.Rescore>
     Score         DG    S(hbond)    S(metal)    S(lipo)     H(rot)  DE(clash)    DE(int)     intcor
     17.62     -19.19       2.11        0.00     108.29       2.34       0.20       1.37       ----

> <Gold.Chemscore.Fitness>
17.6242

> <Gold.Chemscore.DG>
-19.1940

> <Gold.Chemscore.ZeroCoef>
-5.4800

> <Gold.Chemscore.Hbond>
2.1082

> <Gold.Chemscore.Metal>
0.0000

> <Gold.Chemscore.Lipo>
108.2881

> <Gold.Chemscore.Internal_Hbond>
0.0000

> <Gold.Chemscore.DEClash>
0.2014

> <Gold.Chemscore.DEInternal>
1.3684

> <Gold.Chemscore.Rot>
2.3426

> <Gold.Chemscore.Internal.Correction>
   9.000000E+99

> <Gold.Chemscore.Hbonds>
donor molecule, donor type, donor heavy atom, donor atom, acceptor molecule, acceptor atom, score
      L1  H     7    43       P1  8028  0.62
      L1  H    11    37       P1  7957  0.69
      P1  H  8011  8017       L1    11  0.02
      P1  H 10752 10763       L1    14  0.24

> <Gold.Chemscore.Hbond.Weighted>
-7.0415

> <Gold.Chemscore.Metal.Weighted>
-0.0000

> <Gold.Chemscore.Lipo.Weighted>
-12.6697

> <Gold.Chemscore.Internal_Hbond.Weighted>
0.0000

> <Gold.Chemscore.DEClash.Weighted>
0.2014

> <Gold.Chemscore.DEInternal.Weighted>
1.3684

> <Gold.Chemscore.Rot.Weighted>
5.9972

> <Gold.Chemscore.Internal.Correction.Weighted>
   9.000000E+99

> <Gold.Protein.RotatedTorsions>
[ 6907 6896 6895 6894 ] final -111.39 input  -60.11 | X-H torsion
[ 7974 7965 7964 7962 ] final  -54.07 input  175.53 | X-H torsion
[ 8008 7997 7996 7995 ] final -123.70 input   59.86 | X-H torsion
[ 10167 10162 10161 10158 ] final  102.56 input  -65.29 | X-H torsion
[ 10718 10713 10712 10709 ] final -165.03 input   66.30 | X-H torsion
[ 10763 10752 10751 10750 ] final   32.97 input  -60.55 | X-H torsion
[ 11005 11000 10999 10996 ] final   48.58 input  -57.11 | X-H torsion

> <Gold.Protein.ActiveResidues>
 VAL166  LYS551  ARG553  GLY616  TRP617  ASP618  TYR619  PRO620  LYS621  CYS622 
 ASP623  PHE694  ASN695  SER759  ASP760  ASP761  ALA762  ILE779  LEU786  VAL792 
 PHE793  MET794  SER795  GLU796  ALA797  LYS798  CYS799  TRP800  GLU811  SER814 

> <Gold.Protein.RotatedAtoms>
  150.7687  133.9242  159.3406 H   0  0  0  0  0  0  0  0  0  0  0  0  # atno 6907 bound_to 6896
  151.7133  135.0906  160.0281 H   0  0  0  0  0  0  0  0  0  0  0  0  # atno 6908 bound_to 6896
  152.3695  133.6363  159.6112 H   0  0  0  0  0  0  0  0  0  0  0  0  # atno 6909 bound_to 6896
  145.8897  140.8080  142.9798 H   0  0  0  0  0  0  0  0  0  0  0  0  # atno 7974 bound_to 7965
  155.1848  140.0411  157.2889 H   0  0  0  0  0  0  0  0  0  0  0  0  # atno 8008 bound_to 7997
  154.6179  140.2493  155.7558 H   0  0  0  0  0  0  0  0  0  0  0  0  # atno 8009 bound_to 7997
  156.2417  140.2901  156.0473 H   0  0  0  0  0  0  0  0  0  0  0  0  # atno 8010 bound_to 7997
  139.7339  144.7029  151.0680 H   0  0  0  0  0  0  0  0  0  0  0  0  # atno 10167 bound_to 10162
  156.6475  130.8994  151.3007 H   0  0  0  0  0  0  0  0  0  0  0  0  # atno 10718 bound_to 10713
  153.0235  135.6399  154.1439 H   0  0  0  0  0  0  0  0  0  0  0  0  # atno 10763 bound_to 10752
  154.1170  135.2849  155.3219 H   0  0  0  0  0  0  0  0  0  0  0  0  # atno 10764 bound_to 10752
  154.6290  135.5499  153.7722 H   0  0  0  0  0  0  0  0  0  0  0  0  # atno 10765 bound_to 10752
  140.1178  134.4869  155.8623 H   0  0  0  0  0  0  0  0  0  0  0  0  # atno 11005 bound_to 11000
  144.6730  140.1510  143.7430 LP  0  0  0  0  0  0  0  0  0  0  0  0  # atno 17320 bound_to 7965
  145.8923  139.2383  143.1542 LP  0  0  0  0  0  0  0  0  0  0  0  0  # atno 17321 bound_to 7965
  140.7775  143.5009  150.9773 LP  0  0  0  0  0  0  0  0  0  0  0  0  # atno 17342 bound_to 10162
  139.8697  143.7208  152.3167 LP  0  0  0  0  0  0  0  0  0  0  0  0  # atno 17343 bound_to 10162
  157.7151  130.9488  150.1227 LP  0  0  0  0  0  0  0  0  0  0  0  0  # atno 17370 bound_to 10713
  156.2110  130.3666  149.8670 LP  0  0  0  0  0  0  0  0  0  0  0  0  # atno 17371 bound_to 10713
  141.2145  133.6750  156.6830 LP  0  0  0  0  0  0  0  0  0  0  0  0  # atno 17394 bound_to 11000
  140.3005  134.8167  157.4094 LP  0  0  0  0  0  0  0  0  0  0  0  0  # atno 17395 bound_to 11000

$$$$
