#       Name:                AV-unprocessed.smi:339
#       Creating user name   scv26
#       Creation time:       Thu Mar 26 22:30:24 2020


#       File generated by GOLD software.
#

@<TRIPOS>MOLECULE
AV-unprocessed.smi:339
    53    54     1
SMALL
NO_CHARGES


@<TRIPOS>ATOM
      1 ****        -3.2275   1.0934  -2.7764 C.3            1 S1                 0.0000
      2 ****        -3.9874   1.3703  -1.4926 C.ar           1 S1                 0.0000
      3 ****        -5.3898   1.5125  -1.5326 C.ar           1 S1                 0.0000
      4 ****        -6.1093   1.7788  -0.3530 C.ar           1 S1                 0.0000
      5 ****        -5.4289   1.9119   0.8715 C.ar           1 S1                 0.0000
      6 ****        -4.0267   1.7722   0.9235 C.ar           1 S1                 0.0000
      7 ****        -3.3071   1.9315   2.2502 C.3            1 S1                 0.0000
      8 ****        -3.3042   1.4853  -0.2589 C.ar           1 S1                 0.0000
      9 ****        -1.9417   1.3420  -0.2113 O.3            1 S1                 0.0000
     10 ****        -1.5205   0.0102   0.0448 C.3            1 S1                 0.0000
     11 ****        -0.0055   0.0061   0.3029 C.3            1 S1                 0.0000
     12 ****         0.1893   0.4098   1.6445 O.3            1 S1                 0.0000
     13 ****         0.6009  -1.4054   0.1382 C.3            1 S1                 0.0000
     14 ****         2.0539  -1.3604  -0.0649 N.am           1 S1                 0.0000
     15 ****         2.7866  -1.6095   1.0783 N.2            1 S1                 0.0000
     16 ****         4.0789  -1.5917   1.0669 C.2            1 S1                 0.0000
     17 ****         4.7694  -1.8782   2.3729 C.3            1 S1                 0.0000
     18 ****         4.7872  -1.3035  -0.1764 C.2            1 S1                 0.0000
     19 ****         6.3091  -1.2957  -0.1318 C.3            1 S1                 0.0000
     20 ****         4.0557  -1.0699  -1.2948 C.2            1 S1                 0.0000
     21 ****         4.6603  -0.7922  -2.5575 C.1            1 S1                 0.0000
     22 ****         5.1682  -0.5761  -3.5751 N.1            1 S1                 0.0000
     23 ****         2.5912  -1.0855  -1.2878 C.2            1 S1                 0.0000
     24 ****         1.8978  -0.8683  -2.2827 O.2            1 S1                 0.0000
     25 ****        -3.8088   1.3930  -3.6488 H              1 S1                 0.0000
     26 ****        -3.0070   0.0297  -2.8632 H              1 S1                 0.0000
     27 ****        -2.2867   1.6439  -2.7983 H              1 S1                 0.0000
     28 ****        -5.9193   1.4188  -2.4695 H              1 S1                 0.0000
     29 ****        -7.1833   1.8864  -0.3883 H              1 S1                 0.0000
     30 ****        -5.9880   2.1238   1.7709 H              1 S1                 0.0000
     31 ****        -2.3816   2.4944   2.1245 H              1 S1                 0.0000
     32 ****        -3.0621   0.9551   2.6680 H              1 S1                 0.0000
     33 ****        -3.9265   2.4650   2.9715 H              1 S1                 0.0000
     34 ****        -2.0639  -0.4422   0.8766 H              1 S1                 0.0000
     35 ****        -1.7460  -0.5854  -0.8404 H              1 S1                 0.0000
     36 ****         0.4792   0.7120  -0.3728 H              1 S1                 0.0000
     37 ****        -0.2598  -0.1997   2.2099 H              1 S1                 0.0000
     38 ****         0.3442  -2.0355   0.9923 H              1 S1                 0.0000
     39 ****         0.1492  -1.9067  -0.7199 H              1 S1                 0.0000
     40 ****         5.4995  -2.6795   2.2585 H              1 S1                 0.0000
     41 ****         4.0644  -2.1854   3.1468 H              1 S1                 0.0000
     42 ****         5.2919  -0.9924   2.7350 H              1 S1                 0.0000
     43 ****         6.7454  -0.9197  -1.0566 H              1 S1                 0.0000
     44 ****         6.6883  -2.3054   0.0276 H              1 S1                 0.0000
     45 ****         6.6716  -0.6596   0.6764 H              1 S1                 0.0000
     46 ****        -1.5867   1.9313   0.5145 LP             1 S1                 0.0000
     47 ****        -1.5623   1.6305  -1.0904 LP             1 S1                 0.0000
     48 ****        -0.1816   1.3290   1.7773 LP             1 S1                 0.0000
     49 ****         1.1663   0.4106   1.8579 LP             1 S1                 0.0000
     50 ****         2.3074  -1.8079   1.9333 LP             1 S1                 0.0000
     51 ****         5.6069  -0.3894  -4.4541 LP             1 S1                 0.0000
     52 ****         0.9006  -0.8898  -2.2115 LP             1 S1                 0.0000
     53 ****         2.3322  -0.6705  -3.1614 LP             1 S1                 0.0000
@<TRIPOS>BOND
    1    1    2 1     
    2    1   25 1     
    3    1   26 1     
    4    1   27 1     
    5    2    8 ar    
    6    2    3 ar    
    7    3    4 ar    
    8    3   28 1     
    9    4    5 ar    
   10    4   29 1     
   11    5    6 ar    
   12    5   30 1     
   13    6    7 1     
   14    6    8 ar    
   15    7   31 1     
   16    7   32 1     
   17    7   33 1     
   18    8    9 1     
   19    9   10 1     
   20   10   11 1     
   21   10   34 1     
   22   10   35 1     
   23   11   12 1     
   24   11   13 1     
   25   11   36 1     
   26   12   37 1     
   27   13   14 1     
   28   13   38 1     
   29   13   39 1     
   30   14   23 am    
   31   14   15 1     
   32   15   16 2     
   33   16   17 1     
   34   16   18 1     
   35   17   40 1     
   36   17   41 1     
   37   17   42 1     
   38   18   19 1     
   39   18   20 2     
   40   19   43 1     
   41   19   44 1     
   42   19   45 1     
   43   20   21 1     
   44   20   23 1     
   45   21   22 3     
   46   23   24 2     
   47    9   46 1     
   48    9   47 1     
   49   12   48 1     
   50   12   49 1     
   51   15   50 1     
   52   22   51 1     
   53   24   52 1     
   54   24   53 1     
@<TRIPOS>SUBSTRUCTURE
      1 S1             1
@<TRIPOS>SET
LONE_PAIRS      STATIC     ATOMS    <user>   **** ""
8 46 47 48 49 50 51 52 53
DONOR_HYDROGENS      STATIC     ATOMS    <user>   **** ""
1 37
ATOM$BLUE        STATIC     ATOMS    COLORGROUP SYSTEM
8 46 47 48 49 50 51 52 53
ATOM$RED        STATIC     ATOMS    COLORGROUP SYSTEM
1 37
