AV-unprocessed.smi:3289|AV-procd|sdf|12607|dock2
  -GOLD-   2272018533D 1   1.00000     0.00000
 Structure written by MMmdl.
 40 41  0  0  0  0  0  0  0  0  2 V2000
  145.5488  142.4340  155.5384 C   0  0  0  0  0  0  0  0  0  0  0  0
  146.5429  142.5550  154.3731 C   0  0  0  0  0  0  0  0  0  0  0  0
  145.9289  143.3148  153.1879 C   0  0  0  0  0  0  0  0  0  0  0  0
  147.0691  141.2117  153.9457 C   0  0  0  0  0  0  0  0  0  0  0  0
  146.3238  140.2259  153.4296 N   0  3  0  0  0  0  0  0  0  0  0  0
  147.1032  139.1492  153.1091 C   0  0  0  0  0  0  0  0  0  0  0  0
  148.3884  139.4943  153.4313 C   0  0  0  0  0  0  0  0  0  0  0  0
  148.3422  140.7696  153.9366 N   0  0  0  0  0  0  0  0  0  0  0  0
  149.5012  141.5492  154.3998 C   0  0  0  0  0  0  0  0  0  0  0  0
  149.9329  141.1527  155.8145 C   0  0  0  0  0  0  0  0  0  0  0  0
  149.9833  139.9652  156.1362 O   0  0  0  0  0  0  0  0  0  0  0  0
  150.2584  142.1576  156.6415 N   0  0  0  0  0  0  0  0  0  0  0  0
  150.7324  141.9974  158.0117 C   0  0  0  0  0  0  0  0  0  0  0  0
  150.6499  143.3149  158.8044 C   0  0  2  0  0  0  0  0  0  0  0  0
  151.2994  144.4938  158.0662 C   0  0  0  0  0  0  0  0  0  0  0  0
  152.6436  144.6361  158.7466 C   0  0  0  0  0  0  0  0  0  0  0  0
  152.2980  144.2480  160.1756 C   0  0  0  0  0  0  0  0  0  0  0  0
  151.3785  143.1760  160.0257 O   0  0  0  0  0  0  0  0  0  0  0  0
  146.0058  141.9353  156.3940 H   0  0  0  0  0  0  0  0  0  0  0  0
  144.6627  141.8654  155.2542 H   0  0  0  0  0  0  0  0  0  0  0  0
  145.2155  143.4173  155.8716 H   0  0  0  0  0  0  0  0  0  0  0  0
  147.3957  143.1273  154.7346 H   0  0  0  0  0  0  0  0  0  0  0  0
  146.6543  143.4512  152.3857 H   0  0  0  0  0  0  0  0  0  0  0  0
  145.5874  144.3049  153.4914 H   0  0  0  0  0  0  0  0  0  0  0  0
  145.0729  142.7811  152.7738 H   0  0  0  0  0  0  0  0  0  0  0  0
  146.6962  138.2442  152.6822 H   0  0  0  0  0  0  0  0  0  0  0  0
  149.3123  138.9425  153.3339 H   0  0  0  0  0  0  0  0  0  0  0  0
  150.3129  141.4305  153.6810 H   0  0  0  0  0  0  0  0  0  0  0  0
  149.2259  142.6045  154.3962 H   0  0  0  0  0  0  0  0  0  0  0  0
  150.1808  143.1033  156.2959 H   0  0  0  0  0  0  0  0  0  0  0  0
  150.1846  141.2035  158.5224 H   0  0  0  0  0  0  0  0  0  0  0  0
  151.7701  141.6676  157.9581 H   0  0  0  0  0  0  0  0  0  0  0  0
  149.6084  143.5507  159.0267 H   0  0  0  0  0  0  0  0  0  0  0  0
  151.3841  144.3422  156.9897 H   0  0  0  0  0  0  0  0  0  0  0  0
  150.7116  145.3982  158.2285 H   0  0  0  0  0  0  0  0  0  0  0  0
  153.3575  143.9269  158.3259 H   0  0  0  0  0  0  0  0  0  0  0  0
  153.0633  145.6391  158.6649 H   0  0  0  0  0  0  0  0  0  0  0  0
  153.1708  143.9495  160.7564 H   0  0  0  0  0  0  0  0  0  0  0  0
  151.8064  145.0741  160.6913 H   0  0  0  0  0  0  0  0  0  0  0  0
  145.3218  140.2757  153.2947 H   0  0  0  0  0  0  0  0  0  0  0  0
  1  2  1  0  0  0  0
  1 19  1  0  0  0  0
  1 20  1  0  0  0  0
  1 21  1  0  0  0  0
  2  3  1  0  0  0  0
  2  4  1  0  0  0  0
  2 22  1  0  0  0  0
  3 23  1  0  0  0  0
  3 24  1  0  0  0  0
  3 25  1  0  0  0  0
  4  8  1  0  0  0  0
  4  5  2  0  0  0  0
  5  6  1  0  0  0  0
  5 40  1  0  0  0  0
  6  7  2  0  0  0  0
  6 26  1  0  0  0  0
  7  8  1  0  0  0  0
  7 27  1  0  0  0  0
  8  9  1  0  0  0  0
  9 10  1  0  0  0  0
  9 28  1  0  0  0  0
  9 29  1  0  0  0  0
 10 11  2  0  0  0  0
 10 12  1  0  0  0  0
 12 13  1  0  0  0  0
 12 30  1  0  0  0  0
 13 14  1  0  0  0  0
 13 31  1  0  0  0  0
 13 32  1  0  0  0  0
 14 18  1  0  0  0  0
 14 15  1  0  0  0  0
 14 33  1  0  0  0  0
 15 16  1  0  0  0  0
 15 34  1  0  0  0  0
 15 35  1  0  0  0  0
 16 17  1  0  0  0  0
 16 36  1  0  0  0  0
 16 37  1  0  0  0  0
 17 18  1  0  0  0  0
 17 38  1  0  0  0  0
 17 39  1  0  0  0  0
M  CHG  1   5   1
M  END
> <s_m_source_file>
AV-unprocessed.smi

> <i_m_source_file_index>
3289

> <i_lp_mmshare_version>
43012

> <i_f3d_flags>
0

> <s_epik_input>
W0NIM11bQ0hdKFtDSDNdKWMxbltjSF1bY0hdbjFbQ0gyXUMoPU8pW05IXVtDSDJdW0NAQEhdMltDSDJdW0NIMl1bQ0gyXU8y

> <s_epik_cmdline>
J2VwaWtfcHl0aG9uJywgJy1waCcsICc3LjAnLCAnLXRuJywgJzgnLCAnLW1hJywgJzIwMCcsICctbWV0YWxfYmluZGluZycsICctaW1hZScsICc8aW5maWxlLm1hZT4nLCAnLW9tYWUnLCAnPG91dGZpbGUubWFlPic=

> <r_lp_tautomer_probability>
1

> <r_epik_Ionization_Penalty>
0.274547

> <r_epik_Ionization_Penalty_Charging>
0

> <r_epik_Ionization_Penalty_Neutral>
0.274547

> <r_epik_State_Penalty>
0.266843

> <r_epik_Charging_Adjusted_Penalty>
0.266843

> <i_epik_Tot_Q>
1

> <i_epik_Tot_abs_Q>
1

> <r_epik_Metal_State_Penalty>
0.55046

> <b_epik_Metal_Only>
0

> <s_lp_Force_Field>
OPLS_2005

> <r_lp_Energy>
23.0035

> <b_lp_Chiralities_Consistent>
1

> <s_lp_Variant>
AV-unprocessed.smi:3289-1

> <Gold.Version>
5.8.1

> <Gold.Id.Protein>
6NUR|6NUR_protein|mol2

> <Gold.PLP.Fitness>
47.5574

> <Gold.PLP.PLP>
-38.8760

> <Gold.PLP.part.hbond>
-2.6826

> <Gold.PLP.part.metal>
0.0000

> <Gold.PLP.part.buried>
-1.7271

> <Gold.PLP.part.nonpolar>
-34.8551

> <Gold.PLP.part.repulsive>
0.0965

> <Gold.PLP.ligand.clash>
0.0000

> <Gold.PLP.ligand.torsion>
0.6915

> <Gold.PLP.Chemscore.Hbond>
2.9840

> <Gold.PLP.Chemscore.CHOScore>
0.3397

> <Gold.PLP.Chemscore.Metal>
0.0000

> <Gold.Chemscore.Hbonds>
donor molecule, donor type, donor heavy atom, donor atom, acceptor molecule, acceptor atom, score
      L1  H     5    40       P1 10175  2.00
      L1  H    12    30       P1  8028  0.64
      L1  C     7    27       P1  7957  0.16

> <Gold.PLP.Chemscore.Internal.Correction>
0.0933

> <Gold.Rescore>
     Score         DG    S(hbond)    S(metal)    S(lipo)     H(rot)  DE(clash)    DE(int)     intcor
     16.63     -18.14       1.86        0.00      94.14       1.78       0.83       0.68       ----

> <Gold.Chemscore.Fitness>
16.6297

> <Gold.Chemscore.DG>
-18.1358

> <Gold.Chemscore.ZeroCoef>
-5.4800

> <Gold.Chemscore.Hbond>
1.8584

> <Gold.Chemscore.Metal>
0.0000

> <Gold.Chemscore.Lipo>
94.1423

> <Gold.Chemscore.Internal_Hbond>
0.0000

> <Gold.Chemscore.DEClash>
0.8257

> <Gold.Chemscore.DEInternal>
0.6804

> <Gold.Chemscore.Rot>
1.7835

> <Gold.Chemscore.Internal.Correction>
   9.000000E+99

> <Gold.Chemscore.Hbonds>
donor molecule, donor type, donor heavy atom, donor atom, acceptor molecule, acceptor atom, score
      L1  H     5    40       P1 10175  0.99
      L1  H    12    30       P1  8028  0.62

> <Gold.Chemscore.Hbond.Weighted>
-6.2070

> <Gold.Chemscore.Metal.Weighted>
-0.0000

> <Gold.Chemscore.Lipo.Weighted>
-11.0146

> <Gold.Chemscore.Internal_Hbond.Weighted>
0.0000

> <Gold.Chemscore.DEClash.Weighted>
0.8257

> <Gold.Chemscore.DEInternal.Weighted>
0.6804

> <Gold.Chemscore.Rot.Weighted>
4.5659

> <Gold.Chemscore.Internal.Correction.Weighted>
   9.000000E+99

> <Gold.Protein.RotatedTorsions>
[ 6907 6896 6895 6894 ] final  -12.47 input  -60.11 | X-H torsion
[ 7974 7965 7964 7962 ] final  140.40 input  175.53 | X-H torsion
[ 8008 7997 7996 7995 ] final  -83.73 input   59.86 | X-H torsion
[ 10167 10162 10161 10158 ] final  -57.79 input  -65.29 | X-H torsion
[ 10718 10713 10712 10709 ] final -110.38 input   66.30 | X-H torsion
[ 10763 10752 10751 10750 ] final -141.29 input  -60.55 | X-H torsion
[ 11005 11000 10999 10996 ] final  121.02 input  -57.11 | X-H torsion

> <Gold.Protein.ActiveResidues>
 VAL166  LYS551  ARG553  GLY616  TRP617  ASP618  TYR619  PRO620  LYS621  CYS622 
 ASP623  PHE694  ASN695  SER759  ASP760  ASP761  ALA762  ILE779  LEU786  VAL792 
 PHE793  MET794  SER795  GLU796  ALA797  LYS798  CYS799  TRP800  GLU811  SER814 

> <Gold.Protein.RotatedAtoms>
  151.3700  135.0920  159.9461 H   0  0  0  0  0  0  0  0  0  0  0  0  # atno 6907 bound_to 6896
  152.5138  133.9174  159.7528 H   0  0  0  0  0  0  0  0  0  0  0  0  # atno 6908 bound_to 6896
  150.9586  133.6415  159.2787 H   0  0  0  0  0  0  0  0  0  0  0  0  # atno 6909 bound_to 6896
  144.9190  139.5193  143.5672 H   0  0  0  0  0  0  0  0  0  0  0  0  # atno 7974 bound_to 7965
  154.6222  140.0615  156.9629 H   0  0  0  0  0  0  0  0  0  0  0  0  # atno 8008 bound_to 7997
  155.1799  140.3298  155.4358 H   0  0  0  0  0  0  0  0  0  0  0  0  # atno 8009 bound_to 7997
  156.2438  140.1899  156.6896 H   0  0  0  0  0  0  0  0  0  0  0  0  # atno 8010 bound_to 7997
  140.6237  143.2429  151.5417 H   0  0  0  0  0  0  0  0  0  0  0  0  # atno 10167 bound_to 10162
  156.0587  130.5812  150.8229 H   0  0  0  0  0  0  0  0  0  0  0  0  # atno 10718 bound_to 10713
  154.8550  135.3528  154.5845 H   0  0  0  0  0  0  0  0  0  0  0  0  # atno 10763 bound_to 10752
  153.6455  135.6996  153.5231 H   0  0  0  0  0  0  0  0  0  0  0  0  # atno 10764 bound_to 10752
  153.2936  135.4227  155.1148 H   0  0  0  0  0  0  0  0  0  0  0  0  # atno 10765 bound_to 10752
  139.9209  134.9637  156.7895 H   0  0  0  0  0  0  0  0  0  0  0  0  # atno 11005 bound_to 11000
  146.3195  139.8054  142.8956 LP  0  0  0  0  0  0  0  0  0  0  0  0  # atno 17320 bound_to 7965
  145.3328  141.0270  143.3436 LP  0  0  0  0  0  0  0  0  0  0  0  0  # atno 17321 bound_to 7965
  139.5461  144.2518  152.1444 LP  0  0  0  0  0  0  0  0  0  0  0  0  # atno 17342 bound_to 10162
  140.1744  144.4904  150.6562 LP  0  0  0  0  0  0  0  0  0  0  0  0  # atno 17343 bound_to 10162
  157.5579  131.0945  150.9601 LP  0  0  0  0  0  0  0  0  0  0  0  0  # atno 17370 bound_to 10713
  156.9846  130.5540  149.5298 LP  0  0  0  0  0  0  0  0  0  0  0  0  # atno 17371 bound_to 10713
  140.6478  133.9759  155.7740 LP  0  0  0  0  0  0  0  0  0  0  0  0  # atno 17394 bound_to 11000
  141.0728  134.0180  157.3501 LP  0  0  0  0  0  0  0  0  0  0  0  0  # atno 17395 bound_to 11000

$$$$
