AV-unprocessed.smi:3254|AV-procd|sdf|12456|dock4
  -GOLD-   2272018353D 1   1.00000     0.00000
 Structure written by MMmdl.
 36 37  0  0  0  0  0  0  0  0  1 V2000
  152.4153  143.3229  161.2272 C   0  0  0  0  0  0  0  0  0  0  0  0
  153.1201  142.1862  160.4742 C   0  0  0  0  0  0  0  0  0  0  0  0
  152.4651  141.8923  159.2020 N   0  0  0  0  0  0  0  0  0  0  0  0
  151.4851  142.8085  158.6433 C   0  0  0  0  0  0  0  0  0  0  0  0
  150.8748  142.0774  157.4274 C   0  0  2  0  0  0  0  0  0  0  0  0
  149.4124  141.6703  157.6666 C   0  0  0  0  0  0  0  0  0  0  0  0
  149.1243  140.4934  157.8879 O   0  0  0  0  0  0  0  0  0  0  0  0
  148.5012  142.6544  157.6253 N   0  0  0  0  0  0  0  0  0  0  0  0
  147.0694  142.4757  157.8328 C   0  0  0  0  0  0  0  0  0  0  0  0
  146.2749  142.7184  156.5389 C   0  0  0  0  0  0  0  0  0  0  0  0
  146.7787  141.9100  155.4477 N   0  0  0  0  0  0  0  0  0  0  0  0
  147.3823  142.3614  154.2815 C   0  0  0  0  0  0  0  0  0  0  0  0
  147.6926  141.2424  153.5418 C   0  0  0  0  0  0  0  0  0  0  0  0
  147.2902  140.0995  154.2290 N   0  0  0  0  0  0  0  0  0  0  0  0
  146.7582  140.5739  155.3481 C   0  0  0  0  0  0  0  0  0  0  0  0
  151.7767  140.8469  157.2043 C   0  0  0  0  0  0  0  0  0  0  0  0
  152.6668  140.8149  158.4354 C   0  0  0  0  0  0  0  0  0  0  0  0
  153.4500  139.8953  158.6675 O   0  0  0  0  0  0  0  0  0  0  0  0
  152.9018  143.5120  162.1842 H   0  0  0  0  0  0  0  0  0  0  0  0
  151.3727  143.0743  161.4277 H   0  0  0  0  0  0  0  0  0  0  0  0
  152.4357  144.2523  160.6576 H   0  0  0  0  0  0  0  0  0  0  0  0
  154.1637  142.4479  160.2934 H   0  0  0  0  0  0  0  0  0  0  0  0
  153.1322  141.2890  161.0941 H   0  0  0  0  0  0  0  0  0  0  0  0
  150.7413  143.0803  159.3946 H   0  0  0  0  0  0  0  0  0  0  0  0
  151.9870  143.7253  158.3318 H   0  0  0  0  0  0  0  0  0  0  0  0
  150.9233  142.7281  156.5526 H   0  0  0  0  0  0  0  0  0  0  0  0
  148.8224  143.5931  157.4367 H   0  0  0  0  0  0  0  0  0  0  0  0
  146.9037  141.4574  158.1858 H   0  0  0  0  0  0  0  0  0  0  0  0
  146.7230  143.1398  158.6267 H   0  0  0  0  0  0  0  0  0  0  0  0
  145.2199  142.4807  156.6807 H   0  0  0  0  0  0  0  0  0  0  0  0
  146.3273  143.7689  156.2495 H   0  0  0  0  0  0  0  0  0  0  0  0
  147.5353  143.4115  154.0798 H   0  0  0  0  0  0  0  0  0  0  0  0
  148.1698  141.1729  152.5753 H   0  0  0  0  0  0  0  0  0  0  0  0
  146.3424  139.9341  156.1126 H   0  0  0  0  0  0  0  0  0  0  0  0
  151.2270  139.9092  157.1063 H   0  0  0  0  0  0  0  0  0  0  0  0
  152.3939  140.9692  156.3139 H   0  0  0  0  0  0  0  0  0  0  0  0
  1  2  1  0  0  0  0
  1 19  1  0  0  0  0
  1 20  1  0  0  0  0
  1 21  1  0  0  0  0
  2  3  1  0  0  0  0
  2 22  1  0  0  0  0
  2 23  1  0  0  0  0
  3 17  1  0  0  0  0
  3  4  1  0  0  0  0
  4  5  1  0  0  0  0
  4 24  1  0  0  0  0
  4 25  1  0  0  0  0
  5  6  1  0  0  0  0
  5 16  1  0  0  0  0
  5 26  1  0  0  0  0
  6  7  2  0  0  0  0
  6  8  1  0  0  0  0
  8  9  1  0  0  0  0
  8 27  1  0  0  0  0
  9 10  1  0  0  0  0
  9 28  1  0  0  0  0
  9 29  1  0  0  0  0
 10 11  1  0  0  0  0
 10 30  1  0  0  0  0
 10 31  1  0  0  0  0
 11 15  1  0  0  0  0
 11 12  1  0  0  0  0
 12 13  2  0  0  0  0
 12 32  1  0  0  0  0
 13 14  1  0  0  0  0
 13 33  1  0  0  0  0
 14 15  2  0  0  0  0
 15 34  1  0  0  0  0
 16 17  1  0  0  0  0
 16 35  1  0  0  0  0
 16 36  1  0  0  0  0
 17 18  2  0  0  0  0
M  END
> <s_m_source_file>
AV-unprocessed.smi

> <i_m_source_file_index>
3254

> <i_lp_mmshare_version>
43012

> <i_f3d_flags>
0

> <s_epik_input>
W0NIM11bQ0gyXU4xW0NIMl1bQ0BIXShbQ0gyXUMxPU8pQyg9TylbTkhdW0NIMl1bQ0gyXW4yW2NIXVtjSF1uW2NIXTI=

> <s_epik_cmdline>
J2VwaWtfcHl0aG9uJywgJy1waCcsICc3LjAnLCAnLXRuJywgJzgnLCAnLW1hJywgJzIwMCcsICctbWV0YWxfYmluZGluZycsICctaW1hZScsICc8aW5maWxlLm1hZT4nLCAnLW9tYWUnLCAnPG91dGZpbGUubWFlPic=

> <r_lp_tautomer_probability>
1

> <r_epik_Ionization_Penalty>
0.587394

> <r_epik_Ionization_Penalty_Charging>
0.587394

> <r_epik_Ionization_Penalty_Neutral>
3.11583e-08

> <r_epik_State_Penalty>
0.600671

> <r_epik_Charging_Adjusted_Penalty>
1.18807

> <i_epik_Tot_Q>
0

> <i_epik_Tot_abs_Q>
0

> <r_epik_Metal_State_Penalty>
0.297665

> <b_epik_Metal_Only>
0

> <s_lp_Force_Field>
OPLS_2005

> <r_lp_Energy>
13.3235

> <b_lp_Chiralities_Consistent>
1

> <s_lp_Variant>
AV-unprocessed.smi:3254-4

> <Gold.Version>
5.8.1

> <Gold.Id.Protein>
6NUR|6NUR_protein|mol2

> <Gold.PLP.Fitness>
40.9084

> <Gold.PLP.PLP>
-31.8382

> <Gold.PLP.part.hbond>
-2.1304

> <Gold.PLP.part.metal>
0.0000

> <Gold.PLP.part.buried>
-4.2924

> <Gold.PLP.part.nonpolar>
-25.7290

> <Gold.PLP.part.repulsive>
0.1772

> <Gold.PLP.ligand.clash>
0.0000

> <Gold.PLP.ligand.torsion>
0.5373

> <Gold.PLP.Chemscore.Hbond>
1.5897

> <Gold.PLP.Chemscore.CHOScore>
1.7870

> <Gold.PLP.Chemscore.Metal>
0.0000

> <Gold.Chemscore.Hbonds>
donor molecule, donor type, donor heavy atom, donor atom, acceptor molecule, acceptor atom, score
      L1  H     8    27       P1  8028  0.48
      P1  H  7997  8009       L1    18  1.00
      L1  C    12    32       P1  8028  0.80
      L1  C    13    33       P1  7957  1.00

> <Gold.PLP.Chemscore.Internal.Correction>
0.0149

> <Gold.Rescore>
     Score         DG    S(hbond)    S(metal)    S(lipo)     H(rot)  DE(clash)    DE(int)     intcor
     12.08     -12.68       1.50        0.00      66.79       2.20       0.08       0.52       ----

> <Gold.Chemscore.Fitness>
12.0764

> <Gold.Chemscore.DG>
-12.6803

> <Gold.Chemscore.ZeroCoef>
-5.4800

> <Gold.Chemscore.Hbond>
1.4986

> <Gold.Chemscore.Metal>
0.0000

> <Gold.Chemscore.Lipo>
66.7904

> <Gold.Chemscore.Internal_Hbond>
0.0000

> <Gold.Chemscore.DEClash>
0.0809

> <Gold.Chemscore.DEInternal>
0.5230

> <Gold.Chemscore.Rot>
2.1952

> <Gold.Chemscore.Internal.Correction>
   9.000000E+99

> <Gold.Chemscore.Hbonds>
donor molecule, donor type, donor heavy atom, donor atom, acceptor molecule, acceptor atom, score
      L1  H     8    27       P1  8028  0.08
      P1  H  7997  8009       L1    18  0.42

> <Gold.Chemscore.Hbond.Weighted>
-5.0055

> <Gold.Chemscore.Metal.Weighted>
-0.0000

> <Gold.Chemscore.Lipo.Weighted>
-7.8145

> <Gold.Chemscore.Internal_Hbond.Weighted>
0.0000

> <Gold.Chemscore.DEClash.Weighted>
0.0809

> <Gold.Chemscore.DEInternal.Weighted>
0.5230

> <Gold.Chemscore.Rot.Weighted>
5.6197

> <Gold.Chemscore.Internal.Correction.Weighted>
   9.000000E+99

> <Gold.Protein.RotatedTorsions>
[ 6907 6896 6895 6894 ] final  155.52 input  -60.11 | X-H torsion
[ 7974 7965 7964 7962 ] final  -23.98 input  175.53 | X-H torsion
[ 8008 7997 7996 7995 ] final  139.15 input   59.86 | X-H torsion
[ 10167 10162 10161 10158 ] final  -16.66 input  -65.29 | X-H torsion
[ 10718 10713 10712 10709 ] final   70.86 input   66.30 | X-H torsion
[ 10763 10752 10751 10750 ] final -133.42 input  -60.55 | X-H torsion
[ 11005 11000 10999 10996 ] final  159.83 input  -57.11 | X-H torsion

> <Gold.Protein.ActiveResidues>
 VAL166  LYS551  ARG553  GLY616  TRP617  ASP618  TYR619  PRO620  LYS621  CYS622 
 ASP623  PHE694  ASN695  SER759  ASP760  ASP761  ALA762  ILE779  LEU786  VAL792 
 PHE793  MET794  SER795  GLU796  ALA797  LYS798  CYS799  TRP800  GLU811  SER814 

> <Gold.Protein.RotatedAtoms>
  152.0429  133.3985  159.4344 H   0  0  0  0  0  0  0  0  0  0  0  0  # atno 6907 bound_to 6896
  150.6874  134.3394  159.4870 H   0  0  0  0  0  0  0  0  0  0  0  0  # atno 6908 bound_to 6896
  152.1195  134.9216  160.0614 H   0  0  0  0  0  0  0  0  0  0  0  0  # atno 6909 bound_to 6896
  146.1583  140.4689  142.8582 H   0  0  0  0  0  0  0  0  0  0  0  0  # atno 7974 bound_to 7965
  156.2992  140.2375  156.4190 H   0  0  0  0  0  0  0  0  0  0  0  0  # atno 8008 bound_to 7997
  154.8372  140.0430  157.1537 H   0  0  0  0  0  0  0  0  0  0  0  0  # atno 8009 bound_to 7997
  154.9142  140.2994  155.5254 H   0  0  0  0  0  0  0  0  0  0  0  0  # atno 8010 bound_to 7997
  140.7237  143.5094  150.9769 H   0  0  0  0  0  0  0  0  0  0  0  0  # atno 10167 bound_to 10162
  157.6422  130.9498  150.0708 H   0  0  0  0  0  0  0  0  0  0  0  0  # atno 10718 bound_to 10713
  154.8732  135.3766  154.4570 H   0  0  0  0  0  0  0  0  0  0  0  0  # atno 10763 bound_to 10752
  153.5242  135.7028  153.5721 H   0  0  0  0  0  0  0  0  0  0  0  0  # atno 10764 bound_to 10752
  153.3955  135.3961  155.1917 H   0  0  0  0  0  0  0  0  0  0  0  0  # atno 10765 bound_to 10752
  140.2000  134.8345  157.3007 H   0  0  0  0  0  0  0  0  0  0  0  0  # atno 11005 bound_to 11000
  144.7993  140.6182  143.6489 LP  0  0  0  0  0  0  0  0  0  0  0  0  # atno 17320 bound_to 7965
  145.4653  139.1508  143.3844 LP  0  0  0  0  0  0  0  0  0  0  0  0  # atno 17321 bound_to 7965
  139.8806  143.7076  152.3157 LP  0  0  0  0  0  0  0  0  0  0  0  0  # atno 17342 bound_to 10162
  139.7357  144.7572  151.0731 LP  0  0  0  0  0  0  0  0  0  0  0  0  # atno 17343 bound_to 10162
  156.1713  130.3646  149.9161 LP  0  0  0  0  0  0  0  0  0  0  0  0  # atno 17370 bound_to 10713
  156.7136  130.8979  151.3612 LP  0  0  0  0  0  0  0  0  0  0  0  0  # atno 17371 bound_to 10713
  140.2065  134.4191  155.7635 LP  0  0  0  0  0  0  0  0  0  0  0  0  # atno 17394 bound_to 11000
  141.2227  133.7097  156.8268 LP  0  0  0  0  0  0  0  0  0  0  0  0  # atno 17395 bound_to 11000

$$$$
