AV-unprocessed.smi:669|AV-procd|sdf|3263|dock3
  -GOLD-   22720 0213D 1   1.00000     0.00000
 Structure written by MMmdl.
 37 38  0  0  0  0  0  0  0  0  1 V2000
  153.3002  142.8768  163.3324 C   0  0  0  0  0  0  0  0  0  0  0  0
  153.6815  142.0001  162.1769 C   0  0  0  0  0  0  0  0  0  0  0  0
  154.5655  140.8589  162.3100 C   0  0  0  0  0  0  0  0  0  0  0  0
  154.8383  140.1048  161.2240 C   0  0  0  0  0  0  0  0  0  0  0  0
  154.2727  140.4123  159.9120 C   0  0  0  0  0  0  0  0  0  0  0  0
  154.4714  139.7165  158.9169 O   0  0  0  0  0  0  0  0  0  0  0  0
  153.4978  141.5376  159.8966 N   0  0  0  0  0  0  0  0  0  0  0  0
  152.8669  142.0161  158.6552 C   0  0  0  0  0  0  0  0  0  0  0  0
  151.3181  141.8412  158.5971 C   0  0  1  0  0  0  0  0  0  0  0  0
  150.7789  142.4928  159.7311 O   0  0  0  0  0  0  0  0  0  0  0  0
  150.7160  142.5904  157.3839 C   0  0  0  0  0  0  0  0  0  0  0  0
  150.9595  141.8670  156.0465 C   0  0  0  0  0  0  0  0  0  0  0  0
  150.4521  140.4139  156.0857 C   0  0  1  0  0  0  0  0  0  0  0  0
  150.7095  139.6932  154.7551 C   0  0  0  0  0  0  0  0  0  0  0  0
  151.0824  139.6577  157.2695 C   0  0  0  0  0  0  0  0  0  0  0  0
  150.8128  140.3769  158.6032 C   0  0  0  0  0  0  0  0  0  0  0  0
  153.1893  142.2913  161.0182 N   0  0  0  0  0  0  0  0  0  0  0  0
  153.6871  142.4818  164.2719 H   0  0  0  0  0  0  0  0  0  0  0  0
  152.2161  142.9512  163.4235 H   0  0  0  0  0  0  0  0  0  0  0  0
  153.6986  143.8833  163.2022 H   0  0  0  0  0  0  0  0  0  0  0  0
  154.9926  140.6181  163.2723 H   0  0  0  0  0  0  0  0  0  0  0  0
  155.4938  139.2523  161.3247 H   0  0  0  0  0  0  0  0  0  0  0  0
  153.1370  143.0570  158.4665 H   0  0  0  0  0  0  0  0  0  0  0  0
  153.3212  141.4709  157.8272 H   0  0  0  0  0  0  0  0  0  0  0  0
  151.4467  142.5392  160.3977 H   0  0  0  0  0  0  0  0  0  0  0  0
  149.6377  142.6942  157.5172 H   0  0  0  0  0  0  0  0  0  0  0  0
  151.1104  143.6062  157.3317 H   0  0  0  0  0  0  0  0  0  0  0  0
  150.4553  142.4113  155.2470 H   0  0  0  0  0  0  0  0  0  0  0  0
  152.0202  141.8831  155.7969 H   0  0  0  0  0  0  0  0  0  0  0  0
  149.3724  140.4393  156.2406 H   0  0  0  0  0  0  0  0  0  0  0  0
  151.7759  139.6342  154.5354 H   0  0  0  0  0  0  0  0  0  0  0  0
  150.2269  140.2144  153.9277 H   0  0  0  0  0  0  0  0  0  0  0  0
  150.3163  138.6764  154.7766 H   0  0  0  0  0  0  0  0  0  0  0  0
  150.6816  138.6446  157.3179 H   0  0  0  0  0  0  0  0  0  0  0  0
  152.1552  139.5533  157.1097 H   0  0  0  0  0  0  0  0  0  0  0  0
  151.2425  139.8122  159.4308 H   0  0  0  0  0  0  0  0  0  0  0  0
  149.7357  140.3694  158.7780 H   0  0  0  0  0  0  0  0  0  0  0  0
  1  2  1  0  0  0  0
  1 18  1  0  0  0  0
  1 19  1  0  0  0  0
  1 20  1  0  0  0  0
  2 17  2  0  0  0  0
  2  3  1  0  0  0  0
  3  4  2  0  0  0  0
  3 21  1  0  0  0  0
  4  5  1  0  0  0  0
  4 22  1  0  0  0  0
  5  6  2  0  0  0  0
  5  7  1  0  0  0  0
  7  8  1  0  0  0  0
  7 17  1  0  0  0  0
  8  9  1  0  0  0  0
  8 23  1  0  0  0  0
  8 24  1  0  0  0  0
  9 16  1  0  0  0  0
  9 10  1  0  0  0  0
  9 11  1  0  0  0  0
 10 25  1  0  0  0  0
 11 12  1  0  0  0  0
 11 26  1  0  0  0  0
 11 27  1  0  0  0  0
 12 13  1  0  0  0  0
 12 28  1  0  0  0  0
 12 29  1  0  0  0  0
 13 14  1  0  0  0  0
 13 15  1  0  0  0  0
 13 30  1  0  0  0  0
 14 31  1  0  0  0  0
 14 32  1  0  0  0  0
 14 33  1  0  0  0  0
 15 16  1  0  0  0  0
 15 34  1  0  0  0  0
 15 35  1  0  0  0  0
 16 36  1  0  0  0  0
 16 37  1  0  0  0  0
M  END
> <s_m_source_file>
AV-unprocessed.smi

> <i_m_source_file_index>
669

> <i_lp_mmshare_version>
43012

> <i_f3d_flags>
0

> <s_epik_input>
W0NIM11jMVtjSF1bY0hdYyg9TyluKG4xKVtDSDJdW0NAQF0yKFtPSF0pW0NIMl1bQ0gyXVtDQEBIXShbQ0gzXSlbQ0gyXVtDSDJdMg==

> <s_epik_cmdline>
J2VwaWtfcHl0aG9uJywgJy1waCcsICc3LjAnLCAnLXRuJywgJzgnLCAnLW1hJywgJzIwMCcsICctbWV0YWxfYmluZGluZycsICctaW1hZScsICc8aW5maWxlLm1hZT4nLCAnLW9tYWUnLCAnPG91dGZpbGUubWFlPic=

> <r_lp_tautomer_probability>
1

> <r_epik_Ionization_Penalty>
1.6993e-05

> <r_epik_Ionization_Penalty_Charging>
1.61671e-05

> <r_epik_Ionization_Penalty_Neutral>
8.25878e-07

> <r_epik_State_Penalty>
-0

> <r_epik_Charging_Adjusted_Penalty>
1.61671e-05

> <i_epik_Tot_Q>
0

> <i_epik_Tot_abs_Q>
0

> <r_epik_Metal_State_Penalty>
-0

> <b_epik_Metal_Only>
0

> <s_lp_Force_Field>
OPLS_2005

> <r_lp_Energy>
31.4403

> <b_lp_Chiralities_Consistent>
1

> <s_lp_Variant>
AV-unprocessed.smi:669-1

> <Gold.Version>
5.8.1

> <Gold.Id.Protein>
6NUR|6NUR_protein|mol2

> <Gold.PLP.Fitness>
37.8218

> <Gold.PLP.PLP>
-35.0564

> <Gold.PLP.part.hbond>
-2.0000

> <Gold.PLP.part.metal>
0.0000

> <Gold.PLP.part.buried>
-1.7487

> <Gold.PLP.part.nonpolar>
-28.5735

> <Gold.PLP.part.repulsive>
0.0105

> <Gold.PLP.ligand.clash>
0.0000

> <Gold.PLP.ligand.torsion>
0.1248

> <Gold.PLP.Chemscore.Hbond>
1.0000

> <Gold.PLP.Chemscore.CHOScore>
0.0000

> <Gold.PLP.Chemscore.Metal>
0.0000

> <Gold.Chemscore.Hbonds>
donor molecule, donor type, donor heavy atom, donor atom, acceptor molecule, acceptor atom, score
      P1  H  7997  8009       L1     6  1.00

> <Gold.PLP.Chemscore.Internal.Correction>
0.0150

> <Gold.Rescore>
     Score         DG    S(hbond)    S(metal)    S(lipo)     H(rot)  DE(clash)    DE(int)     intcor
     13.98     -15.61       1.00        0.00      93.47       1.62       0.01       1.62       ----

> <Gold.Chemscore.Fitness>
13.9793

> <Gold.Chemscore.DG>
-15.6134

> <Gold.Chemscore.ZeroCoef>
-5.4800

> <Gold.Chemscore.Hbond>
0.9988

> <Gold.Chemscore.Metal>
0.0000

> <Gold.Chemscore.Lipo>
93.4748

> <Gold.Chemscore.Internal_Hbond>
0.0000

> <Gold.Chemscore.DEClash>
0.0119

> <Gold.Chemscore.DEInternal>
1.6222

> <Gold.Chemscore.Rot>
1.6168

> <Gold.Chemscore.Internal.Correction>
   9.000000E+99

> <Gold.Chemscore.Hbonds>
donor molecule, donor type, donor heavy atom, donor atom, acceptor molecule, acceptor atom, score
      P1  H  7997  8009       L1     6  1.00

> <Gold.Chemscore.Hbond.Weighted>
-3.3360

> <Gold.Chemscore.Metal.Weighted>
-0.0000

> <Gold.Chemscore.Lipo.Weighted>
-10.9366

> <Gold.Chemscore.Internal_Hbond.Weighted>
0.0000

> <Gold.Chemscore.DEClash.Weighted>
0.0119

> <Gold.Chemscore.DEInternal.Weighted>
1.6222

> <Gold.Chemscore.Rot.Weighted>
4.1391

> <Gold.Chemscore.Internal.Correction.Weighted>
   9.000000E+99

> <Gold.Protein.RotatedTorsions>
[ 6907 6896 6895 6894 ] final   65.04 input  -60.11 | X-H torsion
[ 7974 7965 7964 7962 ] final -141.06 input  175.53 | X-H torsion
[ 8008 7997 7996 7995 ] final  122.63 input   59.86 | X-H torsion
[ 10167 10162 10161 10158 ] final -125.26 input  -65.29 | X-H torsion
[ 10718 10713 10712 10709 ] final  123.72 input   66.30 | X-H torsion
[ 10763 10752 10751 10750 ] final  -49.45 input  -60.55 | X-H torsion
[ 11005 11000 10999 10996 ] final -115.38 input  -57.11 | X-H torsion

> <Gold.Protein.ActiveResidues>
 VAL166  LYS551  ARG553  GLY616  TRP617  ASP618  TYR619  PRO620  LYS621  CYS622 
 ASP623  PHE694  ASN695  SER759  ASP760  ASP761  ALA762  ILE779  LEU786  VAL792 
 PHE793  MET794  SER795  GLU796  ALA797  LYS798  CYS799  TRP800  GLU811  SER814 

> <Gold.Protein.RotatedAtoms>
  152.4377  134.5653  159.9905 H   0  0  0  0  0  0  0  0  0  0  0  0  # atno 6907 bound_to 6896
  151.5759  133.3378  159.3007 H   0  0  0  0  0  0  0  0  0  0  0  0  # atno 6908 bound_to 6896
  150.8278  134.7551  159.6892 H   0  0  0  0  0  0  0  0  0  0  0  0  # atno 6909 bound_to 6896
  144.8548  140.6125  143.5366 H   0  0  0  0  0  0  0  0  0  0  0  0  # atno 7974 bound_to 7965
  156.2735  140.2781  156.1498 H   0  0  0  0  0  0  0  0  0  0  0  0  # atno 8008 bound_to 7997
  155.0866  140.0388  157.2673 H   0  0  0  0  0  0  0  0  0  0  0  0  # atno 8009 bound_to 7997
  154.6922  140.2631  155.6807 H   0  0  0  0  0  0  0  0  0  0  0  0  # atno 8010 bound_to 7997
  139.9840  143.5712  152.2367 H   0  0  0  0  0  0  0  0  0  0  0  0  # atno 10167 bound_to 10162
  157.5642  131.1087  150.8484 H   0  0  0  0  0  0  0  0  0  0  0  0  # atno 10718 bound_to 10713
  154.0943  135.6572  153.4857 H   0  0  0  0  0  0  0  0  0  0  0  0  # atno 10763 bound_to 10752
  153.0310  135.5210  154.7349 H   0  0  0  0  0  0  0  0  0  0  0  0  # atno 10764 bound_to 10752
  154.6482  135.2997  154.9988 H   0  0  0  0  0  0  0  0  0  0  0  0  # atno 10765 bound_to 10752
  141.0492  133.9715  157.2866 H   0  0  0  0  0  0  0  0  0  0  0  0  # atno 11005 bound_to 11000
  145.4427  139.1533  143.3961 LP  0  0  0  0  0  0  0  0  0  0  0  0  # atno 17320 bound_to 7965
  146.2814  140.4549  142.8775 LP  0  0  0  0  0  0  0  0  0  0  0  0  # atno 17321 bound_to 7965
  139.6389  144.7653  151.2381 LP  0  0  0  0  0  0  0  0  0  0  0  0  # atno 17342 bound_to 10162
  140.7479  143.6351  150.8386 LP  0  0  0  0  0  0  0  0  0  0  0  0  # atno 17343 bound_to 10162
  156.8973  130.5234  149.5284 LP  0  0  0  0  0  0  0  0  0  0  0  0  # atno 17370 bound_to 10713
  156.0692  130.5728  150.9349 LP  0  0  0  0  0  0  0  0  0  0  0  0  # atno 17371 bound_to 10713
  139.9336  135.0198  156.8482 LP  0  0  0  0  0  0  0  0  0  0  0  0  # atno 17394 bound_to 11000
  140.6089  134.0101  155.7568 LP  0  0  0  0  0  0  0  0  0  0  0  0  # atno 17395 bound_to 11000

$$$$
