#       Name:                AV-unprocessed.smi:19
#       Creating user name   scv26
#       Creation time:       Thu Mar 26 15:27:13 2020


#       File generated by GOLD software.
#

@<TRIPOS>MOLECULE
AV-unprocessed.smi:19
    69    72     1
SMALL
NO_CHARGES


@<TRIPOS>ATOM
      1 ****        -6.5560  -1.9683  -3.4661 C.3            1 S1                 0.0000
      2 ****        -5.9140  -1.0743  -2.5741 O.3            1 S1                 0.0000
      3 ****        -4.5646  -0.8259  -2.9323 C.3            1 S1                 0.0000
      4 ****        -3.9515   0.1611  -1.9309 C.3            1 S1                 0.0000
      5 ****        -2.4205   0.2468  -2.0780 C.3            1 S1                 0.0000
      6 ****        -1.8840   1.2729  -1.1898 N.3            1 S1                 0.0000
      7 ****        -0.5360   1.2435  -1.0302 C.ar           1 S1                 0.0000
      8 ****         0.2175   2.3079  -1.4173 N.ar           1 S1                 0.0000
      9 ****         1.5459   2.2824  -1.2774 C.ar           1 S1                 0.0000
     10 ****         2.3131   1.3128  -0.7770 N.ar           1 S1                 0.0000
     11 ****         1.5650   0.2471  -0.3724 C.ar           1 S1                 0.0000
     12 ****         0.1487   0.1298  -0.4655 C.ar           1 S1                 0.0000
     13 ****        -0.2571  -1.0964   0.0478 N.2            1 S1                 0.0000
     14 ****         0.8548  -1.6750   0.4093 C.2            1 S1                 0.0000
     15 ****         1.9976  -0.9329   0.2100 N.pl3          1 S1                 0.0000
     16 ****         3.3629  -1.3361   0.5218 C.3            1 S1                 0.0000
     17 ****         3.8146  -1.0560   1.9866 C.3            1 S1                 0.0000
     18 ****         3.7706   0.4686   2.2912 C.3            1 S1                 0.0000
     19 ****         4.6381   1.2068   1.4547 O.3            1 S1                 0.0000
     20 ****         2.8913  -1.8082   2.9794 C.3            1 S1                 0.0000
     21 ****         3.4525  -1.8562   4.4132 C.3            1 S1                 0.0000
     22 ****         4.7564  -2.4216   4.4126 O.3            1 S1                 0.0000
     23 ****         5.6847  -1.6632   3.6491 C.3            1 S1                 0.0000
     24 ****         5.2418  -1.6296   2.1760 C.3            1 S1                 0.0000
     25 ****        -2.5262   2.5728  -1.3665 C.3            1 S1                 0.0000
     26 ****        -4.0544   2.4306  -1.2480 C.3            1 S1                 0.0000
     27 ****        -4.7802   3.7469  -1.5451 C.3            1 S1                 0.0000
     28 ****        -4.5018   1.4523  -2.1823 O.3            1 S1                 0.0000
     29 ****        -7.5854  -2.1289  -3.1459 H              1 S1                 0.0000
     30 ****        -6.0538  -2.9365  -3.4846 H              1 S1                 0.0000
     31 ****        -6.5776  -1.5657  -4.4796 H              1 S1                 0.0000
     32 ****        -4.0135  -1.7675  -2.9071 H              1 S1                 0.0000
     33 ****        -4.4958  -0.4325  -3.9478 H              1 S1                 0.0000
     34 ****        -4.2009  -0.1587  -0.9175 H              1 S1                 0.0000
     35 ****        -1.9820  -0.7284  -1.8701 H              1 S1                 0.0000
     36 ****        -2.1563   0.4987  -3.1061 H              1 S1                 0.0000
     37 ****         2.0689   3.1647  -1.6157 H              1 S1                 0.0000
     38 ****         0.8703  -2.6644   0.8427 H              1 S1                 0.0000
     39 ****         3.4439  -2.4020   0.3043 H              1 S1                 0.0000
     40 ****         4.0334  -0.8444  -0.1841 H              1 S1                 0.0000
     41 ****         2.7598   0.8591   2.1727 H              1 S1                 0.0000
     42 ****         4.0540   0.6826   3.3201 H              1 S1                 0.0000
     43 ****         4.5466   2.1243   1.6614 H              1 S1                 0.0000
     44 ****         1.8991  -1.3571   2.9996 H              1 S1                 0.0000
     45 ****         2.7525  -2.8347   2.6376 H              1 S1                 0.0000
     46 ****         3.4713  -0.8675   4.8720 H              1 S1                 0.0000
     47 ****         2.8083  -2.4737   5.0393 H              1 S1                 0.0000
     48 ****         5.7872  -0.6590   4.0618 H              1 S1                 0.0000
     49 ****         6.6647  -2.1337   3.7292 H              1 S1                 0.0000
     50 ****         5.2747  -2.6511   1.7949 H              1 S1                 0.0000
     51 ****         5.9672  -1.0714   1.5838 H              1 S1                 0.0000
     52 ****        -2.1628   3.2745  -0.6144 H              1 S1                 0.0000
     53 ****        -2.2631   2.9767  -2.3453 H              1 S1                 0.0000
     54 ****        -4.3169   2.1083  -0.2387 H              1 S1                 0.0000
     55 ****        -4.4780   4.5277  -0.8469 H              1 S1                 0.0000
     56 ****        -5.8600   3.6237  -1.4599 H              1 S1                 0.0000
     57 ****        -4.5634   4.0979  -2.5544 H              1 S1                 0.0000
     58 ****        -5.9347  -1.4681  -1.6551 LP             1 S1                 0.0000
     59 ****        -6.4114  -0.2067  -2.5762 LP             1 S1                 0.0000
     60 ****        -2.1649   1.0228  -0.2632 LP             1 S1                 0.0000
     61 ****        -0.2256   3.1143  -1.8089 LP             1 S1                 0.0000
     62 ****         3.3095   1.3613  -0.7075 LP             1 S1                 0.0000
     63 ****        -1.1882  -1.4534   0.1228 LP             1 S1                 0.0000
     64 ****         4.3961   1.0513   0.4970 LP             1 S1                 0.0000
     65 ****         5.5829   0.9187   1.6108 LP             1 S1                 0.0000
     66 ****         4.7047  -3.3436   4.0289 LP             1 S1                 0.0000
     67 ****         5.0837  -2.4711   5.3562 LP             1 S1                 0.0000
     68 ****        -5.4986   1.3914  -2.1295 LP             1 S1                 0.0000
     69 ****        -4.2338   1.7412  -3.1014 LP             1 S1                 0.0000
@<TRIPOS>BOND
    1    1    2 1     
    2    1   29 1     
    3    1   30 1     
    4    1   31 1     
    5    2    3 1     
    6    3    4 1     
    7    3   32 1     
    8    3   33 1     
    9    4   28 1     
   10    4    5 1     
   11    4   34 1     
   12    5    6 1     
   13    5   35 1     
   14    5   36 1     
   15    6    7 1     
   16    6   25 1     
   17    7   12 ar    
   18    7    8 ar    
   19    8    9 ar    
   20    9   10 ar    
   21    9   37 1     
   22   10   11 ar    
   23   11   15 1     
   24   11   12 ar    
   25   12   13 1     
   26   13   14 2     
   27   14   15 1     
   28   14   38 1     
   29   15   16 1     
   30   16   17 1     
   31   16   39 1     
   32   16   40 1     
   33   17   24 1     
   34   17   18 1     
   35   17   20 1     
   36   18   19 1     
   37   18   41 1     
   38   18   42 1     
   39   19   43 1     
   40   20   21 1     
   41   20   44 1     
   42   20   45 1     
   43   21   22 1     
   44   21   46 1     
   45   21   47 1     
   46   22   23 1     
   47   23   24 1     
   48   23   48 1     
   49   23   49 1     
   50   24   50 1     
   51   24   51 1     
   52   25   26 1     
   53   25   52 1     
   54   25   53 1     
   55   26   27 1     
   56   26   28 1     
   57   26   54 1     
   58   27   55 1     
   59   27   56 1     
   60   27   57 1     
   61    2   58 1     
   62    2   59 1     
   63    6   60 1     
   64    8   61 1     
   65   10   62 1     
   66   13   63 1     
   67   19   64 1     
   68   19   65 1     
   69   22   66 1     
   70   22   67 1     
   71   28   68 1     
   72   28   69 1     
@<TRIPOS>SUBSTRUCTURE
      1 S1             1
@<TRIPOS>SET
LONE_PAIRS      STATIC     ATOMS    <user>   **** ""
12 58 59 60 61 62 63 64 65 66 67 68 69
DONOR_HYDROGENS      STATIC     ATOMS    <user>   **** ""
1 43
ATOM$BLUE        STATIC     ATOMS    COLORGROUP SYSTEM
12 58 59 60 61 62 63 64 65 66 67 68 69
ATOM$RED        STATIC     ATOMS    COLORGROUP SYSTEM
1 43
