AV-unprocessed.smi:1795|AV-procd|sdf|7241|dock2
  -GOLD-   22720 8493D 1   1.00000     0.00000
 Structure written by MMmdl.
 47 48  0  0  0  0  0  0  0  0  1 V2000
  143.5330  144.5894  154.9956 C   0  0  0  0  0  0  0  0  0  0  0  0
  144.3593  143.4593  155.6184 C   0  0  1  0  0  0  0  0  0  0  0  0
  145.6393  143.1698  154.8141 C   0  0  0  0  0  0  0  0  0  0  0  0
  146.4872  142.1478  155.4355 N   0  0  0  0  0  0  0  0  0  0  0  0
  147.7088  141.8677  154.6442 C   0  0  2  0  0  0  0  0  0  0  0  0
  147.4460  140.9150  153.4495 C   0  0  0  0  0  0  0  0  0  0  0  0
  148.8787  141.2930  155.4972 C   0  0  0  0  0  0  0  0  0  0  0  0
  149.8382  142.3068  155.9264 N   0  0  0  0  0  0  0  0  0  0  0  0
  150.7303  142.1534  156.9163 C   0  0  0  0  0  0  0  0  0  0  0  0
  150.8629  141.1047  157.5485 O   0  0  0  0  0  0  0  0  0  0  0  0
  151.6132  143.3701  157.2256 C   0  0  0  0  0  0  0  0  0  0  0  0
  151.8238  143.5721  158.6686 N   0  0  0  0  0  0  0  0  0  0  0  0
  151.3350  144.7690  159.2294 C   0  0  0  0  0  0  0  0  0  0  0  0
  151.4774  145.0519  160.5339 C   0  0  0  0  0  0  0  0  0  0  0  0
  152.1539  144.0898  161.3711 C   0  0  0  0  0  0  0  0  0  0  0  0
  152.6278  142.9430  160.8448 C   0  0  0  0  0  0  0  0  0  0  0  0
  152.4753  142.6301  159.4191 C   0  0  0  0  0  0  0  0  0  0  0  0
  152.9068  141.5858  158.9290 O   0  0  0  0  0  0  0  0  0  0  0  0
  146.7876  142.5844  156.8042 C   0  0  0  0  0  0  0  0  0  0  0  0
  145.5345  142.9188  157.6382 C   0  0  2  0  0  0  0  0  0  0  0  0
  144.7494  141.6739  158.0857 C   0  0  0  0  0  0  0  0  0  0  0  0
  144.7067  143.8476  156.9430 O   0  0  0  0  0  0  0  0  0  0  0  0
  143.2266  144.3379  153.9800 H   0  0  0  0  0  0  0  0  0  0  0  0
  144.1029  145.5181  154.9536 H   0  0  0  0  0  0  0  0  0  0  0  0
  142.6307  144.7781  155.5775 H   0  0  0  0  0  0  0  0  0  0  0  0
  143.7401  142.5627  155.6519 H   0  0  0  0  0  0  0  0  0  0  0  0
  145.3222  142.8532  153.8224 H   0  0  0  0  0  0  0  0  0  0  0  0
  146.2086  144.0919  154.6855 H   0  0  0  0  0  0  0  0  0  0  0  0
  148.0535  142.8132  154.2226 H   0  0  0  0  0  0  0  0  0  0  0  0
  148.3555  140.6721  152.9010 H   0  0  0  0  0  0  0  0  0  0  0  0
  146.7824  141.3549  152.7067 H   0  0  0  0  0  0  0  0  0  0  0  0
  147.0046  139.9757  153.7840 H   0  0  0  0  0  0  0  0  0  0  0  0
  148.5243  140.8003  156.4015 H   0  0  0  0  0  0  0  0  0  0  0  0
  149.4177  140.5373  154.9252 H   0  0  0  0  0  0  0  0  0  0  0  0
  149.8016  143.1979  155.4529 H   0  0  0  0  0  0  0  0  0  0  0  0
  152.5651  143.2372  156.7101 H   0  0  0  0  0  0  0  0  0  0  0  0
  151.1725  144.2675  156.7866 H   0  0  0  0  0  0  0  0  0  0  0  0
  150.8482  145.4383  158.5353 H   0  0  0  0  0  0  0  0  0  0  0  0
  151.0994  145.9762  160.9455 H   0  0  0  0  0  0  0  0  0  0  0  0
  152.2824  144.2916  162.4244 H   0  0  0  0  0  0  0  0  0  0  0  0
  153.1327  142.2361  161.4866 H   0  0  0  0  0  0  0  0  0  0  0  0
  147.3355  141.8178  157.3476 H   0  0  0  0  0  0  0  0  0  0  0  0
  147.4332  143.4634  156.7685 H   0  0  0  0  0  0  0  0  0  0  0  0
  145.8642  143.4262  158.5451 H   0  0  0  0  0  0  0  0  0  0  0  0
  145.3651  141.0346  158.7183 H   0  0  0  0  0  0  0  0  0  0  0  0
  144.4182  141.0714  157.2403 H   0  0  0  0  0  0  0  0  0  0  0  0
  143.8678  141.9569  158.6611 H   0  0  0  0  0  0  0  0  0  0  0  0
  1  2  1  0  0  0  0
  1 23  1  0  0  0  0
  1 24  1  0  0  0  0
  1 25  1  0  0  0  0
  2 22  1  0  0  0  0
  2  3  1  0  0  0  0
  2 26  1  0  0  0  0
  3  4  1  0  0  0  0
  3 27  1  0  0  0  0
  3 28  1  0  0  0  0
  4  5  1  0  0  0  0
  4 19  1  0  0  0  0
  5  6  1  0  0  0  0
  5  7  1  0  0  0  0
  5 29  1  0  0  0  0
  6 30  1  0  0  0  0
  6 31  1  0  0  0  0
  6 32  1  0  0  0  0
  7  8  1  0  0  0  0
  7 33  1  0  0  0  0
  7 34  1  0  0  0  0
  8  9  1  0  0  0  0
  8 35  1  0  0  0  0
  9 10  2  0  0  0  0
  9 11  1  0  0  0  0
 11 12  1  0  0  0  0
 11 36  1  0  0  0  0
 11 37  1  0  0  0  0
 12 17  1  0  0  0  0
 12 13  1  0  0  0  0
 13 14  2  0  0  0  0
 13 38  1  0  0  0  0
 14 15  1  0  0  0  0
 14 39  1  0  0  0  0
 15 16  2  0  0  0  0
 15 40  1  0  0  0  0
 16 17  1  0  0  0  0
 16 41  1  0  0  0  0
 17 18  2  0  0  0  0
 19 20  1  0  0  0  0
 19 42  1  0  0  0  0
 19 43  1  0  0  0  0
 20 21  1  0  0  0  0
 20 22  1  0  0  0  0
 20 44  1  0  0  0  0
 21 45  1  0  0  0  0
 21 46  1  0  0  0  0
 21 47  1  0  0  0  0
M  END
> <s_m_source_file>
AV-unprocessed.smi

> <i_m_source_file_index>
1795

> <i_lp_mmshare_version>
43012

> <i_f3d_flags>
0

> <s_epik_input>
W0NIM11bQ0BASF0xW0NIMl1OKFtDSDJdW0NASF0oTzEpW0NIM10pW0NASF0oW0NIM10pW0NIMl1bTkhdQyg9TylbQ0gyXW4yW2NIXVtjSF1bY0hdW2NIXWMyPU8=

> <s_epik_cmdline>
J2VwaWtfcHl0aG9uJywgJy1waCcsICc3LjAnLCAnLXRuJywgJzgnLCAnLW1hJywgJzIwMCcsICctbWV0YWxfYmluZGluZycsICctaW1hZScsICc8aW5maWxlLm1hZT4nLCAnLW9tYWUnLCAnPG91dGZpbGUubWFlPic=

> <r_lp_tautomer_probability>
1

> <r_epik_Ionization_Penalty>
0.237383

> <r_epik_Ionization_Penalty_Charging>
3.58805e-07

> <r_epik_Ionization_Penalty_Neutral>
0.237382

> <r_epik_State_Penalty>
0.228245

> <r_epik_Charging_Adjusted_Penalty>
0.228245

> <i_epik_Tot_Q>
0

> <i_epik_Tot_abs_Q>
0

> <r_epik_Metal_State_Penalty>
0.228221

> <b_epik_Metal_Only>
0

> <s_lp_Force_Field>
OPLS_2005

> <r_lp_Energy>
40.4957

> <b_lp_Chiralities_Consistent>
1

> <s_lp_Variant>
AV-unprocessed.smi:1795-5

> <Gold.Version>
5.8.1

> <Gold.Id.Protein>
6NUR|6NUR_protein|mol2

> <Gold.PLP.Fitness>
43.3783

> <Gold.PLP.PLP>
-44.0035

> <Gold.PLP.part.hbond>
-1.0000

> <Gold.PLP.part.metal>
0.0000

> <Gold.PLP.part.buried>
-5.7258

> <Gold.PLP.part.nonpolar>
-37.8109

> <Gold.PLP.part.repulsive>
0.3970

> <Gold.PLP.ligand.clash>
0.0000

> <Gold.PLP.ligand.torsion>
1.4475

> <Gold.PLP.Chemscore.Hbond>
0.7200

> <Gold.PLP.Chemscore.CHOScore>
0.0000

> <Gold.PLP.Chemscore.Metal>
0.0000

> <Gold.Chemscore.Hbonds>
donor molecule, donor type, donor heavy atom, donor atom, acceptor molecule, acceptor atom, score
      L1  H     8    35       P1  8028  0.74

> <Gold.PLP.Chemscore.Internal.Correction>
0.1098

> <Gold.Rescore>
     Score         DG    S(hbond)    S(metal)    S(lipo)     H(rot)  DE(clash)    DE(int)     intcor
     10.87     -14.70       0.94        0.00      91.82       1.83       0.00       3.82       ----

> <Gold.Chemscore.Fitness>
10.8728

> <Gold.Chemscore.DG>
-14.6970

> <Gold.Chemscore.ZeroCoef>
-5.4800

> <Gold.Chemscore.Hbond>
0.9420

> <Gold.Chemscore.Metal>
0.0000

> <Gold.Chemscore.Lipo>
91.8216

> <Gold.Chemscore.Internal_Hbond>
0.0000

> <Gold.Chemscore.DEClash>
0.0030

> <Gold.Chemscore.DEInternal>
3.8211

> <Gold.Chemscore.Rot>
1.8251

> <Gold.Chemscore.Internal.Correction>
   9.000000E+99

> <Gold.Chemscore.Hbonds>
donor molecule, donor type, donor heavy atom, donor atom, acceptor molecule, acceptor atom, score
      L1  H     8    35       P1  8028  0.74

> <Gold.Chemscore.Hbond.Weighted>
-3.1462

> <Gold.Chemscore.Metal.Weighted>
-0.0000

> <Gold.Chemscore.Lipo.Weighted>
-10.7431

> <Gold.Chemscore.Internal_Hbond.Weighted>
0.0000

> <Gold.Chemscore.DEClash.Weighted>
0.0030

> <Gold.Chemscore.DEInternal.Weighted>
3.8211

> <Gold.Chemscore.Rot.Weighted>
4.6724

> <Gold.Chemscore.Internal.Correction.Weighted>
   9.000000E+99

> <Gold.Protein.RotatedTorsions>
[ 6907 6896 6895 6894 ] final   10.81 input  -60.11 | X-H torsion
[ 7974 7965 7964 7962 ] final  -49.59 input  175.53 | X-H torsion
[ 8008 7997 7996 7995 ] final  -76.66 input   59.86 | X-H torsion
[ 10167 10162 10161 10158 ] final   93.80 input  -65.29 | X-H torsion
[ 10718 10713 10712 10709 ] final  -84.46 input   66.30 | X-H torsion
[ 10763 10752 10751 10750 ] final   34.46 input  -60.55 | X-H torsion
[ 11005 11000 10999 10996 ] final   56.02 input  -57.11 | X-H torsion

> <Gold.Protein.ActiveResidues>
 VAL166  LYS551  ARG553  GLY616  TRP617  ASP618  TYR619  PRO620  LYS621  CYS622 
 ASP623  PHE694  ASN695  SER759  ASP760  ASP761  ALA762  ILE779  LEU786  VAL792 
 PHE793  MET794  SER795  GLU796  ALA797  LYS798  CYS799  TRP800  GLU811  SER814 

> <Gold.Protein.RotatedAtoms>
  151.7443  135.0847  160.0320 H   0  0  0  0  0  0  0  0  0  0  0  0  # atno 6907 bound_to 6896
  152.3459  133.6117  159.5918 H   0  0  0  0  0  0  0  0  0  0  0  0  # atno 6908 bound_to 6896
  150.7508  133.9566  159.3544 H   0  0  0  0  0  0  0  0  0  0  0  0  # atno 6909 bound_to 6896
  145.9389  140.7680  142.9562 H   0  0  0  0  0  0  0  0  0  0  0  0  # atno 7974 bound_to 7965
  154.5525  140.0723  156.8691 H   0  0  0  0  0  0  0  0  0  0  0  0  # atno 8008 bound_to 7997
  155.2965  140.3381  155.4231 H   0  0  0  0  0  0  0  0  0  0  0  0  # atno 8009 bound_to 7997
  156.1974  140.1708  156.7956 H   0  0  0  0  0  0  0  0  0  0  0  0  # atno 8010 bound_to 7997
  139.8145  144.6759  150.9598 H   0  0  0  0  0  0  0  0  0  0  0  0  # atno 10167 bound_to 10162
  156.0006  130.4698  150.4413 H   0  0  0  0  0  0  0  0  0  0  0  0  # atno 10718 bound_to 10713
  153.0163  135.6359  154.1673 H   0  0  0  0  0  0  0  0  0  0  0  0  # atno 10763 bound_to 10752
  154.1412  135.2834  155.3162 H   0  0  0  0  0  0  0  0  0  0  0  0  # atno 10764 bound_to 10752
  154.6123  135.5552  153.7548 H   0  0  0  0  0  0  0  0  0  0  0  0  # atno 10765 bound_to 10752
  140.0561  134.5668  155.9206 H   0  0  0  0  0  0  0  0  0  0  0  0  # atno 11005 bound_to 11000
  144.6776  140.2248  143.7362 LP  0  0  0  0  0  0  0  0  0  0  0  0  # atno 17320 bound_to 7965
  145.8326  139.2093  143.1874 LP  0  0  0  0  0  0  0  0  0  0  0  0  # atno 17321 bound_to 7965
  140.7816  143.4153  151.0928 LP  0  0  0  0  0  0  0  0  0  0  0  0  # atno 17342 bound_to 10162
  139.7817  143.8346  152.3138 LP  0  0  0  0  0  0  0  0  0  0  0  0  # atno 17343 bound_to 10162
  157.2454  131.0534  151.2411 LP  0  0  0  0  0  0  0  0  0  0  0  0  # atno 17370 bound_to 10713
  157.3580  130.7116  149.6483 LP  0  0  0  0  0  0  0  0  0  0  0  0  # atno 17371 bound_to 10713
  141.1952  133.6586  156.5634 LP  0  0  0  0  0  0  0  0  0  0  0  0  # atno 17394 bound_to 11000
  140.3842  134.7497  157.4680 LP  0  0  0  0  0  0  0  0  0  0  0  0  # atno 17395 bound_to 11000

$$$$
