AV-unprocessed.smi:3348|AV-procd|sdf|12930|dock7
  -GOLD-   2272019363D 1   1.00000     0.00000
 Structure written by MMmdl.
 46 47  0  0  0  0  0  0  0  0  1 V2000
  147.1616  142.1723  154.1948 C   0  0  0  0  0  0  0  0  0  0  0  0
  148.2304  141.2919  154.8652 C   0  0  1  0  0  0  0  0  0  0  0  0
  148.4249  139.9341  154.1470 C   0  0  0  0  0  0  0  0  0  0  0  0
  149.5179  139.1492  154.6923 N   0  0  0  0  0  0  0  0  0  0  0  0
  150.6700  138.7297  154.0610 C   0  0  0  0  0  0  0  0  0  0  0  0
  151.4003  138.0253  154.9746 C   0  0  0  0  0  0  0  0  0  0  0  0
  150.6046  138.0743  156.1531 C   0  0  0  0  0  0  0  0  0  0  0  0
  149.4801  138.7504  155.9822 N   0  0  0  0  0  0  0  0  0  0  0  0
  149.4851  142.0450  154.9503 N   0  0  0  0  0  0  0  0  0  0  0  0
  150.4384  141.5676  155.9509 C   0  0  0  0  0  0  0  0  0  0  0  0
  150.1993  142.2541  157.2992 C   0  0  0  0  0  0  0  0  0  0  0  0
  151.0108  141.6251  158.2806 O   0  0  0  0  0  0  0  0  0  0  0  0
  151.8993  142.4989  158.9674 C   0  0  1  0  0  0  0  0  0  0  0  0
  151.1158  143.7041  159.5323 C   0  0  0  0  0  0  0  0  0  0  0  0
  152.0053  144.6013  160.4051 C   0  0  0  0  0  0  0  0  0  0  0  0
  152.6577  143.7961  161.5370 C   0  0  0  0  0  0  0  0  0  0  0  0
  153.4499  142.6047  160.9783 C   0  0  0  0  0  0  0  0  0  0  0  0
  152.5682  141.6910  160.1034 C   0  0  2  0  0  0  0  0  0  0  0  0
  153.3881  140.5103  159.5582 C   0  0  0  0  0  0  0  0  0  0  0  0
  146.1785  141.7021  154.2189 H   0  0  0  0  0  0  0  0  0  0  0  0
  147.4106  142.3732  153.1524 H   0  0  0  0  0  0  0  0  0  0  0  0
  147.0677  143.1314  154.7053 H   0  0  0  0  0  0  0  0  0  0  0  0
  147.8813  141.0881  155.8785 H   0  0  0  0  0  0  0  0  0  0  0  0
  147.5125  139.3400  154.2178 H   0  0  0  0  0  0  0  0  0  0  0  0
  148.6219  140.0781  153.0844 H   0  0  0  0  0  0  0  0  0  0  0  0
  150.8698  138.9620  153.0253 H   0  0  0  0  0  0  0  0  0  0  0  0
  152.3573  137.5485  154.8239 H   0  0  0  0  0  0  0  0  0  0  0  0
  150.8100  137.6424  157.1212 H   0  0  0  0  0  0  0  0  0  0  0  0
  149.2798  143.0236  155.1265 H   0  0  0  0  0  0  0  0  0  0  0  0
  150.3633  140.4860  156.0692 H   0  0  0  0  0  0  0  0  0  0  0  0
  151.4569  141.7816  155.6290 H   0  0  0  0  0  0  0  0  0  0  0  0
  150.4798  143.3053  157.2213 H   0  0  0  0  0  0  0  0  0  0  0  0
  149.1419  142.2180  157.5619 H   0  0  0  0  0  0  0  0  0  0  0  0
  152.6782  142.8523  158.2886 H   0  0  0  0  0  0  0  0  0  0  0  0
  150.6936  144.3025  158.7257 H   0  0  0  0  0  0  0  0  0  0  0  0
  150.2720  143.3458  160.1234 H   0  0  0  0  0  0  0  0  0  0  0  0
  152.7789  145.0615  159.7889 H   0  0  0  0  0  0  0  0  0  0  0  0
  151.4143  145.4174  160.8217 H   0  0  0  0  0  0  0  0  0  0  0  0
  153.3163  144.4405  162.1200 H   0  0  0  0  0  0  0  0  0  0  0  0
  151.8891  143.4362  162.2225 H   0  0  0  0  0  0  0  0  0  0  0  0
  154.2928  142.9740  160.3924 H   0  0  0  0  0  0  0  0  0  0  0  0
  153.8754  142.0327  161.8036 H   0  0  0  0  0  0  0  0  0  0  0  0
  151.7796  141.2817  160.7367 H   0  0  0  0  0  0  0  0  0  0  0  0
  154.1892  140.8531  158.9028 H   0  0  0  0  0  0  0  0  0  0  0  0
  152.7638  139.8221  158.9881 H   0  0  0  0  0  0  0  0  0  0  0  0
  153.8426  139.9409  160.3693 H   0  0  0  0  0  0  0  0  0  0  0  0
  1  2  1  0  0  0  0
  1 20  1  0  0  0  0
  1 21  1  0  0  0  0
  1 22  1  0  0  0  0
  2  3  1  0  0  0  0
  2  9  1  0  0  0  0
  2 23  1  0  0  0  0
  3  4  1  0  0  0  0
  3 24  1  0  0  0  0
  3 25  1  0  0  0  0
  4  8  1  0  0  0  0
  4  5  1  0  0  0  0
  5  6  2  0  0  0  0
  5 26  1  0  0  0  0
  6  7  1  0  0  0  0
  6 27  1  0  0  0  0
  7  8  2  0  0  0  0
  7 28  1  0  0  0  0
  9 10  1  0  0  0  0
  9 29  1  0  0  0  0
 10 11  1  0  0  0  0
 10 30  1  0  0  0  0
 10 31  1  0  0  0  0
 11 12  1  0  0  0  0
 11 32  1  0  0  0  0
 11 33  1  0  0  0  0
 12 13  1  0  0  0  0
 13 18  1  0  0  0  0
 13 14  1  0  0  0  0
 13 34  1  0  0  0  0
 14 15  1  0  0  0  0
 14 35  1  0  0  0  0
 14 36  1  0  0  0  0
 15 16  1  0  0  0  0
 15 37  1  0  0  0  0
 15 38  1  0  0  0  0
 16 17  1  0  0  0  0
 16 39  1  0  0  0  0
 16 40  1  0  0  0  0
 17 18  1  0  0  0  0
 17 41  1  0  0  0  0
 17 42  1  0  0  0  0
 18 19  1  0  0  0  0
 18 43  1  0  0  0  0
 19 44  1  0  0  0  0
 19 45  1  0  0  0  0
 19 46  1  0  0  0  0
M  END
> <s_m_source_file>
AV-unprocessed.smi

> <i_m_source_file_index>
3348

> <i_lp_mmshare_version>
43012

> <i_f3d_flags>
0

> <s_epik_input>
bjFbY0hdW2NIXVtjSF1uMVtDSDJdW0NAQEhdKFtDSDNdKVtOSF1bQ0gyXVtDSDJdT1tDQEBIXTJbQ0gyXVtDSDJdW0NIMl1bQ0gyXVtDQEhdMltDSDNd

> <s_epik_cmdline>
J2VwaWtfcHl0aG9uJywgJy1waCcsICc3LjAnLCAnLXRuJywgJzgnLCAnLW1hJywgJzIwMCcsICctbWV0YWxfYmluZGluZycsICctaW1hZScsICc8aW5maWxlLm1hZT4nLCAnLW9tYWUnLCAnPG91dGZpbGUubWFlPic=

> <r_lp_tautomer_probability>
1

> <r_epik_Ionization_Penalty>
2.46945

> <r_epik_Ionization_Penalty_Charging>
0

> <r_epik_Ionization_Penalty_Neutral>
2.46945

> <r_epik_State_Penalty>
2.6322

> <r_epik_Charging_Adjusted_Penalty>
2.6322

> <i_epik_Tot_Q>
0

> <i_epik_Tot_abs_Q>
0

> <r_epik_Metal_State_Penalty>
2.63217

> <b_epik_Metal_Only>
0

> <s_lp_Force_Field>
OPLS_2005

> <r_lp_Energy>
15.3902

> <b_lp_Chiralities_Consistent>
1

> <s_lp_Variant>
AV-unprocessed.smi:3348-16

> <Gold.Version>
5.8.1

> <Gold.Id.Protein>
6NUR|6NUR_protein|mol2

> <Gold.PLP.Fitness>
47.6430

> <Gold.PLP.PLP>
-42.9704

> <Gold.PLP.part.hbond>
-1.7557

> <Gold.PLP.part.metal>
0.0000

> <Gold.PLP.part.buried>
-4.5912

> <Gold.PLP.part.nonpolar>
-35.4956

> <Gold.PLP.part.repulsive>
0.0258

> <Gold.PLP.ligand.clash>
0.0000

> <Gold.PLP.ligand.torsion>
0.7903

> <Gold.PLP.Chemscore.Hbond>
1.0000

> <Gold.PLP.Chemscore.CHOScore>
1.0000

> <Gold.PLP.Chemscore.Metal>
0.0000

> <Gold.Chemscore.Hbonds>
donor molecule, donor type, donor heavy atom, donor atom, acceptor molecule, acceptor atom, score
      L1  H     9    29       P1  8028  1.00
      L1  C     5    26       P1  7957  1.00

> <Gold.PLP.Chemscore.Internal.Correction>
0.2533

> <Gold.Rescore>
     Score         DG    S(hbond)    S(metal)    S(lipo)     H(rot)  DE(clash)    DE(int)     intcor
     16.53     -18.59       1.00        0.00     121.26       1.72       0.04       2.02       ----

> <Gold.Chemscore.Fitness>
16.5331

> <Gold.Chemscore.DG>
-18.5945

> <Gold.Chemscore.ZeroCoef>
-5.4800

> <Gold.Chemscore.Hbond>
1.0000

> <Gold.Chemscore.Metal>
0.0000

> <Gold.Chemscore.Lipo>
121.2575

> <Gold.Chemscore.Internal_Hbond>
0.0000

> <Gold.Chemscore.DEClash>
0.0375

> <Gold.Chemscore.DEInternal>
2.0239

> <Gold.Chemscore.Rot>
1.7237

> <Gold.Chemscore.Internal.Correction>
   9.000000E+99

> <Gold.Chemscore.Hbonds>
donor molecule, donor type, donor heavy atom, donor atom, acceptor molecule, acceptor atom, score
      L1  H     9    29       P1  8028  1.00

> <Gold.Chemscore.Hbond.Weighted>
-3.3400

> <Gold.Chemscore.Metal.Weighted>
-0.0000

> <Gold.Chemscore.Lipo.Weighted>
-14.1871

> <Gold.Chemscore.Internal_Hbond.Weighted>
0.0000

> <Gold.Chemscore.DEClash.Weighted>
0.0375

> <Gold.Chemscore.DEInternal.Weighted>
2.0239

> <Gold.Chemscore.Rot.Weighted>
4.4126

> <Gold.Chemscore.Internal.Correction.Weighted>
   9.000000E+99

> <Gold.Protein.RotatedTorsions>
[ 6907 6896 6895 6894 ] final  108.86 input  -60.11 | X-H torsion
[ 7974 7965 7964 7962 ] final -102.36 input  175.53 | X-H torsion
[ 8008 7997 7996 7995 ] final  140.82 input   59.86 | X-H torsion
[ 10167 10162 10161 10158 ] final  103.13 input  -65.29 | X-H torsion
[ 10718 10713 10712 10709 ] final    5.76 input   66.30 | X-H torsion
[ 10763 10752 10751 10750 ] final  112.53 input  -60.55 | X-H torsion
[ 11005 11000 10999 10996 ] final   65.21 input  -57.11 | X-H torsion

> <Gold.Protein.ActiveResidues>
 VAL166  LYS551  ARG553  GLY616  TRP617  ASP618  TYR619  PRO620  LYS621  CYS622 
 ASP623  PHE694  ASN695  SER759  ASP760  ASP761  ALA762  ILE779  LEU786  VAL792 
 PHE793  MET794  SER795  GLU796  ALA797  LYS798  CYS799  TRP800  GLU811  SER814 

> <Gold.Protein.RotatedAtoms>
  152.5093  133.9028  159.7448 H   0  0  0  0  0  0  0  0  0  0  0  0  # atno 6907 bound_to 6896
  150.9439  133.6616  159.2792 H   0  0  0  0  0  0  0  0  0  0  0  0  # atno 6908 bound_to 6896
  151.3918  135.0962  159.9581 H   0  0  0  0  0  0  0  0  0  0  0  0  # atno 6909 bound_to 6896
  145.2697  140.9295  143.2993 H   0  0  0  0  0  0  0  0  0  0  0  0  # atno 7974 bound_to 7965
  156.2974  140.2331  156.4464 H   0  0  0  0  0  0  0  0  0  0  0  0  # atno 8008 bound_to 7997
  154.8140  140.0441  157.1384 H   0  0  0  0  0  0  0  0  0  0  0  0  # atno 8009 bound_to 7997
  154.9390  140.3027  155.5133 H   0  0  0  0  0  0  0  0  0  0  0  0  # atno 8010 bound_to 7997
  139.7290  144.7040  151.0752 H   0  0  0  0  0  0  0  0  0  0  0  0  # atno 10167 bound_to 10162
  156.9121  130.5760  149.5647 H   0  0  0  0  0  0  0  0  0  0  0  0  # atno 10718 bound_to 10713
  153.4792  135.3683  155.2433 H   0  0  0  0  0  0  0  0  0  0  0  0  # atno 10763 bound_to 10752
  154.8755  135.3950  154.3720 H   0  0  0  0  0  0  0  0  0  0  0  0  # atno 10764 bound_to 10752
  153.4321  135.7082  153.6289 H   0  0  0  0  0  0  0  0  0  0  0  0  # atno 10765 bound_to 10752
  139.9909  134.6593  156.0093 H   0  0  0  0  0  0  0  0  0  0  0  0  # atno 11005 bound_to 11000
  144.9346  139.4259  143.6478 LP  0  0  0  0  0  0  0  0  0  0  0  0  # atno 17320 bound_to 7965
  146.3250  139.8274  142.8915 LP  0  0  0  0  0  0  0  0  0  0  0  0  # atno 17321 bound_to 7965
  140.7768  143.5068  150.9702 LP  0  0  0  0  0  0  0  0  0  0  0  0  # atno 17342 bound_to 10162
  139.8756  143.7137  152.3162 LP  0  0  0  0  0  0  0  0  0  0  0  0  # atno 17343 bound_to 10162
  156.0531  130.5597  150.9032 LP  0  0  0  0  0  0  0  0  0  0  0  0  # atno 17370 bound_to 10713
  157.5961  131.0943  150.9039 LP  0  0  0  0  0  0  0  0  0  0  0  0  # atno 17371 bound_to 10713
  141.1565  133.6542  156.4178 LP  0  0  0  0  0  0  0  0  0  0  0  0  # atno 17394 bound_to 11000
  140.4910  134.6575  157.5211 LP  0  0  0  0  0  0  0  0  0  0  0  0  # atno 17395 bound_to 11000

$$$$
