AV-unprocessed.smi:1293|AV-procd|sdf|5399|dock3
  -GOLD-   22720 4553D 1   1.00000     0.00000
 Structure written by MMmdl.
 39 40  0  0  0  0  0  0  0  0  1 V2000
  145.3608  143.3763  154.9157 C   0  0  0  0  0  0  0  0  0  0  0  0
  146.2727  142.6160  154.1430 O   0  0  0  0  0  0  0  0  0  0  0  0
  147.2776  142.0027  154.9341 C   0  0  0  0  0  0  0  0  0  0  0  0
  148.3227  141.3471  154.0168 C   0  0  0  0  0  0  0  0  0  0  0  0
  149.4696  140.8301  154.7777 N   0  0  0  0  0  0  0  0  0  0  0  0
  150.0722  141.7082  155.7001 C   0  0  0  0  0  0  0  0  0  0  0  0
  151.1291  141.3476  156.4611 C   0  0  0  0  0  0  0  0  0  0  0  0
  151.7693  142.1605  157.4090 N   0  0  0  0  0  0  0  0  0  0  0  0
  151.2776  142.7274  158.5295 C   0  0  0  0  0  0  0  0  0  0  0  0
  150.1118  142.6425  158.9153 O   0  0  0  0  0  0  0  0  0  0  0  0
  152.2908  143.5403  159.3543 C   0  0  0  0  0  0  0  0  0  0  0  0
  153.4672  142.6668  159.8309 C   0  0  0  0  0  0  0  0  0  0  0  0
  153.1289  142.2737  161.2679 C   0  0  0  0  0  0  0  0  0  0  0  0
  152.4294  143.5090  161.8278 C   0  0  0  0  0  0  0  0  0  0  0  0
  151.6613  144.1147  160.6455 C   0  0  0  0  0  0  0  0  0  0  0  0
  151.6247  139.9985  156.2911 C   0  0  0  0  0  0  0  0  0  0  0  0
  151.0505  139.1478  155.4188 C   0  0  0  0  0  0  0  0  0  0  0  0
  149.9022  139.5464  154.6019 C   0  0  0  0  0  0  0  0  0  0  0  0
  149.3626  138.7724  153.8107 O   0  0  0  0  0  0  0  0  0  0  0  0
  144.6107  143.8224  154.2624 H   0  0  0  0  0  0  0  0  0  0  0  0
  145.8699  144.1835  155.4444 H   0  0  0  0  0  0  0  0  0  0  0  0
  144.8438  142.7507  155.6441 H   0  0  0  0  0  0  0  0  0  0  0  0
  147.7478  142.7352  155.5921 H   0  0  0  0  0  0  0  0  0  0  0  0
  146.8238  141.2413  155.5700 H   0  0  0  0  0  0  0  0  0  0  0  0
  147.8553  140.5407  153.4491 H   0  0  0  0  0  0  0  0  0  0  0  0
  148.6515  142.0637  153.2626 H   0  0  0  0  0  0  0  0  0  0  0  0
  149.5934  142.6733  155.7392 H   0  0  0  0  0  0  0  0  0  0  0  0
  152.7431  142.3437  157.2155 H   0  0  0  0  0  0  0  0  0  0  0  0
  152.6784  144.3541  158.7385 H   0  0  0  0  0  0  0  0  0  0  0  0
  153.6438  141.7928  159.2019 H   0  0  0  0  0  0  0  0  0  0  0  0
  154.3842  143.2572  159.8200 H   0  0  0  0  0  0  0  0  0  0  0  0
  152.4429  141.4255  161.2704 H   0  0  0  0  0  0  0  0  0  0  0  0
  154.0099  141.9917  161.8449 H   0  0  0  0  0  0  0  0  0  0  0  0
  151.7803  143.2735  162.6715 H   0  0  0  0  0  0  0  0  0  0  0  0
  153.1780  144.2211  162.1776 H   0  0  0  0  0  0  0  0  0  0  0  0
  151.7253  145.2033  160.6637 H   0  0  0  0  0  0  0  0  0  0  0  0
  150.6017  143.8658  160.7281 H   0  0  0  0  0  0  0  0  0  0  0  0
  152.4704  139.6618  156.8731 H   0  0  0  0  0  0  0  0  0  0  0  0
  151.4449  138.1474  155.3175 H   0  0  0  0  0  0  0  0  0  0  0  0
  1  2  1  0  0  0  0
  1 20  1  0  0  0  0
  1 21  1  0  0  0  0
  1 22  1  0  0  0  0
  2  3  1  0  0  0  0
  3  4  1  0  0  0  0
  3 23  1  0  0  0  0
  3 24  1  0  0  0  0
  4  5  1  0  0  0  0
  4 25  1  0  0  0  0
  4 26  1  0  0  0  0
  5 18  1  0  0  0  0
  5  6  1  0  0  0  0
  6  7  2  0  0  0  0
  6 27  1  0  0  0  0
  7  8  1  0  0  0  0
  7 16  1  0  0  0  0
  8  9  1  0  0  0  0
  8 28  1  0  0  0  0
  9 10  2  0  0  0  0
  9 11  1  0  0  0  0
 11 15  1  0  0  0  0
 11 12  1  0  0  0  0
 11 29  1  0  0  0  0
 12 13  1  0  0  0  0
 12 30  1  0  0  0  0
 12 31  1  0  0  0  0
 13 14  1  0  0  0  0
 13 32  1  0  0  0  0
 13 33  1  0  0  0  0
 14 15  1  0  0  0  0
 14 34  1  0  0  0  0
 14 35  1  0  0  0  0
 15 36  1  0  0  0  0
 15 37  1  0  0  0  0
 16 17  2  0  0  0  0
 16 38  1  0  0  0  0
 17 18  1  0  0  0  0
 17 39  1  0  0  0  0
 18 19  2  0  0  0  0
M  END
> <s_m_source_file>
AV-unprocessed.smi

> <i_m_source_file_index>
1293

> <i_lp_mmshare_version>
43012

> <i_f3d_flags>
0

> <s_epik_input>
W0NIM11PW0NIMl1bQ0gyXW4xW2NIXWMoW2NIXVtjSF1jMT1PKVtOSF1DKD1PKVtDSF0yW0NIMl1bQ0gyXVtDSDJdW0NIMl0y

> <s_epik_cmdline>
J2VwaWtfcHl0aG9uJywgJy1waCcsICc3LjAnLCAnLXRuJywgJzgnLCAnLW1hJywgJzIwMCcsICctbWV0YWxfYmluZGluZycsICctaW1hZScsICc8aW5maWxlLm1hZT4nLCAnLW9tYWUnLCAnPG91dGZpbGUubWFlPic=

> <r_lp_tautomer_probability>
1

> <r_epik_Ionization_Penalty>
2.42474e-06

> <r_epik_Ionization_Penalty_Charging>
2.30353e-06

> <r_epik_Ionization_Penalty_Neutral>
1.21208e-07

> <r_epik_State_Penalty>
-0

> <r_epik_Charging_Adjusted_Penalty>
2.30353e-06

> <i_epik_Tot_Q>
0

> <i_epik_Tot_abs_Q>
0

> <r_epik_Metal_State_Penalty>
-0

> <b_epik_Metal_Only>
0

> <s_lp_Force_Field>
OPLS_2005

> <r_lp_Energy>
36.4395

> <b_lp_Chiralities_Consistent>
1

> <s_lp_Variant>
AV-unprocessed.smi:1293-1

> <Gold.Version>
5.8.1

> <Gold.Id.Protein>
6NUR|6NUR_protein|mol2

> <Gold.PLP.Fitness>
46.2214

> <Gold.PLP.PLP>
-44.5791

> <Gold.PLP.part.hbond>
-0.5980

> <Gold.PLP.part.metal>
0.0000

> <Gold.PLP.part.buried>
-3.5016

> <Gold.PLP.part.nonpolar>
-41.3908

> <Gold.PLP.part.repulsive>
1.8629

> <Gold.PLP.ligand.clash>
0.0000

> <Gold.PLP.ligand.torsion>
0.6970

> <Gold.PLP.Chemscore.Hbond>
0.0000

> <Gold.PLP.Chemscore.CHOScore>
1.0000

> <Gold.PLP.Chemscore.Metal>
0.0000

> <Gold.Chemscore.Hbonds>
donor molecule, donor type, donor heavy atom, donor atom, acceptor molecule, acceptor atom, score
      L1  C     6    27       P1  8028  1.00

> <Gold.PLP.Chemscore.Internal.Correction>
0.0362

> <Gold.Rescore>
     Score         DG    S(hbond)    S(metal)    S(lipo)     H(rot)  DE(clash)    DE(int)     intcor
     12.69     -13.79       0.00        0.00     104.52       1.53       0.48       0.61       ----

> <Gold.Chemscore.Fitness>
12.6922

> <Gold.Chemscore.DG>
-13.7881

> <Gold.Chemscore.ZeroCoef>
-5.4800

> <Gold.Chemscore.Hbond>
0.0000

> <Gold.Chemscore.Metal>
0.0000

> <Gold.Chemscore.Lipo>
104.5216

> <Gold.Chemscore.Internal_Hbond>
0.0000

> <Gold.Chemscore.DEClash>
0.4848

> <Gold.Chemscore.DEInternal>
0.6112

> <Gold.Chemscore.Rot>
1.5316

> <Gold.Chemscore.Internal.Correction>
   9.000000E+99

> <Gold.Chemscore.Hbond.Weighted>
-0.0000

> <Gold.Chemscore.Metal.Weighted>
-0.0000

> <Gold.Chemscore.Lipo.Weighted>
-12.2290

> <Gold.Chemscore.Internal_Hbond.Weighted>
0.0000

> <Gold.Chemscore.DEClash.Weighted>
0.4848

> <Gold.Chemscore.DEInternal.Weighted>
0.6112

> <Gold.Chemscore.Rot.Weighted>
3.9209

> <Gold.Chemscore.Internal.Correction.Weighted>
   9.000000E+99

> <Gold.Protein.RotatedTorsions>
[ 6907 6896 6895 6894 ] final -139.02 input  -60.11 | X-H torsion
[ 7974 7965 7964 7962 ] final  142.52 input  175.53 | X-H torsion
[ 8008 7997 7996 7995 ] final -176.41 input   59.86 | X-H torsion
[ 10167 10162 10161 10158 ] final  159.33 input  -65.29 | X-H torsion
[ 10718 10713 10712 10709 ] final  -48.40 input   66.30 | X-H torsion
[ 10763 10752 10751 10750 ] final -121.89 input  -60.55 | X-H torsion
[ 11005 11000 10999 10996 ] final   21.39 input  -57.11 | X-H torsion

> <Gold.Protein.ActiveResidues>
 VAL166  LYS551  ARG553  GLY616  TRP617  ASP618  TYR619  PRO620  LYS621  CYS622 
 ASP623  PHE694  ASN695  SER759  ASP760  ASP761  ALA762  ILE779  LEU786  VAL792 
 PHE793  MET794  SER795  GLU796  ALA797  LYS798  CYS799  TRP800  GLU811  SER814 

> <Gold.Protein.RotatedAtoms>
  151.0424  133.5695  159.2649 H   0  0  0  0  0  0  0  0  0  0  0  0  # atno 6907 bound_to 6896
  151.2736  135.0691  159.9153 H   0  0  0  0  0  0  0  0  0  0  0  0  # atno 6908 bound_to 6896
  152.5367  134.0150  159.8009 H   0  0  0  0  0  0  0  0  0  0  0  0  # atno 6909 bound_to 6896
  144.9000  139.5436  143.5758 H   0  0  0  0  0  0  0  0  0  0  0  0  # atno 7974 bound_to 7965
  155.9944  140.1207  157.0607 H   0  0  0  0  0  0  0  0  0  0  0  0  # atno 8008 bound_to 7997
  154.4222  140.1119  156.5679 H   0  0  0  0  0  0  0  0  0  0  0  0  # atno 8009 bound_to 7997
  155.6298  140.3473  155.4681 H   0  0  0  0  0  0  0  0  0  0  0  0  # atno 8010 bound_to 7997
  139.4832  144.4740  151.8537 H   0  0  0  0  0  0  0  0  0  0  0  0  # atno 10167 bound_to 10162
  156.1992  130.4155  149.9264 H   0  0  0  0  0  0  0  0  0  0  0  0  # atno 10718 bound_to 10713
  154.8678  135.4152  154.2693 H   0  0  0  0  0  0  0  0  0  0  0  0  # atno 10763 bound_to 10752
  153.3606  135.7003  153.6721 H   0  0  0  0  0  0  0  0  0  0  0  0  # atno 10764 bound_to 10752
  153.5623  135.3607  155.2776 H   0  0  0  0  0  0  0  0  0  0  0  0  # atno 10765 bound_to 10752
  140.3921  134.1808  155.7663 H   0  0  0  0  0  0  0  0  0  0  0  0  # atno 11005 bound_to 11000
  146.3103  139.7723  142.9025 LP  0  0  0  0  0  0  0  0  0  0  0  0  # atno 17320 bound_to 7965
  145.3632  141.0329  143.3273 LP  0  0  0  0  0  0  0  0  0  0  0  0  # atno 17321 bound_to 7965
  140.4211  144.2242  150.5887 LP  0  0  0  0  0  0  0  0  0  0  0  0  # atno 17342 bound_to 10162
  140.4873  143.2359  151.8869 LP  0  0  0  0  0  0  0  0  0  0  0  0  # atno 17343 bound_to 10162
  156.6979  130.8921  151.3596 LP  0  0  0  0  0  0  0  0  0  0  0  0  # atno 17370 bound_to 10713
  157.6975  130.9298  150.0688 LP  0  0  0  0  0  0  0  0  0  0  0  0  # atno 17371 bound_to 10713
  141.1887  133.8254  157.0985 LP  0  0  0  0  0  0  0  0  0  0  0  0  # atno 17394 bound_to 11000
  140.0399  134.9860  157.0941 LP  0  0  0  0  0  0  0  0  0  0  0  0  # atno 17395 bound_to 11000

$$$$
