AV-unprocessed.smi:54|AV-procd|sdf|553|dock1
  -GOLD-   2262016453D 1   1.00000     0.00000
 Structure written by MMmdl.
 43 45  0  0  0  0  0  0  0  0  2 V2000
  152.8111  143.6791  158.9176 C   0  0  0  0  0  0  0  0  0  0  0  0
  152.5267  142.5458  159.9171 C   0  0  0  0  0  0  0  0  0  0  0  0
  153.7604  142.2472  160.7854 C   0  0  0  0  0  0  0  0  0  0  0  0
  152.0593  141.2838  159.1794 C   0  0  0  0  0  0  0  0  0  0  0  0
  151.2881  140.5071  159.7468 O   0  0  0  0  0  0  0  0  0  0  0  0
  152.5370  141.1290  157.9254 N   0  0  0  0  0  0  0  0  0  0  0  0
  152.2996  140.0770  157.0357 C   0  0  0  0  0  0  0  0  0  0  0  0
  151.1286  139.9704  156.4483 N   0  0  0  0  0  0  0  0  0  0  0  0
  151.0532  138.8693  155.6157 C   0  0  0  0  0  0  0  0  0  0  0  0
  152.0283  137.9398  155.3730 C   0  0  0  0  0  0  0  0  0  0  0  0
  151.5953  136.9659  154.4814 N   0  0  0  0  0  0  0  0  0  0  0  0
  150.3487  137.3580  154.2264 C   0  0  0  0  0  0  0  0  0  0  0  0
  149.9482  138.4762  154.8624 N   0  0  0  0  0  0  0  0  0  0  0  0
  148.5924  139.1040  154.7623 C   0  0  2  0  0  0  0  0  0  0  0  0
  147.8351  138.4349  153.8066 O   0  0  0  0  0  0  0  0  0  0  0  0
  146.8887  139.3351  153.2366 C   0  0  2  0  0  0  0  0  0  0  0  0
  146.8289  139.1083  151.7146 C   0  0  0  0  0  0  0  0  0  0  0  0
  146.9176  137.7389  151.3760 O   0  0  0  0  0  0  0  0  0  0  0  0
  147.2793  140.7581  153.6869 C   0  0  1  0  0  0  0  0  0  0  0  0
  146.3477  141.2172  154.6483 O   0  0  0  0  0  0  0  0  0  0  0  0
  148.6449  140.5768  154.3368 C   0  0  2  0  0  0  0  0  0  0  0  0
  149.6861  140.8582  153.4206 O   0  0  0  0  0  0  0  0  0  0  0  0
  153.3178  138.1177  156.0825 C   0  0  0  0  0  0  0  0  0  0  0  0
  154.2207  137.3044  155.8954 O   0  0  0  0  0  0  0  0  0  0  0  0
  153.3896  139.2029  156.9105 N   0  5  0  0  0  0  0  0  0  0  0  0
  148.1379  138.9657  155.7445 H   0  0  0  0  0  0  0  0  0  0  0  0
  145.9152  139.0643  153.6492 H   0  0  0  0  0  0  0  0  0  0  0  0
  147.2969  141.4797  152.8688 H   0  0  0  0  0  0  0  0  0  0  0  0
  148.7872  141.2103  155.2136 H   0  0  0  0  0  0  0  0  0  0  0  0
  151.9374  143.8908  158.2999 H   0  0  0  0  0  0  0  0  0  0  0  0
  153.6374  143.4284  158.2508 H   0  0  0  0  0  0  0  0  0  0  0  0
  153.0747  144.6002  159.4380 H   0  0  0  0  0  0  0  0  0  0  0  0
  151.7241  142.8761  160.5790 H   0  0  0  0  0  0  0  0  0  0  0  0
  153.5655  141.4335  161.4852 H   0  0  0  0  0  0  0  0  0  0  0  0
  154.0444  143.1215  161.3719 H   0  0  0  0  0  0  0  0  0  0  0  0
  154.6212  141.9649  160.1777 H   0  0  0  0  0  0  0  0  0  0  0  0
  153.0750  141.9045  157.5679 H   0  0  0  0  0  0  0  0  0  0  0  0
  149.7000  136.8087  153.5601 H   0  0  0  0  0  0  0  0  0  0  0  0
  145.9132  139.5316  151.3023 H   0  0  0  0  0  0  0  0  0  0  0  0
  147.6605  139.6226  151.2326 H   0  0  0  0  0  0  0  0  0  0  0  0
  147.4414  137.3016  152.0300 H   0  0  0  0  0  0  0  0  0  0  0  0
  145.9316  140.4658  155.0418 H   0  0  0  0  0  0  0  0  0  0  0  0
  149.6785  140.1904  152.7502 H   0  0  0  0  0  0  0  0  0  0  0  0
  1  2  1  0  0  0  0
  1 30  1  0  0  0  0
  1 31  1  0  0  0  0
  1 32  1  0  0  0  0
  2  3  1  0  0  0  0
  2  4  1  0  0  0  0
  2 33  1  0  0  0  0
  3 34  1  0  0  0  0
  3 35  1  0  0  0  0
  3 36  1  0  0  0  0
  4  5  2  0  0  0  0
  4  6  1  0  0  0  0
  6 37  1  0  0  0  0
  6  7  1  0  0  0  0
  7 25  1  0  0  0  0
  7  8  2  0  0  0  0
  8  9  1  0  0  0  0
  9 13  1  0  0  0  0
  9 10  2  0  0  0  0
 10 11  1  0  0  0  0
 10 23  1  0  0  0  0
 11 12  2  0  0  0  0
 12 13  1  0  0  0  0
 12 38  1  0  0  0  0
 13 14  1  0  0  0  0
 14 26  1  0  0  0  0
 14 21  1  0  0  0  0
 14 15  1  0  0  0  0
 15 16  1  0  0  0  0
 16 27  1  0  0  0  0
 16 17  1  0  0  0  0
 16 19  1  0  0  0  0
 17 18  1  0  0  0  0
 17 39  1  0  0  0  0
 17 40  1  0  0  0  0
 18 41  1  0  0  0  0
 19 28  1  0  0  0  0
 19 20  1  0  0  0  0
 19 21  1  0  0  0  0
 20 42  1  0  0  0  0
 21 29  1  0  0  0  0
 21 22  1  0  0  0  0
 22 43  1  0  0  0  0
 23 24  2  0  0  0  0
 23 25  1  0  0  0  0
M  CHG  1  25  -1
M  END
> <s_m_source_file>
AV-unprocessed.smi

> <i_m_source_file_index>
54

> <i_lp_mmshare_version>
43012

> <i_f3d_flags>
0

> <s_epik_input>
W0NIM11bQ0hdKFtDSDNdKUMoPU8pW05IXWMobjEpW25IXWMoPU8pYyhjMTIpbltjSF1uMltDQEBIXTNPW0NASF0oW0NIMl1bT0hdKVtDQEBIXShbT0hdKVtDQEhdM1tPSF0=

> <s_epik_cmdline>
J2VwaWtfcHl0aG9uJywgJy1waCcsICc3LjAnLCAnLXRuJywgJzgnLCAnLW1hJywgJzIwMCcsICctbWV0YWxfYmluZGluZycsICctaW1hZScsICc8aW5maWxlLm1hZT4nLCAnLW9tYWUnLCAnPG91dGZpbGUubWFlPic=

> <r_lp_tautomer_probability>
0.85571

> <r_epik_Ionization_Penalty>
1.75936

> <r_epik_Ionization_Penalty_Charging>
4.55893e-11

> <r_epik_Ionization_Penalty_Neutral>
1.75936

> <r_epik_State_Penalty>
1.72072

> <r_epik_Charging_Adjusted_Penalty>
1.72072

> <i_epik_Tot_Q>
-1

> <i_epik_Tot_abs_Q>
1

> <r_epik_Metal_State_Penalty>
0.400338

> <b_epik_Metal_Only>
1

> <s_epik_Chemistry_Notes>
This compound contains an acetal/aminal-like group ( X-CH(R)-Y where X, Y are N, S, or O) that may be acid/base labile, releasing an aldehyde.

> <s_lp_Force_Field>
OPLS_2005

> <r_lp_Energy>
60.6136

> <b_lp_Chiralities_Consistent>
1

> <s_lp_Variant>
AV-unprocessed.smi:54-25

> <Gold.Version>
5.8.1

> <Gold.Id.Protein>
6NUR|6NUR_protein|mol2

> <Gold.PLP.Fitness>
57.5291

> <Gold.PLP.PLP>
-37.4211

> <Gold.PLP.part.hbond>
-9.3196

> <Gold.PLP.part.metal>
0.0000

> <Gold.PLP.part.buried>
5.0414

> <Gold.PLP.part.nonpolar>
-33.5248

> <Gold.PLP.part.repulsive>
0.4270

> <Gold.PLP.ligand.clash>
0.0009

> <Gold.PLP.ligand.torsion>
1.6745

> <Gold.PLP.Chemscore.Hbond>
6.8060

> <Gold.PLP.Chemscore.CHOScore>
0.9905

> <Gold.PLP.Chemscore.Metal>
0.0000

> <Gold.Chemscore.Hbonds>
donor molecule, donor type, donor heavy atom, donor atom, acceptor molecule, acceptor atom, score
      L1  H    18    41       P1  7948  0.59
      L1  H    22    43       P1  7957  0.80
      P1  H  7954  7966       L1    18  0.95
      P1  H  7989  7998       L1    22  0.17
      P1  H  7997  8008       L1    25  1.38
      P1  H  8011  8017       L1    22  1.00
      P1  H 10752 10763       L1    24  0.25
      P1  H 10752 10765       L1    11  1.00
      L1  C    12    38       P1  7948  0.70

> <Gold.PLP.Chemscore.Internal.Correction>
0.0685

> <Gold.Rescore>
     Score         DG    S(hbond)    S(metal)    S(lipo)     H(rot)  DE(clash)    DE(int)     intcor
     12.86     -14.68       3.27        0.00      73.25       4.02       0.67       1.14       ----

> <Gold.Chemscore.Fitness>
12.8627

> <Gold.Chemscore.DG>
-14.6763

> <Gold.Chemscore.ZeroCoef>
-5.4800

> <Gold.Chemscore.Hbond>
3.2679

> <Gold.Chemscore.Metal>
0.0000

> <Gold.Chemscore.Lipo>
73.2549

> <Gold.Chemscore.Internal_Hbond>
0.0000

> <Gold.Chemscore.DEClash>
0.6730

> <Gold.Chemscore.DEInternal>
1.1406

> <Gold.Chemscore.Rot>
4.0192

> <Gold.Chemscore.Internal.Correction>
   9.000000E+99

> <Gold.Chemscore.Hbonds>
donor molecule, donor type, donor heavy atom, donor atom, acceptor molecule, acceptor atom, score
      L1  H    18    41       P1  7948  0.58
      L1  H    22    43       P1  7957  0.78
      P1  H  7954  7966       L1    18  0.06
      P1  H  7989  7998       L1    22  0.01
      P1  H  7997  8008       L1    25  0.36
      P1  H  8011  8017       L1    22  0.25
      P1  H 10752 10763       L1    24  0.24
      P1  H 10752 10765       L1    11  0.76

> <Gold.Chemscore.Hbond.Weighted>
-10.9147

> <Gold.Chemscore.Metal.Weighted>
-0.0000

> <Gold.Chemscore.Lipo.Weighted>
-8.5708

> <Gold.Chemscore.Internal_Hbond.Weighted>
0.0000

> <Gold.Chemscore.DEClash.Weighted>
0.6730

> <Gold.Chemscore.DEInternal.Weighted>
1.1406

> <Gold.Chemscore.Rot.Weighted>
10.2893

> <Gold.Chemscore.Internal.Correction.Weighted>
   9.000000E+99

> <Gold.Protein.RotatedTorsions>
[ 6907 6896 6895 6894 ] final -153.21 input  -60.11 | X-H torsion
[ 7974 7965 7964 7962 ] final  -29.60 input  175.53 | X-H torsion
[ 8008 7997 7996 7995 ] final  -85.14 input   59.86 | X-H torsion
[ 10167 10162 10161 10158 ] final   75.13 input  -65.29 | X-H torsion
[ 10718 10713 10712 10709 ] final    7.45 input   66.30 | X-H torsion
[ 10763 10752 10751 10750 ] final  151.98 input  -60.55 | X-H torsion
[ 11005 11000 10999 10996 ] final  120.70 input  -57.11 | X-H torsion

> <Gold.Protein.ActiveResidues>
 VAL166  LYS551  ARG553  GLY616  TRP617  ASP618  TYR619  PRO620  LYS621  CYS622 
 ASP623  PHE694  ASN695  SER759  ASP760  ASP761  ALA762  ILE779  LEU786  VAL792 
 PHE793  MET794  SER795  GLU796  ALA797  LYS798  CYS799  TRP800  GLU811  SER814 

> <Gold.Protein.RotatedAtoms>
  151.2391  133.4409  159.2606 H   0  0  0  0  0  0  0  0  0  0  0  0  # atno 6907 bound_to 6896
  151.0722  134.9806  159.8324 H   0  0  0  0  0  0  0  0  0  0  0  0  # atno 6908 bound_to 6896
  152.5413  134.2336  159.8887 H   0  0  0  0  0  0  0  0  0  0  0  0  # atno 6909 bound_to 6896
  146.1204  140.5433  142.8738 H   0  0  0  0  0  0  0  0  0  0  0  0  # atno 7974 bound_to 7965
  154.6375  140.0595  156.9806 H   0  0  0  0  0  0  0  0  0  0  0  0  # atno 8008 bound_to 7997
  155.1569  140.3279  155.4401 H   0  0  0  0  0  0  0  0  0  0  0  0  # atno 8009 bound_to 7997
  156.2514  140.1937  156.6678 H   0  0  0  0  0  0  0  0  0  0  0  0  # atno 8010 bound_to 7997
  140.0063  144.5648  150.7695 H   0  0  0  0  0  0  0  0  0  0  0  0  # atno 10167 bound_to 10162
  156.9371  130.5847  149.5651 H   0  0  0  0  0  0  0  0  0  0  0  0  # atno 10718 bound_to 10713
  154.1125  135.2838  155.3227 H   0  0  0  0  0  0  0  0  0  0  0  0  # atno 10763 bound_to 10752
  154.6479  135.5379  153.7870 H   0  0  0  0  0  0  0  0  0  0  0  0  # atno 10764 bound_to 10752
  153.0340  135.6503  154.1283 H   0  0  0  0  0  0  0  0  0  0  0  0  # atno 10765 bound_to 10752
  139.9196  134.9636  156.7847 H   0  0  0  0  0  0  0  0  0  0  0  0  # atno 11005 bound_to 11000
  144.7592  140.5381  143.6747 LP  0  0  0  0  0  0  0  0  0  0  0  0  # atno 17320 bound_to 7965
  145.5477  139.1476  143.3411 LP  0  0  0  0  0  0  0  0  0  0  0  0  # atno 17321 bound_to 7965
  140.7399  143.2797  151.3634 LP  0  0  0  0  0  0  0  0  0  0  0  0  # atno 17342 bound_to 10162
  139.6236  144.0858  152.2414 LP  0  0  0  0  0  0  0  0  0  0  0  0  # atno 17343 bound_to 10162
  156.0421  130.5502  150.8795 LP  0  0  0  0  0  0  0  0  0  0  0  0  # atno 17370 bound_to 10713
  157.5809  131.0946  150.9272 LP  0  0  0  0  0  0  0  0  0  0  0  0  # atno 17371 bound_to 10713
  140.6516  133.9726  155.7758 LP  0  0  0  0  0  0  0  0  0  0  0  0  # atno 17394 bound_to 11000
  141.0704  134.0213  157.3534 LP  0  0  0  0  0  0  0  0  0  0  0  0  # atno 17395 bound_to 11000

$$$$
