AV-unprocessed.smi:240|AV-procd|sdf|1831|dock10
  -GOLD-   2262020433D 1   1.00000     0.00000
 Structure written by MMmdl.
 55 59  0  0  0  0  0  0  0  0  1 V2000
  146.7982  140.8713  152.3934 O   0  0  0  0  0  0  0  0  0  0  0  0
  147.1203  141.5063  153.6138 C   0  0  1  0  0  0  0  0  0  0  0  0
  145.9249  142.2751  154.1750 C   0  0  0  0  0  0  0  0  0  0  0  0
  146.2361  142.4266  155.6673 C   0  0  0  0  0  0  0  0  0  0  0  0
  147.1761  141.2657  156.0322 C   0  0  0  0  0  0  0  0  0  0  0  0
  147.4434  140.4965  154.7238 C   0  0  2  0  0  0  0  0  0  0  0  0
  148.8257  139.7831  154.6174 C   0  0  1  0  0  0  0  0  0  0  0  0
  150.0249  140.6843  155.0091 C   0  0  0  0  0  0  0  0  0  0  0  0
  151.2468  139.9690  154.8668 O   0  0  0  0  0  0  0  0  0  0  0  0
  151.3008  138.8369  155.7238 C   0  0  0  0  0  0  0  0  0  0  0  0
  150.1769  137.8674  155.3369 C   0  0  0  0  0  0  0  0  0  0  0  0
  148.8835  138.5383  155.3969 N   0  0  0  0  0  0  0  0  0  0  0  0
  147.8809  137.6480  155.2192 C   0  0  0  0  0  0  0  0  0  0  0  0
  147.6940  136.7308  156.1998 N   0  0  0  0  0  0  0  0  0  0  0  0
  146.7175  135.8252  156.0899 C   0  0  0  0  0  0  0  0  0  0  0  0
  145.8386  135.6610  155.0987 N   0  0  0  0  0  0  0  0  0  0  0  0
  146.0341  136.5739  154.1038 C   0  0  0  0  0  0  0  0  0  0  0  0
  147.0241  137.5958  154.0824 C   0  0  0  0  0  0  0  0  0  0  0  0
  146.9168  138.3337  152.9097 N   0  0  0  0  0  0  0  0  0  0  0  0
  145.9156  137.7845  152.2783 C   0  0  0  0  0  0  0  0  0  0  0  0
  145.3346  136.7122  152.9173 N   0  0  0  0  0  0  0  0  0  0  0  0
  144.2150  135.9124  152.4434 C   0  0  0  0  0  0  0  0  0  0  0  0
  144.5161  134.3957  152.3851 C   0  0  1  0  0  0  0  0  0  0  0  0
  144.4980  133.8656  153.6996 O   0  0  0  0  0  0  0  0  0  0  0  0
  143.5039  133.6256  151.5455 C   0  0  0  0  0  0  0  0  0  0  0  0
  144.3228  132.4546  151.0198 C   0  0  0  0  0  0  0  0  0  0  0  0
  145.5741  133.0527  150.7284 O   0  0  0  0  0  0  0  0  0  0  0  0
  145.8627  134.0266  151.7274 C   0  0  0  0  0  0  0  0  0  0  0  0
  147.5793  140.4646  152.0502 H   0  0  0  0  0  0  0  0  0  0  0  0
  147.9416  142.2039  153.4551 H   0  0  0  0  0  0  0  0  0  0  0  0
  145.7682  143.2331  153.6783 H   0  0  0  0  0  0  0  0  0  0  0  0
  145.0129  141.6876  154.0559 H   0  0  0  0  0  0  0  0  0  0  0  0
  146.7424  143.3760  155.8457 H   0  0  0  0  0  0  0  0  0  0  0  0
  145.3269  142.4237  156.2694 H   0  0  0  0  0  0  0  0  0  0  0  0
  148.0906  141.6636  156.4695 H   0  0  0  0  0  0  0  0  0  0  0  0
  146.7277  140.6106  156.7801 H   0  0  0  0  0  0  0  0  0  0  0  0
  146.6612  139.7386  154.6561 H   0  0  0  0  0  0  0  0  0  0  0  0
  148.9737  139.5173  153.5709 H   0  0  0  0  0  0  0  0  0  0  0  0
  150.0869  141.5560  154.3602 H   0  0  0  0  0  0  0  0  0  0  0  0
  149.9427  141.0538  156.0313 H   0  0  0  0  0  0  0  0  0  0  0  0
  152.2707  138.3519  155.6135 H   0  0  0  0  0  0  0  0  0  0  0  0
  151.2124  139.1446  156.7670 H   0  0  0  0  0  0  0  0  0  0  0  0
  150.3453  137.4889  154.3274 H   0  0  0  0  0  0  0  0  0  0  0  0
  150.1857  137.0080  156.0090 H   0  0  0  0  0  0  0  0  0  0  0  0
  146.6265  135.1337  156.9145 H   0  0  0  0  0  0  0  0  0  0  0  0
  145.5753  138.1488  151.3199 H   0  0  0  0  0  0  0  0  0  0  0  0
  143.3601  136.1007  153.0941 H   0  0  0  0  0  0  0  0  0  0  0  0
  143.9319  136.2781  151.4554 H   0  0  0  0  0  0  0  0  0  0  0  0
  143.9373  133.1052  153.7088 H   0  0  0  0  0  0  0  0  0  0  0  0
  142.6172  133.3155  152.1002 H   0  0  0  0  0  0  0  0  0  0  0  0
  143.1714  134.2323  150.7020 H   0  0  0  0  0  0  0  0  0  0  0  0
  144.4509  131.6889  151.7863 H   0  0  0  0  0  0  0  0  0  0  0  0
  143.8819  131.9915  150.1368 H   0  0  0  0  0  0  0  0  0  0  0  0
  146.3337  134.8785  151.2380 H   0  0  0  0  0  0  0  0  0  0  0  0
  146.5788  133.6255  152.4464 H   0  0  0  0  0  0  0  0  0  0  0  0
  1  2  1  0  0  0  0
  1 29  1  0  0  0  0
  2  6  1  0  0  0  0
  2  3  1  0  0  0  0
  2 30  1  0  0  0  0
  3  4  1  0  0  0  0
  3 31  1  0  0  0  0
  3 32  1  0  0  0  0
  4  5  1  0  0  0  0
  4 33  1  0  0  0  0
  4 34  1  0  0  0  0
  5  6  1  0  0  0  0
  5 35  1  0  0  0  0
  5 36  1  0  0  0  0
  6  7  1  0  0  0  0
  6 37  1  0  0  0  0
  7 12  1  0  0  0  0
  7  8  1  0  0  0  0
  7 38  1  0  0  0  0
  8  9  1  0  0  0  0
  8 39  1  0  0  0  0
  8 40  1  0  0  0  0
  9 10  1  0  0  0  0
 10 11  1  0  0  0  0
 10 41  1  0  0  0  0
 10 42  1  0  0  0  0
 11 12  1  0  0  0  0
 11 43  1  0  0  0  0
 11 44  1  0  0  0  0
 12 13  1  0  0  0  0
 13 18  1  0  0  0  0
 13 14  2  0  0  0  0
 14 15  1  0  0  0  0
 15 16  2  0  0  0  0
 15 45  1  0  0  0  0
 16 17  1  0  0  0  0
 17 21  1  0  0  0  0
 17 18  2  0  0  0  0
 18 19  1  0  0  0  0
 19 20  2  0  0  0  0
 20 21  1  0  0  0  0
 20 46  1  0  0  0  0
 21 22  1  0  0  0  0
 22 23  1  0  0  0  0
 22 47  1  0  0  0  0
 22 48  1  0  0  0  0
 23 28  1  0  0  0  0
 23 24  1  0  0  0  0
 23 25  1  0  0  0  0
 24 49  1  0  0  0  0
 25 26  1  0  0  0  0
 25 50  1  0  0  0  0
 25 51  1  0  0  0  0
 26 27  1  0  0  0  0
 26 52  1  0  0  0  0
 26 53  1  0  0  0  0
 27 28  1  0  0  0  0
 28 54  1  0  0  0  0
 28 55  1  0  0  0  0
M  END
> <s_m_source_file>
AV-unprocessed.smi

> <i_m_source_file_index>
240

> <i_lp_mmshare_version>
43012

> <i_f3d_flags>
0

> <s_epik_input>
W09IXVtDQEBIXTFbQ0gyXVtDSDJdW0NIMl1bQ0BIXTFbQ0BASF0yW0NIMl1PW0NIMl1bQ0gyXU4yYyhuW2NIXW4zKWMoYzM0KW5bY0hdbjRbQ0gyXVtDQEBdNShbT0hdKVtDSDJdW0NIMl1PW0NIMl01

> <s_epik_cmdline>
J2VwaWtfcHl0aG9uJywgJy1waCcsICc3LjAnLCAnLXRuJywgJzgnLCAnLW1hJywgJzIwMCcsICctbWV0YWxfYmluZGluZycsICctaW1hZScsICc8aW5maWxlLm1hZT4nLCAnLW9tYWUnLCAnPG91dGZpbGUubWFlPic=

> <r_lp_tautomer_probability>
1

> <r_epik_Ionization_Penalty>
0.000130618

> <r_epik_Ionization_Penalty_Charging>
0

> <r_epik_Ionization_Penalty_Neutral>
0.000130618

> <r_epik_State_Penalty>
-0

> <r_epik_Charging_Adjusted_Penalty>
0

> <i_epik_Tot_Q>
0

> <i_epik_Tot_abs_Q>
0

> <r_epik_Metal_State_Penalty>
-0

> <b_epik_Metal_Only>
0

> <s_lp_Force_Field>
OPLS_2005

> <r_lp_Energy>
62.0257

> <b_lp_Chiralities_Consistent>
1

> <s_lp_Variant>
AV-unprocessed.smi:240-8

> <Gold.Version>
5.8.1

> <Gold.Id.Protein>
6NUR|6NUR_protein|mol2

> <Gold.PLP.Fitness>
40.1662

> <Gold.PLP.PLP>
-31.9333

> <Gold.PLP.part.hbond>
-3.4733

> <Gold.PLP.part.metal>
0.0000

> <Gold.PLP.part.buried>
-4.5840

> <Gold.PLP.part.nonpolar>
-26.2090

> <Gold.PLP.part.repulsive>
0.8123

> <Gold.PLP.ligand.clash>
0.0000

> <Gold.PLP.ligand.torsion>
0.7878

> <Gold.PLP.Chemscore.Hbond>
2.2050

> <Gold.PLP.Chemscore.CHOScore>
1.0000

> <Gold.PLP.Chemscore.Metal>
0.0000

> <Gold.Chemscore.Hbonds>
donor molecule, donor type, donor heavy atom, donor atom, acceptor molecule, acceptor atom, score
      L1  H     1    29       P1  7957  0.50
      L1  H    24    49       P1 10957  0.75
      P1  H  7989  7998       L1     9  0.55
      L1  C    20    46       P1 10171  1.00

> <Gold.PLP.Chemscore.Internal.Correction>
0.1934

> <Gold.Rescore>
     Score         DG    S(hbond)    S(metal)    S(lipo)     H(rot)  DE(clash)    DE(int)     intcor
      5.87     -12.89       1.97        0.00      72.97       3.00       2.94       4.08       ----

> <Gold.Chemscore.Fitness>
5.8674

> <Gold.Chemscore.DG>
-12.8903

> <Gold.Chemscore.ZeroCoef>
-5.4800

> <Gold.Chemscore.Hbond>
1.9650

> <Gold.Chemscore.Metal>
0.0000

> <Gold.Chemscore.Lipo>
72.9660

> <Gold.Chemscore.Internal_Hbond>
0.0000

> <Gold.Chemscore.DEClash>
2.9393

> <Gold.Chemscore.DEInternal>
4.0836

> <Gold.Chemscore.Rot>
3.0039

> <Gold.Chemscore.Internal.Correction>
   9.000000E+99

> <Gold.Chemscore.Hbonds>
donor molecule, donor type, donor heavy atom, donor atom, acceptor molecule, acceptor atom, score
      L1  H     1    29       P1  7957  0.50
      L1  H    24    49       P1 10957  0.65
      P1  H  7989  7998       L1     9  0.03

> <Gold.Chemscore.Hbond.Weighted>
-6.5632

> <Gold.Chemscore.Metal.Weighted>
-0.0000

> <Gold.Chemscore.Lipo.Weighted>
-8.5370

> <Gold.Chemscore.Internal_Hbond.Weighted>
0.0000

> <Gold.Chemscore.DEClash.Weighted>
2.9393

> <Gold.Chemscore.DEInternal.Weighted>
4.0836

> <Gold.Chemscore.Rot.Weighted>
7.6899

> <Gold.Chemscore.Internal.Correction.Weighted>
   9.000000E+99

> <Gold.Protein.RotatedTorsions>
[ 6907 6896 6895 6894 ] final  105.11 input  -60.11 | X-H torsion
[ 7974 7965 7964 7962 ] final  -99.11 input  175.53 | X-H torsion
[ 8008 7997 7996 7995 ] final  -98.41 input   59.86 | X-H torsion
[ 10167 10162 10161 10158 ] final   29.00 input  -65.29 | X-H torsion
[ 10718 10713 10712 10709 ] final   41.79 input   66.30 | X-H torsion
[ 10763 10752 10751 10750 ] final  138.14 input  -60.55 | X-H torsion
[ 11005 11000 10999 10996 ] final   69.42 input  -57.11 | X-H torsion

> <Gold.Protein.ActiveResidues>
 VAL166  LYS551  ARG553  GLY616  TRP617  ASP618  TYR619  PRO620  LYS621  CYS622 
 ASP623  PHE694  ASN695  SER759  ASP760  ASP761  ALA762  ILE779  LEU786  VAL792 
 PHE793  MET794  SER795  GLU796  ALA797  LYS798  CYS799  TRP800  GLU811  SER814 

> <Gold.Protein.RotatedAtoms>
  152.5242  133.9577  159.7702 H   0  0  0  0  0  0  0  0  0  0  0  0  # atno 6907 bound_to 6896
  150.9874  133.6175  159.2720 H   0  0  0  0  0  0  0  0  0  0  0  0  # atno 6908 bound_to 6896
  151.3331  135.0852  159.9398 H   0  0  0  0  0  0  0  0  0  0  0  0  # atno 6909 bound_to 6896
  145.3119  140.9402  143.2765 H   0  0  0  0  0  0  0  0  0  0  0  0  # atno 7974 bound_to 7965
  154.8008  140.0455  157.1271 H   0  0  0  0  0  0  0  0  0  0  0  0  # atno 8008 bound_to 7997
  154.9481  140.3061  155.5068 H   0  0  0  0  0  0  0  0  0  0  0  0  # atno 8009 bound_to 7997
  156.2961  140.2293  156.4556 H   0  0  0  0  0  0  0  0  0  0  0  0  # atno 8010 bound_to 7997
  140.4803  144.0626  150.6263 H   0  0  0  0  0  0  0  0  0  0  0  0  # atno 10167 bound_to 10162
  157.3976  130.7841  149.7321 H   0  0  0  0  0  0  0  0  0  0  0  0  # atno 10718 bound_to 10713
  153.8846  135.3040  155.3446 H   0  0  0  0  0  0  0  0  0  0  0  0  # atno 10763 bound_to 10752
  154.7745  135.4868  153.9719 H   0  0  0  0  0  0  0  0  0  0  0  0  # atno 10764 bound_to 10752
  153.1332  135.6808  153.9242 H   0  0  0  0  0  0  0  0  0  0  0  0  # atno 10765 bound_to 10752
  139.9655  134.6989  156.0555 H   0  0  0  0  0  0  0  0  0  0  0  0  # atno 11005 bound_to 11000
  144.9009  139.4651  143.6633 LP  0  0  0  0  0  0  0  0  0  0  0  0  # atno 17320 bound_to 7965
  146.3115  139.7762  142.9016 LP  0  0  0  0  0  0  0  0  0  0  0  0  # atno 17321 bound_to 7965
  140.3866  143.2774  152.0109 LP  0  0  0  0  0  0  0  0  0  0  0  0  # atno 17342 bound_to 10162
  139.4832  144.6112  151.7430 LP  0  0  0  0  0  0  0  0  0  0  0  0  # atno 17343 bound_to 10162
  155.9814  130.4019  150.3472 LP  0  0  0  0  0  0  0  0  0  0  0  0  # atno 17370 bound_to 10713
  157.1595  131.0341  151.2847 LP  0  0  0  0  0  0  0  0  0  0  0  0  # atno 17371 bound_to 10713
  141.1334  133.6581  156.3527 LP  0  0  0  0  0  0  0  0  0  0  0  0  # atno 17394 bound_to 11000
  140.5407  134.6123  157.5379 LP  0  0  0  0  0  0  0  0  0  0  0  0  # atno 17395 bound_to 11000

$$$$
