AV-unprocessed.smi:1447|AV-procd|sdf|5892|dock2
  -GOLD-   22720 5573D 1   1.00000     0.00000
 Structure written by MMmdl.
 48 50  0  0  0  0  0  0  0  0  2 V2000
  151.0039  140.9459  156.0630 C   0  0  0  0  0  0  0  0  0  0  0  0
  150.9816  140.0304  154.9821 O   0  0  0  0  0  0  0  0  0  0  0  0
  151.9378  138.9942  155.1281 C   0  0  0  0  0  0  0  0  0  0  0  0
  151.4778  137.7751  154.3143 C   0  0  0  0  0  0  0  0  0  0  0  0
  150.6149  136.8933  155.1069 N   0  0  0  0  0  0  0  0  0  0  0  0
  149.3197  136.7894  154.6265 N   0  0  0  0  0  0  0  0  0  0  0  0
  148.4604  136.0355  155.2329 C   0  0  0  0  0  0  0  0  0  0  0  0
  147.0589  135.8950  154.7484 C   0  0  0  0  0  0  0  0  0  0  0  0
  146.1130  135.7479  155.5244 O   0  0  0  0  0  0  0  0  0  0  0  0
  146.9026  135.9415  153.4128 N   0  0  0  0  0  0  0  0  0  0  0  0
  145.6299  135.8223  152.7084 C   0  0  2  0  0  0  0  0  0  0  0  0
  144.9354  134.5089  153.1045 C   0  0  0  0  0  0  0  0  0  0  0  0
  143.6303  134.3063  152.3109 C   0  0  0  0  0  0  0  0  0  0  0  0
  143.8524  134.3682  150.8432 N   0  3  2  0  0  0  0  0  0  0  0  0
  144.5066  133.1558  150.2972 C   0  0  0  0  0  0  0  0  0  0  0  0
  143.9227  132.6910  148.9834 C   0  0  0  0  0  0  0  0  0  0  0  0
  143.6028  131.9455  150.2602 C   0  0  0  0  0  0  0  0  0  0  0  0
  144.5165  135.6315  150.4314 C   0  0  0  0  0  0  0  0  0  0  0  0
  145.8408  135.8628  151.1829 C   0  0  0  0  0  0  0  0  0  0  0  0
  148.8338  135.2888  156.4222 C   0  0  0  0  0  0  0  0  0  0  0  0
  150.1017  135.3967  156.8758 C   0  0  0  0  0  0  0  0  0  0  0  0
  151.0952  136.2376  156.2064 C   0  0  0  0  0  0  0  0  0  0  0  0
  152.2584  136.3434  156.5939 O   0  0  0  0  0  0  0  0  0  0  0  0
  150.2542  141.7208  155.9030 H   0  0  0  0  0  0  0  0  0  0  0  0
  151.9768  141.4317  156.1485 H   0  0  0  0  0  0  0  0  0  0  0  0
  150.7768  140.4481  157.0069 H   0  0  0  0  0  0  0  0  0  0  0  0
  152.9124  139.3348  154.7748 H   0  0  0  0  0  0  0  0  0  0  0  0
  152.0427  138.7315  156.1820 H   0  0  0  0  0  0  0  0  0  0  0  0
  150.9614  138.1023  153.4101 H   0  0  0  0  0  0  0  0  0  0  0  0
  152.3520  137.2226  153.9644 H   0  0  0  0  0  0  0  0  0  0  0  0
  147.7307  136.0651  152.8474 H   0  0  0  0  0  0  0  0  0  0  0  0
  144.9821  136.6514  153.0004 H   0  0  0  0  0  0  0  0  0  0  0  0
  145.6057  133.6653  152.9344 H   0  0  0  0  0  0  0  0  0  0  0  0
  144.7156  134.5122  154.1730 H   0  0  0  0  0  0  0  0  0  0  0  0
  143.1661  133.3562  152.5780 H   0  0  0  0  0  0  0  0  0  0  0  0
  142.9155  135.0838  152.5835 H   0  0  0  0  0  0  0  0  0  0  0  0
  145.5709  133.0398  150.4929 H   0  0  0  0  0  0  0  0  0  0  0  0
  143.1270  133.2826  148.5342 H   0  0  0  0  0  0  0  0  0  0  0  0
  144.5958  132.2063  148.2790 H   0  0  0  0  0  0  0  0  0  0  0  0
  144.0643  130.9692  150.3961 H   0  0  0  0  0  0  0  0  0  0  0  0
  142.5937  132.0416  150.6574 H   0  0  0  0  0  0  0  0  0  0  0  0
  144.6853  135.6307  149.3540 H   0  0  0  0  0  0  0  0  0  0  0  0
  143.8354  136.4592  150.6339 H   0  0  0  0  0  0  0  0  0  0  0  0
  146.2607  136.8249  150.8870 H   0  0  0  0  0  0  0  0  0  0  0  0
  146.5716  135.1089  150.8869 H   0  0  0  0  0  0  0  0  0  0  0  0
  148.1216  134.6602  156.9369 H   0  0  0  0  0  0  0  0  0  0  0  0
  150.3931  134.8464  157.7582 H   0  0  0  0  0  0  0  0  0  0  0  0
  142.9343  134.3858  150.4222 H   0  0  0  0  0  0  0  0  0  0  0  0
  1  2  1  0  0  0  0
  1 24  1  0  0  0  0
  1 25  1  0  0  0  0
  1 26  1  0  0  0  0
  2  3  1  0  0  0  0
  3  4  1  0  0  0  0
  3 27  1  0  0  0  0
  3 28  1  0  0  0  0
  4  5  1  0  0  0  0
  4 29  1  0  0  0  0
  4 30  1  0  0  0  0
  5 22  1  0  0  0  0
  5  6  1  0  0  0  0
  6  7  2  0  0  0  0
  7  8  1  0  0  0  0
  7 20  1  0  0  0  0
  8  9  2  0  0  0  0
  8 10  1  0  0  0  0
 10 11  1  0  0  0  0
 10 31  1  0  0  0  0
 11 19  1  0  0  0  0
 11 12  1  0  0  0  0
 11 32  1  0  0  0  0
 12 13  1  0  0  0  0
 12 33  1  0  0  0  0
 12 34  1  0  0  0  0
 13 14  1  0  0  0  0
 13 35  1  0  0  0  0
 13 36  1  0  0  0  0
 14 15  1  0  0  0  0
 14 18  1  0  0  0  0
 14 48  1  0  0  0  0
 15 17  1  0  0  0  0
 15 16  1  0  0  0  0
 15 37  1  0  0  0  0
 16 17  1  0  0  0  0
 16 38  1  0  0  0  0
 16 39  1  0  0  0  0
 17 40  1  0  0  0  0
 17 41  1  0  0  0  0
 18 19  1  0  0  0  0
 18 42  1  0  0  0  0
 18 43  1  0  0  0  0
 19 44  1  0  0  0  0
 19 45  1  0  0  0  0
 20 21  2  0  0  0  0
 20 46  1  0  0  0  0
 21 22  1  0  0  0  0
 21 47  1  0  0  0  0
 22 23  2  0  0  0  0
M  CHG  1  14   1
M  END
> <s_m_source_file>
AV-unprocessed.smi

> <i_m_source_file_index>
1447

> <i_lp_mmshare_version>
43012

> <i_f3d_flags>
0

> <s_epik_input>
W0NIM11PW0NIMl1bQ0gyXW4xbmMoW2NIXVtjSF1jMT1PKUMoPU8pW05IXVtDSF0yW0NIMl1bQ0gyXU4oW0NIMl1bQ0gyXTIpW0NIXTNbQ0gyXVtDSDJdMw==

> <s_epik_cmdline>
J2VwaWtfcHl0aG9uJywgJy1waCcsICc3LjAnLCAnLXRuJywgJzgnLCAnLW1hJywgJzIwMCcsICctbWV0YWxfYmluZGluZycsICctaW1hZScsICc8aW5maWxlLm1hZT4nLCAnLW9tYWUnLCAnPG91dGZpbGUubWFlPic=

> <r_lp_tautomer_probability>
1

> <r_epik_Ionization_Penalty>
0.168623

> <r_epik_Ionization_Penalty_Charging>
0.16862

> <r_epik_Ionization_Penalty_Neutral>
2.93027e-06

> <r_epik_State_Penalty>
0.157986

> <r_epik_Charging_Adjusted_Penalty>
0.326605

> <i_epik_Tot_Q>
1

> <i_epik_Tot_abs_Q>
1

> <r_epik_Metal_State_Penalty>
0.157986

> <b_epik_Metal_Only>
0

> <s_lp_Force_Field>
OPLS_2005

> <r_lp_Energy>
47.6191

> <b_lp_Chiralities_Consistent>
1

> <s_lp_Variant>
AV-unprocessed.smi:1447-2

> <Gold.Version>
5.8.1

> <Gold.Id.Protein>
6NUR|6NUR_protein|mol2

> <Gold.PLP.Fitness>
48.9855

> <Gold.PLP.PLP>
-35.5944

> <Gold.PLP.part.hbond>
-3.9860

> <Gold.PLP.part.metal>
0.0000

> <Gold.PLP.part.buried>
-3.7475

> <Gold.PLP.part.nonpolar>
-30.8509

> <Gold.PLP.part.repulsive>
2.6963

> <Gold.PLP.ligand.clash>
0.0000

> <Gold.PLP.ligand.torsion>
1.4600

> <Gold.PLP.Chemscore.Hbond>
5.0000

> <Gold.PLP.Chemscore.CHOScore>
0.0000

> <Gold.PLP.Chemscore.Metal>
0.0000

> <Gold.Chemscore.Hbonds>
donor molecule, donor type, donor heavy atom, donor atom, acceptor molecule, acceptor atom, score
      L1  H    10    31       P1  7948  1.00
      L1  H    14    48       P1 10186  1.62
      P1  H  7989  7998       L1     2  1.00
      P1  H 10752 10763       L1    23  0.90

> <Gold.PLP.Chemscore.Internal.Correction>
1.3111

> <Gold.Rescore>
     Score         DG    S(hbond)    S(metal)    S(lipo)     H(rot)  DE(clash)    DE(int)     intcor
     14.15     -19.73       2.53        0.00      88.22       1.76       1.53       4.06       ----

> <Gold.Chemscore.Fitness>
14.1456

> <Gold.Chemscore.DG>
-19.7282

> <Gold.Chemscore.ZeroCoef>
-5.4800

> <Gold.Chemscore.Hbond>
2.5251

> <Gold.Chemscore.Metal>
0.0000

> <Gold.Chemscore.Lipo>
88.2220

> <Gold.Chemscore.Internal_Hbond>
0.0000

> <Gold.Chemscore.DEClash>
1.5255

> <Gold.Chemscore.DEInternal>
4.0572

> <Gold.Chemscore.Rot>
1.7608

> <Gold.Chemscore.Internal.Correction>
   9.000000E+99

> <Gold.Chemscore.Hbonds>
donor molecule, donor type, donor heavy atom, donor atom, acceptor molecule, acceptor atom, score
      L1  H    10    31       P1  7948  0.97
      L1  H    14    48       P1 10186  0.55
      P1  H  7989  7998       L1     2  0.17
      P1  H 10752 10763       L1    23  0.17

> <Gold.Chemscore.Hbond.Weighted>
-8.4340

> <Gold.Chemscore.Metal.Weighted>
-0.0000

> <Gold.Chemscore.Lipo.Weighted>
-10.3220

> <Gold.Chemscore.Internal_Hbond.Weighted>
0.0000

> <Gold.Chemscore.DEClash.Weighted>
1.5255

> <Gold.Chemscore.DEInternal.Weighted>
4.0572

> <Gold.Chemscore.Rot.Weighted>
4.5077

> <Gold.Chemscore.Internal.Correction.Weighted>
   9.000000E+99

> <Gold.Protein.RotatedTorsions>
[ 6907 6896 6895 6894 ] final -109.08 input  -60.11 | X-H torsion
[ 7974 7965 7964 7962 ] final -161.19 input  175.53 | X-H torsion
[ 8008 7997 7996 7995 ] final -174.86 input   59.86 | X-H torsion
[ 10167 10162 10161 10158 ] final -109.47 input  -65.29 | X-H torsion
[ 10718 10713 10712 10709 ] final -177.54 input   66.30 | X-H torsion
[ 10763 10752 10751 10750 ] final   86.90 input  -60.55 | X-H torsion
[ 11005 11000 10999 10996 ] final  -54.02 input  -57.11 | X-H torsion

> <Gold.Protein.ActiveResidues>
 VAL166  LYS551  ARG553  GLY616  TRP617  ASP618  TYR619  PRO620  LYS621  CYS622 
 ASP623  PHE694  ASN695  SER759  ASP760  ASP761  ALA762  ILE779  LEU786  VAL792 
 PHE793  MET794  SER795  GLU796  ALA797  LYS798  CYS799  TRP800  GLU811  SER814 

> <Gold.Protein.RotatedAtoms>
  150.7540  133.9582  159.3507 H   0  0  0  0  0  0  0  0  0  0  0  0  # atno 6907 bound_to 6896
  151.7506  135.0831  160.0339 H   0  0  0  0  0  0  0  0  0  0  0  0  # atno 6908 bound_to 6896
  152.3469  133.6095  159.5952 H   0  0  0  0  0  0  0  0  0  0  0  0  # atno 6909 bound_to 6896
  144.7400  140.3433  143.6130 H   0  0  0  0  0  0  0  0  0  0  0  0  # atno 7974 bound_to 7965
  155.9754  140.1171  157.0774 H   0  0  0  0  0  0  0  0  0  0  0  0  # atno 8008 bound_to 7997
  154.4168  140.1155  156.5431 H   0  0  0  0  0  0  0  0  0  0  0  0  # atno 8009 bound_to 7997
  155.6541  140.3473  155.4761 H   0  0  0  0  0  0  0  0  0  0  0  0  # atno 8010 bound_to 7997
  140.1549  143.4168  152.1468 H   0  0  0  0  0  0  0  0  0  0  0  0  # atno 10167 bound_to 10162
  156.8310  130.9653  151.3106 H   0  0  0  0  0  0  0  0  0  0  0  0  # atno 10718 bound_to 10713
  153.1615  135.4563  154.9778 H   0  0  0  0  0  0  0  0  0  0  0  0  # atno 10763 bound_to 10752
  154.7901  135.3217  154.7799 H   0  0  0  0  0  0  0  0  0  0  0  0  # atno 10764 bound_to 10752
  153.8289  135.6940  153.4871 H   0  0  0  0  0  0  0  0  0  0  0  0  # atno 10765 bound_to 10752
  141.1005  133.6618  156.4258 H   0  0  0  0  0  0  0  0  0  0  0  0  # atno 11005 bound_to 11000
  145.7352  139.1748  143.2408 LP  0  0  0  0  0  0  0  0  0  0  0  0  # atno 17320 bound_to 7965
  146.1176  140.7349  142.9473 LP  0  0  0  0  0  0  0  0  0  0  0  0  # atno 17321 bound_to 7965
  139.5408  144.7254  151.4740 LP  0  0  0  0  0  0  0  0  0  0  0  0  # atno 17342 bound_to 10162
  140.6679  143.8358  150.6964 LP  0  0  0  0  0  0  0  0  0  0  0  0  # atno 17343 bound_to 10162
  157.6406  130.8803  149.9442 LP  0  0  0  0  0  0  0  0  0  0  0  0  # atno 17370 bound_to 10713
  156.0934  130.3661  150.0352 LP  0  0  0  0  0  0  0  0  0  0  0  0  # atno 17371 bound_to 10713
  140.5034  134.6464  157.5257 LP  0  0  0  0  0  0  0  0  0  0  0  0  # atno 17394 bound_to 11000
  139.9855  134.7069  155.9782 LP  0  0  0  0  0  0  0  0  0  0  0  0  # atno 17395 bound_to 11000

$$$$
