AV-unprocessed.smi:1824|AV-procd|sdf|7407|dock9
  -GOLD-   22720 9 83D 1   1.00000     0.00000
 Structure written by MMmdl.
 45 47  0  0  0  0  0  0  0  0  2 V2000
  148.6742  133.3589  158.3320 C   0  0  0  0  0  0  0  0  0  0  0  0
  148.1987  134.7891  158.0241 C   0  0  2  0  0  0  0  0  0  0  0  0
  149.3206  135.7033  157.4913 C   0  0  0  0  0  0  0  0  0  0  0  0
  150.2602  136.1124  158.5343 N   0  0  0  0  0  0  0  0  0  0  0  0
  151.3066  137.0069  158.0358 C   0  0  0  0  0  0  0  0  0  0  0  0
  150.8201  138.3761  157.5200 C   0  0  2  0  0  0  0  0  0  0  0  0
  150.3871  138.2196  156.1830 O   0  0  0  0  0  0  0  0  0  0  0  0
  151.9426  139.4306  157.5786 C   0  0  0  0  0  0  0  0  0  0  0  0
  151.4416  140.8079  157.4591 N   0  0  0  0  0  0  0  0  0  0  0  0
  150.6935  141.3763  156.4750 C   0  0  0  0  0  0  0  0  0  0  0  0
  150.4821  142.6772  156.8176 N   0  3  0  0  0  0  0  0  0  0  0  0
  151.1063  142.9456  158.0377 C   0  0  0  0  0  0  0  0  0  0  0  0
  151.1752  144.1151  158.7879 C   0  0  0  0  0  0  0  0  0  0  0  0
  151.9006  144.0531  159.9958 C   0  0  0  0  0  0  0  0  0  0  0  0
  151.9999  145.1635  160.7643 F   0  0  0  0  0  0  0  0  0  0  0  0
  152.5244  142.8597  160.4168 C   0  0  0  0  0  0  0  0  0  0  0  0
  153.2134  142.8441  161.5823 F   0  0  0  0  0  0  0  0  0  0  0  0
  152.4459  141.6798  159.6480 C   0  0  0  0  0  0  0  0  0  0  0  0
  151.7259  141.7492  158.4558 C   0  0  0  0  0  0  0  0  0  0  0  0
  149.5146  136.7401  159.6182 C   0  0  0  0  0  0  0  0  0  0  0  0
  148.4391  135.8039  160.1973 C   0  0  1  0  0  0  0  0  0  0  0  0
  147.5999  136.4901  161.2804 C   0  0  0  0  0  0  0  0  0  0  0  0
  147.5613  135.3899  159.1523 O   0  0  0  0  0  0  0  0  0  0  0  0
  149.0534  132.8747  157.4318 H   0  0  0  0  0  0  0  0  0  0  0  0
  147.8541  132.7508  158.7137 H   0  0  0  0  0  0  0  0  0  0  0  0
  149.4746  133.3426  159.0712 H   0  0  0  0  0  0  0  0  0  0  0  0
  147.4363  134.7097  157.2489 H   0  0  0  0  0  0  0  0  0  0  0  0
  149.8386  135.1849  156.6858 H   0  0  0  0  0  0  0  0  0  0  0  0
  148.8681  136.5902  157.0452 H   0  0  0  0  0  0  0  0  0  0  0  0
  152.0460  137.1616  158.8231 H   0  0  0  0  0  0  0  0  0  0  0  0
  151.8428  136.5152  157.2225 H   0  0  0  0  0  0  0  0  0  0  0  0
  149.9810  138.7386  158.1124 H   0  0  0  0  0  0  0  0  0  0  0  0
  150.0103  139.0382  155.8966 H   0  0  0  0  0  0  0  0  0  0  0  0
  152.4616  139.3634  158.5357 H   0  0  0  0  0  0  0  0  0  0  0  0
  152.6965  139.2525  156.8113 H   0  0  0  0  0  0  0  0  0  0  0  0
  150.3322  140.8838  155.5836 H   0  0  0  0  0  0  0  0  0  0  0  0
  150.7007  145.0314  158.4687 H   0  0  0  0  0  0  0  0  0  0  0  0
  152.9331  140.7744  159.9773 H   0  0  0  0  0  0  0  0  0  0  0  0
  150.1993  137.0317  160.4155 H   0  0  0  0  0  0  0  0  0  0  0  0
  149.0456  137.6582  159.2599 H   0  0  0  0  0  0  0  0  0  0  0  0
  148.9170  134.9282  160.6377 H   0  0  0  0  0  0  0  0  0  0  0  0
  148.2244  136.8190  162.1113 H   0  0  0  0  0  0  0  0  0  0  0  0
  146.8476  135.8094  161.6794 H   0  0  0  0  0  0  0  0  0  0  0  0
  147.0819  137.3635  160.8836 H   0  0  0  0  0  0  0  0  0  0  0  0
  149.9512  143.3317  156.2570 H   0  0  0  0  0  0  0  0  0  0  0  0
  1  2  1  0  0  0  0
  1 24  1  0  0  0  0
  1 25  1  0  0  0  0
  1 26  1  0  0  0  0
  2 23  1  0  0  0  0
  2  3  1  0  0  0  0
  2 27  1  0  0  0  0
  3  4  1  0  0  0  0
  3 28  1  0  0  0  0
  3 29  1  0  0  0  0
  4  5  1  0  0  0  0
  4 20  1  0  0  0  0
  5  6  1  0  0  0  0
  5 30  1  0  0  0  0
  5 31  1  0  0  0  0
  6  7  1  0  0  0  0
  6  8  1  0  0  0  0
  6 32  1  0  0  0  0
  7 33  1  0  0  0  0
  8  9  1  0  0  0  0
  8 34  1  0  0  0  0
  8 35  1  0  0  0  0
  9 19  1  0  0  0  0
  9 10  1  0  0  0  0
 10 11  2  0  0  0  0
 10 36  1  0  0  0  0
 11 12  1  0  0  0  0
 11 45  1  0  0  0  0
 12 19  2  0  0  0  0
 12 13  1  0  0  0  0
 13 14  2  0  0  0  0
 13 37  1  0  0  0  0
 14 15  1  0  0  0  0
 14 16  1  0  0  0  0
 16 17  1  0  0  0  0
 16 18  2  0  0  0  0
 18 19  1  0  0  0  0
 18 38  1  0  0  0  0
 20 21  1  0  0  0  0
 20 39  1  0  0  0  0
 20 40  1  0  0  0  0
 21 22  1  0  0  0  0
 21 23  1  0  0  0  0
 21 41  1  0  0  0  0
 22 42  1  0  0  0  0
 22 43  1  0  0  0  0
 22 44  1  0  0  0  0
M  CHG  1  11   1
M  END
> <s_m_source_file>
AV-unprocessed.smi

> <i_m_source_file_index>
1824

> <i_lp_mmshare_version>
43012

> <i_f3d_flags>
0

> <s_epik_input>
W0NIM11bQ0BASF0xW0NIMl1OKFtDSDJdW0NASF0oTzEpW0NIM10pW0NIMl1bQ0BIXShbT0hdKVtDSDJdbihbY0hdbjIpYyhjMjMpW2NIXWMoRiljKEYpW2NIXTM=

> <s_epik_cmdline>
J2VwaWtfcHl0aG9uJywgJy1waCcsICc3LjAnLCAnLXRuJywgJzgnLCAnLW1hJywgJzIwMCcsICctbWV0YWxfYmluZGluZycsICctaW1hZScsICc8aW5maWxlLm1hZT4nLCAnLW9tYWUnLCAnPG91dGZpbGUubWFlPic=

> <r_epik_Ionization_Penalty>
2.58709

> <r_epik_Ionization_Penalty_Charging>
2.37273

> <r_epik_Ionization_Penalty_Neutral>
0.214359

> <r_epik_State_Penalty>
2.71799

> <r_epik_Charging_Adjusted_Penalty>
5.09071

> <i_epik_Tot_Q>
1

> <i_epik_Tot_abs_Q>
1

> <r_epik_Metal_State_Penalty>
6.80217

> <b_epik_Metal_Only>
0

> <s_lp_Force_Field>
OPLS_2005

> <r_lp_Energy>
35.5782

> <b_lp_Chiralities_Consistent>
1

> <s_lp_Variant>
AV-unprocessed.smi:1824-15

> <Gold.Version>
5.8.1

> <Gold.Id.Protein>
6NUR|6NUR_protein|mol2

> <Gold.PLP.Fitness>
51.1018

> <Gold.PLP.PLP>
-42.9417

> <Gold.PLP.part.hbond>
-2.0000

> <Gold.PLP.part.metal>
0.0000

> <Gold.PLP.part.buried>
-5.4532

> <Gold.PLP.part.nonpolar>
-36.2296

> <Gold.PLP.part.repulsive>
0.0712

> <Gold.PLP.ligand.clash>
0.0000

> <Gold.PLP.ligand.torsion>
0.3938

> <Gold.PLP.Chemscore.Hbond>
2.9760

> <Gold.PLP.Chemscore.CHOScore>
0.0000

> <Gold.PLP.Chemscore.Metal>
0.0000

> <Gold.Chemscore.Hbonds>
donor molecule, donor type, donor heavy atom, donor atom, acceptor molecule, acceptor atom, score
      L1  H    11    45       P1  8028  2.00
      P1  H  6896  6908       L1     4  0.56

> <Gold.PLP.Chemscore.Internal.Correction>
0.0197

> <Gold.Rescore>
     Score         DG    S(hbond)    S(metal)    S(lipo)     H(rot)  DE(clash)    DE(int)     intcor
     14.07     -15.24       1.26        0.00      98.17       2.32       0.03       1.14       ----

> <Gold.Chemscore.Fitness>
14.0672

> <Gold.Chemscore.DG>
-15.2384

> <Gold.Chemscore.ZeroCoef>
-5.4800

> <Gold.Chemscore.Hbond>
1.2619

> <Gold.Chemscore.Metal>
0.0000

> <Gold.Chemscore.Lipo>
98.1664

> <Gold.Chemscore.Internal_Hbond>
0.0000

> <Gold.Chemscore.DEClash>
0.0296

> <Gold.Chemscore.DEInternal>
1.1416

> <Gold.Chemscore.Rot>
2.3210

> <Gold.Chemscore.Internal.Correction>
   9.000000E+99

> <Gold.Chemscore.Hbonds>
donor molecule, donor type, donor heavy atom, donor atom, acceptor molecule, acceptor atom, score
      L1  H    11    45       P1  8028  1.00
      P1  H  6896  6908       L1     4  0.03

> <Gold.Chemscore.Hbond.Weighted>
-4.2146

> <Gold.Chemscore.Metal.Weighted>
-0.0000

> <Gold.Chemscore.Lipo.Weighted>
-11.4855

> <Gold.Chemscore.Internal_Hbond.Weighted>
0.0000

> <Gold.Chemscore.DEClash.Weighted>
0.0296

> <Gold.Chemscore.DEInternal.Weighted>
1.1416

> <Gold.Chemscore.Rot.Weighted>
5.9416

> <Gold.Chemscore.Internal.Correction.Weighted>
   9.000000E+99

> <Gold.Protein.RotatedTorsions>
[ 6907 6896 6895 6894 ] final  179.48 input  -60.11 | X-H torsion
[ 7974 7965 7964 7962 ] final   36.88 input  175.53 | X-H torsion
[ 8008 7997 7996 7995 ] final  -30.19 input   59.86 | X-H torsion
[ 10167 10162 10161 10158 ] final  -59.14 input  -65.29 | X-H torsion
[ 10718 10713 10712 10709 ] final  111.22 input   66.30 | X-H torsion
[ 10763 10752 10751 10750 ] final  157.13 input  -60.55 | X-H torsion
[ 11005 11000 10999 10996 ] final -104.22 input  -57.11 | X-H torsion

> <Gold.Protein.ActiveResidues>
 VAL166  LYS551  ARG553  GLY616  TRP617  ASP618  TYR619  PRO620  LYS621  CYS622 
 ASP623  PHE694  ASN695  SER759  ASP760  ASP761  ALA762  ILE779  LEU786  VAL792 
 PHE793  MET794  SER795  GLU796  ALA797  LYS798  CYS799  TRP800  GLU811  SER814 

> <Gold.Protein.RotatedAtoms>
  151.6710  133.3314  159.3196 H   0  0  0  0  0  0  0  0  0  0  0  0  # atno 6907 bound_to 6896
  150.7868  134.6863  159.6481 H   0  0  0  0  0  0  0  0  0  0  0  0  # atno 6908 bound_to 6896
  152.3939  134.6400  160.0149 H   0  0  0  0  0  0  0  0  0  0  0  0  # atno 6909 bound_to 6896
  146.1179  139.5962  142.9309 H   0  0  0  0  0  0  0  0  0  0  0  0  # atno 7974 bound_to 7965
  154.4260  140.1798  156.1368 H   0  0  0  0  0  0  0  0  0  0  0  0  # atno 8008 bound_to 7997
  156.0024  140.3358  155.6834 H   0  0  0  0  0  0  0  0  0  0  0  0  # atno 8009 bound_to 7997
  155.6224  140.0661  157.2664 H   0  0  0  0  0  0  0  0  0  0  0  0  # atno 8010 bound_to 7997
  140.6154  143.2400  151.5610 H   0  0  0  0  0  0  0  0  0  0  0  0  # atno 10167 bound_to 10162
  157.6456  131.0947  150.6716 H   0  0  0  0  0  0  0  0  0  0  0  0  # atno 10718 bound_to 10713
  154.1953  135.2793  155.3008 H   0  0  0  0  0  0  0  0  0  0  0  0  # atno 10763 bound_to 10752
  154.5897  135.5564  153.7269 H   0  0  0  0  0  0  0  0  0  0  0  0  # atno 10764 bound_to 10752
  153.0102  135.6365  154.2092 H   0  0  0  0  0  0  0  0  0  0  0  0  # atno 10765 bound_to 10752
  141.1110  133.8705  157.1584 H   0  0  0  0  0  0  0  0  0  0  0  0  # atno 11005 bound_to 11000
  145.5529  141.0411  143.2268 LP  0  0  0  0  0  0  0  0  0  0  0  0  # atno 17320 bound_to 7965
  144.7569  139.7051  143.7250 LP  0  0  0  0  0  0  0  0  0  0  0  0  # atno 17321 bound_to 7965
  139.5394  144.2689  152.1320 LP  0  0  0  0  0  0  0  0  0  0  0  0  # atno 17342 bound_to 10162
  140.1898  144.4763  150.6485 LP  0  0  0  0  0  0  0  0  0  0  0  0  # atno 17343 bound_to 10162
  156.7034  130.4630  149.5567 LP  0  0  0  0  0  0  0  0  0  0  0  0  # atno 17370 bound_to 10713
  156.1779  130.6480  151.0917 LP  0  0  0  0  0  0  0  0  0  0  0  0  # atno 17371 bound_to 10713
  140.0004  135.0030  157.0178 LP  0  0  0  0  0  0  0  0  0  0  0  0  # atno 17394 bound_to 11000
  140.4774  134.1324  155.7212 LP  0  0  0  0  0  0  0  0  0  0  0  0  # atno 17395 bound_to 11000

$$$$
