AV-unprocessed.smi:144|AV-procd|sdf|1195|dock10
  -GOLD-   2262018353D 1   1.00000     0.00000
 Structure written by MMmdl.
 46 48  0  0  0  0  0  0  0  0  1 V2000
  152.2963  138.7259  156.6238 O   0  0  0  0  0  0  0  0  0  0  0  0
  151.4463  139.4981  156.1836 C   0  0  0  0  0  0  0  0  0  0  0  0
  150.7160  139.1189  154.8813 C   0  0  0  0  0  0  0  0  0  0  0  0
  149.8223  137.9411  154.9842 N   0  0  0  0  0  0  0  0  0  0  0  0
  148.4233  138.1339  154.8661 C   0  0  0  0  0  0  0  0  0  0  0  0
  147.9466  139.2548  154.6842 O   0  0  0  0  0  0  0  0  0  0  0  0
  147.6107  136.9261  154.9594 C   0  0  0  0  0  0  0  0  0  0  0  0
  146.2732  137.0162  154.8695 F   0  0  0  0  0  0  0  0  0  0  0  0
  148.1810  135.7154  155.1284 C   0  0  0  0  0  0  0  0  0  0  0  0
  149.5499  135.5400  155.2239 N   0  0  0  0  0  0  0  0  0  0  0  0
  150.1760  134.1715  155.3882 C   0  0  2  0  0  0  0  0  0  0  0  0
  149.2732  133.0881  154.7696 C   0  0  0  0  0  0  0  0  0  0  0  0
  149.1830  132.0595  155.8789 C   0  0  0  0  0  0  0  0  0  0  0  0
  149.3128  132.9278  157.1213 C   0  0  0  0  0  0  0  0  0  0  0  0
  150.3101  133.8700  156.7481 O   0  0  0  0  0  0  0  0  0  0  0  0
  150.4031  136.6623  155.1594 C   0  0  0  0  0  0  0  0  0  0  0  0
  151.6263  136.5264  155.2363 O   0  0  0  0  0  0  0  0  0  0  0  0
  151.1217  140.6737  156.7577 N   0  0  0  0  0  0  0  0  0  0  0  0
  151.6598  141.2841  157.9210 C   0  0  0  0  0  0  0  0  0  0  0  0
  151.2728  142.6143  158.1791 C   0  0  0  0  0  0  0  0  0  0  0  0
  151.7557  143.2978  159.3151 C   0  0  0  0  0  0  0  0  0  0  0  0
  151.3441  144.7362  159.5905 C   0  0  0  0  0  0  0  0  0  0  0  0
  151.8040  145.5177  158.6144 F   0  0  0  0  0  0  0  0  0  0  0  0
  150.0155  144.8369  159.6326 F   0  0  0  0  0  0  0  0  0  0  0  0
  151.8325  145.1708  160.7529 F   0  0  0  0  0  0  0  0  0  0  0  0
  152.6156  142.6293  160.2109 C   0  0  0  0  0  0  0  0  0  0  0  0
  152.9914  141.2885  159.9812 C   0  0  0  0  0  0  0  0  0  0  0  0
  153.9148  140.5644  160.9501 C   0  0  0  0  0  0  0  0  0  0  0  0
  153.4815  139.3221  161.1661 F   0  0  0  0  0  0  0  0  0  0  0  0
  155.1395  140.5077  160.4285 F   0  0  0  0  0  0  0  0  0  0  0  0
  153.9785  141.1930  162.1244 F   0  0  0  0  0  0  0  0  0  0  0  0
  152.5131  140.6204  158.8339 C   0  0  0  0  0  0  0  0  0  0  0  0
  150.1565  139.9919  154.5413 H   0  0  0  0  0  0  0  0  0  0  0  0
  151.4678  138.9759  154.1036 H   0  0  0  0  0  0  0  0  0  0  0  0
  147.5237  134.8616  155.1879 H   0  0  0  0  0  0  0  0  0  0  0  0
  151.1675  134.2395  154.9369 H   0  0  0  0  0  0  0  0  0  0  0  0
  148.2858  133.4986  154.5511 H   0  0  0  0  0  0  0  0  0  0  0  0
  149.7058  132.6949  153.8494 H   0  0  0  0  0  0  0  0  0  0  0  0
  148.2578  131.4832  155.8546 H   0  0  0  0  0  0  0  0  0  0  0  0
  150.0224  131.3656  155.8182 H   0  0  0  0  0  0  0  0  0  0  0  0
  148.3734  133.4389  157.3361 H   0  0  0  0  0  0  0  0  0  0  0  0
  149.6074  132.3609  158.0047 H   0  0  0  0  0  0  0  0  0  0  0  0
  150.4619  141.2382  156.2426 H   0  0  0  0  0  0  0  0  0  0  0  0
  150.6048  143.1141  157.4924 H   0  0  0  0  0  0  0  0  0  0  0  0
  152.9817  143.1518  161.0823 H   0  0  0  0  0  0  0  0  0  0  0  0
  152.8019  139.5924  158.6795 H   0  0  0  0  0  0  0  0  0  0  0  0
  1  2  2  0  0  0  0
  2  3  1  0  0  0  0
  2 18  1  0  0  0  0
  3  4  1  0  0  0  0
  3 33  1  0  0  0  0
  3 34  1  0  0  0  0
  4 16  1  0  0  0  0
  4  5  1  0  0  0  0
  5  6  2  0  0  0  0
  5  7  1  0  0  0  0
  7  8  1  0  0  0  0
  7  9  2  0  0  0  0
  9 10  1  0  0  0  0
  9 35  1  0  0  0  0
 10 11  1  0  0  0  0
 10 16  1  0  0  0  0
 11 15  1  0  0  0  0
 11 12  1  0  0  0  0
 11 36  1  0  0  0  0
 12 13  1  0  0  0  0
 12 37  1  0  0  0  0
 12 38  1  0  0  0  0
 13 14  1  0  0  0  0
 13 39  1  0  0  0  0
 13 40  1  0  0  0  0
 14 15  1  0  0  0  0
 14 41  1  0  0  0  0
 14 42  1  0  0  0  0
 16 17  2  0  0  0  0
 18 19  1  0  0  0  0
 18 43  1  0  0  0  0
 19 32  1  0  0  0  0
 19 20  2  0  0  0  0
 20 21  1  0  0  0  0
 20 44  1  0  0  0  0
 21 22  1  0  0  0  0
 21 26  2  0  0  0  0
 22 23  1  0  0  0  0
 22 24  1  0  0  0  0
 22 25  1  0  0  0  0
 26 27  1  0  0  0  0
 26 45  1  0  0  0  0
 27 28  1  0  0  0  0
 27 32  2  0  0  0  0
 28 29  1  0  0  0  0
 28 30  1  0  0  0  0
 28 31  1  0  0  0  0
 32 46  1  0  0  0  0
M  END
> <s_m_source_file>
AV-unprocessed.smi

> <i_m_source_file_index>
144

> <i_lp_mmshare_version>
43012

> <i_f3d_flags>
0

> <s_epik_input>
RkMoRikoRiljKFtjSF0xKVtjSF1jKEMoRikoRilGKVtjSF1jMVtOSF1DKD1PKVtDSDJdbjJjKD1PKWMoRilbY0hdbihjMj1PKVtDQEBIXTNbQ0gyXVtDSDJdW0NIMl1PMw==

> <s_epik_cmdline>
J2VwaWtfcHl0aG9uJywgJy1waCcsICc3LjAnLCAnLXRuJywgJzgnLCAnLW1hJywgJzIwMCcsICctbWV0YWxfYmluZGluZycsICctaW1hZScsICc8aW5maWxlLm1hZT4nLCAnLW9tYWUnLCAnPG91dGZpbGUubWFlPic=

> <r_lp_tautomer_probability>
1

> <r_epik_Ionization_Penalty>
3.68082e-06

> <r_epik_Ionization_Penalty_Charging>
3.88729e-08

> <r_epik_Ionization_Penalty_Neutral>
3.64194e-06

> <r_epik_State_Penalty>
-0

> <r_epik_Charging_Adjusted_Penalty>
3.88729e-08

> <i_epik_Tot_Q>
0

> <i_epik_Tot_abs_Q>
0

> <r_epik_Metal_State_Penalty>
-0

> <b_epik_Metal_Only>
0

> <s_epik_Chemistry_Notes>
This compound contains an acetal/aminal-like group ( X-CH(R)-Y where X, Y are N, S, or O) that may be acid/base labile, releasing an aldehyde.

> <s_lp_Force_Field>
OPLS_2005

> <r_lp_Energy>
34.4133

> <b_lp_Chiralities_Consistent>
1

> <s_lp_Variant>
AV-unprocessed.smi:144-1

> <Gold.Version>
5.8.1

> <Gold.Id.Protein>
6NUR|6NUR_protein|mol2

> <Gold.PLP.Fitness>
57.6286

> <Gold.PLP.PLP>
-57.6475

> <Gold.PLP.part.hbond>
-1.0258

> <Gold.PLP.part.metal>
0.0000

> <Gold.PLP.part.buried>
-7.1995

> <Gold.PLP.part.nonpolar>
-50.1146

> <Gold.PLP.part.repulsive>
0.3070

> <Gold.PLP.ligand.clash>
1.2973

> <Gold.PLP.ligand.torsion>
1.6077

> <Gold.PLP.Chemscore.Hbond>
1.0000

> <Gold.PLP.Chemscore.CHOScore>
0.0000

> <Gold.PLP.Chemscore.Metal>
0.0000

> <Gold.Chemscore.Hbonds>
donor molecule, donor type, donor heavy atom, donor atom, acceptor molecule, acceptor atom, score
      P1  H 10752 10764       L1    17  1.00

> <Gold.PLP.Chemscore.Internal.Correction>
1.4939

> <Gold.Rescore>
     Score         DG    S(hbond)    S(metal)    S(lipo)     H(rot)  DE(clash)    DE(int)     intcor
     11.40     -15.66       1.00        0.00      98.59       1.83       0.16       4.10       ----

> <Gold.Chemscore.Fitness>
11.4028

> <Gold.Chemscore.DG>
-15.6605

> <Gold.Chemscore.ZeroCoef>
-5.4800

> <Gold.Chemscore.Hbond>
0.9992

> <Gold.Chemscore.Metal>
0.0000

> <Gold.Chemscore.Lipo>
98.5850

> <Gold.Chemscore.Internal_Hbond>
0.0000

> <Gold.Chemscore.DEClash>
0.1571

> <Gold.Chemscore.DEInternal>
4.1007

> <Gold.Chemscore.Rot>
1.8325

> <Gold.Chemscore.Internal.Correction>
   9.000000E+99

> <Gold.Chemscore.Hbonds>
donor molecule, donor type, donor heavy atom, donor atom, acceptor molecule, acceptor atom, score
      P1  H 10752 10764       L1    17  1.00

> <Gold.Chemscore.Hbond.Weighted>
-3.3372

> <Gold.Chemscore.Metal.Weighted>
-0.0000

> <Gold.Chemscore.Lipo.Weighted>
-11.5344

> <Gold.Chemscore.Internal_Hbond.Weighted>
0.0000

> <Gold.Chemscore.DEClash.Weighted>
0.1571

> <Gold.Chemscore.DEInternal.Weighted>
4.1007

> <Gold.Chemscore.Rot.Weighted>
4.6911

> <Gold.Chemscore.Internal.Correction.Weighted>
   9.000000E+99

> <Gold.Protein.RotatedTorsions>
[ 6907 6896 6895 6894 ] final   38.44 input  -60.11 | X-H torsion
[ 7974 7965 7964 7962 ] final   84.97 input  175.53 | X-H torsion
[ 8008 7997 7996 7995 ] final   -3.19 input   59.86 | X-H torsion
[ 10167 10162 10161 10158 ] final   43.65 input  -65.29 | X-H torsion
[ 10718 10713 10712 10709 ] final  -24.01 input   66.30 | X-H torsion
[ 10763 10752 10751 10750 ] final  -65.01 input  -60.55 | X-H torsion
[ 11005 11000 10999 10996 ] final -153.43 input  -57.11 | X-H torsion

> <Gold.Protein.ActiveResidues>
 VAL166  LYS551  ARG553  GLY616  TRP617  ASP618  TYR619  PRO620  LYS621  CYS622 
 ASP623  PHE694  ASN695  SER759  ASP760  ASP761  ALA762  ILE779  LEU786  VAL792 
 PHE793  MET794  SER795  GLU796  ALA797  LYS798  CYS799  TRP800  GLU811  SER814 

> <Gold.Protein.RotatedAtoms>
  152.1565  134.8947  160.0544 H   0  0  0  0  0  0  0  0  0  0  0  0  # atno 6907 bound_to 6896
  151.9959  133.3803  159.4171 H   0  0  0  0  0  0  0  0  0  0  0  0  # atno 6908 bound_to 6896
  150.6882  134.3809  159.5077 H   0  0  0  0  0  0  0  0  0  0  0  0  # atno 6909 bound_to 6896
  145.5917  139.2339  143.2295 H   0  0  0  0  0  0  0  0  0  0  0  0  # atno 7974 bound_to 7965
  154.6275  140.2515  155.7473 H   0  0  0  0  0  0  0  0  0  0  0  0  # atno 8008 bound_to 7997
  156.2461  140.2914  156.0532 H   0  0  0  0  0  0  0  0  0  0  0  0  # atno 8009 bound_to 7997
  155.1797  140.0388  157.2870 H   0  0  0  0  0  0  0  0  0  0  0  0  # atno 8010 bound_to 7997
  140.3422  144.2456  150.6154 H   0  0  0  0  0  0  0  0  0  0  0  0  # atno 10167 bound_to 10162
  156.4834  130.4550  149.6798 H   0  0  0  0  0  0  0  0  0  0  0  0  # atno 10718 bound_to 10713
  154.3386  135.6161  153.5585 H   0  0  0  0  0  0  0  0  0  0  0  0  # atno 10763 bound_to 10752
  152.9806  135.5764  154.4878 H   0  0  0  0  0  0  0  0  0  0  0  0  # atno 10764 bound_to 10752
  154.4578  135.2855  155.1712 H   0  0  0  0  0  0  0  0  0  0  0  0  # atno 10765 bound_to 10752
  140.7082  134.3861  157.5201 H   0  0  0  0  0  0  0  0  0  0  0  0  # atno 11005 bound_to 11000
  146.1642  140.6743  142.9263 LP  0  0  0  0  0  0  0  0  0  0  0  0  # atno 17320 bound_to 7965
  144.7348  140.4778  143.6911 LP  0  0  0  0  0  0  0  0  0  0  0  0  # atno 17321 bound_to 7965
  140.5298  143.2246  151.8256 LP  0  0  0  0  0  0  0  0  0  0  0  0  # atno 17342 bound_to 10162
  139.4839  144.4734  151.9397 LP  0  0  0  0  0  0  0  0  0  0  0  0  # atno 17343 bound_to 10162
  156.3499  130.7426  151.2384 LP  0  0  0  0  0  0  0  0  0  0  0  0  # atno 17370 bound_to 10713
  157.7481  131.0380  150.4482 LP  0  0  0  0  0  0  0  0  0  0  0  0  # atno 17371 bound_to 10713
  139.8878  134.8872  156.2506 LP  0  0  0  0  0  0  0  0  0  0  0  0  # atno 17394 bound_to 11000
  141.0106  133.7098  156.1106 LP  0  0  0  0  0  0  0  0  0  0  0  0  # atno 17395 bound_to 11000

$$$$
