AV-unprocessed.smi:3160|AV-procd|sdf|12051|dock4
  -GOLD-   2272017483D 1   1.00000     0.00000
 Structure written by MMmdl.
 40 41  0  0  0  0  0  0  0  0  2 V2000
  153.3384  142.9369  163.2126 C   0  0  0  0  0  0  0  0  0  0  0  0
  153.1422  142.6297  161.7561 C   0  0  0  0  0  0  0  0  0  0  0  0
  153.6213  141.5048  161.0271 C   0  0  0  0  0  0  0  0  0  0  0  0
  153.2718  141.5321  159.7514 N   0  0  0  0  0  0  0  0  0  0  0  0
  152.5602  142.6718  159.6178 N   0  0  0  0  0  0  0  0  0  0  0  0
  152.0019  143.0280  158.3196 C   0  0  2  0  0  0  0  0  0  0  0  0
  151.5220  144.4907  158.3453 C   0  0  0  0  0  0  0  0  0  0  0  0
  150.8958  142.0347  157.8757 C   0  0  2  0  0  0  0  0  0  0  0  0
  151.3372  140.5614  157.9481 C   0  0  0  0  0  0  0  0  0  0  0  0
  150.4623  142.3330  156.4913 N   0  3  0  0  0  0  0  0  0  0  0  0
  149.5513  141.3395  155.8824 C   0  0  0  0  0  0  0  0  0  0  0  0
  150.2878  140.2113  155.1555 C   0  0  0  0  0  0  0  0  0  0  0  0
  149.2566  139.6432  154.1733 C   0  0  0  0  0  0  0  0  0  0  0  0
  148.2198  140.7554  153.9450 C   0  0  0  0  0  0  0  0  0  0  0  0
  148.6826  141.9516  154.7839 C   0  0  0  0  0  0  0  0  0  0  0  0
  152.4653  143.3524  160.8154 C   0  0  0  0  0  0  0  0  0  0  0  0
  154.1873  142.3946  163.6297 H   0  0  0  0  0  0  0  0  0  0  0  0
  152.4623  142.6660  163.8020 H   0  0  0  0  0  0  0  0  0  0  0  0
  153.5236  143.9983  163.3793 H   0  0  0  0  0  0  0  0  0  0  0  0
  154.2095  140.6734  161.3864 H   0  0  0  0  0  0  0  0  0  0  0  0
  152.8136  142.9670  157.5916 H   0  0  0  0  0  0  0  0  0  0  0  0
  151.2180  144.8306  157.3554 H   0  0  0  0  0  0  0  0  0  0  0  0
  152.3178  145.1563  158.6822 H   0  0  0  0  0  0  0  0  0  0  0  0
  150.6738  144.6222  159.0175 H   0  0  0  0  0  0  0  0  0  0  0  0
  150.0465  142.1440  158.5519 H   0  0  0  0  0  0  0  0  0  0  0  0
  151.5651  140.2548  158.9691 H   0  0  0  0  0  0  0  0  0  0  0  0
  152.2252  140.3833  157.3408 H   0  0  0  0  0  0  0  0  0  0  0  0
  150.5496  139.8994  157.5864 H   0  0  0  0  0  0  0  0  0  0  0  0
  149.9960  143.2290  156.5023 H   0  0  0  0  0  0  0  0  0  0  0  0
  148.8982  140.9172  156.6481 H   0  0  0  0  0  0  0  0  0  0  0  0
  151.1340  140.6163  154.5980 H   0  0  0  0  0  0  0  0  0  0  0  0
  150.6750  139.4516  155.8350 H   0  0  0  0  0  0  0  0  0  0  0  0
  149.7280  139.3278  153.2415 H   0  0  0  0  0  0  0  0  0  0  0  0
  148.7686  138.7678  154.6032 H   0  0  0  0  0  0  0  0  0  0  0  0
  148.1286  141.0200  152.8910 H   0  0  0  0  0  0  0  0  0  0  0  0
  147.2385  140.4180  154.2815 H   0  0  0  0  0  0  0  0  0  0  0  0
  147.8483  142.5302  155.1821 H   0  0  0  0  0  0  0  0  0  0  0  0
  149.2808  142.6184  154.1607 H   0  0  0  0  0  0  0  0  0  0  0  0
  151.9284  144.2857  160.8997 H   0  0  0  0  0  0  0  0  0  0  0  0
  151.2815  142.4089  155.9056 H   0  0  0  0  0  0  0  0  0  0  0  0
  1  2  1  0  0  0  0
  1 17  1  0  0  0  0
  1 18  1  0  0  0  0
  1 19  1  0  0  0  0
  2 16  2  0  0  0  0
  2  3  1  0  0  0  0
  3  4  2  0  0  0  0
  3 20  1  0  0  0  0
  4  5  1  0  0  0  0
  5  6  1  0  0  0  0
  5 16  1  0  0  0  0
  6  7  1  0  0  0  0
  6  8  1  0  0  0  0
  6 21  1  0  0  0  0
  7 22  1  0  0  0  0
  7 23  1  0  0  0  0
  7 24  1  0  0  0  0
  8  9  1  0  0  0  0
  8 10  1  0  0  0  0
  8 25  1  0  0  0  0
  9 26  1  0  0  0  0
  9 27  1  0  0  0  0
  9 28  1  0  0  0  0
 10 11  1  0  0  0  0
 10 29  1  0  0  0  0
 10 40  1  0  0  0  0
 11 15  1  0  0  0  0
 11 12  1  0  0  0  0
 11 30  1  0  0  0  0
 12 13  1  0  0  0  0
 12 31  1  0  0  0  0
 12 32  1  0  0  0  0
 13 14  1  0  0  0  0
 13 33  1  0  0  0  0
 13 34  1  0  0  0  0
 14 15  1  0  0  0  0
 14 35  1  0  0  0  0
 14 36  1  0  0  0  0
 15 37  1  0  0  0  0
 15 38  1  0  0  0  0
 16 39  1  0  0  0  0
M  CHG  1  10   1
M  END
> <s_m_source_file>
AV-unprocessed.smi

> <i_m_source_file_index>
3160

> <i_lp_mmshare_version>
43012

> <i_f3d_flags>
0

> <s_epik_input>
W0NIM11jMVtjSF1ubihbY0hdMSlbQ0BIXShbQ0gzXSlbQ0BIXShbQ0gzXSlbTkhdW0NIXTJbQ0gyXVtDSDJdW0NIMl1bQ0gyXTI=

> <s_epik_cmdline>
J2VwaWtfcHl0aG9uJywgJy1waCcsICc3LjAnLCAnLXRuJywgJzgnLCAnLW1hJywgJzIwMCcsICctbWV0YWxfYmluZGluZycsICctaW1hZScsICc8aW5maWxlLm1hZT4nLCAnLW9tYWUnLCAnPG91dGZpbGUubWFlPic=

> <r_lp_tautomer_probability>
1

> <r_epik_Ionization_Penalty>
0.00117636

> <r_epik_Ionization_Penalty_Charging>
0.00115264

> <r_epik_Ionization_Penalty_Neutral>
2.37123e-05

> <r_epik_State_Penalty>
-0

> <r_epik_Charging_Adjusted_Penalty>
0.00115264

> <i_epik_Tot_Q>
1

> <i_epik_Tot_abs_Q>
1

> <r_epik_Metal_State_Penalty>
-0

> <b_epik_Metal_Only>
0

> <s_lp_Force_Field>
OPLS_2005

> <r_lp_Energy>
32.1139

> <b_lp_Chiralities_Consistent>
1

> <s_lp_Variant>
AV-unprocessed.smi:3160-1

> <Gold.Version>
5.8.1

> <Gold.Id.Protein>
6NUR|6NUR_protein|mol2

> <Gold.PLP.Fitness>
47.0794

> <Gold.PLP.PLP>
-42.2149

> <Gold.PLP.part.hbond>
-1.0000

> <Gold.PLP.part.metal>
0.0000

> <Gold.PLP.part.buried>
-1.6538

> <Gold.PLP.part.nonpolar>
-39.5429

> <Gold.PLP.part.repulsive>
0.0724

> <Gold.PLP.ligand.clash>
0.0000

> <Gold.PLP.ligand.torsion>
0.6108

> <Gold.PLP.Chemscore.Hbond>
2.0000

> <Gold.PLP.Chemscore.CHOScore>
0.0000

> <Gold.PLP.Chemscore.Metal>
0.0000

> <Gold.Chemscore.Hbonds>
donor molecule, donor type, donor heavy atom, donor atom, acceptor molecule, acceptor atom, score
      L1  H    10    29       P1  8028  1.95

> <Gold.PLP.Chemscore.Internal.Correction>
0.0861

> <Gold.Rescore>
     Score         DG    S(hbond)    S(metal)    S(lipo)     H(rot)  DE(clash)    DE(int)     intcor
     15.50     -18.59       1.00        0.00     113.51       1.37       0.06       3.03       ----

> <Gold.Chemscore.Fitness>
15.4975

> <Gold.Chemscore.DG>
-18.5868

> <Gold.Chemscore.ZeroCoef>
-5.4800

> <Gold.Chemscore.Hbond>
0.9986

> <Gold.Chemscore.Metal>
0.0000

> <Gold.Chemscore.Lipo>
113.5143

> <Gold.Chemscore.Internal_Hbond>
0.0000

> <Gold.Chemscore.DEClash>
0.0587

> <Gold.Chemscore.DEInternal>
3.0306

> <Gold.Chemscore.Rot>
1.3709

> <Gold.Chemscore.Internal.Correction>
   9.000000E+99

> <Gold.Chemscore.Hbonds>
donor molecule, donor type, donor heavy atom, donor atom, acceptor molecule, acceptor atom, score
      L1  H    10    29       P1  8028  0.90

> <Gold.Chemscore.Hbond.Weighted>
-3.3352

> <Gold.Chemscore.Metal.Weighted>
-0.0000

> <Gold.Chemscore.Lipo.Weighted>
-13.2812

> <Gold.Chemscore.Internal_Hbond.Weighted>
0.0000

> <Gold.Chemscore.DEClash.Weighted>
0.0587

> <Gold.Chemscore.DEInternal.Weighted>
3.0306

> <Gold.Chemscore.Rot.Weighted>
3.5095

> <Gold.Chemscore.Internal.Correction.Weighted>
   9.000000E+99

> <Gold.Protein.RotatedTorsions>
[ 6907 6896 6895 6894 ] final    3.39 input  -60.11 | X-H torsion
[ 7974 7965 7964 7962 ] final   90.13 input  175.53 | X-H torsion
[ 8008 7997 7996 7995 ] final  -32.26 input   59.86 | X-H torsion
[ 10167 10162 10161 10158 ] final  128.30 input  -65.29 | X-H torsion
[ 10718 10713 10712 10709 ] final  162.75 input   66.30 | X-H torsion
[ 10763 10752 10751 10750 ] final   33.19 input  -60.55 | X-H torsion
[ 11005 11000 10999 10996 ] final   95.08 input  -57.11 | X-H torsion

> <Gold.Protein.ActiveResidues>
 VAL166  LYS551  ARG553  GLY616  TRP617  ASP618  TYR619  PRO620  LYS621  CYS622 
 ASP623  PHE694  ASN695  SER759  ASP760  ASP761  ALA762  ILE779  LEU786  VAL792 
 PHE793  MET794  SER795  GLU796  ALA797  LYS798  CYS799  TRP800  GLU811  SER814 

> <Gold.Protein.RotatedAtoms>
  151.6243  135.1029  160.0107 H   0  0  0  0  0  0  0  0  0  0  0  0  # atno 6907 bound_to 6896
  152.4141  133.7006  159.6432 H   0  0  0  0  0  0  0  0  0  0  0  0  # atno 6908 bound_to 6896
  150.8030  133.8489  159.3240 H   0  0  0  0  0  0  0  0  0  0  0  0  # atno 6909 bound_to 6896
  145.5231  139.2280  143.2660 H   0  0  0  0  0  0  0  0  0  0  0  0  # atno 7974 bound_to 7965
  154.4186  140.1742  156.1698 H   0  0  0  0  0  0  0  0  0  0  0  0  # atno 8008 bound_to 7997
  155.9769  140.3381  155.6603 H   0  0  0  0  0  0  0  0  0  0  0  0  # atno 8009 bound_to 7997
  155.6551  140.0694  157.2564 H   0  0  0  0  0  0  0  0  0  0  0  0  # atno 8010 bound_to 7997
  139.5534  144.6830  151.4255 H   0  0  0  0  0  0  0  0  0  0  0  0  # atno 10167 bound_to 10162
  157.1181  131.0485  151.2427 H   0  0  0  0  0  0  0  0  0  0  0  0  # atno 10718 bound_to 10713
  153.0224  135.6393  154.1472 H   0  0  0  0  0  0  0  0  0  0  0  0  # atno 10763 bound_to 10752
  154.1205  135.2847  155.3211 H   0  0  0  0  0  0  0  0  0  0  0  0  # atno 10764 bound_to 10752
  154.6267  135.5506  153.7697 H   0  0  0  0  0  0  0  0  0  0  0  0  # atno 10765 bound_to 10752
  139.8792  134.8880  156.3959 H   0  0  0  0  0  0  0  0  0  0  0  0  # atno 11005 bound_to 11000
  146.2093  140.6044  142.9067 LP  0  0  0  0  0  0  0  0  0  0  0  0  # atno 17320 bound_to 7965
  144.7665  140.5542  143.6699 LP  0  0  0  0  0  0  0  0  0  0  0  0  # atno 17321 bound_to 7965
  140.6802  143.8100  150.7111 LP  0  0  0  0  0  0  0  0  0  0  0  0  # atno 17342 bound_to 10162
  140.1551  143.4324  152.2105 LP  0  0  0  0  0  0  0  0  0  0  0  0  # atno 17343 bound_to 10162
  157.4500  130.7593  149.7143 LP  0  0  0  0  0  0  0  0  0  0  0  0  # atno 17370 bound_to 10713
  155.9835  130.4000  150.3362 LP  0  0  0  0  0  0  0  0  0  0  0  0  # atno 17371 bound_to 10713
  140.9301  133.7585  156.0013 LP  0  0  0  0  0  0  0  0  0  0  0  0  # atno 17394 bound_to 11000
  140.8341  134.3144  157.5338 LP  0  0  0  0  0  0  0  0  0  0  0  0  # atno 17395 bound_to 11000

$$$$
