#       Name:                AV-unprocessed.smi:109
#       Creating user name   scv26
#       Creation time:       Thu Mar 26 18:06:41 2020


#       File generated by GOLD software.
#

@<TRIPOS>MOLECULE
AV-unprocessed.smi:109
    71    74     1
SMALL
NO_CHARGES


@<TRIPOS>ATOM
      1 ****        -3.4603   2.6369   3.8550 O.3            1 S1                 0.0000
      2 ****        -2.6229   2.5133   2.7261 C.3            1 S1                 0.0000
      3 ****        -3.4538   2.1014   1.5003 C.3            1 S1                 0.0000
      4 ****        -2.6080   1.9701   0.2172 C.3            1 S1                 0.0000
      5 ****        -1.6904   0.8354   0.3353 N.pl3          1 S1                 0.0000
      6 ****        -0.3786   0.9274   0.0229 C.ar           1 S1                 0.0000
      7 ****         0.1612   2.0769  -0.4607 N.ar           1 S1                 0.0000
      8 ****         1.4636   2.1343  -0.7559 C.ar           1 S1                 0.0000
      9 ****         2.3886   1.1782  -0.6422 N.ar           1 S1                 0.0000
     10 ****         1.8493   0.0227  -0.1568 C.ar           1 S1                 0.0000
     11 ****         0.4872  -0.1827   0.1963 C.ar           1 S1                 0.0000
     12 ****         0.3118  -1.4816   0.6566 N.2            1 S1                 0.0000
     13 ****         1.5060  -2.0064   0.5843 C.2            1 S1                 0.0000
     14 ****         2.4900  -1.1670   0.1057 N.pl3          1 S1                 0.0000
     15 ****         3.9469  -1.4327  -0.0880 C.3            1 S1                 0.0000
     16 ****         4.1263  -2.8178  -0.1066 O.3            1 S1                 0.0000
     17 ****         5.0793  -3.2181   0.8733 C.3            1 S1                 0.0000
     18 ****         4.7900  -4.6427   1.3782 C.3            1 S1                 0.0000
     19 ****         5.3142  -5.5924   0.4753 O.3            1 S1                 0.0000
     20 ****         5.0200  -2.1125   1.9357 C.3            1 S1                 0.0000
     21 ****         3.9781  -2.3404   2.8683 O.3            1 S1                 0.0000
     22 ****         4.7304  -0.8698   1.1081 C.3            1 S1                 0.0000
     23 ****         5.9297  -0.2513   0.6876 O.3            1 S1                 0.0000
     24 ****        -3.4807   1.8709  -1.0619 C.3            1 S1                 0.0000
     25 ****        -4.3228   0.5757  -1.1472 C.3            1 S1                 0.0000
     26 ****        -5.2076   0.5568  -2.4048 C.3            1 S1                 0.0000
     27 ****        -4.3737   0.7511  -3.6800 C.3            1 S1                 0.0000
     28 ****        -3.5430   2.0410  -3.6059 C.3            1 S1                 0.0000
     29 ****        -2.6535   2.0574  -2.3526 C.3            1 S1                 0.0000
     30 ****         4.1879  -0.9751  -1.0488 H              1 S1                 0.0000
     31 ****         6.0682  -3.1797   0.4122 H              1 S1                 0.0000
     32 ****         5.9545  -2.0337   2.4929 H              1 S1                 0.0000
     33 ****         4.1465  -0.1269   1.6545 H              1 S1                 0.0000
     34 ****        -2.9262   2.8663   4.6003 H              1 S1                 0.0000
     35 ****        -2.1209   3.4651   2.5499 H              1 S1                 0.0000
     36 ****        -1.8519   1.7730   2.9415 H              1 S1                 0.0000
     37 ****        -3.9697   1.1638   1.7101 H              1 S1                 0.0000
     38 ****        -4.2316   2.8499   1.3436 H              1 S1                 0.0000
     39 ****        -2.0479   2.9021   0.1429 H              1 S1                 0.0000
     40 ****        -2.1054  -0.0199   0.6764 H              1 S1                 0.0000
     41 ****         1.8143   3.0827  -1.1355 H              1 S1                 0.0000
     42 ****         1.7011  -3.0246   0.8879 H              1 S1                 0.0000
     43 ****         5.2764  -4.8065   2.3401 H              1 S1                 0.0000
     44 ****         3.7211  -4.8054   1.5201 H              1 S1                 0.0000
     45 ****         5.1270  -6.4577   0.8058 H              1 S1                 0.0000
     46 ****         4.1746  -3.1279   3.3521 H              1 S1                 0.0000
     47 ****         5.7090   0.4914   0.1462 H              1 S1                 0.0000
     48 ****        -4.1816   2.7065  -1.0266 H              1 S1                 0.0000
     49 ****        -3.6691  -0.2973  -1.1574 H              1 S1                 0.0000
     50 ****        -4.9588   0.4745  -0.2683 H              1 S1                 0.0000
     51 ****        -5.7549  -0.3849  -2.4589 H              1 S1                 0.0000
     52 ****        -5.9573   1.3461  -2.3352 H              1 S1                 0.0000
     53 ****        -3.7105  -0.1039  -3.8174 H              1 S1                 0.0000
     54 ****        -5.0277   0.7798  -4.5520 H              1 S1                 0.0000
     55 ****        -2.9258   2.1369  -4.4995 H              1 S1                 0.0000
     56 ****        -4.2083   2.9052  -3.5949 H              1 S1                 0.0000
     57 ****        -2.1032   2.9979  -2.3107 H              1 S1                 0.0000
     58 ****        -1.9074   1.2666  -2.4376 H              1 S1                 0.0000
     59 ****        -3.9248   1.7683   4.0273 LP             1 S1                 0.0000
     60 ****        -4.1402   3.3523   3.6941 LP             1 S1                 0.0000
     61 ****        -0.4171   2.8815  -0.5959 LP             1 S1                 0.0000
     62 ****         3.3525   1.2941  -0.8819 LP             1 S1                 0.0000
     63 ****        -0.5331  -1.9147   0.9707 LP             1 S1                 0.0000
     64 ****         4.4506  -3.0941  -1.0112 LP             1 S1                 0.0000
     65 ****         3.2521  -3.2641   0.0849 LP             1 S1                 0.0000
     66 ****         6.3033  -5.4696   0.3937 LP             1 S1                 0.0000
     67 ****         4.8886  -5.4750  -0.4219 LP             1 S1                 0.0000
     68 ****         3.1101  -2.4500   2.3840 LP             1 S1                 0.0000
     69 ****         3.9132  -1.5657   3.4973 LP             1 S1                 0.0000
     70 ****         6.4784  -0.9012   0.1618 LP             1 S1                 0.0000
     71 ****         6.4493   0.0549   1.4853 LP             1 S1                 0.0000
@<TRIPOS>BOND
    1    1    2 1     
    2    1   34 1     
    3    2    3 1     
    4    2   35 1     
    5    2   36 1     
    6    3    4 1     
    7    3   37 1     
    8    3   38 1     
    9    4    5 1     
   10    4   24 1     
   11    4   39 1     
   12    5    6 1     
   13    5   40 1     
   14    6   11 ar    
   15    6    7 ar    
   16    7    8 ar    
   17    8    9 ar    
   18    8   41 1     
   19    9   10 ar    
   20   10   14 1     
   21   10   11 ar    
   22   11   12 1     
   23   12   13 2     
   24   13   14 1     
   25   13   42 1     
   26   14   15 1     
   27   15   30 1     
   28   15   22 1     
   29   15   16 1     
   30   16   17 1     
   31   17   31 1     
   32   17   18 1     
   33   17   20 1     
   34   18   19 1     
   35   18   43 1     
   36   18   44 1     
   37   19   45 1     
   38   20   32 1     
   39   20   21 1     
   40   20   22 1     
   41   21   46 1     
   42   22   33 1     
   43   22   23 1     
   44   23   47 1     
   45   24   29 1     
   46   24   25 1     
   47   24   48 1     
   48   25   26 1     
   49   25   49 1     
   50   25   50 1     
   51   26   27 1     
   52   26   51 1     
   53   26   52 1     
   54   27   28 1     
   55   27   53 1     
   56   27   54 1     
   57   28   29 1     
   58   28   55 1     
   59   28   56 1     
   60   29   57 1     
   61   29   58 1     
   62    1   59 1     
   63    1   60 1     
   64    7   61 1     
   65    9   62 1     
   66   12   63 1     
   67   16   64 1     
   68   16   65 1     
   69   19   66 1     
   70   19   67 1     
   71   21   68 1     
   72   21   69 1     
   73   23   70 1     
   74   23   71 1     
@<TRIPOS>SUBSTRUCTURE
      1 S1             1
@<TRIPOS>SET
LONE_PAIRS      STATIC     ATOMS    <user>   **** ""
13 59 60 61 62 63 64 65 66 67 68 69 70 71
DONOR_HYDROGENS      STATIC     ATOMS    <user>   **** ""
5 34 40 45 46 47
ATOM$BLUE        STATIC     ATOMS    COLORGROUP SYSTEM
13 59 60 61 62 63 64 65 66 67 68 69 70 71
ATOM$RED        STATIC     ATOMS    COLORGROUP SYSTEM
5 34 40 45 46 47
