AV-unprocessed.smi:1209|AV-procd|sdf|5075|dock2
  -GOLD-   22720 4123D 1   1.00000     0.00000
 Structure written by MMmdl.
 49 51  0  0  0  0  0  0  0  0  2 V2000
  145.6090  136.1625  151.0838 C   0  0  0  0  0  0  0  0  0  0  0  0
  145.5654  137.0449  152.2836 C   0  0  0  0  0  0  0  0  0  0  0  0
  146.3533  138.0745  152.7139 C   0  0  0  0  0  0  0  0  0  0  0  0
  145.7330  138.4882  153.9260 C   0  0  0  0  0  0  0  0  0  0  0  0
  146.1199  139.6163  154.8427 C   0  0  0  0  0  0  0  0  0  0  0  0
  146.1336  140.9340  154.1471 N   0  3  1  0  0  0  0  0  0  0  0  0
  145.6504  142.0210  155.0292 C   0  0  0  0  0  0  0  0  0  0  0  0
  147.4324  141.2850  153.5063 C   0  0  0  0  0  0  0  0  0  0  0  0
  148.6563  140.7949  154.3038 C   0  0  1  0  0  0  0  0  0  0  0  0
  149.7780  140.7203  153.4458 O   0  0  0  0  0  0  0  0  0  0  0  0
  148.9902  141.7099  155.4954 C   0  0  0  0  0  0  0  0  0  0  0  0
  150.0627  141.1594  156.3026 N   0  0  0  0  0  0  0  0  0  0  0  0
  150.6042  139.9286  156.2243 C   0  0  0  0  0  0  0  0  0  0  0  0
  151.5751  139.6367  157.0857 N   0  0  0  0  0  0  0  0  0  0  0  0
  151.6758  140.8155  157.8052 C   0  0  0  0  0  0  0  0  0  0  0  0
  152.5214  141.1682  158.8800 C   0  0  0  0  0  0  0  0  0  0  0  0
  152.4494  142.4511  159.4688 C   0  0  0  0  0  0  0  0  0  0  0  0
  153.3789  142.7865  160.6218 C   0  0  0  0  0  0  0  0  0  0  0  0
  151.5186  143.4051  158.9839 C   0  0  0  0  0  0  0  0  0  0  0  0
  151.4275  144.7932  159.5930 C   0  0  0  0  0  0  0  0  0  0  0  0
  150.6643  143.0678  157.9140 C   0  0  0  0  0  0  0  0  0  0  0  0
  150.7464  141.7885  157.3365 C   0  0  0  0  0  0  0  0  0  0  0  0
  144.6696  137.7529  154.2078 N   0  0  0  0  0  0  0  0  0  0  0  0
  144.5542  136.8295  153.1636 O   0  0  0  0  0  0  0  0  0  0  0  0
  146.1691  136.6318  150.2763 H   0  0  0  0  0  0  0  0  0  0  0  0
  144.6038  135.9547  150.7165 H   0  0  0  0  0  0  0  0  0  0  0  0
  146.0876  135.2122  151.3203 H   0  0  0  0  0  0  0  0  0  0  0  0
  147.2273  138.4795  152.2259 H   0  0  0  0  0  0  0  0  0  0  0  0
  145.4013  139.6423  155.6630 H   0  0  0  0  0  0  0  0  0  0  0  0
  147.0876  139.4256  155.3084 H   0  0  0  0  0  0  0  0  0  0  0  0
  146.3271  142.1696  155.8718 H   0  0  0  0  0  0  0  0  0  0  0  0
  144.6581  141.7931  155.4206 H   0  0  0  0  0  0  0  0  0  0  0  0
  145.5717  142.9606  154.4812 H   0  0  0  0  0  0  0  0  0  0  0  0
  147.4846  140.8461  152.5086 H   0  0  0  0  0  0  0  0  0  0  0  0
  147.4804  142.3644  153.3559 H   0  0  0  0  0  0  0  0  0  0  0  0
  148.4704  139.8005  154.6974 H   0  0  0  0  0  0  0  0  0  0  0  0
  149.6033  140.0820  152.7707 H   0  0  0  0  0  0  0  0  0  0  0  0
  149.2663  142.7106  155.1593 H   0  0  0  0  0  0  0  0  0  0  0  0
  148.1174  141.8247  156.1394 H   0  0  0  0  0  0  0  0  0  0  0  0
  150.2623  139.2042  155.4995 H   0  0  0  0  0  0  0  0  0  0  0  0
  153.2298  140.4416  159.2499 H   0  0  0  0  0  0  0  0  0  0  0  0
  152.8081  142.9256  161.5399 H   0  0  0  0  0  0  0  0  0  0  0  0
  153.9343  143.7018  160.4157 H   0  0  0  0  0  0  0  0  0  0  0  0
  154.1029  141.9895  160.7941 H   0  0  0  0  0  0  0  0  0  0  0  0
  150.5585  145.3342  159.2177 H   0  0  0  0  0  0  0  0  0  0  0  0
  152.3178  145.3723  159.3477 H   0  0  0  0  0  0  0  0  0  0  0  0
  151.3398  144.7380  160.6778 H   0  0  0  0  0  0  0  0  0  0  0  0
  149.9508  143.7841  157.5349 H   0  0  0  0  0  0  0  0  0  0  0  0
  145.4528  140.8709  153.4027 H   0  0  0  0  0  0  0  0  0  0  0  0
  1  2  1  0  0  0  0
  1 25  1  0  0  0  0
  1 26  1  0  0  0  0
  1 27  1  0  0  0  0
  2 24  1  0  0  0  0
  2  3  2  0  0  0  0
  3  4  1  0  0  0  0
  3 28  1  0  0  0  0
  4  5  1  0  0  0  0
  4 23  2  0  0  0  0
  5  6  1  0  0  0  0
  5 29  1  0  0  0  0
  5 30  1  0  0  0  0
  6  7  1  0  0  0  0
  6  8  1  0  0  0  0
  6 49  1  0  0  0  0
  7 31  1  0  0  0  0
  7 32  1  0  0  0  0
  7 33  1  0  0  0  0
  8  9  1  0  0  0  0
  8 34  1  0  0  0  0
  8 35  1  0  0  0  0
  9 10  1  0  0  0  0
  9 11  1  0  0  0  0
  9 36  1  0  0  0  0
 10 37  1  0  0  0  0
 11 12  1  0  0  0  0
 11 38  1  0  0  0  0
 11 39  1  0  0  0  0
 12 22  1  0  0  0  0
 12 13  1  0  0  0  0
 13 14  2  0  0  0  0
 13 40  1  0  0  0  0
 14 15  1  0  0  0  0
 15 22  2  0  0  0  0
 15 16  1  0  0  0  0
 16 17  2  0  0  0  0
 16 41  1  0  0  0  0
 17 18  1  0  0  0  0
 17 19  1  0  0  0  0
 18 42  1  0  0  0  0
 18 43  1  0  0  0  0
 18 44  1  0  0  0  0
 19 20  1  0  0  0  0
 19 21  2  0  0  0  0
 20 45  1  0  0  0  0
 20 46  1  0  0  0  0
 20 47  1  0  0  0  0
 21 22  1  0  0  0  0
 21 48  1  0  0  0  0
 23 24  1  0  0  0  0
M  CHG  1   6   1
M  END
> <s_m_source_file>
AV-unprocessed.smi

> <i_m_source_file_index>
1209

> <i_lp_mmshare_version>
43012

> <i_f3d_flags>
0

> <s_epik_input>
W0NIM11jMVtjSF1jKG5vMSlbQ0gyXU4oW0NIM10pW0NIMl1bQ0BIXShbT0hdKVtDSDJdbihbY0hdbjIpYyhjMjMpW2NIXWMoW0NIM10pYyhbY0hdMylbQ0gzXQ==

> <s_epik_cmdline>
J2VwaWtfcHl0aG9uJywgJy1waCcsICc3LjAnLCAnLXRuJywgJzgnLCAnLW1hJywgJzIwMCcsICctbWV0YWxfYmluZGluZycsICctaW1hZScsICc8aW5maWxlLm1hZT4nLCAnLW9tYWUnLCAnPG91dGZpbGUubWFlPic=

> <r_epik_Ionization_Penalty>
2.05249

> <r_epik_Ionization_Penalty_Charging>
1.96618

> <r_epik_Ionization_Penalty_Neutral>
0.0863156

> <r_epik_State_Penalty>
2.19215

> <r_epik_Charging_Adjusted_Penalty>
4.15833

> <i_epik_Tot_Q>
1

> <i_epik_Tot_abs_Q>
1

> <r_epik_Metal_State_Penalty>
2.17654

> <b_epik_Metal_Only>
0

> <s_lp_Force_Field>
OPLS_2005

> <r_lp_Energy>
8.33494

> <b_lp_Chiralities_Consistent>
1

> <s_lp_Variant>
AV-unprocessed.smi:1209-7

> <Gold.Version>
5.8.1

> <Gold.Id.Protein>
6NUR|6NUR_protein|mol2

> <Gold.PLP.Fitness>
54.1840

> <Gold.PLP.PLP>
-43.7013

> <Gold.PLP.part.hbond>
-3.2904

> <Gold.PLP.part.metal>
0.0000

> <Gold.PLP.part.buried>
-3.5584

> <Gold.PLP.part.nonpolar>
-37.6000

> <Gold.PLP.part.repulsive>
0.2478

> <Gold.PLP.ligand.clash>
0.0000

> <Gold.PLP.ligand.torsion>
1.0722

> <Gold.PLP.Chemscore.Hbond>
4.1040

> <Gold.PLP.Chemscore.CHOScore>
0.0000

> <Gold.PLP.Chemscore.Metal>
0.0000

> <Gold.Chemscore.Hbonds>
donor molecule, donor type, donor heavy atom, donor atom, acceptor molecule, acceptor atom, score
      L1  H     6    49       P1 10175  2.00
      L1  H    10    37       P1  7957  0.74
      P1  H  7989  7998       L1    10  0.35
      P1  H  8011  8017       L1    10  1.00

> <Gold.PLP.Chemscore.Internal.Correction>
0.3151

> <Gold.Rescore>
     Score         DG    S(hbond)    S(metal)    S(lipo)     H(rot)  DE(clash)    DE(int)     intcor
     19.39     -20.81       2.16        0.00     124.77       2.53       0.31       1.11       ----

> <Gold.Chemscore.Fitness>
19.3869

> <Gold.Chemscore.DG>
-20.8108

> <Gold.Chemscore.ZeroCoef>
-5.4800

> <Gold.Chemscore.Hbond>
2.1610

> <Gold.Chemscore.Metal>
0.0000

> <Gold.Chemscore.Lipo>
124.7695

> <Gold.Chemscore.Internal_Hbond>
0.0000

> <Gold.Chemscore.DEClash>
0.3112

> <Gold.Chemscore.DEInternal>
1.1126

> <Gold.Chemscore.Rot>
2.5332

> <Gold.Chemscore.Internal.Correction>
   9.000000E+99

> <Gold.Chemscore.Hbonds>
donor molecule, donor type, donor heavy atom, donor atom, acceptor molecule, acceptor atom, score
      L1  H     6    49       P1 10175  0.69
      L1  H    10    37       P1  7957  0.73
      P1  H  7989  7998       L1    10  0.16
      P1  H  8011  8017       L1    10  0.16

> <Gold.Chemscore.Hbond.Weighted>
-7.2178

> <Gold.Chemscore.Metal.Weighted>
-0.0000

> <Gold.Chemscore.Lipo.Weighted>
-14.5980

> <Gold.Chemscore.Internal_Hbond.Weighted>
0.0000

> <Gold.Chemscore.DEClash.Weighted>
0.3112

> <Gold.Chemscore.DEInternal.Weighted>
1.1126

> <Gold.Chemscore.Rot.Weighted>
6.4851

> <Gold.Chemscore.Internal.Correction.Weighted>
   9.000000E+99

> <Gold.Protein.RotatedTorsions>
[ 6907 6896 6895 6894 ] final   45.54 input  -60.11 | X-H torsion
[ 7974 7965 7964 7962 ] final   10.73 input  175.53 | X-H torsion
[ 8008 7997 7996 7995 ] final  128.50 input   59.86 | X-H torsion
[ 10167 10162 10161 10158 ] final  -73.72 input  -65.29 | X-H torsion
[ 10718 10713 10712 10709 ] final  -63.01 input   66.30 | X-H torsion
[ 10763 10752 10751 10750 ] final   57.56 input  -60.55 | X-H torsion
[ 11005 11000 10999 10996 ] final  -25.57 input  -57.11 | X-H torsion

> <Gold.Protein.ActiveResidues>
 VAL166  LYS551  ARG553  GLY616  TRP617  ASP618  TYR619  PRO620  LYS621  CYS622 
 ASP623  PHE694  ASN695  SER759  ASP760  ASP761  ALA762  ILE779  LEU786  VAL792 
 PHE793  MET794  SER795  GLU796  ALA797  LYS798  CYS799  TRP800  GLU811  SER814 

> <Gold.Protein.RotatedAtoms>
  152.2458  134.8183  160.0453 H   0  0  0  0  0  0  0  0  0  0  0  0  # atno 6907 bound_to 6896
  151.8881  133.3505  159.3797 H   0  0  0  0  0  0  0  0  0  0  0  0  # atno 6908 bound_to 6896
  150.7068  134.4878  159.5545 H   0  0  0  0  0  0  0  0  0  0  0  0  # atno 6909 bound_to 6896
  146.2383  139.9590  142.8461 H   0  0  0  0  0  0  0  0  0  0  0  0  # atno 7974 bound_to 7965
  156.2916  140.2643  156.2447 H   0  0  0  0  0  0  0  0  0  0  0  0  # atno 8008 bound_to 7997
  154.9942  140.0388  157.2351 H   0  0  0  0  0  0  0  0  0  0  0  0  # atno 8009 bound_to 7997
  154.7658  140.2769  155.6182 H   0  0  0  0  0  0  0  0  0  0  0  0  # atno 8010 bound_to 7997
  140.5087  143.2348  151.7631 H   0  0  0  0  0  0  0  0  0  0  0  0  # atno 10167 bound_to 10162
  156.0818  130.4215  150.1216 H   0  0  0  0  0  0  0  0  0  0  0  0  # atno 10718 bound_to 10713
  152.9852  135.5637  154.5410 H   0  0  0  0  0  0  0  0  0  0  0  0  # atno 10763 bound_to 10752
  154.4865  135.2791  155.1532 H   0  0  0  0  0  0  0  0  0  0  0  0  # atno 10764 bound_to 10752
  154.3020  135.6305  153.5482 H   0  0  0  0  0  0  0  0  0  0  0  0  # atno 10765 bound_to 10752
  140.8949  133.7563  156.0469 H   0  0  0  0  0  0  0  0  0  0  0  0  # atno 11005 bound_to 11000
  145.1789  140.9757  143.4278 LP  0  0  0  0  0  0  0  0  0  0  0  0  # atno 17320 bound_to 7965
  144.9960  139.3643  143.6191 LP  0  0  0  0  0  0  0  0  0  0  0  0  # atno 17321 bound_to 7965
  139.4890  144.4421  151.9752 LP  0  0  0  0  0  0  0  0  0  0  0  0  # atno 17342 bound_to 10162
  140.3513  144.3085  150.5949 LP  0  0  0  0  0  0  0  0  0  0  0  0  # atno 17343 bound_to 10162
  156.9245  130.9694  151.3543 LP  0  0  0  0  0  0  0  0  0  0  0  0  # atno 17370 bound_to 10713
  157.5938  130.8463  149.8699 LP  0  0  0  0  0  0  0  0  0  0  0  0  # atno 17371 bound_to 10713
  140.8301  134.3188  157.5352 LP  0  0  0  0  0  0  0  0  0  0  0  0  # atno 17394 bound_to 11000
  139.8734  134.9358  156.3644 LP  0  0  0  0  0  0  0  0  0  0  0  0  # atno 17395 bound_to 11000

$$$$
