AV-unprocessed.smi:1565|AV-procd|sdf|6301|dock10
  -GOLD-   22720 6503D 1   1.00000     0.00000
 Structure written by MMmdl.
 39 40  0  0  0  0  0  0  0  0  2 V2000
  151.3122  140.2348  157.7842 C   0  0  0  0  0  0  0  0  0  0  0  0
  152.1575  141.3753  158.3610 C   0  0  2  0  0  0  0  0  0  0  0  0
  152.4453  141.1789  159.8613 C   0  0  0  0  0  0  0  0  0  0  0  0
  153.1484  142.3383  160.4027 N   0  0  0  0  0  0  0  0  0  0  0  0
  153.6999  142.1615  161.6900 C   0  0  0  0  0  0  0  0  0  0  0  0
  153.3945  143.0773  162.7237 C   0  0  0  0  0  0  0  0  0  0  0  0
  153.9654  142.8921  163.9975 C   0  0  0  0  0  0  0  0  0  0  0  0
  154.8221  141.7894  164.2163 C   0  0  0  0  0  0  0  0  0  0  0  0
  155.5009  141.5528  165.5386 C   0  0  0  0  0  0  0  0  0  0  0  0
  156.3771  140.6826  165.5918 O   0  0  0  0  0  0  0  0  0  0  0  0
  154.9935  142.3355  166.5328 N   0  5  0  0  0  0  0  0  0  0  0  0
  155.1306  142.0434  167.9619 C   0  0  0  0  0  0  0  0  0  0  0  0
  155.8839  143.1703  168.6976 C   0  0  0  0  0  0  0  0  0  0  0  0
  155.2017  144.3075  168.5618 F   0  0  0  0  0  0  0  0  0  0  0  0
  155.9901  142.8964  169.9987 F   0  0  0  0  0  0  0  0  0  0  0  0
  157.1028  143.3498  168.1865 F   0  0  0  0  0  0  0  0  0  0  0  0
  155.0682  140.9322  163.1223 C   0  0  0  0  0  0  0  0  0  0  0  0
  154.5220  141.1042  161.8991 N   0  0  0  0  0  0  0  0  0  0  0  0
  152.4769  143.6039  160.1153 C   0  0  0  0  0  0  0  0  0  0  0  0
  152.1915  143.7312  158.6074 C   0  0  2  0  0  0  0  0  0  0  0  0
  151.3826  144.9905  158.2792 C   0  0  0  0  0  0  0  0  0  0  0  0
  151.4464  142.5960  158.1753 O   0  0  0  0  0  0  0  0  0  0  0  0
  151.8202  139.2759  157.8925 H   0  0  0  0  0  0  0  0  0  0  0  0
  151.1201  140.3910  156.7224 H   0  0  0  0  0  0  0  0  0  0  0  0
  150.3491  140.1627  158.2903 H   0  0  0  0  0  0  0  0  0  0  0  0
  153.0987  141.4218  157.8099 H   0  0  0  0  0  0  0  0  0  0  0  0
  151.5112  141.0504  160.4098 H   0  0  0  0  0  0  0  0  0  0  0  0
  153.0192  140.2630  159.9956 H   0  0  0  0  0  0  0  0  0  0  0  0
  152.7278  143.9102  162.5589 H   0  0  0  0  0  0  0  0  0  0  0  0
  153.7448  143.5962  164.7866 H   0  0  0  0  0  0  0  0  0  0  0  0
  154.1645  141.8848  168.4437 H   0  0  0  0  0  0  0  0  0  0  0  0
  155.6745  141.1095  168.1080 H   0  0  0  0  0  0  0  0  0  0  0  0
  155.7220  140.0781  163.2241 H   0  0  0  0  0  0  0  0  0  0  0  0
  151.5447  143.6528  160.6800 H   0  0  0  0  0  0  0  0  0  0  0  0
  153.0994  144.4393  160.4386 H   0  0  0  0  0  0  0  0  0  0  0  0
  153.1333  143.7713  158.0570 H   0  0  0  0  0  0  0  0  0  0  0  0
  151.9178  145.8907  158.5824 H   0  0  0  0  0  0  0  0  0  0  0  0
  150.4193  144.9853  158.7897 H   0  0  0  0  0  0  0  0  0  0  0  0
  151.1915  145.0625  157.2082 H   0  0  0  0  0  0  0  0  0  0  0  0
  1  2  1  0  0  0  0
  1 23  1  0  0  0  0
  1 24  1  0  0  0  0
  1 25  1  0  0  0  0
  2 22  1  0  0  0  0
  2  3  1  0  0  0  0
  2 26  1  0  0  0  0
  3  4  1  0  0  0  0
  3 27  1  0  0  0  0
  3 28  1  0  0  0  0
  4  5  1  0  0  0  0
  4 19  1  0  0  0  0
  5 18  1  0  0  0  0
  5  6  2  0  0  0  0
  6  7  1  0  0  0  0
  6 29  1  0  0  0  0
  7  8  2  0  0  0  0
  7 30  1  0  0  0  0
  8  9  1  0  0  0  0
  8 17  1  0  0  0  0
  9 10  2  0  0  0  0
  9 11  1  0  0  0  0
 11 12  1  0  0  0  0
 12 13  1  0  0  0  0
 12 31  1  0  0  0  0
 12 32  1  0  0  0  0
 13 14  1  0  0  0  0
 13 15  1  0  0  0  0
 13 16  1  0  0  0  0
 17 18  2  0  0  0  0
 17 33  1  0  0  0  0
 19 20  1  0  0  0  0
 19 34  1  0  0  0  0
 19 35  1  0  0  0  0
 20 21  1  0  0  0  0
 20 22  1  0  0  0  0
 20 36  1  0  0  0  0
 21 37  1  0  0  0  0
 21 38  1  0  0  0  0
 21 39  1  0  0  0  0
M  CHG  1  11  -1
M  END
> <s_m_source_file>
AV-unprocessed.smi

> <i_m_source_file_index>
1565

> <i_lp_mmshare_version>
43012

> <i_f3d_flags>
0

> <s_epik_input>
W0NIM11bQ0BASF0xW0NIMl1OKFtDSDJdW0NASF0oTzEpW0NIM10pYzJbY0hdW2NIXWMoW2NIXW4yKUMoPU8pW05IXVtDSDJdQyhGKShGKUY=

> <s_epik_cmdline>
J2VwaWtfcHl0aG9uJywgJy1waCcsICc3LjAnLCAnLXRuJywgJzgnLCAnLW1hJywgJzIwMCcsICctbWV0YWxfYmluZGluZycsICctaW1hZScsICc8aW5maWxlLm1hZT4nLCAnLW9tYWUnLCAnPG91dGZpbGUubWFlPic=

> <r_lp_tautomer_probability>
1

> <r_epik_Ionization_Penalty>
6.78525

> <r_epik_Ionization_Penalty_Charging>
6.78469

> <r_epik_Ionization_Penalty_Neutral>
0.000559052

> <r_epik_State_Penalty>
6.78469

> <r_epik_Charging_Adjusted_Penalty>
13.5694

> <i_epik_Tot_Q>
-1

> <i_epik_Tot_abs_Q>
1

> <r_epik_Metal_State_Penalty>
2.70441

> <b_epik_Metal_Only>
1

> <s_lp_Force_Field>
OPLS_2005

> <r_lp_Energy>
25.7162

> <b_lp_Chiralities_Consistent>
1

> <s_lp_Variant>
AV-unprocessed.smi:1565-5

> <Gold.Version>
5.8.1

> <Gold.Id.Protein>
6NUR|6NUR_protein|mol2

> <Gold.PLP.Fitness>
45.5376

> <Gold.PLP.PLP>
-45.7943

> <Gold.PLP.part.hbond>
-1.1608

> <Gold.PLP.part.metal>
0.0000

> <Gold.PLP.part.buried>
-3.6940

> <Gold.PLP.part.nonpolar>
-38.1138

> <Gold.PLP.part.repulsive>
0.0809

> <Gold.PLP.ligand.clash>
0.0000

> <Gold.PLP.ligand.torsion>
0.2881

> <Gold.PLP.Chemscore.Hbond>
0.0000

> <Gold.PLP.Chemscore.CHOScore>
0.0000

> <Gold.PLP.Chemscore.Metal>
0.0000

> <Gold.PLP.Chemscore.Internal.Correction>
0.3195

> <Gold.Rescore>
     Score         DG    S(hbond)    S(metal)    S(lipo)     H(rot)  DE(clash)    DE(int)     intcor
     13.92     -14.74       0.00        0.00     107.40       1.29       0.52       0.30       ----

> <Gold.Chemscore.Fitness>
13.9204

> <Gold.Chemscore.DG>
-14.7377

> <Gold.Chemscore.ZeroCoef>
-5.4800

> <Gold.Chemscore.Hbond>
0.0000

> <Gold.Chemscore.Metal>
0.0000

> <Gold.Chemscore.Lipo>
107.3967

> <Gold.Chemscore.Internal_Hbond>
0.0000

> <Gold.Chemscore.DEClash>
0.5186

> <Gold.Chemscore.DEInternal>
0.2986

> <Gold.Chemscore.Rot>
1.2921

> <Gold.Chemscore.Internal.Correction>
   9.000000E+99

> <Gold.Chemscore.Hbond.Weighted>
-0.0000

> <Gold.Chemscore.Metal.Weighted>
-0.0000

> <Gold.Chemscore.Lipo.Weighted>
-12.5654

> <Gold.Chemscore.Internal_Hbond.Weighted>
0.0000

> <Gold.Chemscore.DEClash.Weighted>
0.5186

> <Gold.Chemscore.DEInternal.Weighted>
0.2986

> <Gold.Chemscore.Rot.Weighted>
3.3078

> <Gold.Chemscore.Internal.Correction.Weighted>
   9.000000E+99

> <Gold.Protein.RotatedTorsions>
[ 6907 6896 6895 6894 ] final -100.34 input  -60.11 | X-H torsion
[ 7974 7965 7964 7962 ] final -124.71 input  175.53 | X-H torsion
[ 8008 7997 7996 7995 ] final   11.19 input   59.86 | X-H torsion
[ 10167 10162 10161 10158 ] final  149.08 input  -65.29 | X-H torsion
[ 10718 10713 10712 10709 ] final -105.48 input   66.30 | X-H torsion
[ 10763 10752 10751 10750 ] final  -80.02 input  -60.55 | X-H torsion
[ 11005 11000 10999 10996 ] final  166.70 input  -57.11 | X-H torsion

> <Gold.Protein.ActiveResidues>
 VAL166  LYS551  ARG553  GLY616  TRP617  ASP618  TYR619  PRO620  LYS621  CYS622 
 ASP623  PHE694  ASN695  SER759  ASP760  ASP761  ALA762  ILE779  LEU786  VAL792 
 PHE793  MET794  SER795  GLU796  ALA797  LYS798  CYS799  TRP800  GLU811  SER814 

> <Gold.Protein.RotatedAtoms>
  150.7112  134.0903  159.3928 H   0  0  0  0  0  0  0  0  0  0  0  0  # atno 6907 bound_to 6896
  151.8888  135.0422  160.0505 H   0  0  0  0  0  0  0  0  0  0  0  0  # atno 6908 bound_to 6896
  152.2508  133.5178  159.5361 H   0  0  0  0  0  0  0  0  0  0  0  0  # atno 6909 bound_to 6896
  145.0052  140.7857  143.4472 H   0  0  0  0  0  0  0  0  0  0  0  0  # atno 7974 bound_to 7965
  154.8036  140.2856  155.5903 H   0  0  0  0  0  0  0  0  0  0  0  0  # atno 8008 bound_to 7997
  156.2980  140.2582  156.2839 H   0  0  0  0  0  0  0  0  0  0  0  0  # atno 8009 bound_to 7997
  154.9529  140.0379  157.2142 H   0  0  0  0  0  0  0  0  0  0  0  0  # atno 8010 bound_to 7997
  139.4866  144.5630  151.7196 H   0  0  0  0  0  0  0  0  0  0  0  0  # atno 10167 bound_to 10162
  156.0348  130.5566  150.7546 H   0  0  0  0  0  0  0  0  0  0  0  0  # atno 10718 bound_to 10713
  154.5460  135.5675  153.6880 H   0  0  0  0  0  0  0  0  0  0  0  0  # atno 10763 bound_to 10752
  152.9976  135.6239  154.2438 H   0  0  0  0  0  0  0  0  0  0  0  0  # atno 10764 bound_to 10752
  154.2371  135.2864  155.2848 H   0  0  0  0  0  0  0  0  0  0  0  0  # atno 10765 bound_to 10752
  140.2692  134.7840  157.3660 H   0  0  0  0  0  0  0  0  0  0  0  0  # atno 11005 bound_to 11000
  145.2098  139.2210  143.5149 LP  0  0  0  0  0  0  0  0  0  0  0  0  # atno 17320 bound_to 7965
  146.3460  140.1933  142.8589 LP  0  0  0  0  0  0  0  0  0  0  0  0  # atno 17321 bound_to 7965
  140.5203  144.0889  150.6020 LP  0  0  0  0  0  0  0  0  0  0  0  0  # atno 17342 bound_to 10162
  140.3845  143.2785  152.0132 LP  0  0  0  0  0  0  0  0  0  0  0  0  # atno 17343 bound_to 10162
  157.5081  131.0923  151.0232 LP  0  0  0  0  0  0  0  0  0  0  0  0  # atno 17370 bound_to 10713
  157.0595  130.5819  149.5383 LP  0  0  0  0  0  0  0  0  0  0  0  0  # atno 17371 bound_to 10713
  140.1390  134.4997  155.8046 LP  0  0  0  0  0  0  0  0  0  0  0  0  # atno 17394 bound_to 11000
  141.2180  133.6818  156.7175 LP  0  0  0  0  0  0  0  0  0  0  0  0  # atno 17395 bound_to 11000

$$$$
