#       Name:                AV-unprocessed.smi:528
#       Creating user name   scv26
#       Creation time:       Thu Mar 26 23:32:47 2020


#       File generated by GOLD software.
#

@<TRIPOS>MOLECULE
AV-unprocessed.smi:528
    49    51     1
SMALL
NO_CHARGES


@<TRIPOS>ATOM
      1 ****        -1.8914  -1.6965  -2.7381 C.3            1 S1                 0.0000
      2 ****        -1.3947  -0.9344  -1.5001 C.3            1 S1                 0.0000
      3 ****         0.0675  -0.9595  -1.4922 N.am           1 S1                 0.0000
      4 ****         0.8778   0.1005  -1.3450 C.2            1 S1                 0.0000
      5 ****         0.4674   1.2556  -1.2235 O.2            1 S1                 0.0000
      6 ****         2.3815  -0.2089  -1.3317 C.3            1 S1                 0.0000
      7 ****         3.1902   0.8741  -0.7484 N.am           1 S1                 0.0000
      8 ****         3.3817   0.8403   0.6468 C.2            1 S1                 0.0000
      9 ****         4.0753   1.7814   1.3150 C.2            1 S1                 0.0000
     10 ****         4.2982   1.6928   2.8166 C.3            1 S1                 0.0000
     11 ****         5.4214   2.3156   3.1742 F              1 S1                 0.0000
     12 ****         3.2822   2.2667   3.4597 F              1 S1                 0.0000
     13 ****         4.3775   0.4230   3.2166 F              1 S1                 0.0000
     14 ****         4.6644   2.8376   0.5154 C.2            1 S1                 0.0000
     15 ****         4.4943   2.8824  -0.8206 C.2            1 S1                 0.0000
     16 ****         3.7100   1.8682  -1.5290 C.2            1 S1                 0.0000
     17 ****         3.5320   1.9104  -2.7465 O.2            1 S1                 0.0000
     18 ****        -1.9347  -1.5369  -0.1791 C.3            1 S1                 0.0000
     19 ****        -1.5337  -0.7746   1.1061 C.3            1 S1                 0.0000
     20 ****        -2.8721  -0.6183   1.8507 C.3            1 S1                 0.0000
     21 ****        -3.7160   0.4574   1.1430 C.3            1 S1                 0.0000
     22 ****        -4.1550  -0.2553  -0.1489 C.3            1 S1                 0.0000
     23 ****        -3.4736  -1.6345  -0.0292 C.3            1 S1                 0.0000
     24 ****        -3.6064  -1.8978   1.4678 C.3            1 S1                 0.0000
     25 ****        -2.9761  -1.6396  -2.8307 H              1 S1                 0.0000
     26 ****        -1.6149  -2.7505  -2.6947 H              1 S1                 0.0000
     27 ****        -1.4671  -1.2782  -3.6515 H              1 S1                 0.0000
     28 ****        -1.7353   0.0971  -1.5911 H              1 S1                 0.0000
     29 ****         0.5000  -1.8665  -1.5915 H              1 S1                 0.0000
     30 ****         2.5478  -1.1305  -0.7711 H              1 S1                 0.0000
     31 ****         2.6998  -0.4365  -2.3503 H              1 S1                 0.0000
     32 ****         2.9179  -0.0006   1.1421 H              1 S1                 0.0000
     33 ****         5.2484   3.6090   0.9954 H              1 S1                 0.0000
     34 ****         4.9455   3.6859  -1.3843 H              1 S1                 0.0000
     35 ****        -1.5398  -2.5518  -0.0993 H              1 S1                 0.0000
     36 ****        -0.8229  -1.3594   1.6911 H              1 S1                 0.0000
     37 ****        -1.0765   0.1949   0.9071 H              1 S1                 0.0000
     38 ****        -2.7597  -0.4507   2.9221 H              1 S1                 0.0000
     39 ****        -4.5842   0.7309   1.7438 H              1 S1                 0.0000
     40 ****        -3.1467   1.3662   0.9439 H              1 S1                 0.0000
     41 ****        -5.2396  -0.3700  -0.1639 H              1 S1                 0.0000
     42 ****        -3.8785   0.2913  -1.0494 H              1 S1                 0.0000
     43 ****        -3.9260  -2.4002  -0.6601 H              1 S1                 0.0000
     44 ****        -3.0971  -2.8049   1.7980 H              1 S1                 0.0000
     45 ****        -4.6410  -1.9231   1.8146 H              1 S1                 0.0000
     46 ****        -0.5153   1.4405  -1.2316 LP             1 S1                 0.0000
     47 ****         1.1170   2.0083  -1.1167 LP             1 S1                 0.0000
     48 ****         2.9907   1.2008  -3.1976 LP             1 S1                 0.0000
     49 ****         3.9288   2.6542  -3.2843 LP             1 S1                 0.0000
@<TRIPOS>BOND
    1    1    2 1     
    2    1   25 1     
    3    1   26 1     
    4    1   27 1     
    5    2    3 1     
    6    2   18 1     
    7    2   28 1     
    8    3    4 am    
    9    3   29 1     
   10    4    5 2     
   11    4    6 1     
   12    6    7 1     
   13    6   30 1     
   14    6   31 1     
   15    7   16 am    
   16    7    8 1     
   17    8    9 2     
   18    8   32 1     
   19    9   10 1     
   20    9   14 1     
   21   10   11 1     
   22   10   12 1     
   23   10   13 1     
   24   14   15 2     
   25   14   33 1     
   26   15   16 1     
   27   15   34 1     
   28   16   17 2     
   29   18   23 1     
   30   18   19 1     
   31   18   35 1     
   32   19   20 1     
   33   19   36 1     
   34   19   37 1     
   35   20   24 1     
   36   20   21 1     
   37   20   38 1     
   38   21   22 1     
   39   21   39 1     
   40   21   40 1     
   41   22   23 1     
   42   22   41 1     
   43   22   42 1     
   44   23   24 1     
   45   23   43 1     
   46   24   44 1     
   47   24   45 1     
   48    5   46 1     
   49    5   47 1     
   50   17   48 1     
   51   17   49 1     
@<TRIPOS>SUBSTRUCTURE
      1 S1             1
@<TRIPOS>SET
LONE_PAIRS      STATIC     ATOMS    <user>   **** ""
4 46 47 48 49
DONOR_HYDROGENS      STATIC     ATOMS    <user>   **** ""
1 29
ATOM$BLUE        STATIC     ATOMS    COLORGROUP SYSTEM
4 46 47 48 49
ATOM$RED        STATIC     ATOMS    COLORGROUP SYSTEM
1 29
