#       Name:                AV-unprocessed.smi:2609
#       Creating user name   scv26
#       Creation time:       Fri Mar 27 14:21:27 2020


#       File generated by GOLD software.
#

@<TRIPOS>MOLECULE
AV-unprocessed.smi:2609
    30    31     1
SMALL
NO_CHARGES


@<TRIPOS>ATOM
      1 ****        -3.5083  -2.8911  -0.0009 O.2            1 S1                 0.0000
      2 ****        -2.9539  -1.7940  -0.0006 C.2            1 S1                 0.0000
      3 ****        -3.7651  -0.5771  -0.0005 C.2            1 S1                 0.0000
      4 ****        -3.1255   0.6147  -0.0002 C.2            1 S1                 0.0000
      5 ****        -1.7266   0.7097   0.0000 N.2            1 S1                 0.0000
      6 ****        -1.0377  -0.3739  -0.0001 C.2            1 S1                 0.0000
      7 ****         0.4870  -0.2949   0.0000 C.3            1 S1                 0.0000
      8 ****         1.0377   0.4063   1.2551 C.3            1 S1                 0.0000
      9 ****         2.5710   0.4973   1.1880 C.3            1 S1                 0.0000
     10 ****         2.9688   1.1755   0.0003 O.3            1 S1                 0.0000
     11 ****         2.5712   0.4973  -1.1875 C.3            1 S1                 0.0000
     12 ****         1.0379   0.4063  -1.2548 C.3            1 S1                 0.0000
     13 ****        -1.5965  -1.6395  -0.0004 N.pl3          1 S1                -1.0000
     14 ****        -4.8438  -0.6302  -0.0007 H              1 S1                 0.0000
     15 ****        -3.6666   1.5489  -0.0002 H              1 S1                 0.0000
     16 ****         0.8802  -1.3136   0.0001 H              1 S1                 0.0000
     17 ****         0.6256   1.4130   1.3406 H              1 S1                 0.0000
     18 ****         0.7367  -0.1332   2.1540 H              1 S1                 0.0000
     19 ****         2.9509   1.0451   2.0505 H              1 S1                 0.0000
     20 ****         3.0216  -0.4959   1.2196 H              1 S1                 0.0000
     21 ****         2.9513   1.0451  -2.0499 H              1 S1                 0.0000
     22 ****         3.0218  -0.4959  -1.2190 H              1 S1                 0.0000
     23 ****         0.7371  -0.1332  -2.1539 H              1 S1                 0.0000
     24 ****         0.6259   1.4130  -1.3405 H              1 S1                 0.0000
     25 ****        -4.5068  -2.9468  -0.0010 LP             1 S1                 0.0000
     26 ****        -2.9609  -3.7279  -0.0009 LP             1 S1                 0.0000
     27 ****        -1.2752   1.6020   0.0003 LP             1 S1                 0.0000
     28 ****         3.9651   1.2605   0.0004 LP             1 S1                 0.0000
     29 ****         2.5565   2.0866   0.0003 LP             1 S1                 0.0000
     30 ****        -1.0040  -2.4451  -0.0004 LP             1 S1                 0.0000
@<TRIPOS>BOND
    1    1    2 2     
    2    2    3 1     
    3    2   13 1     
    4    3   14 1     
    5    3    4 2     
    6    4   15 1     
    7    4    5 1     
    8    5    6 2     
    9    6    7 1     
   10    6   13 1     
   11    7   12 1     
   12    7    8 1     
   13    7   16 1     
   14    8    9 1     
   15    8   17 1     
   16    8   18 1     
   17    9   10 1     
   18    9   19 1     
   19    9   20 1     
   20   10   11 1     
   21   11   12 1     
   22   11   21 1     
   23   11   22 1     
   24   12   23 1     
   25   12   24 1     
   26    1   25 1     
   27    1   26 1     
   28    5   27 1     
   29   10   28 1     
   30   10   29 1     
   31   13   30 1     
@<TRIPOS>SUBSTRUCTURE
      1 S1             1
@<TRIPOS>SET
LONE_PAIRS      STATIC     ATOMS    <user>   **** ""
6 25 26 27 28 29 30
ATOM$BLUE        STATIC     ATOMS    COLORGROUP SYSTEM
6 25 26 27 28 29 30
