#       Name:                AV-unprocessed.smi:2025
#       Creating user name   scv26
#       Creation time:       Fri Mar 27 10:45:48 2020


#       File generated by GOLD software.
#

@<TRIPOS>MOLECULE
AV-unprocessed.smi:2025
    47    48     1
SMALL
NO_CHARGES


@<TRIPOS>ATOM
      1 ****        -2.4005  -0.8344   2.4353 C.3            1 S1                 0.0000
      2 ****        -1.9648  -0.6895   0.9690 C.3            1 S1                 0.0000
      3 ****        -0.5133  -0.8431   0.8988 N.am           1 S1                 0.0000
      4 ****         0.3148  -0.1170   0.1317 C.2            1 S1                 0.0000
      5 ****        -0.0691   0.7809  -0.6193 O.2            1 S1                 0.0000
      6 ****         1.8017  -0.4878   0.2140 C.3            1 S1                 0.0000
      7 ****         2.6916   0.6086  -0.1899 N.am           1 S1                 0.0000
      8 ****         3.1868   0.6465  -1.4808 C.2            1 S1                 0.0000
      9 ****         3.9941   1.6272  -1.9404 C.2            1 S1                 0.0000
     10 ****         4.4016   2.7262  -1.0742 C.2            1 S1                 0.0000
     11 ****         5.1217   3.6522  -1.4503 O.2            1 S1                 0.0000
     12 ****         3.8938   2.6567   0.2439 N.am           1 S1                 0.0000
     13 ****         4.2547   3.7329   1.1436 C.3            1 S1                 0.0000
     14 ****         3.0332   1.6377   0.7144 C.2            1 S1                 0.0000
     15 ****         2.5829   1.6331   1.8626 O.2            1 S1                 0.0000
     16 ****        -2.6469  -1.7233   0.0484 C.3            1 S1                 0.0000
     17 ****        -4.1698  -1.6171  -0.0127 C.3            1 S1                 0.0000
     18 ****        -4.4804  -2.3442  -1.3026 C.3            1 S1                 0.0000
     19 ****        -3.2786  -2.0023  -2.1835 C.3            1 S1                 0.0000
     20 ****        -2.2598  -1.5267  -1.3074 O.3            1 S1                 0.0000
     21 ****        -3.4706  -0.6620   2.5517 H              1 S1                 0.0000
     22 ****        -1.8863  -0.1118   3.0701 H              1 S1                 0.0000
     23 ****        -2.1801  -1.8312   2.8189 H              1 S1                 0.0000
     24 ****        -2.2449   0.3129   0.6402 H              1 S1                 0.0000
     25 ****        -0.1067  -1.5648   1.4760 H              1 S1                 0.0000
     26 ****         2.0452  -0.8167   1.2260 H              1 S1                 0.0000
     27 ****         1.9704  -1.3555  -0.4252 H              1 S1                 0.0000
     28 ****         2.9089  -0.1446  -2.1622 H              1 S1                 0.0000
     29 ****         4.3406   1.5998  -2.9631 H              1 S1                 0.0000
     30 ****         4.0975   3.4371   2.1810 H              1 S1                 0.0000
     31 ****         3.6314   4.5884   0.8796 H              1 S1                 0.0000
     32 ****         5.3151   3.9538   1.0090 H              1 S1                 0.0000
     33 ****        -2.3653  -2.7370   0.3399 H              1 S1                 0.0000
     34 ****        -4.6656  -2.0610   0.8511 H              1 S1                 0.0000
     35 ****        -4.4783  -0.5732  -0.0878 H              1 S1                 0.0000
     36 ****        -4.5164  -3.4195  -1.1227 H              1 S1                 0.0000
     37 ****        -5.4309  -2.0421  -1.7435 H              1 S1                 0.0000
     38 ****        -2.9324  -2.8722  -2.7427 H              1 S1                 0.0000
     39 ****        -3.5234  -1.2158  -2.8980 H              1 S1                 0.0000
     40 ****        -1.0429   1.0003  -0.6793 LP             1 S1                 0.0000
     41 ****         0.5930   1.2903  -1.1689 LP             1 S1                 0.0000
     42 ****         5.4566   3.6742  -2.3922 LP             1 S1                 0.0000
     43 ****         5.3712   4.3818  -0.8136 LP             1 S1                 0.0000
     44 ****         1.9724   0.8979   2.1574 LP             1 S1                 0.0000
     45 ****         2.8282   2.3645   2.4989 LP             1 S1                 0.0000
     46 ****        -1.4119  -2.0263  -1.4847 LP             1 S1                 0.0000
     47 ****        -2.1124  -0.5513  -1.4708 LP             1 S1                 0.0000
@<TRIPOS>BOND
    1    1    2 1     
    2    1   21 1     
    3    1   22 1     
    4    1   23 1     
    5    2    3 1     
    6    2   16 1     
    7    2   24 1     
    8    3    4 am    
    9    3   25 1     
   10    4    5 2     
   11    4    6 1     
   12    6    7 1     
   13    6   26 1     
   14    6   27 1     
   15    7   14 am    
   16    7    8 1     
   17    8    9 2     
   18    8   28 1     
   19    9   10 1     
   20    9   29 1     
   21   10   11 2     
   22   10   12 am    
   23   12   13 1     
   24   12   14 am    
   25   13   30 1     
   26   13   31 1     
   27   13   32 1     
   28   14   15 2     
   29   16   20 1     
   30   16   17 1     
   31   16   33 1     
   32   17   18 1     
   33   17   34 1     
   34   17   35 1     
   35   18   19 1     
   36   18   36 1     
   37   18   37 1     
   38   19   20 1     
   39   19   38 1     
   40   19   39 1     
   41    5   40 1     
   42    5   41 1     
   43   11   42 1     
   44   11   43 1     
   45   15   44 1     
   46   15   45 1     
   47   20   46 1     
   48   20   47 1     
@<TRIPOS>SUBSTRUCTURE
      1 S1             1
@<TRIPOS>SET
LONE_PAIRS      STATIC     ATOMS    <user>   **** ""
8 40 41 42 43 44 45 46 47
DONOR_HYDROGENS      STATIC     ATOMS    <user>   **** ""
1 25
ATOM$BLUE        STATIC     ATOMS    COLORGROUP SYSTEM
8 40 41 42 43 44 45 46 47
ATOM$RED        STATIC     ATOMS    COLORGROUP SYSTEM
1 25
