AV-unprocessed.smi:2489|AV-procd|sdf|9805|dock5
  -GOLD-   2272013433D 1   1.00000     0.00000
 Structure written by MMmdl.
 34 35  0  0  0  0  0  0  0  0  2 V2000
  153.6804  140.9759  160.2699 C   0  0  0  0  0  0  0  0  0  0  0  0
  153.3617  142.3484  160.4478 O   0  0  0  0  0  0  0  0  0  0  0  0
  152.5130  142.9404  159.5374 C   0  0  0  0  0  0  0  0  0  0  0  0
  152.2079  144.3037  159.7299 C   0  0  0  0  0  0  0  0  0  0  0  0
  151.3584  144.9634  158.8221 C   0  0  0  0  0  0  0  0  0  0  0  0
  150.8358  144.2862  157.7783 N   0  3  0  0  0  0  0  0  0  0  0  0
  151.0731  142.9755  157.5473 C   0  0  0  0  0  0  0  0  0  0  0  0
  150.4697  142.3967  156.3997 N   0  0  0  0  0  0  0  0  0  0  0  0
  150.4871  141.1078  156.0104 C   0  0  0  0  0  0  0  0  0  0  0  0
  151.0021  140.1984  156.6616 O   0  0  0  0  0  0  0  0  0  0  0  0
  149.7618  140.7818  154.6952 C   0  0  2  0  0  0  0  0  0  0  0  0
  148.4000  141.4847  154.5318 C   0  0  0  0  0  0  0  0  0  0  0  0
  147.3989  140.3484  154.5938 C   0  0  0  0  0  0  0  0  0  0  0  0
  148.2084  139.1819  154.0410 C   0  0  2  0  0  0  0  0  0  0  0  0
  147.6527  137.8028  154.4104 C   0  0  0  0  0  0  0  0  0  0  0  0
  149.4828  139.3810  154.6322 O   0  0  0  0  0  0  0  0  0  0  0  0
  151.9370  142.2729  158.4249 C   0  0  0  0  0  0  0  0  0  0  0  0
  154.3574  140.6581  161.0628 H   0  0  0  0  0  0  0  0  0  0  0  0
  154.1844  140.8033  159.3181 H   0  0  0  0  0  0  0  0  0  0  0  0
  152.7896  140.3489  160.3262 H   0  0  0  0  0  0  0  0  0  0  0  0
  152.6295  144.8422  160.5665 H   0  0  0  0  0  0  0  0  0  0  0  0
  151.0838  146.0054  158.8986 H   0  0  0  0  0  0  0  0  0  0  0  0
  149.9144  143.0203  155.8317 H   0  0  0  0  0  0  0  0  0  0  0  0
  150.4152  141.0475  153.8633 H   0  0  0  0  0  0  0  0  0  0  0  0
  148.1879  142.2456  155.2839 H   0  0  0  0  0  0  0  0  0  0  0  0
  148.3530  141.9703  153.5562 H   0  0  0  0  0  0  0  0  0  0  0  0
  147.1168  140.1596  155.6304 H   0  0  0  0  0  0  0  0  0  0  0  0
  146.4914  140.5470  154.0231 H   0  0  0  0  0  0  0  0  0  0  0  0
  148.3045  139.2739  152.9577 H   0  0  0  0  0  0  0  0  0  0  0  0
  146.6557  137.6588  153.9938 H   0  0  0  0  0  0  0  0  0  0  0  0
  147.5854  137.6801  155.4916 H   0  0  0  0  0  0  0  0  0  0  0  0
  148.2928  137.0094  154.0242 H   0  0  0  0  0  0  0  0  0  0  0  0
  152.1639  141.2361  158.2336 H   0  0  0  0  0  0  0  0  0  0  0  0
  150.2244  144.7913  157.1362 H   0  0  0  0  0  0  0  0  0  0  0  0
  1  2  1  0  0  0  0
  1 18  1  0  0  0  0
  1 19  1  0  0  0  0
  1 20  1  0  0  0  0
  2  3  1  0  0  0  0
  3 17  1  0  0  0  0
  3  4  2  0  0  0  0
  4  5  1  0  0  0  0
  4 21  1  0  0  0  0
  5  6  2  0  0  0  0
  5 22  1  0  0  0  0
  6  7  1  0  0  0  0
  6 34  1  0  0  0  0
  7  8  1  0  0  0  0
  7 17  2  0  0  0  0
  8  9  1  0  0  0  0
  8 23  1  0  0  0  0
  9 10  2  0  0  0  0
  9 11  1  0  0  0  0
 11 16  1  0  0  0  0
 11 12  1  0  0  0  0
 11 24  1  0  0  0  0
 12 13  1  0  0  0  0
 12 25  1  0  0  0  0
 12 26  1  0  0  0  0
 13 14  1  0  0  0  0
 13 27  1  0  0  0  0
 13 28  1  0  0  0  0
 14 15  1  0  0  0  0
 14 16  1  0  0  0  0
 14 29  1  0  0  0  0
 15 30  1  0  0  0  0
 15 31  1  0  0  0  0
 15 32  1  0  0  0  0
 17 33  1  0  0  0  0
M  CHG  1   6   1
M  END
> <s_m_source_file>
AV-unprocessed.smi

> <i_m_source_file_index>
2489

> <i_lp_mmshare_version>
43012

> <i_f3d_flags>
0

> <s_epik_input>
W0NIM11PYzFbY0hdW2NIXW5jKFtjSF0xKVtOSF1DKD1PKVtDQEBIXTJbQ0gyXVtDSDJdW0NASF0oTzIpW0NIM10=

> <s_epik_cmdline>
J2VwaWtfcHl0aG9uJywgJy1waCcsICc3LjAnLCAnLXRuJywgJzgnLCAnLW1hJywgJzIwMCcsICctbWV0YWxfYmluZGluZycsICctaW1hZScsICc8aW5maWxlLm1hZT4nLCAnLW9tYWUnLCAnPG91dGZpbGUubWFlPic=

> <r_epik_Ionization_Penalty>
1.58956

> <r_epik_Ionization_Penalty_Charging>
1.1784

> <r_epik_Ionization_Penalty_Neutral>
0.411158

> <r_epik_State_Penalty>
1.31089

> <r_epik_Charging_Adjusted_Penalty>
2.48928

> <i_epik_Tot_Q>
1

> <i_epik_Tot_abs_Q>
1

> <r_epik_Metal_State_Penalty>
5.00213

> <b_epik_Metal_Only>
0

> <s_lp_Force_Field>
OPLS_2005

> <r_lp_Energy>
31.9404

> <b_lp_Chiralities_Consistent>
1

> <s_lp_Variant>
AV-unprocessed.smi:2489-11

> <Gold.Version>
5.8.1

> <Gold.Id.Protein>
6NUR|6NUR_protein|mol2

> <Gold.PLP.Fitness>
43.3475

> <Gold.PLP.PLP>
-35.2640

> <Gold.PLP.part.hbond>
-2.0000

> <Gold.PLP.part.metal>
0.0000

> <Gold.PLP.part.buried>
-5.2680

> <Gold.PLP.part.nonpolar>
-29.4294

> <Gold.PLP.part.repulsive>
0.2489

> <Gold.PLP.ligand.clash>
0.0000

> <Gold.PLP.ligand.torsion>
0.4519

> <Gold.PLP.Chemscore.Hbond>
2.9920

> <Gold.PLP.Chemscore.CHOScore>
0.0000

> <Gold.PLP.Chemscore.Metal>
0.0000

> <Gold.Chemscore.Hbonds>
donor molecule, donor type, donor heavy atom, donor atom, acceptor molecule, acceptor atom, score
      L1  H     6    34       P1  8028  2.00
      L1  H     8    23       P1  8028  0.99

> <Gold.PLP.Chemscore.Internal.Correction>
0.0113

> <Gold.Rescore>
     Score         DG    S(hbond)    S(metal)    S(lipo)     H(rot)  DE(clash)    DE(int)     intcor
     15.63     -17.40       1.56        0.00      84.62       1.24       0.12       1.64       ----

> <Gold.Chemscore.Fitness>
15.6346

> <Gold.Chemscore.DG>
-17.3981

> <Gold.Chemscore.ZeroCoef>
-5.4800

> <Gold.Chemscore.Hbond>
1.5552

> <Gold.Chemscore.Metal>
0.0000

> <Gold.Chemscore.Lipo>
84.6192

> <Gold.Chemscore.Internal_Hbond>
0.0000

> <Gold.Chemscore.DEClash>
0.1189

> <Gold.Chemscore.DEInternal>
1.6446

> <Gold.Chemscore.Rot>
1.2409

> <Gold.Chemscore.Internal.Correction>
   9.000000E+99

> <Gold.Chemscore.Hbonds>
donor molecule, donor type, donor heavy atom, donor atom, acceptor molecule, acceptor atom, score
      L1  H     6    34       P1  8028  0.32
      L1  H     8    23       P1  8028  0.90

> <Gold.Chemscore.Hbond.Weighted>
-5.1943

> <Gold.Chemscore.Metal.Weighted>
-0.0000

> <Gold.Chemscore.Lipo.Weighted>
-9.9004

> <Gold.Chemscore.Internal_Hbond.Weighted>
0.0000

> <Gold.Chemscore.DEClash.Weighted>
0.1189

> <Gold.Chemscore.DEInternal.Weighted>
1.6446

> <Gold.Chemscore.Rot.Weighted>
3.1767

> <Gold.Chemscore.Internal.Correction.Weighted>
   9.000000E+99

> <Gold.Protein.RotatedTorsions>
[ 6907 6896 6895 6894 ] final -125.39 input  -60.11 | X-H torsion
[ 7974 7965 7964 7962 ] final  -64.66 input  175.53 | X-H torsion
[ 8008 7997 7996 7995 ] final -173.83 input   59.86 | X-H torsion
[ 10167 10162 10161 10158 ] final  134.95 input  -65.29 | X-H torsion
[ 10718 10713 10712 10709 ] final  111.33 input   66.30 | X-H torsion
[ 10763 10752 10751 10750 ] final  -27.32 input  -60.55 | X-H torsion
[ 11005 11000 10999 10996 ] final  103.99 input  -57.11 | X-H torsion

> <Gold.Protein.ActiveResidues>
 VAL166  LYS551  ARG553  GLY616  TRP617  ASP618  TYR619  PRO620  LYS621  CYS622 
 ASP623  PHE694  ASN695  SER759  ASP760  ASP761  ALA762  ILE779  LEU786  VAL792 
 PHE793  MET794  SER795  GLU796  ALA797  LYS798  CYS799  TRP800  GLU811  SER814 

> <Gold.Protein.RotatedAtoms>
  150.8863  133.7303  159.2917 H   0  0  0  0  0  0  0  0  0  0  0  0  # atno 6907 bound_to 6896
  151.4868  135.1054  159.9802 H   0  0  0  0  0  0  0  0  0  0  0  0  # atno 6908 bound_to 6896
  152.4792  133.8166  159.7087 H   0  0  0  0  0  0  0  0  0  0  0  0  # atno 6909 bound_to 6896
  145.7640  140.8847  143.0415 H   0  0  0  0  0  0  0  0  0  0  0  0  # atno 7974 bound_to 7965
  155.9625  140.1147  157.0883 H   0  0  0  0  0  0  0  0  0  0  0  0  # atno 8008 bound_to 7997
  154.4135  140.1179  156.5264 H   0  0  0  0  0  0  0  0  0  0  0  0  # atno 8009 bound_to 7997
  155.6702  140.3473  155.4818 H   0  0  0  0  0  0  0  0  0  0  0  0  # atno 8010 bound_to 7997
  139.5236  144.6542  151.5212 H   0  0  0  0  0  0  0  0  0  0  0  0  # atno 10167 bound_to 10162
  157.6450  131.0948  150.6732 H   0  0  0  0  0  0  0  0  0  0  0  0  # atno 10718 bound_to 10713
  153.7302  135.6939  153.4991 H   0  0  0  0  0  0  0  0  0  0  0  0  # atno 10763 bound_to 10752
  153.2141  135.4392  155.0413 H   0  0  0  0  0  0  0  0  0  0  0  0  # atno 10764 bound_to 10752
  154.8255  135.3444  154.6832 H   0  0  0  0  0  0  0  0  0  0  0  0  # atno 10765 bound_to 10752
  139.8788  134.9284  156.5294 H   0  0  0  0  0  0  0  0  0  0  0  0  # atno 11005 bound_to 11000
  144.6825  139.9762  143.7483 LP  0  0  0  0  0  0  0  0  0  0  0  0  # atno 17320 bound_to 7965
  146.0236  139.3272  143.0798 LP  0  0  0  0  0  0  0  0  0  0  0  0  # atno 17321 bound_to 7965
  140.6360  143.8983  150.6648 LP  0  0  0  0  0  0  0  0  0  0  0  0  # atno 17342 bound_to 10162
  140.2302  143.3741  152.1571 LP  0  0  0  0  0  0  0  0  0  0  0  0  # atno 17343 bound_to 10162
  156.7051  130.4635  149.5562 LP  0  0  0  0  0  0  0  0  0  0  0  0  # atno 17370 bound_to 10713
  156.1769  130.6473  151.0904 LP  0  0  0  0  0  0  0  0  0  0  0  0  # atno 17371 bound_to 10713
  140.8392  133.8218  155.9058 LP  0  0  0  0  0  0  0  0  0  0  0  0  # atno 17394 bound_to 11000
  140.9254  134.2089  157.4899 LP  0  0  0  0  0  0  0  0  0  0  0  0  # atno 17395 bound_to 11000

$$$$
