AV-unprocessed.smi:1406|AV-procd|sdf|5718|dock6
  -GOLD-   22720 5353D 1   1.00000     0.00000
 Structure written by MMmdl.
 41 43  0  0  0  0  0  0  0  0  2 V2000
  153.1471  141.8934  161.3056 C   0  0  0  0  0  0  0  0  0  0  0  0
  153.0888  142.2743  159.8123 C   0  0  1  0  0  0  0  0  0  0  0  0
  152.8652  141.0612  158.8956 C   0  0  0  0  0  0  0  0  0  0  0  0
  153.7172  140.1775  158.7977 O   0  0  0  0  0  0  0  0  0  0  0  0
  151.7015  141.0299  158.2273 N   0  0  0  0  0  0  0  0  0  0  0  0
  151.2734  139.9505  157.3417 C   0  0  2  0  0  0  0  0  0  0  0  0
  152.2983  139.5885  156.2460 C   0  0  0  0  0  0  0  0  0  0  0  0
  151.4590  139.3810  154.9812 C   0  0  0  0  0  0  0  0  0  0  0  0
  150.3560  140.3323  155.1597 N   0  3  1  0  0  0  0  0  0  0  0  0
  149.1959  140.2488  154.2492 C   0  0  0  0  0  0  0  0  0  0  0  0
  148.2705  141.4536  154.5267 C   0  0  0  0  0  0  0  0  0  0  0  0
  147.9012  141.5778  156.0231 C   0  0  0  0  0  0  0  0  0  0  0  0
  149.1514  141.5315  156.9287 C   0  0  0  0  0  0  0  0  0  0  0  0
  149.9704  140.2761  156.5800 C   0  0  2  0  0  0  0  0  0  0  0  0
  152.0857  143.2975  159.5436 N   0  0  0  0  0  0  0  0  0  0  0  0
  152.2369  144.5709  159.1725 C   0  0  0  0  0  0  0  0  0  0  0  0
  151.0950  145.2099  158.9613 N   0  0  0  0  0  0  0  0  0  0  0  0
  150.2153  144.2002  159.2312 C   0  0  0  0  0  0  0  0  0  0  0  0
  150.7559  143.0311  159.5732 N   0  0  0  0  0  0  0  0  0  0  0  0
  153.9345  141.1630  161.4949 H   0  0  0  0  0  0  0  0  0  0  0  0
  152.2077  141.4647  161.6573 H   0  0  0  0  0  0  0  0  0  0  0  0
  153.3605  142.7680  161.9207 H   0  0  0  0  0  0  0  0  0  0  0  0
  154.0588  142.7012  159.5519 H   0  0  0  0  0  0  0  0  0  0  0  0
  151.0566  141.7947  158.3637 H   0  0  0  0  0  0  0  0  0  0  0  0
  151.0866  139.0689  157.9586 H   0  0  0  0  0  0  0  0  0  0  0  0
  152.9899  140.4174  156.0856 H   0  0  0  0  0  0  0  0  0  0  0  0
  152.8921  138.7101  156.5009 H   0  0  0  0  0  0  0  0  0  0  0  0
  152.0202  139.5725  154.0662 H   0  0  0  0  0  0  0  0  0  0  0  0
  151.0669  138.3634  154.9428 H   0  0  0  0  0  0  0  0  0  0  0  0
  149.5375  140.2668  153.2138 H   0  0  0  0  0  0  0  0  0  0  0  0
  148.6657  139.3071  154.3996 H   0  0  0  0  0  0  0  0  0  0  0  0
  148.7721  142.3683  154.2083 H   0  0  0  0  0  0  0  0  0  0  0  0
  147.3656  141.3763  153.9231 H   0  0  0  0  0  0  0  0  0  0  0  0
  147.3468  142.5006  156.1970 H   0  0  0  0  0  0  0  0  0  0  0  0
  147.2301  140.7619  156.2947 H   0  0  0  0  0  0  0  0  0  0  0  0
  149.7500  142.4317  156.7822 H   0  0  0  0  0  0  0  0  0  0  0  0
  148.8522  141.5141  157.9774 H   0  0  0  0  0  0  0  0  0  0  0  0
  149.3190  139.4083  156.7060 H   0  0  0  0  0  0  0  0  0  0  0  0
  153.2021  145.0391  159.0476 H   0  0  0  0  0  0  0  0  0  0  0  0
  149.1447  144.3282  159.1658 H   0  0  0  0  0  0  0  0  0  0  0  0
  150.7655  141.2447  155.0179 H   0  0  0  0  0  0  0  0  0  0  0  0
  1  2  1  0  0  0  0
  1 20  1  0  0  0  0
  1 21  1  0  0  0  0
  1 22  1  0  0  0  0
  2  3  1  0  0  0  0
  2 15  1  0  0  0  0
  2 23  1  0  0  0  0
  3  4  2  0  0  0  0
  3  5  1  0  0  0  0
  5  6  1  0  0  0  0
  5 24  1  0  0  0  0
  6 14  1  0  0  0  0
  6  7  1  0  0  0  0
  6 25  1  0  0  0  0
  7  8  1  0  0  0  0
  7 26  1  0  0  0  0
  7 27  1  0  0  0  0
  8  9  1  0  0  0  0
  8 28  1  0  0  0  0
  8 29  1  0  0  0  0
  9 14  1  0  0  0  0
  9 10  1  0  0  0  0
  9 41  1  0  0  0  0
 10 11  1  0  0  0  0
 10 30  1  0  0  0  0
 10 31  1  0  0  0  0
 11 12  1  0  0  0  0
 11 32  1  0  0  0  0
 11 33  1  0  0  0  0
 12 13  1  0  0  0  0
 12 34  1  0  0  0  0
 12 35  1  0  0  0  0
 13 14  1  0  0  0  0
 13 36  1  0  0  0  0
 13 37  1  0  0  0  0
 14 38  1  0  0  0  0
 15 19  1  0  0  0  0
 15 16  1  0  0  0  0
 16 17  2  0  0  0  0
 16 39  1  0  0  0  0
 17 18  1  0  0  0  0
 18 19  2  0  0  0  0
 18 40  1  0  0  0  0
M  CHG  1   9   1
M  END
> <s_m_source_file>
AV-unprocessed.smi

> <i_m_source_file_index>
1406

> <i_lp_mmshare_version>
43012

> <i_f3d_flags>
0

> <s_epik_input>
bjFbY0hdbltjSF1uMVtDQEhdKFtDSDNdKUMoPU8pW05IXVtDQEhdKFtDSDJdW0NIMl0yKVtDQEBIXShOMjMpW0NIMl1bQ0gyXVtDSDJdW0NIMl0z

> <s_epik_cmdline>
J2VwaWtfcHl0aG9uJywgJy1waCcsICc3LjAnLCAnLXRuJywgJzgnLCAnLW1hJywgJzIwMCcsICctbWV0YWxfYmluZGluZycsICctaW1hZScsICc8aW5maWxlLm1hZT4nLCAnLW9tYWUnLCAnPG91dGZpbGUubWFlPic=

> <r_lp_tautomer_probability>
1

> <r_epik_Ionization_Penalty>
0.00197066

> <r_epik_Ionization_Penalty_Charging>
0.00196223

> <r_epik_Ionization_Penalty_Neutral>
8.43107e-06

> <r_epik_State_Penalty>
0.00133866

> <r_epik_Charging_Adjusted_Penalty>
0.00330089

> <i_epik_Tot_Q>
1

> <i_epik_Tot_abs_Q>
1

> <r_epik_Metal_State_Penalty>
-0

> <b_epik_Metal_Only>
0

> <s_lp_Force_Field>
OPLS_2005

> <r_lp_Energy>
46.7011

> <b_lp_Chiralities_Consistent>
1

> <s_lp_Variant>
AV-unprocessed.smi:1406-10

> <Gold.Version>
5.8.1

> <Gold.Id.Protein>
6NUR|6NUR_protein|mol2

> <Gold.PLP.Fitness>
43.5615

> <Gold.PLP.PLP>
-38.2178

> <Gold.PLP.part.hbond>
-1.5032

> <Gold.PLP.part.metal>
0.0000

> <Gold.PLP.part.buried>
-2.3602

> <Gold.PLP.part.nonpolar>
-33.6282

> <Gold.PLP.part.repulsive>
0.3997

> <Gold.PLP.ligand.clash>
0.0000

> <Gold.PLP.ligand.torsion>
0.3420

> <Gold.PLP.Chemscore.Hbond>
0.9760

> <Gold.PLP.Chemscore.CHOScore>
1.0000

> <Gold.PLP.Chemscore.Metal>
0.0000

> <Gold.Chemscore.Hbonds>
donor molecule, donor type, donor heavy atom, donor atom, acceptor molecule, acceptor atom, score
      P1  H  7997  8008       L1     4  0.96
      L1  C    18    40       P1  8029  0.32

> <Gold.PLP.Chemscore.Internal.Correction>
0.0996

> <Gold.Rescore>
     Score         DG    S(hbond)    S(metal)    S(lipo)     H(rot)  DE(clash)    DE(int)     intcor
      8.55     -11.40       0.91        0.00      65.81       1.89       0.01       2.84       ----

> <Gold.Chemscore.Fitness>
8.5465

> <Gold.Chemscore.DG>
-11.4010

> <Gold.Chemscore.ZeroCoef>
-5.4800

> <Gold.Chemscore.Hbond>
0.9133

> <Gold.Chemscore.Metal>
0.0000

> <Gold.Chemscore.Lipo>
65.8128

> <Gold.Chemscore.Internal_Hbond>
0.0000

> <Gold.Chemscore.DEClash>
0.0120

> <Gold.Chemscore.DEInternal>
2.8426

> <Gold.Chemscore.Rot>
1.8865

> <Gold.Chemscore.Internal.Correction>
   9.000000E+99

> <Gold.Chemscore.Hbonds>
donor molecule, donor type, donor heavy atom, donor atom, acceptor molecule, acceptor atom, score
      P1  H  7997  8008       L1     4  0.90

> <Gold.Chemscore.Hbond.Weighted>
-3.0505

> <Gold.Chemscore.Metal.Weighted>
-0.0000

> <Gold.Chemscore.Lipo.Weighted>
-7.7001

> <Gold.Chemscore.Internal_Hbond.Weighted>
0.0000

> <Gold.Chemscore.DEClash.Weighted>
0.0120

> <Gold.Chemscore.DEInternal.Weighted>
2.8426

> <Gold.Chemscore.Rot.Weighted>
4.8295

> <Gold.Chemscore.Internal.Correction.Weighted>
   9.000000E+99

> <Gold.Protein.RotatedTorsions>
[ 6907 6896 6895 6894 ] final   86.15 input  -60.11 | X-H torsion
[ 7974 7965 7964 7962 ] final   80.49 input  175.53 | X-H torsion
[ 8008 7997 7996 7995 ] final -100.28 input   59.86 | X-H torsion
[ 10167 10162 10161 10158 ] final   54.53 input  -65.29 | X-H torsion
[ 10718 10713 10712 10709 ] final    1.86 input   66.30 | X-H torsion
[ 10763 10752 10751 10750 ] final -128.75 input  -60.55 | X-H torsion
[ 11005 11000 10999 10996 ] final   96.45 input  -57.11 | X-H torsion

> <Gold.Protein.ActiveResidues>
 VAL166  LYS551  ARG553  GLY616  TRP617  ASP618  TYR619  PRO620  LYS621  CYS622 
 ASP623  PHE694  ASN695  SER759  ASP760  ASP761  ALA762  ILE779  LEU786  VAL792 
 PHE793  MET794  SER795  GLU796  ALA797  LYS798  CYS799  TRP800  GLU811  SER814 

> <Gold.Protein.RotatedAtoms>
  152.5389  134.2475  159.8885 H   0  0  0  0  0  0  0  0  0  0  0  0  # atno 6907 bound_to 6896
  151.2440  133.4378  159.2616 H   0  0  0  0  0  0  0  0  0  0  0  0  # atno 6908 bound_to 6896
  151.0600  134.9744  159.8312 H   0  0  0  0  0  0  0  0  0  0  0  0  # atno 6909 bound_to 6896
  145.6506  139.2446  143.1979 H   0  0  0  0  0  0  0  0  0  0  0  0  # atno 7974 bound_to 7965
  154.8264  140.0442  157.1446 H   0  0  0  0  0  0  0  0  0  0  0  0  # atno 8008 bound_to 7997
  154.9202  140.3026  155.5200 H   0  0  0  0  0  0  0  0  0  0  0  0  # atno 8009 bound_to 7997
  156.2984  140.2342  156.4251 H   0  0  0  0  0  0  0  0  0  0  0  0  # atno 8010 bound_to 7997
  140.2292  144.3705  150.6421 H   0  0  0  0  0  0  0  0  0  0  0  0  # atno 10167 bound_to 10162
  156.8545  130.5565  149.5667 H   0  0  0  0  0  0  0  0  0  0  0  0  # atno 10718 bound_to 10713
  154.8757  135.3918  154.3808 H   0  0  0  0  0  0  0  0  0  0  0  0  # atno 10763 bound_to 10752
  153.4556  135.7028  153.6087 H   0  0  0  0  0  0  0  0  0  0  0  0  # atno 10764 bound_to 10752
  153.4608  135.3812  155.2306 H   0  0  0  0  0  0  0  0  0  0  0  0  # atno 10765 bound_to 10752
  139.8781  134.8951  156.4161 H   0  0  0  0  0  0  0  0  0  0  0  0  # atno 11005 bound_to 11000
  146.1207  140.7312  142.9459 LP  0  0  0  0  0  0  0  0  0  0  0  0  # atno 17320 bound_to 7965
  144.7124  140.4088  143.7070 LP  0  0  0  0  0  0  0  0  0  0  0  0  # atno 17321 bound_to 7965
  140.6198  143.2175  151.6718 LP  0  0  0  0  0  0  0  0  0  0  0  0  # atno 17342 bound_to 10162
  139.5116  144.3503  152.0658 LP  0  0  0  0  0  0  0  0  0  0  0  0  # atno 17343 bound_to 10162
  156.0810  130.5820  150.9563 LP  0  0  0  0  0  0  0  0  0  0  0  0  # atno 17370 bound_to 10713
  157.6285  131.0923  150.8488 LP  0  0  0  0  0  0  0  0  0  0  0  0  # atno 17371 bound_to 10713
  140.9166  133.7674  155.9856 LP  0  0  0  0  0  0  0  0  0  0  0  0  # atno 17394 bound_to 11000
  140.8486  134.2981  157.5284 LP  0  0  0  0  0  0  0  0  0  0  0  0  # atno 17395 bound_to 11000

$$$$
