AV-unprocessed.smi:1040|AV-procd|sdf|4525|dock7
  -GOLD-   22720 2543D 1   1.00000     0.00000
 Structure written by MMmdl.
 54 55  0  0  0  0  0  0  0  0  1 V2000
  147.2476  135.0392  157.9382 C   0  0  0  0  0  0  0  0  0  0  0  0
  148.3017  135.7849  158.7736 C   0  0  1  0  0  0  0  0  0  0  0  0
  148.6223  137.0335  158.0847 N   0  0  0  0  0  0  0  0  0  0  0  0
  149.4544  137.9796  158.5432 C   0  0  0  0  0  0  0  0  0  0  0  0
  150.0786  137.8810  159.5995 O   0  0  0  0  0  0  0  0  0  0  0  0
  149.5120  139.0196  157.6950 N   0  0  0  0  0  0  0  0  0  0  0  0
  150.3359  140.1809  157.7535 C   0  0  0  0  0  0  0  0  0  0  0  0
  151.4121  140.3169  158.6647 C   0  0  0  0  0  0  0  0  0  0  0  0
  152.1508  141.5135  158.6815 C   0  0  0  0  0  0  0  0  0  0  0  0
  151.7815  142.5397  157.7948 C   0  0  0  0  0  0  0  0  0  0  0  0
  150.7520  142.4325  156.9310 N   0  0  0  0  0  0  0  0  0  0  0  0
  150.0368  141.2815  156.9051 C   0  0  0  0  0  0  0  0  0  0  0  0
  148.9786  141.2005  155.9780 N   0  0  0  0  0  0  0  0  0  0  0  0
  147.7347  141.8838  156.3319 C   0  0  0  0  0  0  0  0  0  0  0  0
  146.5885  141.4349  155.4095 C   0  0  0  0  0  0  0  0  0  0  0  0
  146.9656  141.6245  153.9311 C   0  0  0  0  0  0  0  0  0  0  0  0
  148.2950  140.9158  153.6238 C   0  0  0  0  0  0  0  0  0  0  0  0
  149.4000  141.3766  154.5896 C   0  0  0  0  0  0  0  0  0  0  0  0
  147.6899  136.0775  160.1527 C   0  0  0  0  0  0  0  0  0  0  0  0
  147.7741  137.2038  160.6449 O   0  0  0  0  0  0  0  0  0  0  0  0
  147.0610  135.0465  160.7447 N   0  0  0  0  0  0  0  0  0  0  0  0
  146.3723  135.0192  162.0406 C   0  0  0  0  0  0  0  0  0  0  0  0
  147.3716  135.5370  163.0900 C   0  0  0  0  0  0  0  0  0  0  0  0
  145.9639  133.5772  162.4080 C   0  0  0  0  0  0  0  0  0  0  0  0
  145.1386  135.9465  162.0233 C   0  0  0  0  0  0  0  0  0  0  0  0
  146.9698  134.0927  158.4040 H   0  0  0  0  0  0  0  0  0  0  0  0
  147.6326  134.8095  156.9441 H   0  0  0  0  0  0  0  0  0  0  0  0
  146.3372  135.6272  157.8100 H   0  0  0  0  0  0  0  0  0  0  0  0
  149.1957  135.1662  158.8754 H   0  0  0  0  0  0  0  0  0  0  0  0
  148.1506  137.1998  157.2082 H   0  0  0  0  0  0  0  0  0  0  0  0
  148.9758  138.9226  156.8450 H   0  0  0  0  0  0  0  0  0  0  0  0
  151.6761  139.5380  159.3624 H   0  0  0  0  0  0  0  0  0  0  0  0
  152.9765  141.6439  159.3651 H   0  0  0  0  0  0  0  0  0  0  0  0
  152.3230  143.4739  157.7819 H   0  0  0  0  0  0  0  0  0  0  0  0
  147.4778  141.6726  157.3709 H   0  0  0  0  0  0  0  0  0  0  0  0
  147.8762  142.9622  156.2470 H   0  0  0  0  0  0  0  0  0  0  0  0
  146.3615  140.3844  155.5959 H   0  0  0  0  0  0  0  0  0  0  0  0
  145.6818  141.9942  155.6410 H   0  0  0  0  0  0  0  0  0  0  0  0
  146.1747  141.2389  153.2872 H   0  0  0  0  0  0  0  0  0  0  0  0
  147.0583  142.6886  153.7104 H   0  0  0  0  0  0  0  0  0  0  0  0
  148.1624  139.8364  153.7107 H   0  0  0  0  0  0  0  0  0  0  0  0
  148.5944  141.1094  152.5934 H   0  0  0  0  0  0  0  0  0  0  0  0
  149.6258  142.4304  154.4216 H   0  0  0  0  0  0  0  0  0  0  0  0
  150.3180  140.8240  154.3883 H   0  0  0  0  0  0  0  0  0  0  0  0
  147.0599  134.1737  160.2370 H   0  0  0  0  0  0  0  0  0  0  0  0
  146.9306  135.5476  164.0875 H   0  0  0  0  0  0  0  0  0  0  0  0
  147.6947  136.5541  162.8646 H   0  0  0  0  0  0  0  0  0  0  0  0
  148.2633  134.9101  163.1335 H   0  0  0  0  0  0  0  0  0  0  0  0
  146.8222  132.9047  162.3871 H   0  0  0  0  0  0  0  0  0  0  0  0
  145.2144  133.1761  161.7258 H   0  0  0  0  0  0  0  0  0  0  0  0
  145.5381  133.5336  163.4111 H   0  0  0  0  0  0  0  0  0  0  0  0
  144.6784  136.0049  163.0103 H   0  0  0  0  0  0  0  0  0  0  0  0
  144.3700  135.5960  161.3346 H   0  0  0  0  0  0  0  0  0  0  0  0
  145.4085  136.9611  161.7272 H   0  0  0  0  0  0  0  0  0  0  0  0
  1  2  1  0  0  0  0
  1 26  1  0  0  0  0
  1 27  1  0  0  0  0
  1 28  1  0  0  0  0
  2  3  1  0  0  0  0
  2 19  1  0  0  0  0
  2 29  1  0  0  0  0
  3  4  1  0  0  0  0
  3 30  1  0  0  0  0
  4  5  2  0  0  0  0
  4  6  1  0  0  0  0
  6  7  1  0  0  0  0
  6 31  1  0  0  0  0
  7 12  1  0  0  0  0
  7  8  2  0  0  0  0
  8  9  1  0  0  0  0
  8 32  1  0  0  0  0
  9 10  2  0  0  0  0
  9 33  1  0  0  0  0
 10 11  1  0  0  0  0
 10 34  1  0  0  0  0
 11 12  2  0  0  0  0
 12 13  1  0  0  0  0
 13 18  1  0  0  0  0
 13 14  1  0  0  0  0
 14 15  1  0  0  0  0
 14 35  1  0  0  0  0
 14 36  1  0  0  0  0
 15 16  1  0  0  0  0
 15 37  1  0  0  0  0
 15 38  1  0  0  0  0
 16 17  1  0  0  0  0
 16 39  1  0  0  0  0
 16 40  1  0  0  0  0
 17 18  1  0  0  0  0
 17 41  1  0  0  0  0
 17 42  1  0  0  0  0
 18 43  1  0  0  0  0
 18 44  1  0  0  0  0
 19 20  2  0  0  0  0
 19 21  1  0  0  0  0
 21 22  1  0  0  0  0
 21 45  1  0  0  0  0
 22 23  1  0  0  0  0
 22 24  1  0  0  0  0
 22 25  1  0  0  0  0
 23 46  1  0  0  0  0
 23 47  1  0  0  0  0
 23 48  1  0  0  0  0
 24 49  1  0  0  0  0
 24 50  1  0  0  0  0
 24 51  1  0  0  0  0
 25 52  1  0  0  0  0
 25 53  1  0  0  0  0
 25 54  1  0  0  0  0
M  END
> <s_m_source_file>
AV-unprocessed.smi

> <i_m_source_file_index>
1040

> <i_lp_mmshare_version>
43012

> <i_f3d_flags>
0

> <s_epik_input>
W0NIM11DKFtDSDNdKShbQ0gzXSlbTkhdQyg9TylbQ0BIXShbQ0gzXSlbTkhdQyg9TylbTkhdYzFbY0hdW2NIXVtjSF1uYzFOMltDSDJdW0NIMl1bQ0gyXVtDSDJdW0NIMl0y

> <s_epik_cmdline>
J2VwaWtfcHl0aG9uJywgJy1waCcsICc3LjAnLCAnLXRuJywgJzgnLCAnLW1hJywgJzIwMCcsICctbWV0YWxfYmluZGluZycsICctaW1hZScsICc8aW5maWxlLm1hZT4nLCAnLW9tYWUnLCAnPG91dGZpbGUubWFlPic=

> <r_lp_tautomer_probability>
1

> <r_epik_Ionization_Penalty>
0.0878593

> <r_epik_Ionization_Penalty_Charging>
0

> <r_epik_Ionization_Penalty_Neutral>
0.0878593

> <r_epik_State_Penalty>
0.07381

> <r_epik_Charging_Adjusted_Penalty>
0.07381

> <i_epik_Tot_Q>
0

> <i_epik_Tot_abs_Q>
0

> <r_epik_Metal_State_Penalty>
0.0646628

> <b_epik_Metal_Only>
0

> <s_lp_Force_Field>
OPLS_2005

> <r_lp_Energy>
20.3339

> <b_lp_Chiralities_Consistent>
1

> <s_lp_Variant>
AV-unprocessed.smi:1040-2

> <Gold.Version>
5.8.1

> <Gold.Id.Protein>
6NUR|6NUR_protein|mol2

> <Gold.PLP.Fitness>
42.6185

> <Gold.PLP.PLP>
-38.5858

> <Gold.PLP.part.hbond>
-3.0000

> <Gold.PLP.part.metal>
0.0000

> <Gold.PLP.part.buried>
-5.4313

> <Gold.PLP.part.nonpolar>
-31.0380

> <Gold.PLP.part.repulsive>
0.4208

> <Gold.PLP.ligand.clash>
0.0000

> <Gold.PLP.ligand.torsion>
0.6748

> <Gold.PLP.Chemscore.Hbond>
1.6889

> <Gold.PLP.Chemscore.CHOScore>
0.0000

> <Gold.PLP.Chemscore.Metal>
0.0000

> <Gold.Chemscore.Hbonds>
donor molecule, donor type, donor heavy atom, donor atom, acceptor molecule, acceptor atom, score
      P1  H  6931  6943       L1    20  0.73
      P1  H  6934  6947       L1    20  0.88

> <Gold.PLP.Chemscore.Internal.Correction>
0.3159

> <Gold.Rescore>
     Score         DG    S(hbond)    S(metal)    S(lipo)     H(rot)  DE(clash)    DE(int)     intcor
     12.31     -17.81       1.65        0.00      93.49       1.61       0.07       5.42       ----

> <Gold.Chemscore.Fitness>
12.3144

> <Gold.Chemscore.DG>
-17.8086

> <Gold.Chemscore.ZeroCoef>
-5.4800

> <Gold.Chemscore.Hbond>
1.6537

> <Gold.Chemscore.Metal>
0.0000

> <Gold.Chemscore.Lipo>
93.4857

> <Gold.Chemscore.Internal_Hbond>
0.0000

> <Gold.Chemscore.DEClash>
0.0741

> <Gold.Chemscore.DEInternal>
5.4202

> <Gold.Chemscore.Rot>
1.6143

> <Gold.Chemscore.Internal.Correction>
   9.000000E+99

> <Gold.Chemscore.Hbonds>
donor molecule, donor type, donor heavy atom, donor atom, acceptor molecule, acceptor atom, score
      P1  H  6931  6943       L1    20  0.70
      P1  H  6934  6947       L1    20  0.86

> <Gold.Chemscore.Hbond.Weighted>
-5.5234

> <Gold.Chemscore.Metal.Weighted>
-0.0000

> <Gold.Chemscore.Lipo.Weighted>
-10.9378

> <Gold.Chemscore.Internal_Hbond.Weighted>
0.0000

> <Gold.Chemscore.DEClash.Weighted>
0.0741

> <Gold.Chemscore.DEInternal.Weighted>
5.4202

> <Gold.Chemscore.Rot.Weighted>
4.1326

> <Gold.Chemscore.Internal.Correction.Weighted>
   9.000000E+99

> <Gold.Protein.RotatedTorsions>
[ 6907 6896 6895 6894 ] final -115.30 input  -60.11 | X-H torsion
[ 7974 7965 7964 7962 ] final  -53.68 input  175.53 | X-H torsion
[ 8008 7997 7996 7995 ] final  140.95 input   59.86 | X-H torsion
[ 10167 10162 10161 10158 ] final   88.80 input  -65.29 | X-H torsion
[ 10718 10713 10712 10709 ] final  173.96 input   66.30 | X-H torsion
[ 10763 10752 10751 10750 ] final  -19.09 input  -60.55 | X-H torsion
[ 11005 11000 10999 10996 ] final  -56.76 input  -57.11 | X-H torsion

> <Gold.Protein.ActiveResidues>
 VAL166  LYS551  ARG553  GLY616  TRP617  ASP618  TYR619  PRO620  LYS621  CYS622 
 ASP623  PHE694  ASN695  SER759  ASP760  ASP761  ALA762  ILE779  LEU786  VAL792 
 PHE793  MET794  SER795  GLU796  ALA797  LYS798  CYS799  TRP800  GLU811  SER814 

> <Gold.Protein.RotatedAtoms>
  150.7967  133.8678  159.3249 H   0  0  0  0  0  0  0  0  0  0  0  0  # atno 6907 bound_to 6896
  151.6501  135.1001  160.0168 H   0  0  0  0  0  0  0  0  0  0  0  0  # atno 6908 bound_to 6896
  152.4050  133.6836  159.6383 H   0  0  0  0  0  0  0  0  0  0  0  0  # atno 6909 bound_to 6896
  145.8941  140.8047  142.9776 H   0  0  0  0  0  0  0  0  0  0  0  0  # atno 7974 bound_to 7965
  156.2972  140.2328  156.4485 H   0  0  0  0  0  0  0  0  0  0  0  0  # atno 8008 bound_to 7997
  154.8122  140.0442  157.1372 H   0  0  0  0  0  0  0  0  0  0  0  0  # atno 8009 bound_to 7997
  154.9410  140.3029  155.5124 H   0  0  0  0  0  0  0  0  0  0  0  0  # atno 8010 bound_to 7997
  139.8636  144.6531  150.9030 H   0  0  0  0  0  0  0  0  0  0  0  0  # atno 10167 bound_to 10162
  156.9566  131.0047  151.2937 H   0  0  0  0  0  0  0  0  0  0  0  0  # atno 10718 bound_to 10713
  153.5993  135.7000  153.5391 H   0  0  0  0  0  0  0  0  0  0  0  0  # atno 10763 bound_to 10752
  153.3111  135.4101  155.1336 H   0  0  0  0  0  0  0  0  0  0  0  0  # atno 10764 bound_to 10752
  154.8585  135.3672  154.5528 H   0  0  0  0  0  0  0  0  0  0  0  0  # atno 10765 bound_to 10752
  141.1134  133.6610  156.4667 H   0  0  0  0  0  0  0  0  0  0  0  0  # atno 11005 bound_to 11000
  144.6732  140.1576  143.7425 LP  0  0  0  0  0  0  0  0  0  0  0  0  # atno 17320 bound_to 7965
  145.8872  139.2355  143.1571 LP  0  0  0  0  0  0  0  0  0  0  0  0  # atno 17321 bound_to 7965
  140.7771  143.3723  151.1626 LP  0  0  0  0  0  0  0  0  0  0  0  0  # atno 17342 bound_to 10162
  139.7350  143.9013  152.3032 LP  0  0  0  0  0  0  0  0  0  0  0  0  # atno 17343 bound_to 10162
  157.5686  130.8295  149.8361 LP  0  0  0  0  0  0  0  0  0  0  0  0  # atno 17370 bound_to 10713
  156.0340  130.3756  150.1610 LP  0  0  0  0  0  0  0  0  0  0  0  0  # atno 17371 bound_to 10713
  140.4712  134.6751  157.5130 LP  0  0  0  0  0  0  0  0  0  0  0  0  # atno 17394 bound_to 11000
  140.0042  134.6790  155.9482 LP  0  0  0  0  0  0  0  0  0  0  0  0  # atno 17395 bound_to 11000

$$$$
