AV-unprocessed.smi:2179|AV-procd|sdf|8856|dock5
  -GOLD-   2272012 53D 1   1.00000     0.00000
 Structure written by MMmdl.
 47 48  0  0  0  0  0  0  0  0  1 V2000
  156.5221  135.0608  159.9626 C   0  0  0  0  0  0  0  0  0  0  0  0
  155.3220  134.5729  160.7674 C   0  0  0  0  0  0  0  0  0  0  0  0
  154.3385  134.1147  160.1871 O   0  0  0  0  0  0  0  0  0  0  0  0
  155.4171  134.6710  162.1019 N   0  0  0  0  0  0  0  0  0  0  0  0
  154.3861  134.2573  163.0460 C   0  0  0  0  0  0  0  0  0  0  0  0
  153.8838  135.4432  163.8891 C   0  0  0  0  0  0  0  0  0  0  0  0
  153.5923  136.6036  163.0566 N   0  0  0  0  0  0  0  0  0  0  0  0
  154.1667  137.8101  163.1907 C   0  0  0  0  0  0  0  0  0  0  0  0
  155.0340  138.0611  164.0275 O   0  0  0  0  0  0  0  0  0  0  0  0
  153.7310  138.8498  162.1992 C   0  0  0  0  0  0  0  0  0  0  0  0
  153.8102  140.2298  162.4861 C   0  0  0  0  0  0  0  0  0  0  0  0
  153.4106  141.1581  161.5057 C   0  0  0  0  0  0  0  0  0  0  0  0
  152.9444  140.6865  160.2557 C   0  0  0  0  0  0  0  0  0  0  0  0
  152.5376  141.5987  159.2574 N   0  0  0  0  0  0  0  0  0  0  0  0
  152.2679  142.9600  159.7125 C   0  0  0  0  0  0  0  0  0  0  0  0
  152.1535  143.9164  158.5103 C   0  0  2  0  0  0  0  0  0  0  0  0
  151.7494  145.3313  158.9374 C   0  0  0  0  0  0  0  0  0  0  0  0
  151.1658  143.4225  157.6098 O   0  0  0  0  0  0  0  0  0  0  0  0
  151.4996  142.1399  157.0865 C   0  0  2  0  0  0  0  0  0  0  0  0
  150.4297  141.7440  156.0637 C   0  0  0  0  0  0  0  0  0  0  0  0
  151.5921  141.1309  158.2459 C   0  0  0  0  0  0  0  0  0  0  0  0
  152.8855  139.3610  159.9773 N   0  0  0  0  0  0  0  0  0  0  0  0
  153.2705  138.4745  160.9194 C   0  0  0  0  0  0  0  0  0  0  0  0
  157.2285  134.2444  159.8096 H   0  0  0  0  0  0  0  0  0  0  0  0
  157.0380  135.8728  160.4764 H   0  0  0  0  0  0  0  0  0  0  0  0
  156.2042  135.4259  158.9855 H   0  0  0  0  0  0  0  0  0  0  0  0
  156.2632  135.0617  162.4907 H   0  0  0  0  0  0  0  0  0  0  0  0
  153.5607  133.8319  162.4744 H   0  0  0  0  0  0  0  0  0  0  0  0
  154.7645  133.4582  163.6861 H   0  0  0  0  0  0  0  0  0  0  0  0
  152.9991  135.1642  164.4646 H   0  0  0  0  0  0  0  0  0  0  0  0
  154.6455  135.7337  164.6134 H   0  0  0  0  0  0  0  0  0  0  0  0
  152.9083  136.4808  162.3243 H   0  0  0  0  0  0  0  0  0  0  0  0
  154.1780  140.5844  163.4379 H   0  0  0  0  0  0  0  0  0  0  0  0
  153.4837  142.2144  161.7171 H   0  0  0  0  0  0  0  0  0  0  0  0
  151.3375  142.9596  160.2819 H   0  0  0  0  0  0  0  0  0  0  0  0
  153.0472  143.3232  160.3810 H   0  0  0  0  0  0  0  0  0  0  0  0
  153.1134  143.9720  157.9932 H   0  0  0  0  0  0  0  0  0  0  0  0
  152.4832  145.7600  159.6205 H   0  0  0  0  0  0  0  0  0  0  0  0
  150.7824  145.3308  159.4411 H   0  0  0  0  0  0  0  0  0  0  0  0
  151.6742  145.9918  158.0733 H   0  0  0  0  0  0  0  0  0  0  0  0
  152.4619  142.2011  156.5750 H   0  0  0  0  0  0  0  0  0  0  0  0
  150.6471  140.7695  155.6258 H   0  0  0  0  0  0  0  0  0  0  0  0
  150.3799  142.4695  155.2515 H   0  0  0  0  0  0  0  0  0  0  0  0
  149.4430  141.6916  156.5249 H   0  0  0  0  0  0  0  0  0  0  0  0
  151.9071  140.1620  157.8560 H   0  0  0  0  0  0  0  0  0  0  0  0
  150.6123  140.9954  158.7067 H   0  0  0  0  0  0  0  0  0  0  0  0
  153.2017  137.4339  160.6371 H   0  0  0  0  0  0  0  0  0  0  0  0
  1  2  1  0  0  0  0
  1 24  1  0  0  0  0
  1 25  1  0  0  0  0
  1 26  1  0  0  0  0
  2  3  2  0  0  0  0
  2  4  1  0  0  0  0
  4  5  1  0  0  0  0
  4 27  1  0  0  0  0
  5  6  1  0  0  0  0
  5 28  1  0  0  0  0
  5 29  1  0  0  0  0
  6  7  1  0  0  0  0
  6 30  1  0  0  0  0
  6 31  1  0  0  0  0
  7  8  1  0  0  0  0
  7 32  1  0  0  0  0
  8  9  2  0  0  0  0
  8 10  1  0  0  0  0
 10 23  1  0  0  0  0
 10 11  2  0  0  0  0
 11 12  1  0  0  0  0
 11 33  1  0  0  0  0
 12 13  2  0  0  0  0
 12 34  1  0  0  0  0
 13 14  1  0  0  0  0
 13 22  1  0  0  0  0
 14 21  1  0  0  0  0
 14 15  1  0  0  0  0
 15 16  1  0  0  0  0
 15 35  1  0  0  0  0
 15 36  1  0  0  0  0
 16 17  1  0  0  0  0
 16 18  1  0  0  0  0
 16 37  1  0  0  0  0
 17 38  1  0  0  0  0
 17 39  1  0  0  0  0
 17 40  1  0  0  0  0
 18 19  1  0  0  0  0
 19 20  1  0  0  0  0
 19 21  1  0  0  0  0
 19 41  1  0  0  0  0
 20 42  1  0  0  0  0
 20 43  1  0  0  0  0
 20 44  1  0  0  0  0
 21 45  1  0  0  0  0
 21 46  1  0  0  0  0
 22 23  2  0  0  0  0
 23 47  1  0  0  0  0
M  END
> <s_m_source_file>
AV-unprocessed.smi

> <i_m_source_file_index>
2179

> <i_lp_mmshare_version>
43012

> <i_f3d_flags>
0

> <s_epik_input>
W0NIM11DKD1PKVtOSF1bQ0gyXVtDSDJdW05IXUMoPU8pYzFbY0hdW2NIXWMobltjSF0xKU4yW0NIMl1bQ0BASF0oW0NIM10pT1tDQEBIXShbQ0gzXSlbQ0gyXTI=

> <s_epik_cmdline>
J2VwaWtfcHl0aG9uJywgJy1waCcsICc3LjAnLCAnLXRuJywgJzgnLCAnLW1hJywgJzIwMCcsICctbWV0YWxfYmluZGluZycsICctaW1hZScsICc8aW5maWxlLm1hZT4nLCAnLW9tYWUnLCAnPG91dGZpbGUubWFlPic=

> <r_lp_tautomer_probability>
1

> <r_epik_Ionization_Penalty>
2.00433e-05

> <r_epik_Ionization_Penalty_Charging>
0

> <r_epik_Ionization_Penalty_Neutral>
2.00433e-05

> <r_epik_State_Penalty>
-0

> <r_epik_Charging_Adjusted_Penalty>
0

> <i_epik_Tot_Q>
0

> <i_epik_Tot_abs_Q>
0

> <r_epik_Metal_State_Penalty>
-0

> <b_epik_Metal_Only>
0

> <s_lp_Force_Field>
OPLS_2005

> <r_lp_Energy>
13.6511

> <b_lp_Chiralities_Consistent>
1

> <s_lp_Variant>
AV-unprocessed.smi:2179-1

> <Gold.Version>
5.8.1

> <Gold.Id.Protein>
6NUR|6NUR_protein|mol2

> <Gold.PLP.Fitness>
41.1296

> <Gold.PLP.PLP>
-39.6312

> <Gold.PLP.part.hbond>
-1.0000

> <Gold.PLP.part.metal>
0.0000

> <Gold.PLP.part.buried>
-6.1128

> <Gold.PLP.part.nonpolar>
-32.6452

> <Gold.PLP.part.repulsive>
0.1614

> <Gold.PLP.ligand.clash>
0.0000

> <Gold.PLP.ligand.torsion>
0.9262

> <Gold.PLP.Chemscore.Hbond>
1.0000

> <Gold.PLP.Chemscore.CHOScore>
0.0000

> <Gold.PLP.Chemscore.Metal>
0.0000

> <Gold.Chemscore.Hbonds>
donor molecule, donor type, donor heavy atom, donor atom, acceptor molecule, acceptor atom, score
      P1  H  6896  6907       L1     3  1.00

> <Gold.PLP.Chemscore.Internal.Correction>
0.3508

> <Gold.Rescore>
     Score         DG    S(hbond)    S(metal)    S(lipo)     H(rot)  DE(clash)    DE(int)     intcor
     15.68     -16.68       1.00        0.00     107.83       1.86       0.06       0.94       ----

> <Gold.Chemscore.Fitness>
15.6822

> <Gold.Chemscore.DG>
-16.6785

> <Gold.Chemscore.ZeroCoef>
-5.4800

> <Gold.Chemscore.Hbond>
1.0000

> <Gold.Chemscore.Metal>
0.0000

> <Gold.Chemscore.Lipo>
107.8330

> <Gold.Chemscore.Internal_Hbond>
0.0000

> <Gold.Chemscore.DEClash>
0.0591

> <Gold.Chemscore.DEInternal>
0.9372

> <Gold.Chemscore.Rot>
1.8586

> <Gold.Chemscore.Internal.Correction>
   9.000000E+99

> <Gold.Chemscore.Hbonds>
donor molecule, donor type, donor heavy atom, donor atom, acceptor molecule, acceptor atom, score
      P1  H  6896  6907       L1     3  1.00

> <Gold.Chemscore.Hbond.Weighted>
-3.3400

> <Gold.Chemscore.Metal.Weighted>
-0.0000

> <Gold.Chemscore.Lipo.Weighted>
-12.6165

> <Gold.Chemscore.Internal_Hbond.Weighted>
0.0000

> <Gold.Chemscore.DEClash.Weighted>
0.0591

> <Gold.Chemscore.DEInternal.Weighted>
0.9372

> <Gold.Chemscore.Rot.Weighted>
4.7579

> <Gold.Chemscore.Internal.Correction.Weighted>
   9.000000E+99

> <Gold.Protein.RotatedTorsions>
[ 6907 6896 6895 6894 ] final   90.89 input  -60.11 | X-H torsion
[ 7974 7965 7964 7962 ] final -130.46 input  175.53 | X-H torsion
[ 8008 7997 7996 7995 ] final -107.43 input   59.86 | X-H torsion
[ 10167 10162 10161 10158 ] final   68.64 input  -65.29 | X-H torsion
[ 10718 10713 10712 10709 ] final  174.28 input   66.30 | X-H torsion
[ 10763 10752 10751 10750 ] final  -64.04 input  -60.55 | X-H torsion
[ 11005 11000 10999 10996 ] final  110.20 input  -57.11 | X-H torsion

> <Gold.Protein.ActiveResidues>
 VAL166  LYS551  ARG553  GLY616  TRP617  ASP618  TYR619  PRO620  LYS621  CYS622 
 ASP623  PHE694  ASN695  SER759  ASP760  ASP761  ALA762  ILE779  LEU786  VAL792 
 PHE793  MET794  SER795  GLU796  ALA797  LYS798  CYS799  TRP800  GLU811  SER814 

> <Gold.Protein.RotatedAtoms>
  152.5447  134.1742  159.8608 H   0  0  0  0  0  0  0  0  0  0  0  0  # atno 6907 bound_to 6896
  151.1750  133.4753  159.2601 H   0  0  0  0  0  0  0  0  0  0  0  0  # atno 6908 bound_to 6896
  151.1236  135.0104  159.8605 H   0  0  0  0  0  0  0  0  0  0  0  0  # atno 6909 bound_to 6896
  144.9473  140.7305  143.4809 H   0  0  0  0  0  0  0  0  0  0  0  0  # atno 7974 bound_to 7965
  154.9292  140.0405  157.2039 H   0  0  0  0  0  0  0  0  0  0  0  0  # atno 8008 bound_to 7997
  154.8177  140.2878  155.5787 H   0  0  0  0  0  0  0  0  0  0  0  0  # atno 8009 bound_to 7997
  156.2977  140.2524  156.3078 H   0  0  0  0  0  0  0  0  0  0  0  0  # atno 8010 bound_to 7997
  140.0764  144.5108  150.7192 H   0  0  0  0  0  0  0  0  0  0  0  0  # atno 10167 bound_to 10162
  156.9519  131.0034  151.2947 H   0  0  0  0  0  0  0  0  0  0  0  0  # atno 10718 bound_to 10713
  154.3242  135.6190  153.5521 H   0  0  0  0  0  0  0  0  0  0  0  0  # atno 10763 bound_to 10752
  152.9817  135.5731  154.5035 H   0  0  0  0  0  0  0  0  0  0  0  0  # atno 10764 bound_to 10752
  154.4709  135.2859  155.1620 H   0  0  0  0  0  0  0  0  0  0  0  0  # atno 10765 bound_to 10752
  139.8877  134.9478  156.6242 H   0  0  0  0  0  0  0  0  0  0  0  0  # atno 11005 bound_to 11000
  145.2898  139.1887  143.4746 LP  0  0  0  0  0  0  0  0  0  0  0  0  # atno 17320 bound_to 7965
  146.3308  140.2873  142.8613 LP  0  0  0  0  0  0  0  0  0  0  0  0  # atno 17321 bound_to 7965
  140.7100  143.2497  151.4611 LP  0  0  0  0  0  0  0  0  0  0  0  0  # atno 17342 bound_to 10162
  139.5805  144.1720  152.1962 LP  0  0  0  0  0  0  0  0  0  0  0  0  # atno 17343 bound_to 10162
  157.5716  130.8314  149.8399 LP  0  0  0  0  0  0  0  0  0  0  0  0  # atno 17370 bound_to 10713
  156.0359  130.3751  150.1562 LP  0  0  0  0  0  0  0  0  0  0  0  0  # atno 17371 bound_to 10713
  140.7716  133.8734  155.8496 LP  0  0  0  0  0  0  0  0  0  0  0  0  # atno 17394 bound_to 11000
  140.9837  134.1371  157.4471 LP  0  0  0  0  0  0  0  0  0  0  0  0  # atno 17395 bound_to 11000

$$$$
