AV-unprocessed.smi:2564|AV-procd|sdf|10066|dock5
  -GOLD-   2272014103D 1   1.00000     0.00000
 Structure written by MMmdl.
 28 29  0  0  0  0  0  0  0  0  1 V2000
  152.0884  145.3629  159.4444 C   0  0  0  0  0  0  0  0  0  0  0  0
  151.8971  144.7458  160.6938 C   0  0  0  0  0  0  0  0  0  0  0  0
  151.2117  143.5892  160.8370 N   0  0  0  0  0  0  0  0  0  0  0  0
  150.6823  142.9875  159.7657 N   0  0  0  0  0  0  0  0  0  0  0  0
  150.8233  143.5290  158.5290 C   0  0  0  0  0  0  0  0  0  0  0  0
  150.2561  142.8780  157.4238 N   0  0  0  0  0  0  0  0  0  0  0  0
  149.9601  141.4503  157.4538 C   0  0  0  0  0  0  0  0  0  0  0  0
  150.6111  140.6887  156.2866 C   0  0  2  0  0  0  0  0  0  0  0  0
  149.7912  140.8378  154.9894 C   0  0  0  0  0  0  0  0  0  0  0  0
  150.3817  140.0413  153.9147 N   0  0  0  0  0  0  0  0  0  0  0  0
  150.5252  138.6415  154.3086 C   0  0  0  0  0  0  0  0  0  0  0  0
  151.3140  138.5364  155.6250 C   0  0  0  0  0  0  0  0  0  0  0  0
  150.6615  139.3055  156.6293 O   0  0  0  0  0  0  0  0  0  0  0  0
  151.5310  144.7294  158.3203 C   0  0  0  0  0  0  0  0  0  0  0  0
  152.6407  146.2864  159.3533 H   0  0  0  0  0  0  0  0  0  0  0  0
  152.3001  145.1857  161.5940 H   0  0  0  0  0  0  0  0  0  0  0  0
  149.8328  143.4340  156.6949 H   0  0  0  0  0  0  0  0  0  0  0  0
  150.3155  141.0455  158.4017 H   0  0  0  0  0  0  0  0  0  0  0  0
  148.8796  141.3019  157.4481 H   0  0  0  0  0  0  0  0  0  0  0  0
  151.6220  141.0657  156.1198 H   0  0  0  0  0  0  0  0  0  0  0  0
  148.7628  140.5190  155.1641 H   0  0  0  0  0  0  0  0  0  0  0  0
  149.7475  141.8861  154.6929 H   0  0  0  0  0  0  0  0  0  0  0  0
  149.7993  140.1034  153.0858 H   0  0  0  0  0  0  0  0  0  0  0  0
  149.5409  138.1889  154.4351 H   0  0  0  0  0  0  0  0  0  0  0  0
  151.0301  138.0803  153.5221 H   0  0  0  0  0  0  0  0  0  0  0  0
  151.3608  137.4974  155.9514 H   0  0  0  0  0  0  0  0  0  0  0  0
  152.3429  138.8762  155.4951 H   0  0  0  0  0  0  0  0  0  0  0  0
  151.6420  145.1536  157.3331 H   0  0  0  0  0  0  0  0  0  0  0  0
  1 14  1  0  0  0  0
  1  2  2  0  0  0  0
  1 15  1  0  0  0  0
  2  3  1  0  0  0  0
  2 16  1  0  0  0  0
  3  4  2  0  0  0  0
  4  5  1  0  0  0  0
  5  6  1  0  0  0  0
  5 14  2  0  0  0  0
  6  7  1  0  0  0  0
  6 17  1  0  0  0  0
  7  8  1  0  0  0  0
  7 18  1  0  0  0  0
  7 19  1  0  0  0  0
  8 13  1  0  0  0  0
  8  9  1  0  0  0  0
  8 20  1  0  0  0  0
  9 10  1  0  0  0  0
  9 21  1  0  0  0  0
  9 22  1  0  0  0  0
 10 11  1  0  0  0  0
 10 23  1  0  0  0  0
 11 12  1  0  0  0  0
 11 24  1  0  0  0  0
 11 25  1  0  0  0  0
 12 13  1  0  0  0  0
 12 26  1  0  0  0  0
 12 27  1  0  0  0  0
 14 28  1  0  0  0  0
M  END
> <s_m_source_file>
AV-unprocessed.smi

> <i_m_source_file_index>
2564

> <i_lp_mmshare_version>
43012

> <i_f3d_flags>
0

> <s_epik_input>
W2NIXTFbY0hdW2NIXW5uYzFbTkhdW0NIMl1bQ0BASF0yW0NIMl1bTkhdW0NIMl1bQ0gyXU8y

> <s_epik_cmdline>
J2VwaWtfcHl0aG9uJywgJy1waCcsICc3LjAnLCAnLXRuJywgJzgnLCAnLW1hJywgJzIwMCcsICctbWV0YWxfYmluZGluZycsICctaW1hZScsICc8aW5maWxlLm1hZT4nLCAnLW9tYWUnLCAnPG91dGZpbGUubWFlPic=

> <r_lp_tautomer_probability>
0.999978

> <r_epik_Ionization_Penalty>
2.48194

> <r_epik_Ionization_Penalty_Charging>
0

> <r_epik_Ionization_Penalty_Neutral>
2.48194

> <r_epik_State_Penalty>
2.63388

> <r_epik_Charging_Adjusted_Penalty>
2.63388

> <i_epik_Tot_Q>
0

> <i_epik_Tot_abs_Q>
0

> <r_epik_Metal_State_Penalty>
2.61931

> <b_epik_Metal_Only>
0

> <s_lp_Force_Field>
OPLS_2005

> <r_lp_Energy>
19.9467

> <b_lp_Chiralities_Consistent>
1

> <s_lp_Variant>
AV-unprocessed.smi:2564-5

> <Gold.Version>
5.8.1

> <Gold.Id.Protein>
6NUR|6NUR_protein|mol2

> <Gold.PLP.Fitness>
39.8276

> <Gold.PLP.PLP>
-31.4979

> <Gold.PLP.part.hbond>
-4.7859

> <Gold.PLP.part.metal>
0.0000

> <Gold.PLP.part.buried>
-3.6950

> <Gold.PLP.part.nonpolar>
-23.0192

> <Gold.PLP.part.repulsive>
0.1764

> <Gold.PLP.ligand.clash>
0.0000

> <Gold.PLP.ligand.torsion>
0.3123

> <Gold.PLP.Chemscore.Hbond>
2.9840

> <Gold.PLP.Chemscore.CHOScore>
0.0000

> <Gold.PLP.Chemscore.Metal>
0.0000

> <Gold.Chemscore.Hbonds>
donor molecule, donor type, donor heavy atom, donor atom, acceptor molecule, acceptor atom, score
      L1  H     6    17       P1  8028  1.00
      L1  H    10    23       P1  7957  0.99
      P1  H  7989  7998       L1    10  0.98

> <Gold.PLP.Chemscore.Internal.Correction>
0.0023

> <Gold.Rescore>
     Score         DG    S(hbond)    S(metal)    S(lipo)     H(rot)  DE(clash)    DE(int)     intcor
     17.21     -17.53       2.08        0.00      72.12       1.30       0.04       0.28       ----

> <Gold.Chemscore.Fitness>
17.2093

> <Gold.Chemscore.DG>
-17.5252

> <Gold.Chemscore.ZeroCoef>
-5.4800

> <Gold.Chemscore.Hbond>
2.0769

> <Gold.Chemscore.Metal>
0.0000

> <Gold.Chemscore.Lipo>
72.1184

> <Gold.Chemscore.Internal_Hbond>
0.0000

> <Gold.Chemscore.DEClash>
0.0372

> <Gold.Chemscore.DEInternal>
0.2787

> <Gold.Chemscore.Rot>
1.3006

> <Gold.Chemscore.Internal.Correction>
   9.000000E+99

> <Gold.Chemscore.Hbonds>
donor molecule, donor type, donor heavy atom, donor atom, acceptor molecule, acceptor atom, score
      L1  H     6    17       P1  8028  1.00
      L1  H    10    23       P1  7957  0.94
      P1  H  7989  7998       L1    10  0.12

> <Gold.Chemscore.Hbond.Weighted>
-6.9369

> <Gold.Chemscore.Metal.Weighted>
-0.0000

> <Gold.Chemscore.Lipo.Weighted>
-8.4379

> <Gold.Chemscore.Internal_Hbond.Weighted>
0.0000

> <Gold.Chemscore.DEClash.Weighted>
0.0372

> <Gold.Chemscore.DEInternal.Weighted>
0.2787

> <Gold.Chemscore.Rot.Weighted>
3.3296

> <Gold.Chemscore.Internal.Correction.Weighted>
   9.000000E+99

> <Gold.Protein.RotatedTorsions>
[ 6907 6896 6895 6894 ] final  -29.67 input  -60.11 | X-H torsion
[ 7974 7965 7964 7962 ] final  135.33 input  175.53 | X-H torsion
[ 8008 7997 7996 7995 ] final -131.27 input   59.86 | X-H torsion
[ 10167 10162 10161 10158 ] final -130.14 input  -65.29 | X-H torsion
[ 10718 10713 10712 10709 ] final  -75.87 input   66.30 | X-H torsion
[ 10763 10752 10751 10750 ] final -122.03 input  -60.55 | X-H torsion
[ 11005 11000 10999 10996 ] final  -79.04 input  -57.11 | X-H torsion

> <Gold.Protein.ActiveResidues>
 VAL166  LYS551  ARG553  GLY616  TRP617  ASP618  TYR619  PRO620  LYS621  CYS622 
 ASP623  PHE694  ASN695  SER759  ASP760  ASP761  ALA762  ILE779  LEU786  VAL792 
 PHE793  MET794  SER795  GLU796  ALA797  LYS798  CYS799  TRP800  GLU811  SER814 

> <Gold.Protein.RotatedAtoms>
  151.1160  135.0053  159.8515 H   0  0  0  0  0  0  0  0  0  0  0  0  # atno 6907 bound_to 6896
  152.5445  134.1779  159.8634 H   0  0  0  0  0  0  0  0  0  0  0  0  # atno 6908 bound_to 6896
  151.1834  133.4666  159.2627 H   0  0  0  0  0  0  0  0  0  0  0  0  # atno 6909 bound_to 6896
  144.9674  139.4643  143.5449 H   0  0  0  0  0  0  0  0  0  0  0  0  # atno 7974 bound_to 7965
  155.3096  140.0456  157.3034 H   0  0  0  0  0  0  0  0  0  0  0  0  # atno 8008 bound_to 7997
  154.5440  140.2297  155.8560 H   0  0  0  0  0  0  0  0  0  0  0  0  # atno 8009 bound_to 7997
  156.1907  140.3051  155.9334 H   0  0  0  0  0  0  0  0  0  0  0  0  # atno 8010 bound_to 7997
  139.9324  143.6257  152.2526 H   0  0  0  0  0  0  0  0  0  0  0  0  # atno 10167 bound_to 10162
  156.0193  130.4451  150.3107 H   0  0  0  0  0  0  0  0  0  0  0  0  # atno 10718 bound_to 10713
  154.8681  135.4147  154.2715 H   0  0  0  0  0  0  0  0  0  0  0  0  # atno 10763 bound_to 10752
  153.3624  135.7004  153.6707 H   0  0  0  0  0  0  0  0  0  0  0  0  # atno 10764 bound_to 10752
  153.5602  135.3611  155.2768 H   0  0  0  0  0  0  0  0  0  0  0  0  # atno 10765 bound_to 10752
  141.1666  133.7088  156.8062 H   0  0  0  0  0  0  0  0  0  0  0  0  # atno 11005 bound_to 11000
  146.3372  139.8864  142.8816 LP  0  0  0  0  0  0  0  0  0  0  0  0  # atno 17320 bound_to 7965
  145.2609  141.0076  143.3827 LP  0  0  0  0  0  0  0  0  0  0  0  0  # atno 17321 bound_to 7965
  139.6771  144.7658  151.1676 LP  0  0  0  0  0  0  0  0  0  0  0  0  # atno 17342 bound_to 10162
  140.7634  143.5779  150.8926 LP  0  0  0  0  0  0  0  0  0  0  0  0  # atno 17343 bound_to 10162
  157.1209  131.0246  151.3009 LP  0  0  0  0  0  0  0  0  0  0  0  0  # atno 17370 bound_to 10713
  157.4629  130.7663  149.7252 LP  0  0  0  0  0  0  0  0  0  0  0  0  # atno 17371 bound_to 10713
  140.2220  134.8749  157.3387 LP  0  0  0  0  0  0  0  0  0  0  0  0  # atno 17394 bound_to 11000
  140.1978  134.4292  155.7679 LP  0  0  0  0  0  0  0  0  0  0  0  0  # atno 17395 bound_to 11000

$$$$
