AV-unprocessed.smi:3031|AV-procd|sdf|11543|dock2
  -GOLD-   2272016493D 1   1.00000     0.00000
 Structure written by MMmdl.
 47 48  0  0  0  0  0  0  0  0  2 V2000
  145.0981  132.5680  150.2332 C   0  0  0  0  0  0  0  0  0  0  0  0
  144.9607  133.8774  150.9548 C   0  0  0  0  0  0  0  0  0  0  0  0
  145.9776  134.8337  151.2356 C   0  0  0  0  0  0  0  0  0  0  0  0
  145.5243  135.8868  151.8963 N   0  0  0  0  0  0  0  0  0  0  0  0
  144.2058  135.6430  152.0560 N   0  0  0  0  0  0  0  0  0  0  0  0
  143.3712  136.6007  152.7595 C   0  0  0  0  0  0  0  0  0  0  0  0
  144.1362  137.3257  153.8843 C   0  0  2  0  0  0  0  0  0  0  0  0
  143.1668  138.0871  154.8031 C   0  0  0  0  0  0  0  0  0  0  0  0
  145.1449  138.2419  153.3052 N   0  3  0  0  0  0  0  0  0  0  0  0
  146.1573  138.7556  154.2511 C   0  0  0  0  0  0  0  0  0  0  0  0
  147.4650  139.0990  153.5182 C   0  0  1  0  0  0  0  0  0  0  0  0
  147.1966  139.3415  152.1515 O   0  0  0  0  0  0  0  0  0  0  0  0
  148.2874  140.2767  154.0916 C   0  0  0  0  0  0  0  0  0  0  0  0
  149.5080  139.9394  154.8330 N   0  0  0  0  0  0  0  0  0  0  0  0
  150.2075  141.1493  155.2584 C   0  0  0  0  0  0  0  0  0  0  0  0
  151.4877  140.8307  156.0502 C   0  0  0  0  0  0  0  0  0  0  0  0
  152.3459  140.0173  155.2582 O   0  0  0  0  0  0  0  0  0  0  0  0
  151.7239  138.8051  154.8463 C   0  0  0  0  0  0  0  0  0  0  0  0
  150.4432  139.1252  154.0553 C   0  0  0  0  0  0  0  0  0  0  0  0
  143.8390  134.4373  151.4974 C   0  0  0  0  0  0  0  0  0  0  0  0
  146.0848  132.4535  149.7838 H   0  0  0  0  0  0  0  0  0  0  0  0
  144.3670  132.4725  149.4300 H   0  0  0  0  0  0  0  0  0  0  0  0
  144.9514  131.7219  150.9047 H   0  0  0  0  0  0  0  0  0  0  0  0
  147.0268  134.7922  150.9820 H   0  0  0  0  0  0  0  0  0  0  0  0
  142.9629  137.3141  152.0416 H   0  0  0  0  0  0  0  0  0  0  0  0
  142.5205  136.0582  153.1739 H   0  0  0  0  0  0  0  0  0  0  0  0
  144.6524  136.5698  154.4782 H   0  0  0  0  0  0  0  0  0  0  0  0
  142.4108  137.4169  155.2137 H   0  0  0  0  0  0  0  0  0  0  0  0
  142.6474  138.8792  154.2626 H   0  0  0  0  0  0  0  0  0  0  0  0
  143.6829  138.5425  155.6480 H   0  0  0  0  0  0  0  0  0  0  0  0
  145.6389  137.7305  152.5870 H   0  0  0  0  0  0  0  0  0  0  0  0
  145.7619  139.6339  154.7599 H   0  0  0  0  0  0  0  0  0  0  0  0
  146.3484  137.9902  155.0043 H   0  0  0  0  0  0  0  0  0  0  0  0
  148.1127  138.2221  153.5622 H   0  0  0  0  0  0  0  0  0  0  0  0
  148.0068  139.2758  151.6687 H   0  0  0  0  0  0  0  0  0  0  0  0
  148.5225  140.9866  153.2974 H   0  0  0  0  0  0  0  0  0  0  0  0
  147.6120  140.8157  154.7582 H   0  0  0  0  0  0  0  0  0  0  0  0
  150.4625  141.7563  154.3882 H   0  0  0  0  0  0  0  0  0  0  0  0
  149.5500  141.7581  155.8802 H   0  0  0  0  0  0  0  0  0  0  0  0
  152.0105  141.7503  156.3139 H   0  0  0  0  0  0  0  0  0  0  0  0
  151.2477  140.3182  156.9835 H   0  0  0  0  0  0  0  0  0  0  0  0
  152.4209  138.2400  154.2275 H   0  0  0  0  0  0  0  0  0  0  0  0
  151.4963  138.1892  155.7179 H   0  0  0  0  0  0  0  0  0  0  0  0
  149.9877  138.1881  153.7493 H   0  0  0  0  0  0  0  0  0  0  0  0
  150.7141  139.6494  153.1373 H   0  0  0  0  0  0  0  0  0  0  0  0
  142.8202  134.0798  151.5334 H   0  0  0  0  0  0  0  0  0  0  0  0
  144.6730  139.0217  152.8697 H   0  0  0  0  0  0  0  0  0  0  0  0
  1  2  1  0  0  0  0
  1 21  1  0  0  0  0
  1 22  1  0  0  0  0
  1 23  1  0  0  0  0
  2 20  2  0  0  0  0
  2  3  1  0  0  0  0
  3  4  2  0  0  0  0
  3 24  1  0  0  0  0
  4  5  1  0  0  0  0
  5  6  1  0  0  0  0
  5 20  1  0  0  0  0
  6  7  1  0  0  0  0
  6 25  1  0  0  0  0
  6 26  1  0  0  0  0
  7  8  1  0  0  0  0
  7  9  1  0  0  0  0
  7 27  1  0  0  0  0
  8 28  1  0  0  0  0
  8 29  1  0  0  0  0
  8 30  1  0  0  0  0
  9 10  1  0  0  0  0
  9 31  1  0  0  0  0
  9 47  1  0  0  0  0
 10 11  1  0  0  0  0
 10 32  1  0  0  0  0
 10 33  1  0  0  0  0
 11 12  1  0  0  0  0
 11 13  1  0  0  0  0
 11 34  1  0  0  0  0
 12 35  1  0  0  0  0
 13 14  1  0  0  0  0
 13 36  1  0  0  0  0
 13 37  1  0  0  0  0
 14 19  1  0  0  0  0
 14 15  1  0  0  0  0
 15 16  1  0  0  0  0
 15 38  1  0  0  0  0
 15 39  1  0  0  0  0
 16 17  1  0  0  0  0
 16 40  1  0  0  0  0
 16 41  1  0  0  0  0
 17 18  1  0  0  0  0
 18 19  1  0  0  0  0
 18 42  1  0  0  0  0
 18 43  1  0  0  0  0
 19 44  1  0  0  0  0
 19 45  1  0  0  0  0
 20 46  1  0  0  0  0
M  CHG  1   9   1
M  END
> <s_m_source_file>
AV-unprocessed.smi

> <i_m_source_file_index>
3031

> <i_lp_mmshare_version>
43012

> <i_f3d_flags>
0

> <s_epik_input>
W0NIM11jMVtjSF1ubihbY0hdMSlbQ0gyXVtDQEhdKFtDSDNdKVtOSF1bQ0gyXVtDQEhdKFtPSF0pW0NIMl1OMltDSDJdW0NIMl1PW0NIMl1bQ0gyXTI=

> <s_epik_cmdline>
J2VwaWtfcHl0aG9uJywgJy1waCcsICc3LjAnLCAnLXRuJywgJzgnLCAnLW1hJywgJzIwMCcsICctbWV0YWxfYmluZGluZycsICctaW1hZScsICc8aW5maWxlLm1hZT4nLCAnLW9tYWUnLCAnPG91dGZpbGUubWFlPic=

> <r_lp_tautomer_probability>
1

> <r_epik_Ionization_Penalty>
0.108564

> <r_epik_Ionization_Penalty_Charging>
0.01811

> <r_epik_Ionization_Penalty_Neutral>
0.0904541

> <r_epik_State_Penalty>
0.141043

> <r_epik_Charging_Adjusted_Penalty>
0.159153

> <i_epik_Tot_Q>
1

> <i_epik_Tot_abs_Q>
1

> <r_epik_Metal_State_Penalty>
0.141052

> <b_epik_Metal_Only>
0

> <s_lp_Force_Field>
OPLS_2005

> <r_lp_Energy>
34.8443

> <b_lp_Chiralities_Consistent>
1

> <s_lp_Variant>
AV-unprocessed.smi:3031-3

> <Gold.Version>
5.8.1

> <Gold.Id.Protein>
6NUR|6NUR_protein|mol2

> <Gold.PLP.Fitness>
48.5379

> <Gold.PLP.PLP>
-35.1794

> <Gold.PLP.part.hbond>
-3.5483

> <Gold.PLP.part.metal>
0.0000

> <Gold.PLP.part.buried>
-4.1644

> <Gold.PLP.part.nonpolar>
-26.2919

> <Gold.PLP.part.repulsive>
0.2663

> <Gold.PLP.ligand.clash>
0.0000

> <Gold.PLP.ligand.torsion>
1.8097

> <Gold.PLP.Chemscore.Hbond>
3.6799

> <Gold.PLP.Chemscore.CHOScore>
1.9519

> <Gold.PLP.Chemscore.Metal>
0.0000

> <Gold.Chemscore.Hbonds>
donor molecule, donor type, donor heavy atom, donor atom, acceptor molecule, acceptor atom, score
      L1  H     9    47       P1 10175  2.00
      L1  H    12    35       P1  7957  0.99
      P1  H  7989  7998       L1    17  0.15
      P1  H  7997  8010       L1    17  0.49
      L1  C     3    24       P1  7948  1.00
      L1  C    20    46       P1 10186  0.48

> <Gold.PLP.Chemscore.Internal.Correction>
0.0824

> <Gold.Rescore>
     Score         DG    S(hbond)    S(metal)    S(lipo)     H(rot)  DE(clash)    DE(int)     intcor
     16.09     -17.57       2.93        0.00      77.14       2.63       0.06       1.42       ----

> <Gold.Chemscore.Fitness>
16.0908

> <Gold.Chemscore.DG>
-17.5732

> <Gold.Chemscore.ZeroCoef>
-5.4800

> <Gold.Chemscore.Hbond>
2.9320

> <Gold.Chemscore.Metal>
0.0000

> <Gold.Chemscore.Lipo>
77.1407

> <Gold.Chemscore.Internal_Hbond>
0.0000

> <Gold.Chemscore.DEClash>
0.0575

> <Gold.Chemscore.DEInternal>
1.4249

> <Gold.Chemscore.Rot>
2.6270

> <Gold.Chemscore.Internal.Correction>
   9.000000E+99

> <Gold.Chemscore.Hbonds>
donor molecule, donor type, donor heavy atom, donor atom, acceptor molecule, acceptor atom, score
      L1  H     9    47       P1 10175  1.00
      L1  H    12    35       P1  7957  0.92
      P1  H  7997  8010       L1    17  0.24

> <Gold.Chemscore.Hbond.Weighted>
-9.7929

> <Gold.Chemscore.Metal.Weighted>
-0.0000

> <Gold.Chemscore.Lipo.Weighted>
-9.0255

> <Gold.Chemscore.Internal_Hbond.Weighted>
0.0000

> <Gold.Chemscore.DEClash.Weighted>
0.0575

> <Gold.Chemscore.DEInternal.Weighted>
1.4249

> <Gold.Chemscore.Rot.Weighted>
6.7251

> <Gold.Chemscore.Internal.Correction.Weighted>
   9.000000E+99

> <Gold.Protein.RotatedTorsions>
[ 6907 6896 6895 6894 ] final  -50.05 input  -60.11 | X-H torsion
[ 7974 7965 7964 7962 ] final  -81.13 input  175.53 | X-H torsion
[ 8008 7997 7996 7995 ] final   80.81 input   59.86 | X-H torsion
[ 10167 10162 10161 10158 ] final -135.25 input  -65.29 | X-H torsion
[ 10718 10713 10712 10709 ] final   47.62 input   66.30 | X-H torsion
[ 10763 10752 10751 10750 ] final -128.85 input  -60.55 | X-H torsion
[ 11005 11000 10999 10996 ] final   -3.36 input  -57.11 | X-H torsion

> <Gold.Protein.ActiveResidues>
 VAL166  LYS551  ARG553  GLY616  TRP617  ASP618  TYR619  PRO620  LYS621  CYS622 
 ASP623  PHE694  ASN695  SER759  ASP760  ASP761  ALA762  ILE779  LEU786  VAL792 
 PHE793  MET794  SER795  GLU796  ALA797  LYS798  CYS799  TRP800  GLU811  SER814 

> <Gold.Protein.RotatedAtoms>
  150.8745  134.8125  159.7179 H   0  0  0  0  0  0  0  0  0  0  0  0  # atno 6907 bound_to 6896
  152.4737  134.4894  159.9700 H   0  0  0  0  0  0  0  0  0  0  0  0  # atno 6908 bound_to 6896
  151.4977  133.3472  159.2899 H   0  0  0  0  0  0  0  0  0  0  0  0  # atno 6909 bound_to 6896
  145.5507  140.9497  143.1500 H   0  0  0  0  0  0  0  0  0  0  0  0  # atno 7974 bound_to 7965
  155.8885  140.3440  155.5939 H   0  0  0  0  0  0  0  0  0  0  0  0  # atno 8008 bound_to 7997
  155.7638  140.0836  157.2161 H   0  0  0  0  0  0  0  0  0  0  0  0  # atno 8009 bound_to 7997
  154.4031  140.1531  156.2850 H   0  0  0  0  0  0  0  0  0  0  0  0  # atno 8010 bound_to 7997
  139.8797  143.6854  152.2629 H   0  0  0  0  0  0  0  0  0  0  0  0  # atno 10167 bound_to 10162
  157.4603  130.8192  149.7880 H   0  0  0  0  0  0  0  0  0  0  0  0  # atno 10718 bound_to 10713
  154.8757  135.3914  154.3825 H   0  0  0  0  0  0  0  0  0  0  0  0  # atno 10763 bound_to 10752
  153.4570  135.7029  153.6079 H   0  0  0  0  0  0  0  0  0  0  0  0  # atno 10764 bound_to 10752
  153.4594  135.3815  155.2298 H   0  0  0  0  0  0  0  0  0  0  0  0  # atno 10765 bound_to 10752
  140.6685  133.9257  155.8480 H   0  0  0  0  0  0  0  0  0  0  0  0  # atno 11005 bound_to 11000
  144.7530  139.7144  143.7265 LP  0  0  0  0  0  0  0  0  0  0  0  0  # atno 17320 bound_to 7965
  146.1918  139.5163  142.9800 LP  0  0  0  0  0  0  0  0  0  0  0  0  # atno 17321 bound_to 7965
  139.7207  144.7603  151.0960 LP  0  0  0  0  0  0  0  0  0  0  0  0  # atno 17342 bound_to 10162
  140.7746  143.5211  150.9535 LP  0  0  0  0  0  0  0  0  0  0  0  0  # atno 17343 bound_to 10162
  156.0026  130.3872  150.2550 LP  0  0  0  0  0  0  0  0  0  0  0  0  # atno 17370 bound_to 10713
  157.0727  131.0121  151.3184 LP  0  0  0  0  0  0  0  0  0  0  0  0  # atno 17371 bound_to 10713
  141.0411  134.0620  157.3901 LP  0  0  0  0  0  0  0  0  0  0  0  0  # atno 17394 bound_to 11000
  139.8989  135.0156  156.7172 LP  0  0  0  0  0  0  0  0  0  0  0  0  # atno 17395 bound_to 11000

$$$$
