#       Name:                AV-unprocessed.smi:2703
#       Creating user name   scv26
#       Creation time:       Fri Mar 27 14:48:13 2020


#       File generated by GOLD software.
#

@<TRIPOS>MOLECULE
AV-unprocessed.smi:2703
    47    49     1
SMALL
NO_CHARGES


@<TRIPOS>ATOM
      1 ****        -2.8897   5.0517  -2.6718 C.3            1 S1                 0.0000
      2 ****        -2.4200   4.0110  -1.6697 C.ar           1 S1                 0.0000
      3 ****        -2.2389   4.4033  -0.3244 C.ar           1 S1                 0.0000
      4 ****        -1.8064   3.4294   0.5678 C.ar           1 S1                 0.0000
      5 ****        -1.5342   3.4994   1.9355 N.pl3          1 S1                 1.0000
      6 ****        -1.1322   2.2776   2.3819 C.2            1 S1                 0.0000
      7 ****        -1.1458   1.4270   1.3201 N.pl3          1 S1                 0.0000
      8 ****        -0.7986  -0.0003   1.2602 C.3            1 S1                 0.0000
      9 ****         0.7155  -0.2406   1.1012 C.3            1 S1                 0.0000
     10 ****         1.1760   0.3577  -0.0955 O.3            1 S1                 0.0000
     11 ****         1.0579  -1.7393   1.0850 C.3            1 S1                 0.0000
     12 ****         2.8506  -2.0348   1.0919 S.3            1 S1                 0.0000
     13 ****         3.1236  -3.7898   1.0327 C.ar           1 S1                 0.0000
     14 ****         2.0589  -4.7174   1.0715 C.ar           1 S1                 0.0000
     15 ****         2.3317  -6.0931   1.0219 C.ar           1 S1                 0.0000
     16 ****         3.6659  -6.5164   0.9342 C.ar           1 S1                 0.0000
     17 ****         4.6957  -5.5570   0.8989 C.ar           1 S1                 0.0000
     18 ****         4.4292  -4.2154   0.9479 N.pl3          1 S1                 1.0000
     19 ****         5.4068  -3.3783   0.9140 O.2            1 S1                -1.0000
     20 ****        -1.5582   2.1025   0.1649 C.ar           1 S1                 0.0000
     21 ****        -1.7315   1.6999  -1.1576 C.ar           1 S1                 0.0000
     22 ****        -2.1681   2.6766  -2.0811 C.ar           1 S1                 0.0000
     23 ****        -2.3623   2.2665  -3.5310 C.3            1 S1                 0.0000
     24 ****        -3.0514   6.0196  -2.1964 H              1 S1                 0.0000
     25 ****        -3.8302   4.7455  -3.1306 H              1 S1                 0.0000
     26 ****        -2.1476   5.1869  -3.4588 H              1 S1                 0.0000
     27 ****        -2.4271   5.4178  -0.0045 H              1 S1                 0.0000
     28 ****        -0.8522   2.0285   3.3953 H              1 S1                 0.0000
     29 ****        -1.1479  -0.4509   2.1900 H              1 S1                 0.0000
     30 ****        -1.3642  -0.4783   0.4602 H              1 S1                 0.0000
     31 ****         1.2361   0.2344   1.9337 H              1 S1                 0.0000
     32 ****         0.7876  -0.0946  -0.8284 H              1 S1                 0.0000
     33 ****         0.6334  -2.2209   1.9663 H              1 S1                 0.0000
     34 ****         0.6172  -2.2193   0.2103 H              1 S1                 0.0000
     35 ****         1.0331  -4.3909   1.1403 H              1 S1                 0.0000
     36 ****         1.5275  -6.8139   1.0518 H              1 S1                 0.0000
     37 ****         3.9024  -7.5695   0.8950 H              1 S1                 0.0000
     38 ****         5.7448  -5.8074   0.8328 H              1 S1                 0.0000
     39 ****        -1.5371   0.6862  -1.4740 H              1 S1                 0.0000
     40 ****        -2.1221   1.2139  -3.6838 H              1 S1                 0.0000
     41 ****        -1.7167   2.8532  -4.1849 H              1 S1                 0.0000
     42 ****        -3.3975   2.4194  -3.8369 H              1 S1                 0.0000
     43 ****        -1.6138   4.3195   2.5231 H              1 S1                 0.0000
     44 ****         2.1722   0.2868  -0.1457 LP             1 S1                 0.0000
     45 ****         0.9090   1.3212  -0.1146 LP             1 S1                 0.0000
     46 ****         5.2250  -2.3956   0.9495 LP             1 S1                 0.0000
     47 ****         6.3479  -3.7108   0.8522 LP             1 S1                 0.0000
@<TRIPOS>BOND
    1    1    2 1     
    2    1   24 1     
    3    1   25 1     
    4    1   26 1     
    5    2   22 ar    
    6    2    3 ar    
    7    3    4 ar    
    8    3   27 1     
    9    4   20 ar    
   10    4    5 1     
   11    5    6 2     
   12    5   43 1     
   13    6    7 1     
   14    6   28 1     
   15    7    8 1     
   16    7   20 1     
   17    8    9 1     
   18    8   29 1     
   19    8   30 1     
   20    9   10 1     
   21    9   11 1     
   22    9   31 1     
   23   10   32 1     
   24   11   12 1     
   25   11   33 1     
   26   11   34 1     
   27   12   13 1     
   28   13   18 ar    
   29   13   14 ar    
   30   14   15 ar    
   31   14   35 1     
   32   15   16 ar    
   33   15   36 1     
   34   16   17 ar    
   35   16   37 1     
   36   17   18 ar    
   37   17   38 1     
   38   18   19 1     
   39   20   21 ar    
   40   21   22 ar    
   41   21   39 1     
   42   22   23 1     
   43   23   40 1     
   44   23   41 1     
   45   23   42 1     
   46   10   44 1     
   47   10   45 1     
   48   19   46 1     
   49   19   47 1     
@<TRIPOS>SUBSTRUCTURE
      1 S1             1
@<TRIPOS>SET
LONE_PAIRS      STATIC     ATOMS    <user>   **** ""
4 44 45 46 47
DONOR_HYDROGENS      STATIC     ATOMS    <user>   **** ""
2 43 32
ATOM$BLUE        STATIC     ATOMS    COLORGROUP SYSTEM
4 44 45 46 47
ATOM$RED        STATIC     ATOMS    COLORGROUP SYSTEM
2 43 32
