AV-unprocessed.smi:100|AV-procd|sdf|906|dock7
  -GOLD-   2262017403D 1   1.00000     0.00000
 Structure written by MMmdl.
 31 33  0  0  0  0  0  0  0  0  1 V2000
  153.9706  141.5457  160.4839 N   0  0  0  0  0  0  0  0  0  0  0  0
  153.0167  142.0684  159.7010 C   0  0  0  0  0  0  0  0  0  0  0  0
  152.5162  143.2844  160.0223 N   0  0  0  0  0  0  0  0  0  0  0  0
  151.5641  143.8272  159.2564 C   0  0  0  0  0  0  0  0  0  0  0  0
  150.9926  143.3299  158.1565 N   0  0  0  0  0  0  0  0  0  0  0  0
  151.4980  142.1039  157.8340 C   0  0  0  0  0  0  0  0  0  0  0  0
  152.5087  141.4082  158.5536 C   0  0  0  0  0  0  0  0  0  0  0  0
  152.7746  140.1919  157.9396 N   0  0  0  0  0  0  0  0  0  0  0  0
  151.9629  140.1733  156.9165 C   0  0  0  0  0  0  0  0  0  0  0  0
  151.1608  141.2849  156.7752 N   0  0  0  0  0  0  0  0  0  0  0  0
  150.1453  141.5423  155.7098 C   0  0  1  0  0  0  0  0  0  0  0  0
  150.3103  140.5865  154.7069 O   0  0  0  0  0  0  0  0  0  0  0  0
  149.0381  140.2332  154.1615 C   0  0  1  0  0  0  0  0  0  0  0  0
  148.8634  138.7009  154.1603 C   0  0  0  0  0  0  0  0  0  0  0  0
  149.9612  138.0229  153.5849 O   0  0  0  0  0  0  0  0  0  0  0  0
  147.9893  141.0326  154.9505 C   0  0  2  0  0  0  0  0  0  0  0  0
  147.7252  142.1447  154.2579 F   0  0  0  0  0  0  0  0  0  0  0  0
  148.7237  141.3669  156.2410 C   0  0  2  0  0  0  0  0  0  0  0  0
  148.1889  142.5313  156.8392 O   0  0  0  0  0  0  0  0  0  0  0  0
  154.3602  140.6401  160.2648 H   0  0  0  0  0  0  0  0  0  0  0  0
  154.2979  142.0580  161.2900 H   0  0  0  0  0  0  0  0  0  0  0  0
  151.2091  144.7983  159.5681 H   0  0  0  0  0  0  0  0  0  0  0  0
  151.9288  139.3409  156.2284 H   0  0  0  0  0  0  0  0  0  0  0  0
  150.3556  142.5402  155.3202 H   0  0  0  0  0  0  0  0  0  0  0  0
  149.0402  140.5612  153.1208 H   0  0  0  0  0  0  0  0  0  0  0  0
  148.7717  138.3471  155.1873 H   0  0  0  0  0  0  0  0  0  0  0  0
  147.9442  138.4186  153.6461 H   0  0  0  0  0  0  0  0  0  0  0  0
  149.6313  137.3750  152.9812 H   0  0  0  0  0  0  0  0  0  0  0  0
  147.0439  140.5108  155.1025 H   0  0  0  0  0  0  0  0  0  0  0  0
  148.6849  140.5247  156.9328 H   0  0  0  0  0  0  0  0  0  0  0  0
  148.6954  143.2747  156.5496 H   0  0  0  0  0  0  0  0  0  0  0  0
  1  2  1  0  0  0  0
  1 20  1  0  0  0  0
  1 21  1  0  0  0  0
  2  7  1  0  0  0  0
  2  3  2  0  0  0  0
  3  4  1  0  0  0  0
  4  5  2  0  0  0  0
  4 22  1  0  0  0  0
  5  6  1  0  0  0  0
  6 10  1  0  0  0  0
  6  7  2  0  0  0  0
  7  8  1  0  0  0  0
  8  9  2  0  0  0  0
  9 10  1  0  0  0  0
  9 23  1  0  0  0  0
 10 11  1  0  0  0  0
 11 18  1  0  0  0  0
 11 12  1  0  0  0  0
 11 24  1  0  0  0  0
 12 13  1  0  0  0  0
 13 14  1  0  0  0  0
 13 16  1  0  0  0  0
 13 25  1  0  0  0  0
 14 15  1  0  0  0  0
 14 26  1  0  0  0  0
 14 27  1  0  0  0  0
 15 28  1  0  0  0  0
 16 17  1  0  0  0  0
 16 18  1  0  0  0  0
 16 29  1  0  0  0  0
 18 19  1  0  0  0  0
 18 30  1  0  0  0  0
 19 31  1  0  0  0  0
M  END
> <s_m_source_file>
AV-unprocessed.smi

> <i_m_source_file_index>
100

> <i_lp_mmshare_version>
43012

> <i_f3d_flags>
0

> <s_epik_input>
bjFbY0hdbmMoW05IMl0pYyhjMTIpbltjSF1uMltDQEBIXTNPW0NAQEhdKFtDSDJdW09IXSlbQ0BIXShGKVtDQEhdM1tPSF0=

> <s_epik_cmdline>
J2VwaWtfcHl0aG9uJywgJy1waCcsICc3LjAnLCAnLXRuJywgJzgnLCAnLW1hJywgJzIwMCcsICctbWV0YWxfYmluZGluZycsICctaW1hZScsICc8aW5maWxlLm1hZT4nLCAnLW9tYWUnLCAnPG91dGZpbGUubWFlPic=

> <r_lp_tautomer_probability>
1

> <r_epik_Ionization_Penalty>
0.000750324

> <r_epik_Ionization_Penalty_Charging>
0

> <r_epik_Ionization_Penalty_Neutral>
0.000750324

> <r_epik_State_Penalty>
-0

> <r_epik_Charging_Adjusted_Penalty>
0

> <i_epik_Tot_Q>
0

> <i_epik_Tot_abs_Q>
0

> <r_epik_Metal_State_Penalty>
-0

> <b_epik_Metal_Only>
0

> <s_epik_Chemistry_Notes>
This compound contains an acetal/aminal-like group ( X-CH(R)-Y where X, Y are N, S, or O) that may be acid/base labile, releasing an aldehyde.

> <s_lp_Force_Field>
OPLS_2005

> <r_lp_Energy>
36.265

> <b_lp_Chiralities_Consistent>
1

> <s_lp_Variant>
AV-unprocessed.smi:100-10

> <Gold.Version>
5.8.1

> <Gold.Id.Protein>
6NUR|6NUR_protein|mol2

> <Gold.PLP.Fitness>
44.2663

> <Gold.PLP.PLP>
-33.2801

> <Gold.PLP.part.hbond>
-5.1458

> <Gold.PLP.part.metal>
0.0000

> <Gold.PLP.part.buried>
-2.9230

> <Gold.PLP.part.nonpolar>
-25.3015

> <Gold.PLP.part.repulsive>
0.2573

> <Gold.PLP.ligand.clash>
0.0000

> <Gold.PLP.ligand.torsion>
0.3451

> <Gold.PLP.Chemscore.Hbond>
3.8880

> <Gold.PLP.Chemscore.CHOScore>
0.0000

> <Gold.PLP.Chemscore.Metal>
0.0000

> <Gold.Chemscore.Hbonds>
donor molecule, donor type, donor heavy atom, donor atom, acceptor molecule, acceptor atom, score
      L1  H    15    28       P1  7948  1.00
      L1  H    19    31       P1  8028  1.00
      P1  H  7989  7998       L1    12  0.93
      P1  H  7997  8010       L1     8  0.96

> <Gold.PLP.Chemscore.Internal.Correction>
0.0124

> <Gold.Rescore>
     Score         DG    S(hbond)    S(metal)    S(lipo)     H(rot)  DE(clash)    DE(int)     intcor
     10.75     -11.02       3.07        0.00      29.35       3.19       0.22       0.05       ----

> <Gold.Chemscore.Fitness>
10.7489

> <Gold.Chemscore.DG>
-11.0171

> <Gold.Chemscore.ZeroCoef>
-5.4800

> <Gold.Chemscore.Hbond>
3.0748

> <Gold.Chemscore.Metal>
0.0000

> <Gold.Chemscore.Lipo>
29.3490

> <Gold.Chemscore.Internal_Hbond>
0.0000

> <Gold.Chemscore.DEClash>
0.2165

> <Gold.Chemscore.DEInternal>
0.0516

> <Gold.Chemscore.Rot>
3.1901

> <Gold.Chemscore.Internal.Correction>
   9.000000E+99

> <Gold.Chemscore.Hbonds>
donor molecule, donor type, donor heavy atom, donor atom, acceptor molecule, acceptor atom, score
      L1  H    15    28       P1  7948  0.65
      L1  H    19    31       P1  8028  0.79
      P1  H  7989  7998       L1    12  0.77
      P1  H  7997  8010       L1     8  0.21

> <Gold.Chemscore.Hbond.Weighted>
-10.2699

> <Gold.Chemscore.Metal.Weighted>
-0.0000

> <Gold.Chemscore.Lipo.Weighted>
-3.4338

> <Gold.Chemscore.Internal_Hbond.Weighted>
0.0000

> <Gold.Chemscore.DEClash.Weighted>
0.2165

> <Gold.Chemscore.DEInternal.Weighted>
0.0516

> <Gold.Chemscore.Rot.Weighted>
8.1667

> <Gold.Chemscore.Internal.Correction.Weighted>
   9.000000E+99

> <Gold.Protein.RotatedTorsions>
[ 6907 6896 6895 6894 ] final -174.33 input  -60.11 | X-H torsion
[ 7974 7965 7964 7962 ] final  -58.50 input  175.53 | X-H torsion
[ 8008 7997 7996 7995 ] final   37.91 input   59.86 | X-H torsion
[ 10167 10162 10161 10158 ] final   97.76 input  -65.29 | X-H torsion
[ 10718 10713 10712 10709 ] final -142.79 input   66.30 | X-H torsion
[ 10763 10752 10751 10750 ] final -146.20 input  -60.55 | X-H torsion
[ 11005 11000 10999 10996 ] final  -87.49 input  -57.11 | X-H torsion

> <Gold.Protein.ActiveResidues>
 VAL166  LYS551  ARG553  GLY616  TRP617  ASP618  TYR619  PRO620  LYS621  CYS622 
 ASP623  PHE694  ASN695  SER759  ASP760  ASP761  ALA762  ILE779  LEU786  VAL792 
 PHE793  MET794  SER795  GLU796  ALA797  LYS798  CYS799  TRP800  GLU811  SER814 

> <Gold.Protein.RotatedAtoms>
  151.5706  133.3390  159.2988 H   0  0  0  0  0  0  0  0  0  0  0  0  # atno 6907 bound_to 6896
  150.8369  134.7649  159.6912 H   0  0  0  0  0  0  0  0  0  0  0  0  # atno 6908 bound_to 6896
  152.4444  134.5531  159.9924 H   0  0  0  0  0  0  0  0  0  0  0  0  # atno 6909 bound_to 6896
  145.8385  140.8432  143.0046 H   0  0  0  0  0  0  0  0  0  0  0  0  # atno 7974 bound_to 7965
  155.2116  140.3324  155.4328 H   0  0  0  0  0  0  0  0  0  0  0  0  # atno 8008 bound_to 7997
  156.2368  140.1876  156.7146 H   0  0  0  0  0  0  0  0  0  0  0  0  # atno 8009 bound_to 7997
  154.6074  140.0614  156.9435 H   0  0  0  0  0  0  0  0  0  0  0  0  # atno 8010 bound_to 7997
  139.7771  144.6902  151.0074 H   0  0  0  0  0  0  0  0  0  0  0  0  # atno 10167 bound_to 10162
  156.3502  130.7684  151.1835 H   0  0  0  0  0  0  0  0  0  0  0  0  # atno 10718 bound_to 10713
  154.8347  135.3393  154.6624 H   0  0  0  0  0  0  0  0  0  0  0  0  # atno 10763 bound_to 10752
  153.7240  135.6956  153.5010 H   0  0  0  0  0  0  0  0  0  0  0  0  # atno 10764 bound_to 10752
  153.2360  135.4400  155.0600 H   0  0  0  0  0  0  0  0  0  0  0  0  # atno 10765 bound_to 10752
  141.1616  133.7514  156.9314 H   0  0  0  0  0  0  0  0  0  0  0  0  # atno 11005 bound_to 11000
  144.6735  140.0777  143.7470 LP  0  0  0  0  0  0  0  0  0  0  0  0  # atno 17320 bound_to 7965
  145.9491  139.2721  143.1223 LP  0  0  0  0  0  0  0  0  0  0  0  0  # atno 17321 bound_to 7965
  140.7817  143.4524  151.0394 LP  0  0  0  0  0  0  0  0  0  0  0  0  # atno 17342 bound_to 10162
  139.8205  143.7826  152.3176 LP  0  0  0  0  0  0  0  0  0  0  0  0  # atno 17343 bound_to 10162
  157.7460  131.0430  150.4720 LP  0  0  0  0  0  0  0  0  0  0  0  0  # atno 17370 bound_to 10713
  156.4914  130.4096  149.6404 LP  0  0  0  0  0  0  0  0  0  0  0  0  # atno 17371 bound_to 10713
  140.1384  134.9310  157.2433 LP  0  0  0  0  0  0  0  0  0  0  0  0  # atno 17394 bound_to 11000
  140.2867  134.3287  155.7327 LP  0  0  0  0  0  0  0  0  0  0  0  0  # atno 17395 bound_to 11000

$$$$
