#       Name:                AV-unprocessed.smi:102
#       Creating user name   scv26
#       Creation time:       Thu Mar 26 17:48:32 2020


#       File generated by GOLD software.
#

@<TRIPOS>MOLECULE
AV-unprocessed.smi:102
    56    57     1
SMALL
NO_CHARGES


@<TRIPOS>ATOM
      1 ****        -4.9509   3.0726   0.6879 C.3            1 S1                 0.0000
      2 ****        -4.5883   1.5996   0.5465 C.2            1 S1                 0.0000
      3 ****        -5.4563   0.7352   0.4240 O.2            1 S1                 0.0000
      4 ****        -3.2632   1.3883   0.5729 O.3            1 S1                 0.0000
      5 ****        -2.7637   0.0669   0.4495 C.3            1 S1                 0.0000
      6 ****        -1.2292   0.0928   0.4770 C.3            1 S1                 0.0000
      7 ****        -0.7073   0.5984  -0.7497 O.3            1 S1                 0.0000
      8 ****         0.5200   0.0012  -1.0475 C.3            1 S1                 0.0000
      9 ****         1.5986   1.0672  -1.1638 N.am           1 S1                 0.0000
     10 ****         2.3655   1.1354  -2.3201 C.2            1 S1                 0.0000
     11 ****         3.3321   2.0625  -2.5174 C.2            1 S1                 0.0000
     12 ****         4.0351   2.0553  -3.6625 F              1 S1                 0.0000
     13 ****         3.6154   3.0697  -1.5004 C.2            1 S1                 0.0000
     14 ****         4.4730   3.9465  -1.5838 O.2            1 S1                 0.0000
     15 ****         2.8108   2.9788  -0.3620 N.am           1 S1                 0.0000
     16 ****         1.8095   2.0301  -0.1473 C.2            1 S1                 0.0000
     17 ****         1.1664   2.0585   0.8984 O.2            1 S1                 0.0000
     18 ****         0.7822  -1.1286  -0.0236 C.3            1 S1                 0.0000
     19 ****         1.7990  -0.8389   0.9304 O.3            1 S1                 0.0000
     20 ****         3.0648  -1.2478   0.7261 C.2            1 S1                 0.0000
     21 ****         3.9942  -0.8416   1.8614 C.3            1 S1                 0.0000
     22 ****         3.4792  -1.8636  -0.2558 O.2            1 S1                 0.0000
     23 ****        -0.5648  -1.2750   0.6701 C.3            1 S1                 0.0000
     24 ****        -1.3217  -2.3143   0.0561 O.3            1 S1                 0.0000
     25 ****        -1.1629  -3.5921   0.4455 C.2            1 S1                 0.0000
     26 ****        -2.0770  -4.5473  -0.3102 C.3            1 S1                 0.0000
     27 ****        -0.3783  -3.9955   1.3040 O.2            1 S1                 0.0000
     28 ****         2.9660   3.6596   0.3674 H              1 S1                 0.0000
     29 ****        -4.0559   3.6899   0.7703 H              1 S1                 0.0000
     30 ****        -5.5589   3.2263   1.5794 H              1 S1                 0.0000
     31 ****        -5.5204   3.4055  -0.1800 H              1 S1                 0.0000
     32 ****        -3.1368  -0.5279   1.2845 H              1 S1                 0.0000
     33 ****        -3.1234  -0.3948  -0.4713 H              1 S1                 0.0000
     34 ****        -0.9031   0.7371   1.2923 H              1 S1                 0.0000
     35 ****         0.4110  -0.4121  -2.0506 H              1 S1                 0.0000
     36 ****         2.2023   0.4134  -3.1072 H              1 S1                 0.0000
     37 ****         1.0296  -2.0435  -0.5647 H              1 S1                 0.0000
     38 ****         3.8540   0.2111   2.1081 H              1 S1                 0.0000
     39 ****         5.0355  -0.9938   1.5771 H              1 S1                 0.0000
     40 ****         3.7872  -1.4378   2.7501 H              1 S1                 0.0000
     41 ****        -0.4531  -1.4882   1.7348 H              1 S1                 0.0000
     42 ****        -3.1087  -4.1978  -0.2696 H              1 S1                 0.0000
     43 ****        -2.0337  -5.5450   0.1273 H              1 S1                 0.0000
     44 ****        -1.7735  -4.6144  -1.3549 H              1 S1                 0.0000
     45 ****        -6.4222   0.9941   0.4159 LP             1 S1                 0.0000
     46 ****        -5.1955  -0.2259   0.3327 LP             1 S1                 0.0000
     47 ****        -0.5805   1.5871  -0.6698 LP             1 S1                 0.0000
     48 ****        -1.3545   0.4038  -1.4868 LP             1 S1                 0.0000
     49 ****         5.0460   4.0093  -2.4009 LP             1 S1                 0.0000
     50 ****         4.5976   4.5969  -0.8345 LP             1 S1                 0.0000
     51 ****         0.4522   1.3785   1.0648 LP             1 S1                 0.0000
     52 ****         1.3568   2.7615   1.5836 LP             1 S1                 0.0000
     53 ****         2.8518  -2.1044  -0.9964 LP             1 S1                 0.0000
     54 ****         4.4432  -2.1232  -0.3129 LP             1 S1                 0.0000
     55 ****         0.2156  -3.3485   1.7822 LP             1 S1                 0.0000
     56 ****        -0.3349  -4.9703   1.5233 LP             1 S1                 0.0000
@<TRIPOS>BOND
    1    1    2 1     
    2    1   29 1     
    3    1   30 1     
    4    1   31 1     
    5    2    3 2     
    6    2    4 1     
    7    4    5 1     
    8    5    6 1     
    9    5   32 1     
   10    5   33 1     
   11    6   23 1     
   12    6    7 1     
   13    6   34 1     
   14    7    8 1     
   15    8    9 1     
   16    8   18 1     
   17    8   35 1     
   18    9   16 1     
   19    9   10 1     
   20   10   11 2     
   21   10   36 1     
   22   11   12 1     
   23   11   13 1     
   24   13   14 2     
   25   13   15 1     
   26   15   28 1     
   27   15   16 1     
   28   16   17 2     
   29   18   19 1     
   30   18   23 1     
   31   18   37 1     
   32   19   20 1     
   33   20   21 1     
   34   20   22 2     
   35   21   38 1     
   36   21   39 1     
   37   21   40 1     
   38   23   24 1     
   39   23   41 1     
   40   24   25 1     
   41   25   26 1     
   42   25   27 2     
   43   26   42 1     
   44   26   43 1     
   45   26   44 1     
   46    3   45 1     
   47    3   46 1     
   48    7   47 1     
   49    7   48 1     
   50   14   49 1     
   51   14   50 1     
   52   17   51 1     
   53   17   52 1     
   54   22   53 1     
   55   22   54 1     
   56   27   55 1     
   57   27   56 1     
@<TRIPOS>SUBSTRUCTURE
      1 S1             1
@<TRIPOS>SET
LONE_PAIRS      STATIC     ATOMS    <user>   **** ""
12 45 46 47 48 49 50 51 52 53 54 55 56
DONOR_HYDROGENS      STATIC     ATOMS    <user>   **** ""
1 28
ATOM$BLUE        STATIC     ATOMS    COLORGROUP SYSTEM
12 45 46 47 48 49 50 51 52 53 54 55 56
ATOM$RED        STATIC     ATOMS    COLORGROUP SYSTEM
1 28
