AV-unprocessed.smi:651|AV-procd|sdf|3189|dock4
  -GOLD-   22720 0113D 1   1.00000     0.00000
 Structure written by MMmdl.
 39 40  0  0  0  0  0  0  0  0  2 V2000
  151.7553  145.6145  159.2531 C   0  0  0  0  0  0  0  0  0  0  0  0
  151.7470  144.1690  158.8032 C   0  0  0  0  0  0  0  0  0  0  0  0
  152.5129  143.1741  159.4480 C   0  0  0  0  0  0  0  0  0  0  0  0
  152.4562  141.8468  158.9745 C   0  0  0  0  0  0  0  0  0  0  0  0
  151.6343  141.5399  157.8672 C   0  0  0  0  0  0  0  0  0  0  0  0
  151.5444  140.1174  157.3395 C   0  0  0  0  0  0  0  0  0  0  0  0
  151.1237  140.0989  155.8677 C   0  0  0  0  0  0  0  0  0  0  0  0
  151.9805  140.0904  154.9849 O   0  0  0  0  0  0  0  0  0  0  0  0
  149.8048  140.1080  155.6183 N   0  0  0  0  0  0  0  0  0  0  0  0
  149.1894  140.1159  154.2901 C   0  0  1  0  0  0  0  0  0  0  0  0
  148.6411  138.7202  153.9315 C   0  0  0  0  0  0  0  0  0  0  0  0
  147.2177  138.9224  153.4011 C   0  0  0  0  0  0  0  0  0  0  0  0
  147.0999  140.4185  153.1051 C   0  0  0  0  0  0  0  0  0  0  0  0
  148.0104  141.1154  154.1277 C   0  0  1  0  0  0  0  0  0  0  0  0
  147.2325  141.4364  155.4229 C   0  0  0  0  0  0  0  0  0  0  0  0
  147.3357  142.6802  155.8977 N   0  0  0  0  0  0  0  0  0  0  0  0
  146.5577  140.5785  155.9904 O   0  0  0  0  0  0  0  0  0  0  0  0
  150.8946  142.5781  157.2598 C   0  0  0  0  0  0  0  0  0  0  0  0
  150.9760  143.8367  157.7437 N   0  3  0  0  0  0  0  0  0  0  0  0
  152.2275  145.7178  160.2306 H   0  0  0  0  0  0  0  0  0  0  0  0
  150.7376  145.9992  159.3265 H   0  0  0  0  0  0  0  0  0  0  0  0
  152.3062  146.2289  158.5406 H   0  0  0  0  0  0  0  0  0  0  0  0
  153.1355  143.4212  160.2958 H   0  0  0  0  0  0  0  0  0  0  0  0
  153.0338  141.0730  159.4596 H   0  0  0  0  0  0  0  0  0  0  0  0
  152.5067  139.6147  157.4442 H   0  0  0  0  0  0  0  0  0  0  0  0
  150.8268  139.5540  157.9378 H   0  0  0  0  0  0  0  0  0  0  0  0
  149.1742  140.1302  156.4064 H   0  0  0  0  0  0  0  0  0  0  0  0
  149.9490  140.3685  153.5474 H   0  0  0  0  0  0  0  0  0  0  0  0
  149.2708  138.2577  153.1706 H   0  0  0  0  0  0  0  0  0  0  0  0
  148.6292  138.0446  154.7880 H   0  0  0  0  0  0  0  0  0  0  0  0
  147.0120  138.3108  152.5222 H   0  0  0  0  0  0  0  0  0  0  0  0
  146.4963  138.6399  154.1687 H   0  0  0  0  0  0  0  0  0  0  0  0
  147.4674  140.6221  152.0985 H   0  0  0  0  0  0  0  0  0  0  0  0
  146.0645  140.7609  153.1423 H   0  0  0  0  0  0  0  0  0  0  0  0
  148.3817  142.0543  153.7130 H   0  0  0  0  0  0  0  0  0  0  0  0
  146.8511  142.9394  156.7450 H   0  0  0  0  0  0  0  0  0  0  0  0
  147.9040  143.3574  155.4097 H   0  0  0  0  0  0  0  0  0  0  0  0
  150.2408  142.4411  156.4106 H   0  0  0  0  0  0  0  0  0  0  0  0
  150.4304  144.5696  157.2894 H   0  0  0  0  0  0  0  0  0  0  0  0
  1  2  1  0  0  0  0
  1 20  1  0  0  0  0
  1 21  1  0  0  0  0
  1 22  1  0  0  0  0
  2 19  1  0  0  0  0
  2  3  2  0  0  0  0
  3  4  1  0  0  0  0
  3 23  1  0  0  0  0
  4  5  2  0  0  0  0
  4 24  1  0  0  0  0
  5  6  1  0  0  0  0
  5 18  1  0  0  0  0
  6  7  1  0  0  0  0
  6 25  1  0  0  0  0
  6 26  1  0  0  0  0
  7  8  2  0  0  0  0
  7  9  1  0  0  0  0
  9 10  1  0  0  0  0
  9 27  1  0  0  0  0
 10 14  1  0  0  0  0
 10 11  1  0  0  0  0
 10 28  1  0  0  0  0
 11 12  1  0  0  0  0
 11 29  1  0  0  0  0
 11 30  1  0  0  0  0
 12 13  1  0  0  0  0
 12 31  1  0  0  0  0
 12 32  1  0  0  0  0
 13 14  1  0  0  0  0
 13 33  1  0  0  0  0
 13 34  1  0  0  0  0
 14 15  1  0  0  0  0
 14 35  1  0  0  0  0
 15 16  1  0  0  0  0
 15 17  2  0  0  0  0
 16 36  1  0  0  0  0
 16 37  1  0  0  0  0
 18 19  2  0  0  0  0
 18 38  1  0  0  0  0
 19 39  1  0  0  0  0
M  CHG  1  19   1
M  END
> <s_m_source_file>
AV-unprocessed.smi

> <i_m_source_file_index>
651

> <i_lp_mmshare_version>
43012

> <i_f3d_flags>
0

> <s_epik_input>
W0NIM11jMVtjSF1bY0hdYyhbY0hdbjEpW0NIMl1DKD1PKVtOSF1bQ0BASF0yW0NIMl1bQ0gyXVtDSDJdW0NASF0yQyg9TylbTkgyXQ==

> <s_epik_cmdline>
J2VwaWtfcHl0aG9uJywgJy1waCcsICc3LjAnLCAnLXRuJywgJzgnLCAnLW1hJywgJzIwMCcsICctbWV0YWxfYmluZGluZycsICctaW1hZScsICc8aW5maWxlLm1hZT4nLCAnLW9tYWUnLCAnPG91dGZpbGUubWFlPic=

> <r_epik_Ionization_Penalty>
2.14971

> <r_epik_Ionization_Penalty_Charging>
2.14971

> <r_epik_Ionization_Penalty_Neutral>
1.65229e-07

> <r_epik_State_Penalty>
2.28946

> <r_epik_Charging_Adjusted_Penalty>
4.43917

> <i_epik_Tot_Q>
1

> <i_epik_Tot_abs_Q>
1

> <r_epik_Metal_State_Penalty>
2.30508

> <b_epik_Metal_Only>
0

> <s_lp_Force_Field>
OPLS_2005

> <r_lp_Energy>
19.7283

> <b_lp_Chiralities_Consistent>
1

> <s_lp_Variant>
AV-unprocessed.smi:651-6

> <Gold.Version>
5.8.1

> <Gold.Id.Protein>
6NUR|6NUR_protein|mol2

> <Gold.PLP.Fitness>
43.2018

> <Gold.PLP.PLP>
-37.0190

> <Gold.PLP.part.hbond>
-3.0000

> <Gold.PLP.part.metal>
0.0000

> <Gold.PLP.part.buried>
-0.0901

> <Gold.PLP.part.nonpolar>
-34.0139

> <Gold.PLP.part.repulsive>
0.1986

> <Gold.PLP.ligand.clash>
0.0000

> <Gold.PLP.ligand.torsion>
1.0729

> <Gold.PLP.Chemscore.Hbond>
2.7680

> <Gold.PLP.Chemscore.CHOScore>
0.0000

> <Gold.PLP.Chemscore.Metal>
0.0000

> <Gold.Chemscore.Hbonds>
donor molecule, donor type, donor heavy atom, donor atom, acceptor molecule, acceptor atom, score
      L1  H    16    37       P1  8028  0.86
      L1  H    19    39       P1  8028  0.84
      P1  H  7989  7998       L1     8  0.83

> <Gold.PLP.Chemscore.Internal.Correction>
0.0245

> <Gold.Rescore>
     Score         DG    S(hbond)    S(metal)    S(lipo)     H(rot)  DE(clash)    DE(int)     intcor
     17.82     -19.15       2.17        0.00      99.39       2.04       0.38       0.96       ----

> <Gold.Chemscore.Fitness>
17.8177

> <Gold.Chemscore.DG>
-19.1529

> <Gold.Chemscore.ZeroCoef>
-5.4800

> <Gold.Chemscore.Hbond>
2.1744

> <Gold.Chemscore.Metal>
0.0000

> <Gold.Chemscore.Lipo>
99.3946

> <Gold.Chemscore.Internal_Hbond>
0.0000

> <Gold.Chemscore.DEClash>
0.3750

> <Gold.Chemscore.DEInternal>
0.9602

> <Gold.Chemscore.Rot>
2.0386

> <Gold.Chemscore.Internal.Correction>
   9.000000E+99

> <Gold.Chemscore.Hbonds>
donor molecule, donor type, donor heavy atom, donor atom, acceptor molecule, acceptor atom, score
      L1  H    16    37       P1  8028  0.42
      L1  H    19    39       P1  8028  0.23
      P1  H  7989  7998       L1     8  0.80

> <Gold.Chemscore.Hbond.Weighted>
-7.2625

> <Gold.Chemscore.Metal.Weighted>
-0.0000

> <Gold.Chemscore.Lipo.Weighted>
-11.6292

> <Gold.Chemscore.Internal_Hbond.Weighted>
0.0000

> <Gold.Chemscore.DEClash.Weighted>
0.3750

> <Gold.Chemscore.DEInternal.Weighted>
0.9602

> <Gold.Chemscore.Rot.Weighted>
5.2188

> <Gold.Chemscore.Internal.Correction.Weighted>
   9.000000E+99

> <Gold.Protein.RotatedTorsions>
[ 6907 6896 6895 6894 ] final -104.29 input  -60.11 | X-H torsion
[ 7974 7965 7964 7962 ] final   93.16 input  175.53 | X-H torsion
[ 8008 7997 7996 7995 ] final   27.76 input   59.86 | X-H torsion
[ 10167 10162 10161 10158 ] final   28.89 input  -65.29 | X-H torsion
[ 10718 10713 10712 10709 ] final   12.83 input   66.30 | X-H torsion
[ 10763 10752 10751 10750 ] final  -63.59 input  -60.55 | X-H torsion
[ 11005 11000 10999 10996 ] final    8.71 input  -57.11 | X-H torsion

> <Gold.Protein.ActiveResidues>
 VAL166  LYS551  ARG553  GLY616  TRP617  ASP618  TYR619  PRO620  LYS621  CYS622 
 ASP623  PHE694  ASN695  SER759  ASP760  ASP761  ALA762  ILE779  LEU786  VAL792 
 PHE793  MET794  SER795  GLU796  ALA797  LYS798  CYS799  TRP800  GLU811  SER814 

> <Gold.Protein.RotatedAtoms>
  150.7280  134.0300  159.3729 H   0  0  0  0  0  0  0  0  0  0  0  0  # atno 6907 bound_to 6896
  151.8269  135.0632  160.0441 H   0  0  0  0  0  0  0  0  0  0  0  0  # atno 6908 bound_to 6896
  152.2962  133.5574  159.5625 H   0  0  0  0  0  0  0  0  0  0  0  0  # atno 6909 bound_to 6896
  145.4827  139.2278  143.2874 H   0  0  0  0  0  0  0  0  0  0  0  0  # atno 7974 bound_to 7965
  155.0479  140.3176  155.4702 H   0  0  0  0  0  0  0  0  0  0  0  0  # atno 8008 bound_to 7997
  156.2841  140.2151  156.5548 H   0  0  0  0  0  0  0  0  0  0  0  0  # atno 8009 bound_to 7997
  154.7235  140.0487  157.0649 H   0  0  0  0  0  0  0  0  0  0  0  0  # atno 8010 bound_to 7997
  140.4814  144.0610  150.6266 H   0  0  0  0  0  0  0  0  0  0  0  0  # atno 10167 bound_to 10162
  157.0158  130.6135  149.5714 H   0  0  0  0  0  0  0  0  0  0  0  0  # atno 10718 bound_to 10713
  154.3174  135.6203  153.5492 H   0  0  0  0  0  0  0  0  0  0  0  0  # atno 10763 bound_to 10752
  152.9823  135.5715  154.5109 H   0  0  0  0  0  0  0  0  0  0  0  0  # atno 10764 bound_to 10752
  154.4770  135.2861  155.1576 H   0  0  0  0  0  0  0  0  0  0  0  0  # atno 10765 bound_to 10752
  140.5339  134.0439  155.7882 H   0  0  0  0  0  0  0  0  0  0  0  0  # atno 11005 bound_to 11000
  146.2331  140.5614  142.8966 LP  0  0  0  0  0  0  0  0  0  0  0  0  # atno 17320 bound_to 7965
  144.7880  140.5974  143.6561 LP  0  0  0  0  0  0  0  0  0  0  0  0  # atno 17321 bound_to 7965
  140.3853  143.2781  152.0123 LP  0  0  0  0  0  0  0  0  0  0  0  0  # atno 17342 bound_to 10162
  139.4834  144.6121  151.7414 LP  0  0  0  0  0  0  0  0  0  0  0  0  # atno 17343 bound_to 10162
  156.0120  130.5212  150.8017 LP  0  0  0  0  0  0  0  0  0  0  0  0  # atno 17370 bound_to 10713
  157.5286  131.0935  150.9984 LP  0  0  0  0  0  0  0  0  0  0  0  0  # atno 17371 bound_to 10713
  141.1265  133.9373  157.2623 LP  0  0  0  0  0  0  0  0  0  0  0  0  # atno 17394 bound_to 11000
  139.9539  135.0169  156.9073 LP  0  0  0  0  0  0  0  0  0  0  0  0  # atno 17395 bound_to 11000

$$$$
