AV-unprocessed.smi:1809|AV-procd|sdf|7310|dock1
  -GOLD-   22720 8563D 1   1.00000     0.00000
 Structure written by MMmdl.
 40 42  0  0  0  0  0  0  0  0  2 V2000
  153.9279  141.3318  160.2093 C   0  0  0  0  0  0  0  0  0  0  0  0
  153.0842  140.9040  159.0574 C   0  0  0  0  0  0  0  0  0  0  0  0
  153.4667  139.9610  158.1875 N   0  0  0  0  0  0  0  0  0  0  0  0
  152.5140  139.7350  157.2040 N   0  0  0  0  0  0  0  0  0  0  0  0
  151.4379  140.5184  157.3609 C   0  0  0  0  0  0  0  0  0  0  0  0
  150.3112  140.4933  156.4971 N   0  0  0  0  0  0  0  0  0  0  0  0
  150.2373  140.0240  155.2394 C   0  0  0  0  0  0  0  0  0  0  0  0
  151.1727  139.5352  154.6060 O   0  0  0  0  0  0  0  0  0  0  0  0
  148.9975  140.1509  154.7454 N   0  0  0  0  0  0  0  0  0  0  0  0
  148.5701  139.7187  153.4188 C   0  0  0  0  0  0  0  0  0  0  0  0
  147.0427  139.8605  153.2404 C   0  0  1  0  0  0  0  0  0  0  0  0
  146.5556  139.4224  151.8369 C   0  0  0  0  0  0  0  0  0  0  0  0
  146.5398  137.9496  151.7653 N   0  3  2  0  0  0  0  0  0  0  0  0
  146.1093  137.3206  150.5045 C   0  0  0  0  0  0  0  0  0  0  0  0
  145.6140  135.9182  150.9096 C   0  0  0  0  0  0  0  0  0  0  0  0
  145.6414  135.8946  152.4482 C   0  0  0  0  0  0  0  0  0  0  0  0
  145.6997  137.3738  152.8165 C   0  0  1  0  0  0  0  0  0  0  0  0
  146.2870  137.7499  154.1800 C   0  0  0  0  0  0  0  0  0  0  0  0
  146.3121  139.1777  154.2720 O   0  0  0  0  0  0  0  0  0  0  0  0
  151.5034  141.6066  158.7367 S   0  0  0  0  0  0  0  0  0  0  0  0
  154.7934  140.6771  160.3171 H   0  0  0  0  0  0  0  0  0  0  0  0
  153.3469  141.2951  161.1310 H   0  0  0  0  0  0  0  0  0  0  0  0
  154.2776  142.3526  160.0552 H   0  0  0  0  0  0  0  0  0  0  0  0
  149.4599  140.8702  156.8866 H   0  0  0  0  0  0  0  0  0  0  0  0
  148.2923  140.5672  155.3359 H   0  0  0  0  0  0  0  0  0  0  0  0
  149.0782  140.3580  152.6964 H   0  0  0  0  0  0  0  0  0  0  0  0
  148.9089  138.7040  153.2062 H   0  0  0  0  0  0  0  0  0  0  0  0
  146.8063  140.9198  153.3480 H   0  0  0  0  0  0  0  0  0  0  0  0
  145.5498  139.8040  151.6549 H   0  0  0  0  0  0  0  0  0  0  0  0
  147.1976  139.8296  151.0550 H   0  0  0  0  0  0  0  0  0  0  0  0
  145.2924  137.8928  150.0615 H   0  0  0  0  0  0  0  0  0  0  0  0
  146.9284  137.2844  149.7856 H   0  0  0  0  0  0  0  0  0  0  0  0
  144.6019  135.7558  150.5371 H   0  0  0  0  0  0  0  0  0  0  0  0
  146.2461  135.1316  150.4963 H   0  0  0  0  0  0  0  0  0  0  0  0
  144.7790  135.3857  152.8799 H   0  0  0  0  0  0  0  0  0  0  0  0
  146.5417  135.3851  152.7949 H   0  0  0  0  0  0  0  0  0  0  0  0
  144.6932  137.7900  152.7315 H   0  0  0  0  0  0  0  0  0  0  0  0
  145.6678  137.3535  154.9848 H   0  0  0  0  0  0  0  0  0  0  0  0
  147.2837  137.3286  154.3075 H   0  0  0  0  0  0  0  0  0  0  0  0
  147.4803  137.6261  151.9421 H   0  0  0  0  0  0  0  0  0  0  0  0
  1  2  1  0  0  0  0
  1 21  1  0  0  0  0
  1 22  1  0  0  0  0
  1 23  1  0  0  0  0
  2 20  1  0  0  0  0
  2  3  2  0  0  0  0
  3  4  1  0  0  0  0
  4  5  2  0  0  0  0
  5  6  1  0  0  0  0
  5 20  1  0  0  0  0
  6  7  1  0  0  0  0
  6 24  1  0  0  0  0
  7  8  2  0  0  0  0
  7  9  1  0  0  0  0
  9 10  1  0  0  0  0
  9 25  1  0  0  0  0
 10 11  1  0  0  0  0
 10 26  1  0  0  0  0
 10 27  1  0  0  0  0
 11 19  1  0  0  0  0
 11 12  1  0  0  0  0
 11 28  1  0  0  0  0
 12 13  1  0  0  0  0
 12 29  1  0  0  0  0
 12 30  1  0  0  0  0
 13 17  1  0  0  0  0
 13 14  1  0  0  0  0
 13 40  1  0  0  0  0
 14 15  1  0  0  0  0
 14 31  1  0  0  0  0
 14 32  1  0  0  0  0
 15 16  1  0  0  0  0
 15 33  1  0  0  0  0
 15 34  1  0  0  0  0
 16 17  1  0  0  0  0
 16 35  1  0  0  0  0
 16 36  1  0  0  0  0
 17 18  1  0  0  0  0
 17 37  1  0  0  0  0
 18 19  1  0  0  0  0
 18 38  1  0  0  0  0
 18 39  1  0  0  0  0
M  CHG  1  13   1
M  END
> <s_m_source_file>
AV-unprocessed.smi

> <i_m_source_file_index>
1809

> <i_lp_mmshare_version>
43012

> <i_f3d_flags>
0

> <s_epik_input>
W0NIM11jMW5uYyhzMSlbTkhdQyg9TylbTkhdW0NIMl1bQ0BIXShbQ0gyXTIpT1tDSDJdW0NAQEhdKE4yMylbQ0gyXVtDSDJdW0NIMl0z

> <s_epik_cmdline>
J2VwaWtfcHl0aG9uJywgJy1waCcsICc3LjAnLCAnLXRuJywgJzgnLCAnLW1hJywgJzIwMCcsICctbWV0YWxfYmluZGluZycsICctaW1hZScsICc8aW5maWxlLm1hZT4nLCAnLW9tYWUnLCAnPG91dGZpbGUubWFlPic=

> <r_lp_tautomer_probability>
1

> <r_epik_Ionization_Penalty>
0.112474

> <r_epik_Ionization_Penalty_Charging>
0.108916

> <r_epik_Ionization_Penalty_Neutral>
0.00355844

> <r_epik_State_Penalty>
0.0565397

> <r_epik_Charging_Adjusted_Penalty>
0.165456

> <i_epik_Tot_Q>
1

> <i_epik_Tot_abs_Q>
1

> <r_epik_Metal_State_Penalty>
0.422831

> <b_epik_Metal_Only>
0

> <s_lp_Force_Field>
OPLS_2005

> <r_lp_Energy>
36.2916

> <b_lp_Chiralities_Consistent>
1

> <s_lp_Variant>
AV-unprocessed.smi:1809-2

> <Gold.Version>
5.8.1

> <Gold.Id.Protein>
6NUR|6NUR_protein|mol2

> <Gold.PLP.Fitness>
39.0500

> <Gold.PLP.PLP>
-27.3946

> <Gold.PLP.part.hbond>
-4.0000

> <Gold.PLP.part.metal>
0.0000

> <Gold.PLP.part.buried>
6.7986

> <Gold.PLP.part.nonpolar>
-30.7790

> <Gold.PLP.part.repulsive>
0.4263

> <Gold.PLP.ligand.clash>
0.0000

> <Gold.PLP.ligand.torsion>
0.1187

> <Gold.PLP.Chemscore.Hbond>
3.9600

> <Gold.PLP.Chemscore.CHOScore>
0.0000

> <Gold.PLP.Chemscore.Metal>
0.0000

> <Gold.Chemscore.Hbonds>
donor molecule, donor type, donor heavy atom, donor atom, acceptor molecule, acceptor atom, score
      L1  H    13    40       P1  7948  2.00
      P1  H  7989  7998       L1     8  1.00
      P1  H  7997  8009       L1     3  0.88

> <Gold.PLP.Chemscore.Internal.Correction>
0.0129

> <Gold.Rescore>
     Score         DG    S(hbond)    S(metal)    S(lipo)     H(rot)  DE(clash)    DE(int)     intcor
     14.13     -18.33       2.14        0.00      78.00       1.34       2.88       1.31       ----

> <Gold.Chemscore.Fitness>
14.1301

> <Gold.Chemscore.DG>
-18.3254

> <Gold.Chemscore.ZeroCoef>
-5.4800

> <Gold.Chemscore.Hbond>
2.1399

> <Gold.Chemscore.Metal>
0.0000

> <Gold.Chemscore.Lipo>
78.0012

> <Gold.Chemscore.Internal_Hbond>
0.0000

> <Gold.Chemscore.DEClash>
2.8821

> <Gold.Chemscore.DEInternal>
1.3132

> <Gold.Chemscore.Rot>
1.3391

> <Gold.Chemscore.Internal.Correction>
   9.000000E+99

> <Gold.Chemscore.Hbonds>
donor molecule, donor type, donor heavy atom, donor atom, acceptor molecule, acceptor atom, score
      L1  H    13    40       P1  7948  0.92
      P1  H  7989  7998       L1     8  0.40
      P1  H  7997  8009       L1     3  0.22

> <Gold.Chemscore.Hbond.Weighted>
-7.1474

> <Gold.Chemscore.Metal.Weighted>
-0.0000

> <Gold.Chemscore.Lipo.Weighted>
-9.1261

> <Gold.Chemscore.Internal_Hbond.Weighted>
0.0000

> <Gold.Chemscore.DEClash.Weighted>
2.8821

> <Gold.Chemscore.DEInternal.Weighted>
1.3132

> <Gold.Chemscore.Rot.Weighted>
3.4281

> <Gold.Chemscore.Internal.Correction.Weighted>
   9.000000E+99

> <Gold.Protein.RotatedTorsions>
[ 6907 6896 6895 6894 ] final  -47.15 input  -60.11 | X-H torsion
[ 7974 7965 7964 7962 ] final -164.11 input  175.53 | X-H torsion
[ 8008 7997 7996 7995 ] final  134.45 input   59.86 | X-H torsion
[ 10167 10162 10161 10158 ] final  -20.96 input  -65.29 | X-H torsion
[ 10718 10713 10712 10709 ] final  132.89 input   66.30 | X-H torsion
[ 10763 10752 10751 10750 ] final -177.34 input  -60.55 | X-H torsion
[ 11005 11000 10999 10996 ] final  170.77 input  -57.11 | X-H torsion

> <Gold.Protein.ActiveResidues>
 VAL166  LYS551  ARG553  GLY616  TRP617  ASP618  TYR619  PRO620  LYS621  CYS622 
 ASP623  PHE694  ASN695  SER759  ASP760  ASP761  ALA762  ILE779  LEU786  VAL792 
 PHE793  MET794  SER795  GLU796  ALA797  LYS798  CYS799  TRP800  GLU811  SER814 

> <Gold.Protein.RotatedAtoms>
  150.9038  134.8451  159.7377 H   0  0  0  0  0  0  0  0  0  0  0  0  # atno 6907 bound_to 6896
  152.4907  134.4463  159.9570 H   0  0  0  0  0  0  0  0  0  0  0  0  # atno 6908 bound_to 6896
  151.4512  133.3578  159.2831 H   0  0  0  0  0  0  0  0  0  0  0  0  # atno 6909 bound_to 6896
  144.7306  140.3008  143.6205 H   0  0  0  0  0  0  0  0  0  0  0  0  # atno 7974 bound_to 7965
  156.2999  140.2496  156.3419 H   0  0  0  0  0  0  0  0  0  0  0  0  # atno 8008 bound_to 7997
  154.9047  140.0405  157.1932 H   0  0  0  0  0  0  0  0  0  0  0  0  # atno 8009 bound_to 7997
  154.8466  140.2899  155.5629 H   0  0  0  0  0  0  0  0  0  0  0  0  # atno 8010 bound_to 7997
  140.7279  143.4673  151.0296 H   0  0  0  0  0  0  0  0  0  0  0  0  # atno 10167 bound_to 10162
  157.4827  131.1086  150.9661 H   0  0  0  0  0  0  0  0  0  0  0  0  # atno 10718 bound_to 10713
  154.5614  135.2820  155.0916 H   0  0  0  0  0  0  0  0  0  0  0  0  # atno 10763 bound_to 10752
  154.2323  135.6372  153.5183 H   0  0  0  0  0  0  0  0  0  0  0  0  # atno 10764 bound_to 10752
  153.0030  135.5540  154.6209 H   0  0  0  0  0  0  0  0  0  0  0  0  # atno 10765 bound_to 10752
  140.3119  134.7509  157.3998 H   0  0  0  0  0  0  0  0  0  0  0  0  # atno 11005 bound_to 11000
  145.7762  139.1875  143.2184 LP  0  0  0  0  0  0  0  0  0  0  0  0  # atno 17320 bound_to 7965
  146.0871  140.7698  142.9613 LP  0  0  0  0  0  0  0  0  0  0  0  0  # atno 17321 bound_to 7965
  139.8362  143.7625  152.3180 LP  0  0  0  0  0  0  0  0  0  0  0  0  # atno 17342 bound_to 10162
  139.7758  144.7461  151.0159 LP  0  0  0  0  0  0  0  0  0  0  0  0  # atno 17343 bound_to 10162
  157.0388  130.5741  149.5353 LP  0  0  0  0  0  0  0  0  0  0  0  0  # atno 17370 bound_to 10713
  156.0130  130.5223  150.8048 LP  0  0  0  0  0  0  0  0  0  0  0  0  # atno 17371 bound_to 10713
  140.1017  134.5464  155.8347 LP  0  0  0  0  0  0  0  0  0  0  0  0  # atno 17394 bound_to 11000
  141.2106  133.6697  156.6522 LP  0  0  0  0  0  0  0  0  0  0  0  0  # atno 17395 bound_to 11000

$$$$
