AV-unprocessed.smi:2454|AV-procd|sdf|9697|dock1
  -GOLD-   2272013333D 1   1.00000     0.00000
 Structure written by MMmdl.
 42 43  0  0  0  0  0  0  0  0  1 V2000
  154.7191  130.1068  154.4824 C   0  0  0  0  0  0  0  0  0  0  0  0
  153.7254  129.1688  154.1080 O   0  0  0  0  0  0  0  0  0  0  0  0
  152.8302  128.8747  155.1670 C   0  0  0  0  0  0  0  0  0  0  0  0
  151.7016  129.8828  155.2312 C   0  0  0  0  0  0  0  0  0  0  0  0
  150.8007  130.0436  154.1573 C   0  0  0  0  0  0  0  0  0  0  0  0
  149.7733  131.0022  154.3091 C   0  0  0  0  0  0  0  0  0  0  0  0
  148.8915  131.1263  153.1952 N   0  0  0  0  0  0  0  0  0  0  0  0
  147.6361  131.6146  153.0987 C   0  0  0  0  0  0  0  0  0  0  0  0
  147.0511  132.0578  154.0857 O   0  0  0  0  0  0  0  0  0  0  0  0
  147.0789  131.5847  151.8769 N   0  0  0  0  0  0  0  0  0  0  0  0
  145.7435  132.0634  151.5354 C   0  0  2  0  0  0  0  0  0  0  0  0
  145.6018  132.2357  150.0102 C   0  0  0  0  0  0  0  0  0  0  0  0
  144.2296  132.8187  149.6414 C   0  0  0  0  0  0  0  0  0  0  0  0
  143.9700  134.1439  150.3749 C   0  0  0  0  0  0  0  0  0  0  0  0
  144.0953  133.9815  151.9046 C   0  0  2  0  0  0  0  0  0  0  0  0
  143.8173  135.3022  152.6515 C   0  0  0  0  0  0  0  0  0  0  0  0
  142.5162  135.5936  152.6339 F   0  0  0  0  0  0  0  0  0  0  0  0
  144.2193  135.2027  153.9185 F   0  0  0  0  0  0  0  0  0  0  0  0
  144.4905  136.3010  152.0802 F   0  0  0  0  0  0  0  0  0  0  0  0
  145.4771  133.3943  152.2631 C   0  0  0  0  0  0  0  0  0  0  0  0
  149.6893  131.7197  155.4589 N   0  0  0  0  0  0  0  0  0  0  0  0
  150.5928  131.4873  156.4141 C   0  0  0  0  0  0  0  0  0  0  0  0
  151.5945  130.6091  156.3640 N   0  0  0  0  0  0  0  0  0  0  0  0
  155.3790  130.2983  153.6365 H   0  0  0  0  0  0  0  0  0  0  0  0
  155.3277  129.7298  155.3056 H   0  0  0  0  0  0  0  0  0  0  0  0
  154.2724  131.0555  154.7828 H   0  0  0  0  0  0  0  0  0  0  0  0
  152.4130  127.8744  155.0372 H   0  0  0  0  0  0  0  0  0  0  0  0
  153.3650  128.8774  156.1182 H   0  0  0  0  0  0  0  0  0  0  0  0
  150.8955  129.4527  153.2577 H   0  0  0  0  0  0  0  0  0  0  0  0
  149.2749  130.7916  152.3234 H   0  0  0  0  0  0  0  0  0  0  0  0
  147.6315  131.2020  151.1221 H   0  0  0  0  0  0  0  0  0  0  0  0
  145.0067  131.3351  151.8797 H   0  0  0  0  0  0  0  0  0  0  0  0
  146.3869  132.8952  149.6376 H   0  0  0  0  0  0  0  0  0  0  0  0
  145.7382  131.2780  149.5070 H   0  0  0  0  0  0  0  0  0  0  0  0
  144.1701  132.9730  148.5637 H   0  0  0  0  0  0  0  0  0  0  0  0
  143.4478  132.1015  149.8946 H   0  0  0  0  0  0  0  0  0  0  0  0
  144.6767  134.8965  150.0232 H   0  0  0  0  0  0  0  0  0  0  0  0
  142.9762  134.5103  150.1163 H   0  0  0  0  0  0  0  0  0  0  0  0
  143.3390  133.2628  152.2236 H   0  0  0  0  0  0  0  0  0  0  0  0
  145.5443  133.2380  153.3404 H   0  0  0  0  0  0  0  0  0  0  0  0
  146.2569  134.1138  152.0083 H   0  0  0  0  0  0  0  0  0  0  0  0
  150.5033  132.0706  157.3185 H   0  0  0  0  0  0  0  0  0  0  0  0
  1  2  1  0  0  0  0
  1 24  1  0  0  0  0
  1 25  1  0  0  0  0
  1 26  1  0  0  0  0
  2  3  1  0  0  0  0
  3  4  1  0  0  0  0
  3 27  1  0  0  0  0
  3 28  1  0  0  0  0
  4 23  1  0  0  0  0
  4  5  2  0  0  0  0
  5  6  1  0  0  0  0
  5 29  1  0  0  0  0
  6  7  1  0  0  0  0
  6 21  2  0  0  0  0
  7  8  1  0  0  0  0
  7 30  1  0  0  0  0
  8  9  2  0  0  0  0
  8 10  1  0  0  0  0
 10 11  1  0  0  0  0
 10 31  1  0  0  0  0
 11 20  1  0  0  0  0
 11 12  1  0  0  0  0
 11 32  1  0  0  0  0
 12 13  1  0  0  0  0
 12 33  1  0  0  0  0
 12 34  1  0  0  0  0
 13 14  1  0  0  0  0
 13 35  1  0  0  0  0
 13 36  1  0  0  0  0
 14 15  1  0  0  0  0
 14 37  1  0  0  0  0
 14 38  1  0  0  0  0
 15 16  1  0  0  0  0
 15 20  1  0  0  0  0
 15 39  1  0  0  0  0
 16 17  1  0  0  0  0
 16 18  1  0  0  0  0
 16 19  1  0  0  0  0
 20 40  1  0  0  0  0
 20 41  1  0  0  0  0
 21 22  1  0  0  0  0
 22 23  2  0  0  0  0
 22 42  1  0  0  0  0
M  END
> <s_m_source_file>
AV-unprocessed.smi

> <i_m_source_file_index>
2454

> <i_lp_mmshare_version>
43012

> <i_f3d_flags>
0

> <s_epik_input>
W0NIM11PW0NIMl1jMVtjSF1jKG5bY0hdbjEpW05IXUMoPU8pW05IXVtDQEBIXTJbQ0gyXVtDSDJdW0NIMl1bQ0BASF0oQyhGKShGKUYpW0NIMl0y

> <s_epik_cmdline>
J2VwaWtfcHl0aG9uJywgJy1waCcsICc3LjAnLCAnLXRuJywgJzgnLCAnLW1hJywgJzIwMCcsICctbWV0YWxfYmluZGluZycsICctaW1hZScsICc8aW5maWxlLm1hZT4nLCAnLW9tYWUnLCAnPG91dGZpbGUubWFlPic=

> <r_lp_tautomer_probability>
1

> <r_epik_Ionization_Penalty>
3.01554e-05

> <r_epik_Ionization_Penalty_Charging>
0

> <r_epik_Ionization_Penalty_Neutral>
3.01554e-05

> <r_epik_State_Penalty>
-0

> <r_epik_Charging_Adjusted_Penalty>
0

> <i_epik_Tot_Q>
0

> <i_epik_Tot_abs_Q>
0

> <r_epik_Metal_State_Penalty>
-0

> <b_epik_Metal_Only>
0

> <s_lp_Force_Field>
OPLS_2005

> <r_lp_Energy>
14.2483

> <b_lp_Chiralities_Consistent>
1

> <s_lp_Variant>
AV-unprocessed.smi:2454-3

> <Gold.Version>
5.8.1

> <Gold.Id.Protein>
6NUR|6NUR_protein|mol2

> <Gold.PLP.Fitness>
38.6188

> <Gold.PLP.PLP>
-35.0728

> <Gold.PLP.part.hbond>
-2.0000

> <Gold.PLP.part.metal>
0.0000

> <Gold.PLP.part.buried>
-4.7497

> <Gold.PLP.part.nonpolar>
-26.9940

> <Gold.PLP.part.repulsive>
0.2133

> <Gold.PLP.ligand.clash>
0.0000

> <Gold.PLP.ligand.torsion>
0.8212

> <Gold.PLP.Chemscore.Hbond>
1.6978

> <Gold.PLP.Chemscore.CHOScore>
0.0000

> <Gold.PLP.Chemscore.Metal>
0.0000

> <Gold.Chemscore.Hbonds>
donor molecule, donor type, donor heavy atom, donor atom, acceptor molecule, acceptor atom, score
      L1  H     7    30       P1 10747  0.66
      L1  H    10    31       P1 10747  1.00

> <Gold.PLP.Chemscore.Internal.Correction>
0.0949

> <Gold.Rescore>
     Score         DG    S(hbond)    S(metal)    S(lipo)     H(rot)  DE(clash)    DE(int)     intcor
     10.27     -13.60       1.14        0.00      72.08       1.60       0.18       3.16       ----

> <Gold.Chemscore.Fitness>
10.2705

> <Gold.Chemscore.DG>
-13.6031

> <Gold.Chemscore.ZeroCoef>
-5.4800

> <Gold.Chemscore.Hbond>
1.1363

> <Gold.Chemscore.Metal>
0.0000

> <Gold.Chemscore.Lipo>
72.0768

> <Gold.Chemscore.Internal_Hbond>
0.0000

> <Gold.Chemscore.DEClash>
0.1776

> <Gold.Chemscore.DEInternal>
3.1550

> <Gold.Chemscore.Rot>
1.6035

> <Gold.Chemscore.Internal.Correction>
   9.000000E+99

> <Gold.Chemscore.Hbonds>
donor molecule, donor type, donor heavy atom, donor atom, acceptor molecule, acceptor atom, score
      L1  H     7    30       P1 10747  0.08
      L1  H    10    31       P1 10747  0.98

> <Gold.Chemscore.Hbond.Weighted>
-3.7952

> <Gold.Chemscore.Metal.Weighted>
-0.0000

> <Gold.Chemscore.Lipo.Weighted>
-8.4330

> <Gold.Chemscore.Internal_Hbond.Weighted>
0.0000

> <Gold.Chemscore.DEClash.Weighted>
0.1776

> <Gold.Chemscore.DEInternal.Weighted>
3.1550

> <Gold.Chemscore.Rot.Weighted>
4.1050

> <Gold.Chemscore.Internal.Correction.Weighted>
   9.000000E+99

> <Gold.Protein.RotatedTorsions>
[ 6907 6896 6895 6894 ] final -175.29 input  -60.11 | X-H torsion
[ 7974 7965 7964 7962 ] final   93.23 input  175.53 | X-H torsion
[ 8008 7997 7996 7995 ] final    4.45 input   59.86 | X-H torsion
[ 10167 10162 10161 10158 ] final   30.71 input  -65.29 | X-H torsion
[ 10718 10713 10712 10709 ] final  115.01 input   66.30 | X-H torsion
[ 10763 10752 10751 10750 ] final  167.50 input  -60.55 | X-H torsion
[ 11005 11000 10999 10996 ] final   57.84 input  -57.11 | X-H torsion

> <Gold.Protein.ActiveResidues>
 VAL166  LYS551  ARG553  GLY616  TRP617  ASP618  TYR619  PRO620  LYS621  CYS622 
 ASP623  PHE694  ASN695  SER759  ASP760  ASP761  ALA762  ILE779  LEU786  VAL792 
 PHE793  MET794  SER795  GLU796  ALA797  LYS798  CYS799  TRP800  GLU811  SER814 

> <Gold.Protein.RotatedAtoms>
  151.5861  133.3372  159.3017 H   0  0  0  0  0  0  0  0  0  0  0  0  # atno 6907 bound_to 6896
  150.8286  134.7532  159.6845 H   0  0  0  0  0  0  0  0  0  0  0  0  # atno 6908 bound_to 6896
  152.4372  134.5668  159.9961 H   0  0  0  0  0  0  0  0  0  0  0  0  # atno 6909 bound_to 6896
  145.4817  139.2278  143.2879 H   0  0  0  0  0  0  0  0  0  0  0  0  # atno 7974 bound_to 7965
  154.7161  140.2702  155.6584 H   0  0  0  0  0  0  0  0  0  0  0  0  # atno 8008 bound_to 7997
  156.2810  140.2743  156.1742 H   0  0  0  0  0  0  0  0  0  0  0  0  # atno 8009 bound_to 7997
  155.0570  140.0371  157.2553 H   0  0  0  0  0  0  0  0  0  0  0  0  # atno 8010 bound_to 7997
  140.4654  144.0844  150.6223 H   0  0  0  0  0  0  0  0  0  0  0  0  # atno 10167 bound_to 10162
  157.6247  131.1006  150.7269 H   0  0  0  0  0  0  0  0  0  0  0  0  # atno 10718 bound_to 10713
  154.3548  135.2753  155.2352 H   0  0  0  0  0  0  0  0  0  0  0  0  # atno 10763 bound_to 10752
  154.4566  135.5917  153.6231 H   0  0  0  0  0  0  0  0  0  0  0  0  # atno 10764 bound_to 10752
  152.9847  135.6055  154.3762 H   0  0  0  0  0  0  0  0  0  0  0  0  # atno 10765 bound_to 10752
  140.0422  134.5856  155.9367 H   0  0  0  0  0  0  0  0  0  0  0  0  # atno 11005 bound_to 11000
  146.2337  140.5604  142.8964 LP  0  0  0  0  0  0  0  0  0  0  0  0  # atno 17320 bound_to 7965
  144.7885  140.5984  143.6557 LP  0  0  0  0  0  0  0  0  0  0  0  0  # atno 17321 bound_to 7965
  140.4043  143.2688  151.9910 LP  0  0  0  0  0  0  0  0  0  0  0  0  # atno 17342 bound_to 10162
  139.4811  144.5971  151.7671 LP  0  0  0  0  0  0  0  0  0  0  0  0  # atno 17343 bound_to 10162
  156.7619  130.4801  149.5435 LP  0  0  0  0  0  0  0  0  0  0  0  0  # atno 17370 bound_to 10713
  156.1412  130.6246  151.0470 LP  0  0  0  0  0  0  0  0  0  0  0  0  # atno 17371 bound_to 10713
  141.1889  133.6564  156.5344 LP  0  0  0  0  0  0  0  0  0  0  0  0  # atno 17394 bound_to 11000
  140.4050  134.7323  157.4802 LP  0  0  0  0  0  0  0  0  0  0  0  0  # atno 17395 bound_to 11000

$$$$
