AV-unprocessed.smi:49|AV-procd|sdf|489|dock3
  -GOLD-   2262016353D 1   1.00000     0.00000
 Structure written by MMmdl.
 26 27  0  0  0  0  0  0  0  0  2 V2000
  151.7538  141.8440  159.2299 C   0  0  0  0  0  0  0  0  0  0  0  0
  151.8380  140.4155  158.6831 C   0  0  0  0  0  0  0  0  0  0  0  0
  151.4633  140.3426  157.2190 C   0  0  0  0  0  0  0  0  0  0  0  0
  150.2832  140.6667  156.6997 N   0  0  0  0  0  0  0  0  0  0  0  0
  150.4073  140.4986  155.3754 C   0  0  0  0  0  0  0  0  0  0  0  0
  149.2798  140.7165  154.3838 C   0  0  2  0  0  0  0  0  0  0  0  0
  147.9885  141.1953  155.0585 C   0  0  0  0  0  0  0  0  0  0  0  0
  146.9145  140.6881  154.1081 C   0  0  2  0  0  0  0  0  0  0  0  0
  145.6466  140.5698  154.7179 O   0  0  0  0  0  0  0  0  0  0  0  0
  147.4817  139.3389  153.6753 C   0  0  0  0  0  0  0  0  0  0  0  0
  148.9302  139.5189  153.6097 N   0  0  0  0  0  0  0  0  0  0  0  0
  151.6407  140.0661  155.0667 N   0  0  0  0  0  0  0  0  0  0  0  0
  152.2834  139.9882  156.2142 N   0  5  0  0  0  0  0  0  0  0  0  0
  149.6017  141.4891  153.6846 H   0  0  0  0  0  0  0  0  0  0  0  0
  146.8399  141.3531  153.2464 H   0  0  0  0  0  0  0  0  0  0  0  0
  152.0338  141.8749  160.2829 H   0  0  0  0  0  0  0  0  0  0  0  0
  150.7412  142.2384  159.1408 H   0  0  0  0  0  0  0  0  0  0  0  0
  152.4227  142.5117  158.6859 H   0  0  0  0  0  0  0  0  0  0  0  0
  152.8495  140.0277  158.8067 H   0  0  0  0  0  0  0  0  0  0  0  0
  151.1772  139.7591  159.2500 H   0  0  0  0  0  0  0  0  0  0  0  0
  147.8739  140.7121  156.0308 H   0  0  0  0  0  0  0  0  0  0  0  0
  147.9629  142.2740  155.2148 H   0  0  0  0  0  0  0  0  0  0  0  0
  144.9909  140.5270  154.0388 H   0  0  0  0  0  0  0  0  0  0  0  0
  147.2492  138.5835  154.4272 H   0  0  0  0  0  0  0  0  0  0  0  0
  147.0704  138.9960  152.7257 H   0  0  0  0  0  0  0  0  0  0  0  0
  149.1935  139.6776  152.6429 H   0  0  0  0  0  0  0  0  0  0  0  0
  1  2  1  0  0  0  0
  1 16  1  0  0  0  0
  1 17  1  0  0  0  0
  1 18  1  0  0  0  0
  2  3  1  0  0  0  0
  2 19  1  0  0  0  0
  2 20  1  0  0  0  0
  3 13  1  0  0  0  0
  3  4  2  0  0  0  0
  4  5  1  0  0  0  0
  5  6  1  0  0  0  0
  5 12  2  0  0  0  0
  6 14  1  0  0  0  0
  6 11  1  0  0  0  0
  6  7  1  0  0  0  0
  7  8  1  0  0  0  0
  7 21  1  0  0  0  0
  7 22  1  0  0  0  0
  8 15  1  0  0  0  0
  8  9  1  0  0  0  0
  8 10  1  0  0  0  0
  9 23  1  0  0  0  0
 10 11  1  0  0  0  0
 10 24  1  0  0  0  0
 10 25  1  0  0  0  0
 11 26  1  0  0  0  0
 12 13  1  0  0  0  0
M  CHG  1  13  -1
M  END
> <s_m_source_file>
AV-unprocessed.smi

> <i_m_source_file_index>
49

> <i_lp_mmshare_version>
43012

> <i_f3d_flags>
0

> <s_epik_input>
W0NIM11bQ0gyXWMxbmMobltuSF0xKVtDQEBIXTJbQ0gyXVtDQEBIXShbT0hdKVtDSDJdW05IXTI=

> <s_epik_cmdline>
J2VwaWtfcHl0aG9uJywgJy1waCcsICc3LjAnLCAnLXRuJywgJzgnLCAnLW1hJywgJzIwMCcsICctbWV0YWxfYmluZGluZycsICctaW1hZScsICc8aW5maWxlLm1hZT4nLCAnLW9tYWUnLCAnPG91dGZpbGUubWFlPic=

> <r_lp_tautomer_probability>
0.948284

> <r_epik_Ionization_Penalty>
20.726

> <r_epik_Ionization_Penalty_Charging>
17.6814

> <r_epik_Ionization_Penalty_Neutral>
3.04463

> <r_epik_State_Penalty>
7.95092

> <r_epik_Charging_Adjusted_Penalty>
25.6323

> <i_epik_Tot_Q>
-1

> <i_epik_Tot_abs_Q>
1

> <r_epik_Metal_State_Penalty>
4.146

> <b_epik_Metal_Only>
1

> <s_lp_Force_Field>
OPLS_2005

> <r_lp_Energy>
18.025

> <b_lp_Chiralities_Consistent>
1

> <s_lp_Variant>
AV-unprocessed.smi:49-27

> <Gold.Version>
5.8.1

> <Gold.Id.Protein>
6NUR|6NUR_protein|mol2

> <Gold.PLP.Fitness>
35.5024

> <Gold.PLP.PLP>
-21.3483

> <Gold.PLP.part.hbond>
-4.0000

> <Gold.PLP.part.metal>
0.0000

> <Gold.PLP.part.buried>
-2.6792

> <Gold.PLP.part.nonpolar>
-14.9720

> <Gold.PLP.part.repulsive>
0.0728

> <Gold.PLP.ligand.clash>
0.0000

> <Gold.PLP.ligand.torsion>
0.0154

> <Gold.PLP.Chemscore.Hbond>
4.7238

> <Gold.PLP.Chemscore.CHOScore>
0.0000

> <Gold.PLP.Chemscore.Metal>
0.0000

> <Gold.Chemscore.Hbonds>
donor molecule, donor type, donor heavy atom, donor atom, acceptor molecule, acceptor atom, score
      L1  H     9    23       P1 10175  0.99
      L1  H    11    26       P1  7957  1.00
      P1  H  7989  7998       L1    12  0.70
      P1  H  7997  8010       L1    13  1.85

> <Gold.PLP.Chemscore.Internal.Correction>
0.0137

> <Gold.Rescore>
     Score         DG    S(hbond)    S(metal)    S(lipo)     H(rot)  DE(clash)    DE(int)     intcor
     15.14     -15.25       2.97        0.00      38.68       1.82       0.04       0.07       ----

> <Gold.Chemscore.Fitness>
15.1398

> <Gold.Chemscore.DG>
-15.2456

> <Gold.Chemscore.ZeroCoef>
-5.4800

> <Gold.Chemscore.Hbond>
2.9657

> <Gold.Chemscore.Metal>
0.0000

> <Gold.Chemscore.Lipo>
38.6831

> <Gold.Chemscore.Internal_Hbond>
0.0000

> <Gold.Chemscore.DEClash>
0.0358

> <Gold.Chemscore.DEInternal>
0.0701

> <Gold.Chemscore.Rot>
1.8226

> <Gold.Chemscore.Internal.Correction>
   9.000000E+99

> <Gold.Chemscore.Hbonds>
donor molecule, donor type, donor heavy atom, donor atom, acceptor molecule, acceptor atom, score
      L1  H     9    23       P1 10175  0.92
      L1  H    11    26       P1  7957  0.97
      P1  H  7989  7998       L1    12  0.07
      P1  H  7997  8010       L1    13  0.86

> <Gold.Chemscore.Hbond.Weighted>
-9.9055

> <Gold.Chemscore.Metal.Weighted>
-0.0000

> <Gold.Chemscore.Lipo.Weighted>
-4.5259

> <Gold.Chemscore.Internal_Hbond.Weighted>
0.0000

> <Gold.Chemscore.DEClash.Weighted>
0.0358

> <Gold.Chemscore.DEInternal.Weighted>
0.0701

> <Gold.Chemscore.Rot.Weighted>
4.6658

> <Gold.Chemscore.Internal.Correction.Weighted>
   9.000000E+99

> <Gold.Protein.RotatedTorsions>
[ 6907 6896 6895 6894 ] final  -42.78 input  -60.11 | X-H torsion
[ 7974 7965 7964 7962 ] final  -21.08 input  175.53 | X-H torsion
[ 8008 7997 7996 7995 ] final   82.76 input   59.86 | X-H torsion
[ 10167 10162 10161 10158 ] final -107.10 input  -65.29 | X-H torsion
[ 10718 10713 10712 10709 ] final  -32.20 input   66.30 | X-H torsion
[ 10763 10752 10751 10750 ] final  122.36 input  -60.55 | X-H torsion
[ 11005 11000 10999 10996 ] final  -37.95 input  -57.11 | X-H torsion

> <Gold.Protein.ActiveResidues>
 VAL166  LYS551  ARG553  GLY616  TRP617  ASP618  TYR619  PRO620  LYS621  CYS622 
 ASP623  PHE694  ASN695  SER759  ASP760  ASP761  ALA762  ILE779  LEU786  VAL792 
 PHE793  MET794  SER795  GLU796  ALA797  LYS798  CYS799  TRP800  GLU811  SER814 

> <Gold.Protein.RotatedAtoms>
  150.9513  134.8912  159.7673 H   0  0  0  0  0  0  0  0  0  0  0  0  # atno 6907 bound_to 6896
  152.5120  134.3802  159.9358 H   0  0  0  0  0  0  0  0  0  0  0  0  # atno 6908 bound_to 6896
  151.3818  133.3778  159.2746 H   0  0  0  0  0  0  0  0  0  0  0  0  # atno 6909 bound_to 6896
  146.1753  140.4291  142.8516 H   0  0  0  0  0  0  0  0  0  0  0  0  # atno 7974 bound_to 7965
  155.9149  140.3425  155.6127 H   0  0  0  0  0  0  0  0  0  0  0  0  # atno 8008 bound_to 7997
  155.7343  140.0799  157.2293 H   0  0  0  0  0  0  0  0  0  0  0  0  # atno 8009 bound_to 7997
  154.4061  140.1582  156.2531 H   0  0  0  0  0  0  0  0  0  0  0  0  # atno 8010 bound_to 7997
  140.1806  143.3970  152.1284 H   0  0  0  0  0  0  0  0  0  0  0  0  # atno 10167 bound_to 10162
  156.3778  130.4350  149.7493 H   0  0  0  0  0  0  0  0  0  0  0  0  # atno 10718 bound_to 10713
  153.6285  135.3400  155.3034 H   0  0  0  0  0  0  0  0  0  0  0  0  # atno 10763 bound_to 10752
  154.8585  135.4290  154.2131 H   0  0  0  0  0  0  0  0  0  0  0  0  # atno 10764 bound_to 10752
  153.3021  135.7025  153.7266 H   0  0  0  0  0  0  0  0  0  0  0  0  # atno 10765 bound_to 10752
  140.9991  133.6964  156.1989 H   0  0  0  0  0  0  0  0  0  0  0  0  # atno 11005 bound_to 11000
  144.8226  140.6575  143.6343 LP  0  0  0  0  0  0  0  0  0  0  0  0  # atno 17320 bound_to 7965
  145.4229  139.1561  143.4064 LP  0  0  0  0  0  0  0  0  0  0  0  0  # atno 17321 bound_to 7965
  139.5298  144.7145  151.5098 LP  0  0  0  0  0  0  0  0  0  0  0  0  # atno 17342 bound_to 10162
  140.6522  143.8673  150.6797 LP  0  0  0  0  0  0  0  0  0  0  0  0  # atno 17343 bound_to 10162
  156.4596  130.7945  151.2966 LP  0  0  0  0  0  0  0  0  0  0  0  0  # atno 17370 bound_to 10713
  157.7490  131.0070  150.3173 LP  0  0  0  0  0  0  0  0  0  0  0  0  # atno 17371 bound_to 10713
  140.6918  134.4658  157.5588 LP  0  0  0  0  0  0  0  0  0  0  0  0  # atno 17394 bound_to 11000
  139.9029  134.8513  156.1820 LP  0  0  0  0  0  0  0  0  0  0  0  0  # atno 17395 bound_to 11000

$$$$
