AV-unprocessed.smi:2538|AV-procd|sdf|9982|dock5
  -GOLD-   2272014 33D 1   1.00000     0.00000
 Structure written by MMmdl.
 48 49  0  0  0  0  0  0  0  0  1 V2000
  152.7915  143.5115  162.1372 C   0  0  0  0  0  0  0  0  0  0  0  0
  152.3625  143.0936  160.7416 C   0  0  0  0  0  0  0  0  0  0  0  0
  152.4146  141.7265  160.3875 C   0  0  0  0  0  0  0  0  0  0  0  0
  152.0236  141.2959  159.1011 C   0  0  0  0  0  0  0  0  0  0  0  0
  151.9908  140.0261  158.5502 N   0  0  0  0  0  0  0  0  0  0  0  0
  151.5374  140.2772  157.3258 C   0  0  0  0  0  0  0  0  0  0  0  0
  151.2704  141.5611  157.0187 N   0  0  0  0  0  0  0  0  0  0  0  0
  150.7712  142.0631  155.7520 C   0  0  0  0  0  0  0  0  0  0  0  0
  149.4628  141.3666  155.3257 C   0  0  1  0  0  0  0  0  0  0  0  0
  148.8060  142.2109  154.3999 O   0  0  0  0  0  0  0  0  0  0  0  0
  149.7098  139.9904  154.6649 C   0  0  0  0  0  0  0  0  0  0  0  0
  148.5283  139.1182  154.7826 N   0  0  0  0  0  0  0  0  0  0  0  0
  148.5136  138.2365  155.9544 C   0  0  0  0  0  0  0  0  0  0  0  0
  147.0077  139.5991  154.0983 S   0  0  0  0  0  0  0  0  0  0  0  0
  146.0726  139.7995  155.2165 O   0  0  0  0  0  0  0  0  0  0  0  0
  147.2582  140.6949  153.1497 O   0  0  0  0  0  0  0  0  0  0  0  0
  146.5208  138.0854  153.1378 C   0  0  0  0  0  0  0  0  0  0  0  0
  146.5238  138.3715  151.6293 C   0  0  0  0  0  0  0  0  0  0  0  0
  145.1615  137.5550  153.6149 C   0  0  0  0  0  0  0  0  0  0  0  0
  151.5772  142.2786  158.1695 C   0  0  0  0  0  0  0  0  0  0  0  0
  151.5192  143.6416  158.5102 C   0  0  0  0  0  0  0  0  0  0  0  0
  151.9114  144.0543  159.8009 C   0  0  0  0  0  0  0  0  0  0  0  0
  151.8401  145.5277  160.1612 C   0  0  0  0  0  0  0  0  0  0  0  0
  153.1487  142.6592  162.7157 H   0  0  0  0  0  0  0  0  0  0  0  0
  151.9539  143.9549  162.6761 H   0  0  0  0  0  0  0  0  0  0  0  0
  153.5989  144.2425  162.0880 H   0  0  0  0  0  0  0  0  0  0  0  0
  152.7556  140.9941  161.1041 H   0  0  0  0  0  0  0  0  0  0  0  0
  151.3871  139.4823  156.6092 H   0  0  0  0  0  0  0  0  0  0  0  0
  150.6282  143.1420  155.8271 H   0  0  0  0  0  0  0  0  0  0  0  0
  151.5516  141.9132  155.0067 H   0  0  0  0  0  0  0  0  0  0  0  0
  148.8112  141.2592  156.1943 H   0  0  0  0  0  0  0  0  0  0  0  0
  148.5160  142.9863  154.8559 H   0  0  0  0  0  0  0  0  0  0  0  0
  149.9833  140.1115  153.6150 H   0  0  0  0  0  0  0  0  0  0  0  0
  150.5564  139.4811  155.1267 H   0  0  0  0  0  0  0  0  0  0  0  0
  149.4538  137.6906  156.0366 H   0  0  0  0  0  0  0  0  0  0  0  0
  147.7061  137.5090  155.8735 H   0  0  0  0  0  0  0  0  0  0  0  0
  148.3620  138.8207  156.8625 H   0  0  0  0  0  0  0  0  0  0  0  0
  147.2732  137.3224  153.3379 H   0  0  0  0  0  0  0  0  0  0  0  0
  146.2743  137.4753  151.0606 H   0  0  0  0  0  0  0  0  0  0  0  0
  147.5057  138.7083  151.2951 H   0  0  0  0  0  0  0  0  0  0  0  0
  145.7978  139.1429  151.3707 H   0  0  0  0  0  0  0  0  0  0  0  0
  144.8780  136.6543  153.0701 H   0  0  0  0  0  0  0  0  0  0  0  0
  144.3744  138.2953  153.4672 H   0  0  0  0  0  0  0  0  0  0  0  0
  145.1883  137.3013  154.6749 H   0  0  0  0  0  0  0  0  0  0  0  0
  151.1732  144.3628  157.7843 H   0  0  0  0  0  0  0  0  0  0  0  0
  151.4596  146.1220  159.3300 H   0  0  0  0  0  0  0  0  0  0  0  0
  152.8292  145.9070  160.4191 H   0  0  0  0  0  0  0  0  0  0  0  0
  151.1767  145.6812  161.0128 H   0  0  0  0  0  0  0  0  0  0  0  0
  1  2  1  0  0  0  0
  1 24  1  0  0  0  0
  1 25  1  0  0  0  0
  1 26  1  0  0  0  0
  2 22  1  0  0  0  0
  2  3  2  0  0  0  0
  3  4  1  0  0  0  0
  3 27  1  0  0  0  0
  4 20  2  0  0  0  0
  4  5  1  0  0  0  0
  5  6  2  0  0  0  0
  6  7  1  0  0  0  0
  6 28  1  0  0  0  0
  7  8  1  0  0  0  0
  7 20  1  0  0  0  0
  8  9  1  0  0  0  0
  8 29  1  0  0  0  0
  8 30  1  0  0  0  0
  9 10  1  0  0  0  0
  9 11  1  0  0  0  0
  9 31  1  0  0  0  0
 10 32  1  0  0  0  0
 11 12  1  0  0  0  0
 11 33  1  0  0  0  0
 11 34  1  0  0  0  0
 12 13  1  0  0  0  0
 12 14  1  0  0  0  0
 13 35  1  0  0  0  0
 13 36  1  0  0  0  0
 13 37  1  0  0  0  0
 14 15  2  0  0  0  0
 14 16  2  0  0  0  0
 14 17  1  0  0  0  0
 17 18  1  0  0  0  0
 17 19  1  0  0  0  0
 17 38  1  0  0  0  0
 18 39  1  0  0  0  0
 18 40  1  0  0  0  0
 18 41  1  0  0  0  0
 19 42  1  0  0  0  0
 19 43  1  0  0  0  0
 19 44  1  0  0  0  0
 20 21  1  0  0  0  0
 21 22  2  0  0  0  0
 21 45  1  0  0  0  0
 22 23  1  0  0  0  0
 23 46  1  0  0  0  0
 23 47  1  0  0  0  0
 23 48  1  0  0  0  0
M  END
> <s_m_source_file>
AV-unprocessed.smi

> <i_m_source_file_index>
2538

> <i_lp_mmshare_version>
43012

> <i_f3d_flags>
0

> <s_epik_input>
W0NIM11jKFtjSF0xKWMoW0NIM10pW2NIXWMoYzEyKW4oW2NIXW4yKVtDSDJdW0NASF0oW09IXSlbQ0gyXU4oW0NIM10pUyg9TykoPU8pW0NIXShbQ0gzXSlbQ0gzXQ==

> <s_epik_cmdline>
J2VwaWtfcHl0aG9uJywgJy1waCcsICc3LjAnLCAnLXRuJywgJzgnLCAnLW1hJywgJzIwMCcsICctbWV0YWxfYmluZGluZycsICctaW1hZScsICc8aW5maWxlLm1hZT4nLCAnLW9tYWUnLCAnPG91dGZpbGUubWFlPic=

> <r_epik_Ionization_Penalty>
0.105018

> <r_epik_Ionization_Penalty_Charging>
0

> <r_epik_Ionization_Penalty_Neutral>
0.105018

> <r_epik_State_Penalty>
0.094904

> <r_epik_Charging_Adjusted_Penalty>
0.094904

> <i_epik_Tot_Q>
0

> <i_epik_Tot_abs_Q>
0

> <r_epik_Metal_State_Penalty>
0.000102919

> <b_epik_Metal_Only>
0

> <s_lp_Force_Field>
OPLS_2005

> <r_lp_Energy>
6.99225

> <b_lp_Chiralities_Consistent>
1

> <s_lp_Variant>
AV-unprocessed.smi:2538-2

> <Gold.Version>
5.8.1

> <Gold.Id.Protein>
6NUR|6NUR_protein|mol2

> <Gold.PLP.Fitness>
47.7563

> <Gold.PLP.PLP>
-45.5412

> <Gold.PLP.part.hbond>
-2.0000

> <Gold.PLP.part.metal>
0.0000

> <Gold.PLP.part.buried>
-6.1243

> <Gold.PLP.part.nonpolar>
-38.1273

> <Gold.PLP.part.repulsive>
0.2789

> <Gold.PLP.ligand.clash>
0.0000

> <Gold.PLP.ligand.torsion>
1.8889

> <Gold.PLP.Chemscore.Hbond>
1.1105

> <Gold.PLP.Chemscore.CHOScore>
0.0000

> <Gold.PLP.Chemscore.Metal>
0.0000

> <Gold.Chemscore.Hbonds>
donor molecule, donor type, donor heavy atom, donor atom, acceptor molecule, acceptor atom, score
      L1  H    10    32       P1  8028  1.00
      P1  H  8011  8017       L1    10  0.10

> <Gold.PLP.Chemscore.Internal.Correction>
2.6614

> <Gold.Rescore>
     Score         DG    S(hbond)    S(metal)    S(lipo)     H(rot)  DE(clash)    DE(int)     intcor
     14.19     -18.34       1.06        0.00     129.89       2.29       0.51       3.64       ----

> <Gold.Chemscore.Fitness>
14.1890

> <Gold.Chemscore.DG>
-18.3414

> <Gold.Chemscore.ZeroCoef>
-5.4800

> <Gold.Chemscore.Hbond>
1.0573

> <Gold.Chemscore.Metal>
0.0000

> <Gold.Chemscore.Lipo>
129.8883

> <Gold.Chemscore.Internal_Hbond>
0.0000

> <Gold.Chemscore.DEClash>
0.5141

> <Gold.Chemscore.DEInternal>
3.6384

> <Gold.Chemscore.Rot>
2.2917

> <Gold.Chemscore.Internal.Correction>
   9.000000E+99

> <Gold.Chemscore.Hbonds>
donor molecule, donor type, donor heavy atom, donor atom, acceptor molecule, acceptor atom, score
      L1  H    10    32       P1  8028  0.95
      P1  H  8011  8017       L1    10  0.09

> <Gold.Chemscore.Hbond.Weighted>
-3.5314

> <Gold.Chemscore.Metal.Weighted>
-0.0000

> <Gold.Chemscore.Lipo.Weighted>
-15.1969

> <Gold.Chemscore.Internal_Hbond.Weighted>
0.0000

> <Gold.Chemscore.DEClash.Weighted>
0.5141

> <Gold.Chemscore.DEInternal.Weighted>
3.6384

> <Gold.Chemscore.Rot.Weighted>
5.8669

> <Gold.Chemscore.Internal.Correction.Weighted>
   9.000000E+99

> <Gold.Protein.RotatedTorsions>
[ 6907 6896 6895 6894 ] final   95.85 input  -60.11 | X-H torsion
[ 7974 7965 7964 7962 ] final  -86.88 input  175.53 | X-H torsion
[ 8008 7997 7996 7995 ] final  -61.41 input   59.86 | X-H torsion
[ 10167 10162 10161 10158 ] final   79.27 input  -65.29 | X-H torsion
[ 10718 10713 10712 10709 ] final -146.23 input   66.30 | X-H torsion
[ 10763 10752 10751 10750 ] final  173.43 input  -60.55 | X-H torsion
[ 11005 11000 10999 10996 ] final  -45.85 input  -57.11 | X-H torsion

> <Gold.Protein.ActiveResidues>
 VAL166  LYS551  ARG553  GLY616  TRP617  ASP618  TYR619  PRO620  LYS621  CYS622 
 ASP623  PHE694  ASN695  SER759  ASP760  ASP761  ALA762  ILE779  LEU786  VAL792 
 PHE793  MET794  SER795  GLU796  ALA797  LYS798  CYS799  TRP800  GLU811  SER814 

> <Gold.Protein.RotatedAtoms>
  152.5440  134.0977  159.8303 H   0  0  0  0  0  0  0  0  0  0  0  0  # atno 6907 bound_to 6896
  151.1058  133.5202  159.2615 H   0  0  0  0  0  0  0  0  0  0  0  0  # atno 6908 bound_to 6896
  151.1939  135.0423  159.8898 H   0  0  0  0  0  0  0  0  0  0  0  0  # atno 6909 bound_to 6896
  145.4739  140.9559  143.1901 H   0  0  0  0  0  0  0  0  0  0  0  0  # atno 7974 bound_to 7965
  154.4447  140.1018  156.6427 H   0  0  0  0  0  0  0  0  0  0  0  0  # atno 8008 bound_to 7997
  155.5484  140.3485  155.4444 H   0  0  0  0  0  0  0  0  0  0  0  0  # atno 8009 bound_to 7997
  156.0547  140.1312  157.0000 H   0  0  0  0  0  0  0  0  0  0  0  0  # atno 8010 bound_to 7997
  139.9621  144.5953  150.8062 H   0  0  0  0  0  0  0  0  0  0  0  0  # atno 10167 bound_to 10162
  156.3923  130.7892  151.2095 H   0  0  0  0  0  0  0  0  0  0  0  0  # atno 10718 bound_to 10713
  154.4399  135.2762  155.1855 H   0  0  0  0  0  0  0  0  0  0  0  0  # atno 10763 bound_to 10752
  154.3725  135.6105  153.5751 H   0  0  0  0  0  0  0  0  0  0  0  0  # atno 10764 bound_to 10752
  152.9840  135.5861  154.4725 H   0  0  0  0  0  0  0  0  0  0  0  0  # atno 10765 bound_to 10752
  141.0541  133.6732  156.3071 H   0  0  0  0  0  0  0  0  0  0  0  0  # atno 11005 bound_to 11000
  144.7929  139.6293  143.7105 LP  0  0  0  0  0  0  0  0  0  0  0  0  # atno 17320 bound_to 7965
  146.2380  139.5945  142.9510 LP  0  0  0  0  0  0  0  0  0  0  0  0  # atno 17321 bound_to 7965
  140.7550  143.3037  151.3016 LP  0  0  0  0  0  0  0  0  0  0  0  0  # atno 17342 bound_to 10162
  139.6546  144.0300  152.2650 LP  0  0  0  0  0  0  0  0  0  0  0  0  # atno 17343 bound_to 10162
  157.7499  131.0312  150.4170 LP  0  0  0  0  0  0  0  0  0  0  0  0  # atno 17370 bound_to 10713
  156.4434  130.3996  149.6682 LP  0  0  0  0  0  0  0  0  0  0  0  0  # atno 17371 bound_to 10713
  140.5997  134.5567  157.5515 LP  0  0  0  0  0  0  0  0  0  0  0  0  # atno 17394 bound_to 11000
  139.9375  134.7847  156.0763 LP  0  0  0  0  0  0  0  0  0  0  0  0  # atno 17395 bound_to 11000

$$$$
