AV-unprocessed.smi:497|AV-procd|sdf|2726|dock2
  -GOLD-   2262023173D 1   1.00000     0.00000
 Structure written by MMmdl.
 38 40  0  0  0  0  0  0  0  0  2 V2000
  152.0704  139.7148  155.5949 C   0  0  0  0  0  0  0  0  0  0  0  0
  150.9593  140.0720  154.7921 O   0  0  0  0  0  0  0  0  0  0  0  0
  150.1982  141.1232  155.3611 C   0  0  0  0  0  0  0  0  0  0  0  0
  149.4956  140.6049  156.6239 C   0  0  0  0  0  0  0  0  0  0  0  0
  150.4463  140.3762  157.7145 N   0  0  0  0  0  0  0  0  0  0  0  0
  150.7317  139.2419  158.4279 C   0  0  0  0  0  0  0  0  0  0  0  0
  150.0787  137.8948  158.2043 C   0  0  0  0  0  0  0  0  0  0  0  0
  149.3061  137.4612  159.3679 N   0  5  0  0  0  0  0  0  0  0  0  0
  148.8043  136.2045  159.5302 C   0  0  0  0  0  0  0  0  0  0  0  0
  148.9209  135.2067  158.8108 O   0  0  0  0  0  0  0  0  0  0  0  0
  147.9522  136.1002  160.7366 C   0  0  0  0  0  0  0  0  0  0  0  0
  147.3771  135.0248  161.3651 C   0  0  0  0  0  0  0  0  0  0  0  0
  146.6577  135.5364  162.4799 C   0  0  0  0  0  0  0  0  0  0  0  0
  146.8342  136.8895  162.4500 C   0  0  0  0  0  0  0  0  0  0  0  0
  147.6133  137.2484  161.3942 O   0  0  0  0  0  0  0  0  0  0  0  0
  151.6624  139.3875  159.3754 N   0  0  0  0  0  0  0  0  0  0  0  0
  152.0075  140.7199  159.2787 C   0  0  0  0  0  0  0  0  0  0  0  0
  152.9407  141.4823  160.0172 C   0  0  0  0  0  0  0  0  0  0  0  0
  153.1250  142.8520  159.7367 C   0  0  0  0  0  0  0  0  0  0  0  0
  152.3802  143.4770  158.7158 C   0  0  0  0  0  0  0  0  0  0  0  0
  151.4460  142.7343  157.9685 C   0  0  0  0  0  0  0  0  0  0  0  0
  151.2664  141.3664  158.2515 C   0  0  0  0  0  0  0  0  0  0  0  0
  152.6168  138.8989  155.1219 H   0  0  0  0  0  0  0  0  0  0  0  0
  151.7515  139.3803  156.5828 H   0  0  0  0  0  0  0  0  0  0  0  0
  152.7571  140.5542  155.7134 H   0  0  0  0  0  0  0  0  0  0  0  0
  150.8464  141.9659  155.6055 H   0  0  0  0  0  0  0  0  0  0  0  0
  149.4635  141.4814  154.6396 H   0  0  0  0  0  0  0  0  0  0  0  0
  148.7149  141.2966  156.9391 H   0  0  0  0  0  0  0  0  0  0  0  0
  148.9842  139.6672  156.4053 H   0  0  0  0  0  0  0  0  0  0  0  0
  149.4770  137.9720  157.2975 H   0  0  0  0  0  0  0  0  0  0  0  0
  150.8560  137.1685  157.9631 H   0  0  0  0  0  0  0  0  0  0  0  0
  147.4682  133.9923  161.0605 H   0  0  0  0  0  0  0  0  0  0  0  0
  146.0824  134.9848  163.2086 H   0  0  0  0  0  0  0  0  0  0  0  0
  146.4931  137.7056  163.0696 H   0  0  0  0  0  0  0  0  0  0  0  0
  153.5146  141.0118  160.8016 H   0  0  0  0  0  0  0  0  0  0  0  0
  153.8401  143.4254  160.3079 H   0  0  0  0  0  0  0  0  0  0  0  0
  152.5256  144.5267  158.5074 H   0  0  0  0  0  0  0  0  0  0  0  0
  150.8725  143.2104  157.1873 H   0  0  0  0  0  0  0  0  0  0  0  0
  1  2  1  0  0  0  0
  1 23  1  0  0  0  0
  1 24  1  0  0  0  0
  1 25  1  0  0  0  0
  2  3  1  0  0  0  0
  3  4  1  0  0  0  0
  3 26  1  0  0  0  0
  3 27  1  0  0  0  0
  4  5  1  0  0  0  0
  4 28  1  0  0  0  0
  4 29  1  0  0  0  0
  5 22  1  0  0  0  0
  5  6  1  0  0  0  0
  6  7  1  0  0  0  0
  6 16  2  0  0  0  0
  7  8  1  0  0  0  0
  7 30  1  0  0  0  0
  7 31  1  0  0  0  0
  8  9  1  0  0  0  0
  9 10  2  0  0  0  0
  9 11  1  0  0  0  0
 11 15  1  0  0  0  0
 11 12  2  0  0  0  0
 12 13  1  0  0  0  0
 12 32  1  0  0  0  0
 13 14  2  0  0  0  0
 13 33  1  0  0  0  0
 14 15  1  0  0  0  0
 14 34  1  0  0  0  0
 16 17  1  0  0  0  0
 17 22  2  0  0  0  0
 17 18  1  0  0  0  0
 18 19  2  0  0  0  0
 18 35  1  0  0  0  0
 19 20  1  0  0  0  0
 19 36  1  0  0  0  0
 20 21  2  0  0  0  0
 20 37  1  0  0  0  0
 21 22  1  0  0  0  0
 21 38  1  0  0  0  0
M  CHG  1   8  -1
M  END
> <s_m_source_file>
AV-unprocessed.smi

> <i_m_source_file_index>
497

> <i_lp_mmshare_version>
43012

> <i_f3d_flags>
0

> <s_epik_input>
W2NIXTFbY0hdW2NIXVtjSF1jKGMxMiluKFtDSDJdW0NIMl1PW0NIM10pYyhuMilbQ0gyXVtOSF1DKD1PKWMzW2NIXVtjSF1bY0hdbzM=

> <s_epik_cmdline>
J2VwaWtfcHl0aG9uJywgJy1waCcsICc3LjAnLCAnLXRuJywgJzgnLCAnLW1hJywgJzIwMCcsICctbWV0YWxfYmluZGluZycsICctaW1hZScsICc8aW5maWxlLm1hZT4nLCAnLW9tYWUnLCAnPG91dGZpbGUubWFlPic=

> <r_epik_Ionization_Penalty>
7.1745

> <r_epik_Ionization_Penalty_Charging>
6.27046

> <r_epik_Ionization_Penalty_Neutral>
0.90404

> <r_epik_State_Penalty>
6.33612

> <r_epik_Charging_Adjusted_Penalty>
12.6066

> <i_epik_Tot_Q>
-1

> <i_epik_Tot_abs_Q>
1

> <r_epik_Metal_State_Penalty>
2.33688

> <b_epik_Metal_Only>
1

> <s_lp_Force_Field>
OPLS_2005

> <r_lp_Energy>
18.2002

> <b_lp_Chiralities_Consistent>
1

> <s_lp_Variant>
AV-unprocessed.smi:497-3

> <Gold.Version>
5.8.1

> <Gold.Id.Protein>
6NUR|6NUR_protein|mol2

> <Gold.PLP.Fitness>
58.7751

> <Gold.PLP.PLP>
-47.8553

> <Gold.PLP.part.hbond>
-4.9561

> <Gold.PLP.part.metal>
0.0000

> <Gold.PLP.part.buried>
-5.0569

> <Gold.PLP.part.nonpolar>
-38.5767

> <Gold.PLP.part.repulsive>
0.0638

> <Gold.PLP.ligand.clash>
0.0000

> <Gold.PLP.ligand.torsion>
0.1805

> <Gold.PLP.Chemscore.Hbond>
3.7200

> <Gold.PLP.Chemscore.CHOScore>
0.0000

> <Gold.PLP.Chemscore.Metal>
0.0000

> <Gold.Chemscore.Hbonds>
donor molecule, donor type, donor heavy atom, donor atom, acceptor molecule, acceptor atom, score
      P1  H  6896  6908       L1    10  1.00
      P1  H  6931  6943       L1    15  0.93
      P1  H  6934  6947       L1    15  0.83
      P1  H  7989  7998       L1     2  1.00

> <Gold.PLP.Chemscore.Internal.Correction>
0.1207

> <Gold.Rescore>
     Score         DG    S(hbond)    S(metal)    S(lipo)     H(rot)  DE(clash)    DE(int)     intcor
     21.58     -23.60       2.83        0.00     114.33       1.83       0.29       1.73       ----

> <Gold.Chemscore.Fitness>
21.5826

> <Gold.Chemscore.DG>
-23.6041

> <Gold.Chemscore.ZeroCoef>
-5.4800

> <Gold.Chemscore.Hbond>
2.8270

> <Gold.Chemscore.Metal>
0.0000

> <Gold.Chemscore.Lipo>
114.3316

> <Gold.Chemscore.Internal_Hbond>
0.0000

> <Gold.Chemscore.DEClash>
0.2866

> <Gold.Chemscore.DEInternal>
1.7350

> <Gold.Chemscore.Rot>
1.8339

> <Gold.Chemscore.Internal.Correction>
   9.000000E+99

> <Gold.Chemscore.Hbonds>
donor molecule, donor type, donor heavy atom, donor atom, acceptor molecule, acceptor atom, score
      P1  H  6896  6908       L1    10  0.38
      P1  H  6931  6943       L1    15  0.66
      P1  H  6934  6947       L1    15  0.53
      P1  H  7989  7998       L1     2  0.11

> <Gold.Chemscore.Hbond.Weighted>
-9.4422

> <Gold.Chemscore.Metal.Weighted>
-0.0000

> <Gold.Chemscore.Lipo.Weighted>
-13.3768

> <Gold.Chemscore.Internal_Hbond.Weighted>
0.0000

> <Gold.Chemscore.DEClash.Weighted>
0.2866

> <Gold.Chemscore.DEInternal.Weighted>
1.7350

> <Gold.Chemscore.Rot.Weighted>
4.6948

> <Gold.Chemscore.Internal.Correction.Weighted>
   9.000000E+99

> <Gold.Protein.RotatedTorsions>
[ 6907 6896 6895 6894 ] final  155.28 input  -60.11 | X-H torsion
[ 7974 7965 7964 7962 ] final  179.35 input  175.53 | X-H torsion
[ 8008 7997 7996 7995 ] final  -41.23 input   59.86 | X-H torsion
[ 10167 10162 10161 10158 ] final   27.55 input  -65.29 | X-H torsion
[ 10718 10713 10712 10709 ] final  -26.89 input   66.30 | X-H torsion
[ 10763 10752 10751 10750 ] final   76.81 input  -60.55 | X-H torsion
[ 11005 11000 10999 10996 ] final  -68.67 input  -57.11 | X-H torsion

> <Gold.Protein.ActiveResidues>
 VAL166  LYS551  ARG553  GLY616  TRP617  ASP618  TYR619  PRO620  LYS621  CYS622 
 ASP623  PHE694  ASN695  SER759  ASP760  ASP761  ALA762  ILE779  LEU786  VAL792 
 PHE793  MET794  SER795  GLU796  ALA797  LYS798  CYS799  TRP800  GLU811  SER814 

> <Gold.Protein.RotatedAtoms>
  152.0463  133.3999  159.4357 H   0  0  0  0  0  0  0  0  0  0  0  0  # atno 6907 bound_to 6896
  150.6872  134.3358  159.4856 H   0  0  0  0  0  0  0  0  0  0  0  0  # atno 6908 bound_to 6896
  152.1162  134.9238  160.0615 H   0  0  0  0  0  0  0  0  0  0  0  0  # atno 6909 bound_to 6896
  144.7146  140.0535  143.6434 H   0  0  0  0  0  0  0  0  0  0  0  0  # atno 7974 bound_to 7965
  154.4005  140.1505  156.3157 H   0  0  0  0  0  0  0  0  0  0  0  0  # atno 8008 bound_to 7997
  155.8575  140.3455  155.5712 H   0  0  0  0  0  0  0  0  0  0  0  0  # atno 8009 bound_to 7997
  155.7917  140.0857  157.1996 H   0  0  0  0  0  0  0  0  0  0  0  0  # atno 8010 bound_to 7997
  140.4929  144.0438  150.6303 H   0  0  0  0  0  0  0  0  0  0  0  0  # atno 10167 bound_to 10162
  156.4453  130.4472  149.7025 H   0  0  0  0  0  0  0  0  0  0  0  0  # atno 10718 bound_to 10713
  153.0752  135.4937  154.8390 H   0  0  0  0  0  0  0  0  0  0  0  0  # atno 10763 bound_to 10752
  154.7078  135.3014  154.9246 H   0  0  0  0  0  0  0  0  0  0  0  0  # atno 10764 bound_to 10752
  153.9949  135.6773  153.4809 H   0  0  0  0  0  0  0  0  0  0  0  0  # atno 10765 bound_to 10752
  141.1537  133.6746  156.6481 H   0  0  0  0  0  0  0  0  0  0  0  0  # atno 11005 bound_to 11000
  145.9924  139.3025  143.0977 LP  0  0  0  0  0  0  0  0  0  0  0  0  # atno 17320 bound_to 7965
  145.8888  140.9317  143.0563 LP  0  0  0  0  0  0  0  0  0  0  0  0  # atno 17321 bound_to 7965
  140.3713  143.2853  152.0275 LP  0  0  0  0  0  0  0  0  0  0  0  0  # atno 17342 bound_to 10162
  139.4855  144.6228  151.7223 LP  0  0  0  0  0  0  0  0  0  0  0  0  # atno 17343 bound_to 10162
  156.3874  130.7610  151.2608 LP  0  0  0  0  0  0  0  0  0  0  0  0  # atno 17370 bound_to 10713
  157.7505  131.0278  150.4021 LP  0  0  0  0  0  0  0  0  0  0  0  0  # atno 17371 bound_to 10713
  140.3341  134.7904  157.4349 LP  0  0  0  0  0  0  0  0  0  0  0  0  # atno 17394 bound_to 11000
  140.0992  134.5496  155.8369 LP  0  0  0  0  0  0  0  0  0  0  0  0  # atno 17395 bound_to 11000

$$$$
