AV-unprocessed.smi:2414|AV-procd|sdf|9541|dock6
  -GOLD-   2272013173D 1   1.00000     0.00000
 Structure written by MMmdl.
 43 44  0  0  0  0  0  0  0  0  1 V2000
  143.9152  132.3901  149.6290 C   0  0  0  0  0  0  0  0  0  0  0  0
  144.9483  132.6540  150.6716 C   0  0  0  0  0  0  0  0  0  0  0  0
  145.7441  133.7653  150.7981 C   0  0  0  0  0  0  0  0  0  0  0  0
  146.6171  133.7137  151.8870 N   0  0  0  0  0  0  0  0  0  0  0  0
  146.4960  132.5819  152.5870 C   0  0  0  0  0  0  0  0  0  0  0  0
  147.3084  132.2642  153.8029 C   0  0  1  0  0  0  0  0  0  0  0  0
  146.9936  130.8583  154.3434 C   0  0  0  0  0  0  0  0  0  0  0  0
  148.8109  132.5298  153.5661 C   0  0  0  0  0  0  0  0  0  0  0  0
  149.1607  133.9394  153.7073 N   0  0  0  0  0  0  0  0  0  0  0  0
  149.2465  134.5973  154.8712 C   0  0  0  0  0  0  0  0  0  0  0  0
  149.0122  134.0920  155.9692 O   0  0  0  0  0  0  0  0  0  0  0  0
  149.6278  135.8680  154.6941 N   0  0  0  0  0  0  0  0  0  0  0  0
  149.8302  136.8349  155.7668 C   0  0  0  0  0  0  0  0  0  0  0  0
  151.3282  137.1341  155.9929 C   0  0  2  0  0  0  0  0  0  0  0  0
  152.0253  136.0442  156.8292 C   0  0  0  0  0  0  0  0  0  0  0  0
  151.5264  138.5320  156.6074 C   0  0  0  0  0  0  0  0  0  0  0  0
  151.8071  139.4070  155.4053 C   0  0  0  0  0  0  0  0  0  0  0  0
  152.5970  138.4516  154.5250 C   0  0  0  0  0  0  0  0  0  0  0  0
  151.9540  137.1971  154.7080 O   0  0  0  0  0  0  0  0  0  0  0  0
  145.2745  131.4953  151.9343 S   0  0  0  0  0  0  0  0  0  0  0  0
  144.2218  132.7971  148.6651 H   0  0  0  0  0  0  0  0  0  0  0  0
  142.9655  132.8498  149.9030 H   0  0  0  0  0  0  0  0  0  0  0  0
  143.7484  131.3201  149.5029 H   0  0  0  0  0  0  0  0  0  0  0  0
  145.7555  134.6370  150.1604 H   0  0  0  0  0  0  0  0  0  0  0  0
  146.9809  132.9654  154.5717 H   0  0  0  0  0  0  0  0  0  0  0  0
  145.9265  130.7451  154.5362 H   0  0  0  0  0  0  0  0  0  0  0  0
  147.5143  130.6616  155.2806 H   0  0  0  0  0  0  0  0  0  0  0  0
  147.2872  130.0863  153.6315 H   0  0  0  0  0  0  0  0  0  0  0  0
  149.4069  131.9643  154.2828 H   0  0  0  0  0  0  0  0  0  0  0  0
  149.1063  132.1773  152.5762 H   0  0  0  0  0  0  0  0  0  0  0  0
  149.3711  134.4435  152.8584 H   0  0  0  0  0  0  0  0  0  0  0  0
  149.7961  136.1927  153.7531 H   0  0  0  0  0  0  0  0  0  0  0  0
  149.2930  137.7496  155.5124 H   0  0  0  0  0  0  0  0  0  0  0  0
  149.3922  136.4599  156.6937 H   0  0  0  0  0  0  0  0  0  0  0  0
  151.5745  135.9603  157.8185 H   0  0  0  0  0  0  0  0  0  0  0  0
  153.0835  136.2688  156.9650 H   0  0  0  0  0  0  0  0  0  0  0  0
  151.9643  135.0659  156.3522 H   0  0  0  0  0  0  0  0  0  0  0  0
  150.6706  138.8755  157.1898 H   0  0  0  0  0  0  0  0  0  0  0  0
  152.3957  138.5454  157.2667 H   0  0  0  0  0  0  0  0  0  0  0  0
  150.8750  139.6914  154.9150 H   0  0  0  0  0  0  0  0  0  0  0  0
  152.3580  140.3144  155.6534 H   0  0  0  0  0  0  0  0  0  0  0  0
  152.6063  138.7502  153.4767 H   0  0  0  0  0  0  0  0  0  0  0  0
  153.6294  138.3768  154.8698 H   0  0  0  0  0  0  0  0  0  0  0  0
  1  2  1  0  0  0  0
  1 21  1  0  0  0  0
  1 22  1  0  0  0  0
  1 23  1  0  0  0  0
  2 20  1  0  0  0  0
  2  3  2  0  0  0  0
  3  4  1  0  0  0  0
  3 24  1  0  0  0  0
  4  5  2  0  0  0  0
  5  6  1  0  0  0  0
  5 20  1  0  0  0  0
  6  7  1  0  0  0  0
  6  8  1  0  0  0  0
  6 25  1  0  0  0  0
  7 26  1  0  0  0  0
  7 27  1  0  0  0  0
  7 28  1  0  0  0  0
  8  9  1  0  0  0  0
  8 29  1  0  0  0  0
  8 30  1  0  0  0  0
  9 10  1  0  0  0  0
  9 31  1  0  0  0  0
 10 11  2  0  0  0  0
 10 12  1  0  0  0  0
 12 13  1  0  0  0  0
 12 32  1  0  0  0  0
 13 14  1  0  0  0  0
 13 33  1  0  0  0  0
 13 34  1  0  0  0  0
 14 19  1  0  0  0  0
 14 15  1  0  0  0  0
 14 16  1  0  0  0  0
 15 35  1  0  0  0  0
 15 36  1  0  0  0  0
 15 37  1  0  0  0  0
 16 17  1  0  0  0  0
 16 38  1  0  0  0  0
 16 39  1  0  0  0  0
 17 18  1  0  0  0  0
 17 40  1  0  0  0  0
 17 41  1  0  0  0  0
 18 19  1  0  0  0  0
 18 42  1  0  0  0  0
 18 43  1  0  0  0  0
M  END
> <s_m_source_file>
AV-unprocessed.smi

> <i_m_source_file_index>
2414

> <i_lp_mmshare_version>
43012

> <i_f3d_flags>
0

> <s_epik_input>
W0NIM11jMVtjSF1uYyhzMSlbQ0BIXShbQ0gzXSlbQ0gyXVtOSF1DKD1PKVtOSF1bQ0gyXVtDQEBdMihbQ0gzXSlbQ0gyXVtDSDJdW0NIMl1PMg==

> <s_epik_cmdline>
J2VwaWtfcHl0aG9uJywgJy1waCcsICc3LjAnLCAnLXRuJywgJzgnLCAnLW1hJywgJzIwMCcsICctbWV0YWxfYmluZGluZycsICctaW1hZScsICc8aW5maWxlLm1hZT4nLCAnLW9tYWUnLCAnPG91dGZpbGUubWFlPic=

> <r_epik_Ionization_Penalty>
0.000646956

> <r_epik_Ionization_Penalty_Charging>
0

> <r_epik_Ionization_Penalty_Neutral>
0.000646956

> <r_epik_State_Penalty>
0.000375727

> <r_epik_Charging_Adjusted_Penalty>
0.000375727

> <i_epik_Tot_Q>
0

> <i_epik_Tot_abs_Q>
0

> <r_epik_Metal_State_Penalty>
-0

> <b_epik_Metal_Only>
0

> <s_lp_Force_Field>
OPLS_2005

> <r_lp_Energy>
8.05024

> <b_lp_Chiralities_Consistent>
1

> <s_lp_Variant>
AV-unprocessed.smi:2414-4

> <Gold.Version>
5.8.1

> <Gold.Id.Protein>
6NUR|6NUR_protein|mol2

> <Gold.PLP.Fitness>
39.6012

> <Gold.PLP.PLP>
-32.7639

> <Gold.PLP.part.hbond>
-3.0000

> <Gold.PLP.part.metal>
0.0000

> <Gold.PLP.part.buried>
-5.5086

> <Gold.PLP.part.nonpolar>
-25.3631

> <Gold.PLP.part.repulsive>
0.3439

> <Gold.PLP.ligand.clash>
0.0000

> <Gold.PLP.ligand.torsion>
0.9107

> <Gold.PLP.Chemscore.Hbond>
1.8400

> <Gold.PLP.Chemscore.CHOScore>
1.0000

> <Gold.PLP.Chemscore.Metal>
0.0000

> <Gold.Chemscore.Hbonds>
donor molecule, donor type, donor heavy atom, donor atom, acceptor molecule, acceptor atom, score
      L1  H    12    32       P1  7948  0.86
      P1  H 10752 10765       L1    19  0.96
      L1  C     3    24       P1  7921  0.93

> <Gold.PLP.Chemscore.Internal.Correction>
0.1388

> <Gold.Rescore>
     Score         DG    S(hbond)    S(metal)    S(lipo)     H(rot)  DE(clash)    DE(int)     intcor
     14.31     -15.23       1.13        0.00      87.12       1.65       0.05       0.88       ----

> <Gold.Chemscore.Fitness>
14.3077

> <Gold.Chemscore.DG>
-15.2338

> <Gold.Chemscore.ZeroCoef>
-5.4800

> <Gold.Chemscore.Hbond>
1.1348

> <Gold.Chemscore.Metal>
0.0000

> <Gold.Chemscore.Lipo>
87.1209

> <Gold.Chemscore.Internal_Hbond>
0.0000

> <Gold.Chemscore.DEClash>
0.0456

> <Gold.Chemscore.DEInternal>
0.8804

> <Gold.Chemscore.Rot>
1.6522

> <Gold.Chemscore.Internal.Correction>
   9.000000E+99

> <Gold.Chemscore.Hbonds>
donor molecule, donor type, donor heavy atom, donor atom, acceptor molecule, acceptor atom, score
      L1  H    12    32       P1  7948  0.20
      P1  H 10752 10765       L1    19  0.62

> <Gold.Chemscore.Hbond.Weighted>
-3.7902

> <Gold.Chemscore.Metal.Weighted>
-0.0000

> <Gold.Chemscore.Lipo.Weighted>
-10.1931

> <Gold.Chemscore.Internal_Hbond.Weighted>
0.0000

> <Gold.Chemscore.DEClash.Weighted>
0.0456

> <Gold.Chemscore.DEInternal.Weighted>
0.8804

> <Gold.Chemscore.Rot.Weighted>
4.2295

> <Gold.Chemscore.Internal.Correction.Weighted>
   9.000000E+99

> <Gold.Protein.RotatedTorsions>
[ 6907 6896 6895 6894 ] final  124.47 input  -60.11 | X-H torsion
[ 7974 7965 7964 7962 ] final  124.02 input  175.53 | X-H torsion
[ 8008 7997 7996 7995 ] final  -57.18 input   59.86 | X-H torsion
[ 10167 10162 10161 10158 ] final -112.50 input  -65.29 | X-H torsion
[ 10718 10713 10712 10709 ] final   16.06 input   66.30 | X-H torsion
[ 10763 10752 10751 10750 ] final  171.86 input  -60.55 | X-H torsion
[ 11005 11000 10999 10996 ] final  103.54 input  -57.11 | X-H torsion

> <Gold.Protein.ActiveResidues>
 VAL166  LYS551  ARG553  GLY616  TRP617  ASP618  TYR619  PRO620  LYS621  CYS622 
 ASP623  PHE694  ASN695  SER759  ASP760  ASP761  ALA762  ILE779  LEU786  VAL792 
 PHE793  MET794  SER795  GLU796  ALA797  LYS798  CYS799  TRP800  GLU811  SER814 

> <Gold.Protein.RotatedAtoms>
  152.4075  133.6912  159.6368 H   0  0  0  0  0  0  0  0  0  0  0  0  # atno 6907 bound_to 6896
  150.7958  133.8683  159.3260 H   0  0  0  0  0  0  0  0  0  0  0  0  # atno 6908 bound_to 6896
  151.6434  135.1012  160.0197 H   0  0  0  0  0  0  0  0  0  0  0  0  # atno 6909 bound_to 6896
  145.0892  139.3599  143.4869 H   0  0  0  0  0  0  0  0  0  0  0  0  # atno 7974 bound_to 7965
  154.4258  140.1112  156.5756 H   0  0  0  0  0  0  0  0  0  0  0  0  # atno 8008 bound_to 7997
  155.6166  140.3494  155.4620 H   0  0  0  0  0  0  0  0  0  0  0  0  # atno 8009 bound_to 7997
  156.0057  140.1208  157.0493 H   0  0  0  0  0  0  0  0  0  0  0  0  # atno 8010 bound_to 7997
  140.1220  143.4435  152.1684 H   0  0  0  0  0  0  0  0  0  0  0  0  # atno 10167 bound_to 10162
  157.0625  130.6314  149.5789 H   0  0  0  0  0  0  0  0  0  0  0  0  # atno 10718 bound_to 10713
  154.4178  135.2757  155.1995 H   0  0  0  0  0  0  0  0  0  0  0  0  # atno 10763 bound_to 10752
  154.3953  135.6057  153.5870 H   0  0  0  0  0  0  0  0  0  0  0  0  # atno 10764 bound_to 10752
  152.9832  135.5913  154.4470 H   0  0  0  0  0  0  0  0  0  0  0  0  # atno 10765 bound_to 10752
  139.8784  134.9267  156.5225 H   0  0  0  0  0  0  0  0  0  0  0  0  # atno 11005 bound_to 11000
  146.3531  140.0718  142.8623 LP  0  0  0  0  0  0  0  0  0  0  0  0  # atno 17320 bound_to 7965
  145.1086  140.9391  143.4670 LP  0  0  0  0  0  0  0  0  0  0  0  0  # atno 17321 bound_to 7965
  139.5564  144.7375  151.4283 LP  0  0  0  0  0  0  0  0  0  0  0  0  # atno 17342 bound_to 10162
  140.6866  143.7959  150.7195 LP  0  0  0  0  0  0  0  0  0  0  0  0  # atno 17343 bound_to 10162
  155.9974  130.5046  150.7533 LP  0  0  0  0  0  0  0  0  0  0  0  0  # atno 17370 bound_to 10713
  157.4943  131.0913  151.0390 LP  0  0  0  0  0  0  0  0  0  0  0  0  # atno 17371 bound_to 10713
  140.8440  133.8183  155.9103 LP  0  0  0  0  0  0  0  0  0  0  0  0  # atno 17394 bound_to 11000
  140.9209  134.2142  157.4927 LP  0  0  0  0  0  0  0  0  0  0  0  0  # atno 17395 bound_to 11000

$$$$
