AV-unprocessed.smi:1292|AV-procd|sdf|5397|dock1
  -GOLD-   22720 4553D 1   1.00000     0.00000
 Structure written by MMmdl.
 39 40  0  0  0  0  0  0  0  0  2 V2000
  151.7426  144.2791  158.6983 C   0  0  0  0  0  0  0  0  0  0  0  0
  152.1057  143.2911  159.8157 C   0  0  2  0  0  0  0  0  0  0  0  0
  152.2833  144.0049  161.1630 C   0  0  0  0  0  0  0  0  0  0  0  0
  152.6265  142.9778  162.2454 C   0  0  0  0  0  0  0  0  0  0  0  0
  153.8837  142.1767  161.8737 C   0  0  0  0  0  0  0  0  0  0  0  0
  153.7515  141.5517  160.5414 N   0  0  0  0  0  0  0  0  0  0  0  0
  154.8342  140.2525  160.1405 S   0  0  0  0  0  0  0  0  0  0  0  0
  156.1441  140.8648  159.8650 O   0  0  0  0  0  0  0  0  0  0  0  0
  154.7464  139.2861  161.2480 O   0  0  0  0  0  0  0  0  0  0  0  0
  154.0597  139.7737  158.8009 N   0  5  0  0  0  0  0  0  0  0  0  0
  152.9556  138.8369  158.9046 C   0  0  0  0  0  0  0  0  0  0  0  0
  151.6228  139.5935  159.1155 C   0  0  0  0  0  0  0  0  0  0  0  0
  150.7774  139.7896  157.8574 C   0  0  0  0  0  0  0  0  0  0  0  0
  150.4851  138.6985  157.0068 C   0  0  0  0  0  0  0  0  0  0  0  0
  149.7003  138.9277  155.8601 C   0  0  0  0  0  0  0  0  0  0  0  0
  149.2420  140.2334  155.6002 C   0  0  0  0  0  0  0  0  0  0  0  0
  149.5934  141.2575  156.5015 C   0  0  0  0  0  0  0  0  0  0  0  0
  150.3480  141.0498  157.6008 N   0  0  0  0  0  0  0  0  0  0  0  0
  153.3721  142.4882  159.4615 C   0  0  0  0  0  0  0  0  0  0  0  0
  152.5339  145.0139  158.5468 H   0  0  0  0  0  0  0  0  0  0  0  0
  150.8254  144.8193  158.9337 H   0  0  0  0  0  0  0  0  0  0  0  0
  151.5855  143.7597  157.7524 H   0  0  0  0  0  0  0  0  0  0  0  0
  151.2780  142.5868  159.9123 H   0  0  0  0  0  0  0  0  0  0  0  0
  153.0775  144.7495  161.0929 H   0  0  0  0  0  0  0  0  0  0  0  0
  151.3721  144.5389  161.4338 H   0  0  0  0  0  0  0  0  0  0  0  0
  152.7779  143.4802  163.2010 H   0  0  0  0  0  0  0  0  0  0  0  0
  151.7867  142.2955  162.3843 H   0  0  0  0  0  0  0  0  0  0  0  0
  154.7597  142.8270  161.8750 H   0  0  0  0  0  0  0  0  0  0  0  0
  154.0596  141.4091  162.6267 H   0  0  0  0  0  0  0  0  0  0  0  0
  152.8736  138.2282  158.0037 H   0  0  0  0  0  0  0  0  0  0  0  0
  153.0953  138.1322  159.7253 H   0  0  0  0  0  0  0  0  0  0  0  0
  151.0244  139.0810  159.8705 H   0  0  0  0  0  0  0  0  0  0  0  0
  151.8391  140.5773  159.5330 H   0  0  0  0  0  0  0  0  0  0  0  0
  150.8472  137.7067  157.2340 H   0  0  0  0  0  0  0  0  0  0  0  0
  149.4528  138.1157  155.1925 H   0  0  0  0  0  0  0  0  0  0  0  0
  148.6364  140.4456  154.7317 H   0  0  0  0  0  0  0  0  0  0  0  0
  149.2618  142.2714  156.3338 H   0  0  0  0  0  0  0  0  0  0  0  0
  153.2010  141.9322  158.5400 H   0  0  0  0  0  0  0  0  0  0  0  0
  154.2085  143.1618  159.2692 H   0  0  0  0  0  0  0  0  0  0  0  0
  1  2  1  0  0  0  0
  1 20  1  0  0  0  0
  1 21  1  0  0  0  0
  1 22  1  0  0  0  0
  2 19  1  0  0  0  0
  2  3  1  0  0  0  0
  2 23  1  0  0  0  0
  3  4  1  0  0  0  0
  3 24  1  0  0  0  0
  3 25  1  0  0  0  0
  4  5  1  0  0  0  0
  4 26  1  0  0  0  0
  4 27  1  0  0  0  0
  5  6  1  0  0  0  0
  5 28  1  0  0  0  0
  5 29  1  0  0  0  0
  6  7  1  0  0  0  0
  6 19  1  0  0  0  0
  7  8  2  0  0  0  0
  7  9  2  0  0  0  0
  7 10  1  0  0  0  0
 10 11  1  0  0  0  0
 11 12  1  0  0  0  0
 11 30  1  0  0  0  0
 11 31  1  0  0  0  0
 12 13  1  0  0  0  0
 12 32  1  0  0  0  0
 12 33  1  0  0  0  0
 13 18  1  0  0  0  0
 13 14  2  0  0  0  0
 14 15  1  0  0  0  0
 14 34  1  0  0  0  0
 15 16  2  0  0  0  0
 15 35  1  0  0  0  0
 16 17  1  0  0  0  0
 16 36  1  0  0  0  0
 17 18  2  0  0  0  0
 17 37  1  0  0  0  0
 19 38  1  0  0  0  0
 19 39  1  0  0  0  0
M  CHG  1  10  -1
M  END
> <s_m_source_file>
AV-unprocessed.smi

> <i_m_source_file_index>
1292

> <i_lp_mmshare_version>
43012

> <i_f3d_flags>
0

> <s_epik_input>
W0NIM11bQ0BASF0xW0NIMl1bQ0gyXVtDSDJdTihbQ0gyXTEpUyg9TykoPU8pW05IXVtDSDJdW0NIMl1jMltjSF1bY0hdW2NIXVtjSF1uMg==

> <s_epik_cmdline>
J2VwaWtfcHl0aG9uJywgJy1waCcsICc3LjAnLCAnLXRuJywgJzgnLCAnLW1hJywgJzIwMCcsICctbWV0YWxfYmluZGluZycsICctaW1hZScsICc8aW5maWxlLm1hZT4nLCAnLW9tYWUnLCAnPG91dGZpbGUubWFlPic=

> <r_epik_Ionization_Penalty>
2.02944

> <r_epik_Ionization_Penalty_Charging>
1.95606

> <r_epik_Ionization_Penalty_Neutral>
0.0733799

> <r_epik_State_Penalty>
2.47711

> <r_epik_Charging_Adjusted_Penalty>
4.43317

> <i_epik_Tot_Q>
-1

> <i_epik_Tot_abs_Q>
1

> <r_epik_Metal_State_Penalty>
0.729901

> <b_epik_Metal_Only>
0

> <s_lp_Force_Field>
OPLS_2005

> <r_lp_Energy>
8.05256

> <b_lp_Chiralities_Consistent>
1

> <s_lp_Variant>
AV-unprocessed.smi:1292-3

> <Gold.Version>
5.8.1

> <Gold.Id.Protein>
6NUR|6NUR_protein|mol2

> <Gold.PLP.Fitness>
51.9425

> <Gold.PLP.PLP>
-44.1858

> <Gold.PLP.part.hbond>
-2.0000

> <Gold.PLP.part.metal>
0.0000

> <Gold.PLP.part.buried>
-1.3891

> <Gold.PLP.part.nonpolar>
-39.9201

> <Gold.PLP.part.repulsive>
0.0413

> <Gold.PLP.ligand.clash>
0.0000

> <Gold.PLP.ligand.torsion>
2.1705

> <Gold.PLP.Chemscore.Hbond>
2.0000

> <Gold.PLP.Chemscore.CHOScore>
1.0000

> <Gold.PLP.Chemscore.Metal>
0.0000

> <Gold.Chemscore.Hbonds>
donor molecule, donor type, donor heavy atom, donor atom, acceptor molecule, acceptor atom, score
      P1  H  7997  8009       L1    10  2.00
      L1  C    17    37       P1  8028  0.91

> <Gold.PLP.Chemscore.Internal.Correction>
3.0976

> <Gold.Rescore>
     Score         DG    S(hbond)    S(metal)    S(lipo)     H(rot)  DE(clash)    DE(int)     intcor
     16.36     -18.44       0.94        0.00     111.78       1.27       0.01       2.07       ----

> <Gold.Chemscore.Fitness>
16.3573

> <Gold.Chemscore.DG>
-18.4401

> <Gold.Chemscore.ZeroCoef>
-5.4800

> <Gold.Chemscore.Hbond>
0.9409

> <Gold.Chemscore.Metal>
0.0000

> <Gold.Chemscore.Lipo>
111.7832

> <Gold.Chemscore.Internal_Hbond>
0.0000

> <Gold.Chemscore.DEClash>
0.0130

> <Gold.Chemscore.DEInternal>
2.0697

> <Gold.Chemscore.Rot>
1.2738

> <Gold.Chemscore.Internal.Correction>
   9.000000E+99

> <Gold.Chemscore.Hbonds>
donor molecule, donor type, donor heavy atom, donor atom, acceptor molecule, acceptor atom, score
      P1  H  7997  8009       L1    10  0.92

> <Gold.Chemscore.Hbond.Weighted>
-3.1425

> <Gold.Chemscore.Metal.Weighted>
-0.0000

> <Gold.Chemscore.Lipo.Weighted>
-13.0786

> <Gold.Chemscore.Internal_Hbond.Weighted>
0.0000

> <Gold.Chemscore.DEClash.Weighted>
0.0130

> <Gold.Chemscore.DEInternal.Weighted>
2.0697

> <Gold.Chemscore.Rot.Weighted>
3.2610

> <Gold.Chemscore.Internal.Correction.Weighted>
   9.000000E+99

> <Gold.Protein.RotatedTorsions>
[ 6907 6896 6895 6894 ] final    1.15 input  -60.11 | X-H torsion
[ 7974 7965 7964 7962 ] final -153.65 input  175.53 | X-H torsion
[ 8008 7997 7996 7995 ] final  134.01 input   59.86 | X-H torsion
[ 10167 10162 10161 10158 ] final  -63.69 input  -65.29 | X-H torsion
[ 10718 10713 10712 10709 ] final  -80.32 input   66.30 | X-H torsion
[ 10763 10752 10751 10750 ] final  -39.63 input  -60.55 | X-H torsion
[ 11005 11000 10999 10996 ] final  -32.83 input  -57.11 | X-H torsion

> <Gold.Protein.ActiveResidues>
 VAL166  LYS551  ARG553  GLY616  TRP617  ASP618  TYR619  PRO620  LYS621  CYS622 
 ASP623  PHE694  ASN695  SER759  ASP760  ASP761  ALA762  ILE779  LEU786  VAL792 
 PHE793  MET794  SER795  GLU796  ALA797  LYS798  CYS799  TRP800  GLU811  SER814 

> <Gold.Protein.RotatedAtoms>
  151.5879  135.1055  160.0032 H   0  0  0  0  0  0  0  0  0  0  0  0  # atno 6907 bound_to 6896
  152.4321  133.7292  159.6588 H   0  0  0  0  0  0  0  0  0  0  0  0  # atno 6908 bound_to 6896
  150.8214  133.8175  159.3160 H   0  0  0  0  0  0  0  0  0  0  0  0  # atno 6909 bound_to 6896
  144.7730  140.4497  143.5894 H   0  0  0  0  0  0  0  0  0  0  0  0  # atno 7974 bound_to 7965
  156.2996  140.2507  156.3347 H   0  0  0  0  0  0  0  0  0  0  0  0  # atno 8008 bound_to 7997
  154.9112  140.0403  157.1966 H   0  0  0  0  0  0  0  0  0  0  0  0  # atno 8009 bound_to 7997
  154.8404  140.2890  155.5668 H   0  0  0  0  0  0  0  0  0  0  0  0  # atno 8010 bound_to 7997
  140.5853  143.2333  151.6255 H   0  0  0  0  0  0  0  0  0  0  0  0  # atno 10167 bound_to 10162
  156.0073  130.4571  150.3782 H   0  0  0  0  0  0  0  0  0  0  0  0  # atno 10718 bound_to 10713
  153.9326  135.6770  153.4745 H   0  0  0  0  0  0  0  0  0  0  0  0  # atno 10763 bound_to 10752
  153.0972  135.4846  154.8797 H   0  0  0  0  0  0  0  0  0  0  0  0  # atno 10764 bound_to 10752
  154.7420  135.3163  154.8669 H   0  0  0  0  0  0  0  0  0  0  0  0  # atno 10765 bound_to 10752
  140.9584  133.7179  156.1330 H   0  0  0  0  0  0  0  0  0  0  0  0  # atno 11005 bound_to 11000
  145.6268  139.1531  143.2991 LP  0  0  0  0  0  0  0  0  0  0  0  0  # atno 17320 bound_to 7965
  146.1890  140.6375  142.9154 LP  0  0  0  0  0  0  0  0  0  0  0  0  # atno 17321 bound_to 7965
  139.5194  144.3254  152.0873 LP  0  0  0  0  0  0  0  0  0  0  0  0  # atno 17342 bound_to 10162
  140.2411  144.4269  150.6260 LP  0  0  0  0  0  0  0  0  0  0  0  0  # atno 17343 bound_to 10162
  157.1863  131.0404  151.2723 LP  0  0  0  0  0  0  0  0  0  0  0  0  # atno 17370 bound_to 10713
  157.4101  130.7380  149.6832 LP  0  0  0  0  0  0  0  0  0  0  0  0  # atno 17371 bound_to 10713
  140.7502  134.4053  157.5542 LP  0  0  0  0  0  0  0  0  0  0  0  0  # atno 17394 bound_to 11000
  139.8870  134.8895  156.2554 LP  0  0  0  0  0  0  0  0  0  0  0  0  # atno 17395 bound_to 11000

$$$$
