AV-unprocessed.smi:1908|AV-procd|sdf|7733|dock3
  -GOLD-   22720 9473D 1   1.00000     0.00000
 Structure written by MMmdl.
 28 28  0  0  0  0  0  0  0  0  1 V2000
  152.6699  142.9988  160.6802 C   0  0  0  0  0  0  0  0  0  0  0  0
  152.6796  143.9315  159.4621 C   0  0  0  0  0  0  0  0  0  0  0  0
  151.8520  145.2018  159.7117 C   0  0  0  0  0  0  0  0  0  0  0  0
  152.1689  143.2158  158.2965 N   0  0  0  0  0  0  0  0  0  0  0  0
  150.9620  142.6354  158.2063 C   0  0  0  0  0  0  0  0  0  0  0  0
  150.1417  142.6364  159.1252 O   0  0  0  0  0  0  0  0  0  0  0  0
  150.6506  141.9209  156.8839 C   0  0  0  0  0  0  0  0  0  0  0  0
  151.3700  140.6470  156.7449 N   0  0  0  0  0  0  0  0  0  0  0  0
  152.1586  140.1696  157.7824 C   0  0  0  0  0  0  0  0  0  0  0  0
  152.8381  138.9998  157.7247 C   0  0  0  0  0  0  0  0  0  0  0  0
  152.7691  138.1635  156.5311 C   0  0  0  0  0  0  0  0  0  0  0  0
  153.3495  137.0905  156.3824 O   0  0  0  0  0  0  0  0  0  0  0  0
  151.9636  138.6764  155.5110 N   0  0  0  0  0  0  0  0  0  0  0  0
  151.2584  139.8795  155.5651 C   0  0  0  0  0  0  0  0  0  0  0  0
  150.5715  140.2371  154.6088 O   0  0  0  0  0  0  0  0  0  0  0  0
  151.8826  138.1301  154.6659 H   0  0  0  0  0  0  0  0  0  0  0  0
  153.0743  143.5002  161.5600 H   0  0  0  0  0  0  0  0  0  0  0  0
  153.2772  142.1112  160.5000 H   0  0  0  0  0  0  0  0  0  0  0  0
  151.6589  142.6688  160.9214 H   0  0  0  0  0  0  0  0  0  0  0  0
  153.7153  144.2228  159.2782 H   0  0  0  0  0  0  0  0  0  0  0  0
  152.2244  145.7469  160.5795 H   0  0  0  0  0  0  0  0  0  0  0  0
  150.8036  144.9634  159.8937 H   0  0  0  0  0  0  0  0  0  0  0  0
  151.8967  145.8777  158.8568 H   0  0  0  0  0  0  0  0  0  0  0  0
  152.7800  143.1602  157.4946 H   0  0  0  0  0  0  0  0  0  0  0  0
  149.5748  141.7598  156.7871 H   0  0  0  0  0  0  0  0  0  0  0  0
  150.9140  142.5944  156.0671 H   0  0  0  0  0  0  0  0  0  0  0  0
  152.2352  140.7542  158.6884 H   0  0  0  0  0  0  0  0  0  0  0  0
  153.4351  138.6800  158.5666 H   0  0  0  0  0  0  0  0  0  0  0  0
  1  2  1  0  0  0  0
  1 17  1  0  0  0  0
  1 18  1  0  0  0  0
  1 19  1  0  0  0  0
  2  3  1  0  0  0  0
  2  4  1  0  0  0  0
  2 20  1  0  0  0  0
  3 21  1  0  0  0  0
  3 22  1  0  0  0  0
  3 23  1  0  0  0  0
  4  5  1  0  0  0  0
  4 24  1  0  0  0  0
  5  6  2  0  0  0  0
  5  7  1  0  0  0  0
  7  8  1  0  0  0  0
  7 25  1  0  0  0  0
  7 26  1  0  0  0  0
  8 14  1  0  0  0  0
  8  9  1  0  0  0  0
  9 10  2  0  0  0  0
  9 27  1  0  0  0  0
 10 11  1  0  0  0  0
 10 28  1  0  0  0  0
 11 12  2  0  0  0  0
 11 13  1  0  0  0  0
 13 16  1  0  0  0  0
 13 14  1  0  0  0  0
 14 15  2  0  0  0  0
M  END
> <s_m_source_file>
AV-unprocessed.smi

> <i_m_source_file_index>
1908

> <i_lp_mmshare_version>
43012

> <i_f3d_flags>
0

> <s_epik_input>
W0NIM11bQ0hdKFtDSDNdKVtOSF1DKD1PKVtDSDJdbjFbY0hdW2NIXWMoPU8pW25IXWMxPU8=

> <s_epik_cmdline>
J2VwaWtfcHl0aG9uJywgJy1waCcsICc3LjAnLCAnLXRuJywgJzgnLCAnLW1hJywgJzIwMCcsICctbWV0YWxfYmluZGluZycsICctaW1hZScsICc8aW5maWxlLm1hZT4nLCAnLW9tYWUnLCAnPG91dGZpbGUubWFlPic=

> <r_lp_tautomer_probability>
0.999537

> <r_epik_Ionization_Penalty>
0.00328918

> <r_epik_Ionization_Penalty_Charging>
0.00328916

> <r_epik_Ionization_Penalty_Neutral>
2.06703e-08

> <r_epik_State_Penalty>
0.00232387

> <r_epik_Charging_Adjusted_Penalty>
0.00561303

> <i_epik_Tot_Q>
0

> <i_epik_Tot_abs_Q>
0

> <r_epik_Metal_State_Penalty>
0.365273

> <b_epik_Metal_Only>
0

> <s_lp_Force_Field>
OPLS_2005

> <r_lp_Energy>
1.74707

> <b_lp_Chiralities_Consistent>
1

> <s_lp_Variant>
AV-unprocessed.smi:1908-1

> <Gold.Version>
5.8.1

> <Gold.Id.Protein>
6NUR|6NUR_protein|mol2

> <Gold.PLP.Fitness>
35.5482

> <Gold.PLP.PLP>
-30.6088

> <Gold.PLP.part.hbond>
-2.8325

> <Gold.PLP.part.metal>
0.0000

> <Gold.PLP.part.buried>
-4.1425

> <Gold.PLP.part.nonpolar>
-23.9478

> <Gold.PLP.part.repulsive>
0.3568

> <Gold.PLP.ligand.clash>
0.0000

> <Gold.PLP.ligand.torsion>
0.2100

> <Gold.PLP.Chemscore.Hbond>
1.7840

> <Gold.PLP.Chemscore.CHOScore>
0.0000

> <Gold.PLP.Chemscore.Metal>
0.0000

> <Gold.Chemscore.Hbonds>
donor molecule, donor type, donor heavy atom, donor atom, acceptor molecule, acceptor atom, score
      P1  H  7989  7998       L1    15  1.00
      P1  H 10752 10765       L1    12  0.67

> <Gold.PLP.Chemscore.Internal.Correction>
0.0073

> <Gold.Rescore>
     Score         DG    S(hbond)    S(metal)    S(lipo)     H(rot)  DE(clash)    DE(int)     intcor
     12.31     -13.51       1.91        0.00      52.49       1.76       0.00       1.20       ----

> <Gold.Chemscore.Fitness>
12.3120

> <Gold.Chemscore.DG>
-13.5100

> <Gold.Chemscore.ZeroCoef>
-5.4800

> <Gold.Chemscore.Hbond>
1.9114

> <Gold.Chemscore.Metal>
0.0000

> <Gold.Chemscore.Lipo>
52.4936

> <Gold.Chemscore.Internal_Hbond>
0.0000

> <Gold.Chemscore.DEClash>
0.0009

> <Gold.Chemscore.DEInternal>
1.1971

> <Gold.Chemscore.Rot>
1.7562

> <Gold.Chemscore.Internal.Correction>
   9.000000E+99

> <Gold.Chemscore.Hbonds>
donor molecule, donor type, donor heavy atom, donor atom, acceptor molecule, acceptor atom, score
      P1  H  7989  7998       L1    15  0.55
      P1  H 10752 10765       L1    12  0.63

> <Gold.Chemscore.Hbond.Weighted>
-6.3840

> <Gold.Chemscore.Metal.Weighted>
-0.0000

> <Gold.Chemscore.Lipo.Weighted>
-6.1417

> <Gold.Chemscore.Internal_Hbond.Weighted>
0.0000

> <Gold.Chemscore.DEClash.Weighted>
0.0009

> <Gold.Chemscore.DEInternal.Weighted>
1.1971

> <Gold.Chemscore.Rot.Weighted>
4.4958

> <Gold.Chemscore.Internal.Correction.Weighted>
   9.000000E+99

> <Gold.Protein.RotatedTorsions>
[ 6907 6896 6895 6894 ] final -107.29 input  -60.11 | X-H torsion
[ 7974 7965 7964 7962 ] final  -17.88 input  175.53 | X-H torsion
[ 8008 7997 7996 7995 ] final  110.80 input   59.86 | X-H torsion
[ 10167 10162 10161 10158 ] final -143.17 input  -65.29 | X-H torsion
[ 10718 10713 10712 10709 ] final  116.42 input   66.30 | X-H torsion
[ 10763 10752 10751 10750 ] final -132.33 input  -60.55 | X-H torsion
[ 11005 11000 10999 10996 ] final   66.11 input  -57.11 | X-H torsion

> <Gold.Protein.ActiveResidues>
 VAL166  LYS551  ARG553  GLY616  TRP617  ASP618  TYR619  PRO620  LYS621  CYS622 
 ASP623  PHE694  ASN695  SER759  ASP760  ASP761  ALA762  ILE779  LEU786  VAL792 
 PHE793  MET794  SER795  GLU796  ALA797  LYS798  CYS799  TRP800  GLU811  SER814 

> <Gold.Protein.RotatedAtoms>
  150.7436  133.9848  159.3587 H   0  0  0  0  0  0  0  0  0  0  0  0  # atno 6907 bound_to 6896
  151.7792  135.0764  160.0380 H   0  0  0  0  0  0  0  0  0  0  0  0  # atno 6908 bound_to 6896
  152.3286  133.5896  159.5830 H   0  0  0  0  0  0  0  0  0  0  0  0  # atno 6909 bound_to 6896
  146.1919  140.3842  142.8455 H   0  0  0  0  0  0  0  0  0  0  0  0  # atno 7974 bound_to 7965
  156.2079  140.3031  155.9667 H   0  0  0  0  0  0  0  0  0  0  0  0  # atno 8008 bound_to 7997
  155.2796  140.0437  157.3031 H   0  0  0  0  0  0  0  0  0  0  0  0  # atno 8009 bound_to 7997
  154.5658  140.2334  155.8274 H   0  0  0  0  0  0  0  0  0  0  0  0  # atno 8010 bound_to 7997
  139.8018  143.7823  152.2658 H   0  0  0  0  0  0  0  0  0  0  0  0  # atno 10167 bound_to 10162
  157.6161  131.1025  150.7470 H   0  0  0  0  0  0  0  0  0  0  0  0  # atno 10718 bound_to 10713
  154.8744  135.3801  154.4391 H   0  0  0  0  0  0  0  0  0  0  0  0  # atno 10763 bound_to 10752
  153.5078  135.7030  153.5802 H   0  0  0  0  0  0  0  0  0  0  0  0  # atno 10764 bound_to 10752
  153.4105  135.3926  155.2013 H   0  0  0  0  0  0  0  0  0  0  0  0  # atno 10765 bound_to 10752
  139.9852  134.6679  156.0189 H   0  0  0  0  0  0  0  0  0  0  0  0  # atno 11005 bound_to 11000
  144.8504  140.6992  143.6172 LP  0  0  0  0  0  0  0  0  0  0  0  0  # atno 17320 bound_to 7965
  145.3765  139.1646  143.4304 LP  0  0  0  0  0  0  0  0  0  0  0  0  # atno 17321 bound_to 7965
  139.7945  144.7398  150.9909 LP  0  0  0  0  0  0  0  0  0  0  0  0  # atno 17342 bound_to 10162
  140.7820  143.4408  151.0555 LP  0  0  0  0  0  0  0  0  0  0  0  0  # atno 17343 bound_to 10162
  156.7837  130.4867  149.5396 LP  0  0  0  0  0  0  0  0  0  0  0  0  # atno 17370 bound_to 10713
  156.1284  130.6160  151.0298 LP  0  0  0  0  0  0  0  0  0  0  0  0  # atno 17371 bound_to 10713
  141.1518  133.6547  156.4038 LP  0  0  0  0  0  0  0  0  0  0  0  0  # atno 17394 bound_to 11000
  140.5016  134.6480  157.5250 LP  0  0  0  0  0  0  0  0  0  0  0  0  # atno 17395 bound_to 11000

$$$$
