AV-unprocessed.smi:2059|AV-procd|sdf|8353|dock4
  -GOLD-   2272011 23D 1   1.00000     0.00000
 Structure written by MMmdl.
 29 30  0  0  0  0  0  0  0  0  2 V2000
  147.1331  130.3278  153.0545 C   0  0  0  0  0  0  0  0  0  0  0  0
  147.8801  131.2560  153.9493 C   0  0  0  0  0  0  0  0  0  0  0  0
  148.8282  132.2115  153.7144 C   0  0  0  0  0  0  0  0  0  0  0  0
  149.1074  132.7192  155.0120 C   0  0  0  0  0  0  0  0  0  0  0  0
  150.0662  133.7600  155.1775 N   0  0  0  0  0  0  0  0  0  0  0  0
  150.5342  134.3799  156.2823 C   0  0  0  0  0  0  0  0  0  0  0  0
  150.0497  133.9838  157.3474 O   0  0  0  0  0  0  0  0  0  0  0  0
  151.4700  135.3614  156.1289 N   0  5  0  0  0  0  0  0  0  0  0  0
  151.1898  136.7981  156.0748 C   0  0  1  0  0  0  0  0  0  0  0  0
  151.8942  137.5343  157.2315 C   0  0  0  0  0  0  0  0  0  0  0  0
  151.8702  139.0426  156.9428 C   0  0  0  0  0  0  0  0  0  0  0  0
  151.9375  139.2023  155.1160 S   0  0  0  0  0  0  0  0  0  0  0  0
  150.7658  139.9674  154.6606 O   0  0  0  0  0  0  0  0  0  0  0  0
  153.2954  139.5920  154.7053 O   0  0  0  0  0  0  0  0  0  0  0  0
  151.6893  137.4184  154.7606 C   0  0  0  0  0  0  0  0  0  0  0  0
  148.3898  132.1215  155.9531 N   0  0  0  0  0  0  0  0  0  0  0  0
  147.6006  131.1834  155.2781 O   0  0  0  0  0  0  0  0  0  0  0  0
  147.6790  130.1593  152.1261 H   0  0  0  0  0  0  0  0  0  0  0  0
  146.1557  130.7391  152.8025 H   0  0  0  0  0  0  0  0  0  0  0  0
  146.9805  129.3617  153.5360 H   0  0  0  0  0  0  0  0  0  0  0  0
  149.2529  132.5006  152.7646 H   0  0  0  0  0  0  0  0  0  0  0  0
  150.4586  134.1031  154.3135 H   0  0  0  0  0  0  0  0  0  0  0  0
  150.1222  137.0070  156.1610 H   0  0  0  0  0  0  0  0  0  0  0  0
  151.4370  137.3060  158.1948 H   0  0  0  0  0  0  0  0  0  0  0  0
  152.9343  137.2085  157.2887 H   0  0  0  0  0  0  0  0  0  0  0  0
  150.9425  139.4987  157.2917 H   0  0  0  0  0  0  0  0  0  0  0  0
  152.7080  139.5711  157.3972 H   0  0  0  0  0  0  0  0  0  0  0  0
  152.6528  137.0005  154.4665 H   0  0  0  0  0  0  0  0  0  0  0  0
  150.9873  137.2908  153.9368 H   0  0  0  0  0  0  0  0  0  0  0  0
  1  2  1  0  0  0  0
  1 18  1  0  0  0  0
  1 19  1  0  0  0  0
  1 20  1  0  0  0  0
  2 17  1  0  0  0  0
  2  3  2  0  0  0  0
  3  4  1  0  0  0  0
  3 21  1  0  0  0  0
  4  5  1  0  0  0  0
  4 16  2  0  0  0  0
  5  6  1  0  0  0  0
  5 22  1  0  0  0  0
  6  7  2  0  0  0  0
  6  8  1  0  0  0  0
  8  9  1  0  0  0  0
  9 15  1  0  0  0  0
  9 10  1  0  0  0  0
  9 23  1  0  0  0  0
 10 11  1  0  0  0  0
 10 24  1  0  0  0  0
 10 25  1  0  0  0  0
 11 12  1  0  0  0  0
 11 26  1  0  0  0  0
 11 27  1  0  0  0  0
 12 13  2  0  0  0  0
 12 14  2  0  0  0  0
 12 15  1  0  0  0  0
 15 28  1  0  0  0  0
 15 29  1  0  0  0  0
 16 17  1  0  0  0  0
M  CHG  1   8  -1
M  END
> <s_m_source_file>
AV-unprocessed.smi

> <i_m_source_file_index>
2059

> <i_lp_mmshare_version>
43012

> <i_f3d_flags>
0

> <s_epik_input>
W0NIM11jMVtjSF1jKG5vMSlbTkhdQyg9TylbTkhdW0NAQEhdKFtDSDJdMilbQ0gyXVtDSDJdUzIoPU8pPU8=

> <s_epik_cmdline>
J2VwaWtfcHl0aG9uJywgJy1waCcsICc3LjAnLCAnLXRuJywgJzgnLCAnLW1hJywgJzIwMCcsICctbWV0YWxfYmluZGluZycsICctaW1hZScsICc8aW5maWxlLm1hZT4nLCAnLW9tYWUnLCAnPG91dGZpbGUubWFlPic=

> <r_lp_tautomer_probability>
1

> <r_epik_Ionization_Penalty>
6.6071

> <r_epik_Ionization_Penalty_Charging>
6.60709

> <r_epik_Ionization_Penalty_Neutral>
5.42629e-06

> <r_epik_State_Penalty>
6.6352

> <r_epik_Charging_Adjusted_Penalty>
13.2423

> <i_epik_Tot_Q>
-1

> <i_epik_Tot_abs_Q>
1

> <r_epik_Metal_State_Penalty>
2.57602

> <b_epik_Metal_Only>
1

> <s_lp_Force_Field>
OPLS_2005

> <r_lp_Energy>
11.3948

> <b_lp_Chiralities_Consistent>
1

> <s_lp_Variant>
AV-unprocessed.smi:2059-6

> <Gold.Version>
5.8.1

> <Gold.Id.Protein>
6NUR|6NUR_protein|mol2

> <Gold.PLP.Fitness>
34.9848

> <Gold.PLP.PLP>
-23.0600

> <Gold.PLP.part.hbond>
-5.0000

> <Gold.PLP.part.metal>
0.0000

> <Gold.PLP.part.buried>
-2.3625

> <Gold.PLP.part.nonpolar>
-16.4903

> <Gold.PLP.part.repulsive>
0.1781

> <Gold.PLP.ligand.clash>
0.0000

> <Gold.PLP.ligand.torsion>
0.7445

> <Gold.PLP.Chemscore.Hbond>
4.4699

> <Gold.PLP.Chemscore.CHOScore>
0.0000

> <Gold.PLP.Chemscore.Metal>
0.0000

> <Gold.Chemscore.Hbonds>
donor molecule, donor type, donor heavy atom, donor atom, acceptor molecule, acceptor atom, score
      P1  H  6896  6909       L1     7  0.87
      P1  H  7989  7998       L1    13  0.75
      P1  H  7997  8010       L1    14  1.00
      P1  H 10752 10763       L1     8  1.70

> <Gold.PLP.Chemscore.Internal.Correction>
0.0041

> <Gold.Rescore>
     Score         DG    S(hbond)    S(metal)    S(lipo)     H(rot)  DE(clash)    DE(int)     intcor
     13.53     -15.90       2.62        0.00      36.07       1.00       0.31       2.05       ----

> <Gold.Chemscore.Fitness>
13.5302

> <Gold.Chemscore.DG>
-15.8976

> <Gold.Chemscore.ZeroCoef>
-5.4800

> <Gold.Chemscore.Hbond>
2.6221

> <Gold.Chemscore.Metal>
0.0000

> <Gold.Chemscore.Lipo>
36.0675

> <Gold.Chemscore.Internal_Hbond>
0.0000

> <Gold.Chemscore.DEClash>
0.3145

> <Gold.Chemscore.DEInternal>
2.0529

> <Gold.Chemscore.Rot>
1.0000

> <Gold.Chemscore.Internal.Correction>
   9.000000E+99

> <Gold.Chemscore.Hbonds>
donor molecule, donor type, donor heavy atom, donor atom, acceptor molecule, acceptor atom, score
      P1  H  6896  6909       L1     7  0.81
      P1  H  7989  7998       L1    13  0.09
      P1  H  7997  8010       L1    14  1.00
      P1  H 10752 10763       L1     8  0.13

> <Gold.Chemscore.Hbond.Weighted>
-8.7577

> <Gold.Chemscore.Metal.Weighted>
-0.0000

> <Gold.Chemscore.Lipo.Weighted>
-4.2199

> <Gold.Chemscore.Internal_Hbond.Weighted>
0.0000

> <Gold.Chemscore.DEClash.Weighted>
0.3145

> <Gold.Chemscore.DEInternal.Weighted>
2.0529

> <Gold.Chemscore.Rot.Weighted>
2.5600

> <Gold.Chemscore.Internal.Correction.Weighted>
   9.000000E+99

> <Gold.Protein.RotatedTorsions>
[ 6907 6896 6895 6894 ] final    0.30 input  -60.11 | X-H torsion
[ 7974 7965 7964 7962 ] final  143.83 input  175.53 | X-H torsion
[ 8008 7997 7996 7995 ] final  123.90 input   59.86 | X-H torsion
[ 10167 10162 10161 10158 ] final  170.50 input  -65.29 | X-H torsion
[ 10718 10713 10712 10709 ] final  -56.78 input   66.30 | X-H torsion
[ 10763 10752 10751 10750 ] final  100.27 input  -60.55 | X-H torsion
[ 11005 11000 10999 10996 ] final    5.33 input  -57.11 | X-H torsion

> <Gold.Protein.ActiveResidues>
 VAL166  LYS551  ARG553  GLY616  TRP617  ASP618  TYR619  PRO620  LYS621  CYS622 
 ASP623  PHE694  ASN695  SER759  ASP760  ASP761  ALA762  ILE779  LEU786  VAL792 
 PHE793  MET794  SER795  GLU796  ALA797  LYS798  CYS799  TRP800  GLU811  SER814 

> <Gold.Protein.RotatedAtoms>
  151.5742  135.1061  160.0002 H   0  0  0  0  0  0  0  0  0  0  0  0  # atno 6907 bound_to 6896
  152.4386  133.7401  159.6647 H   0  0  0  0  0  0  0  0  0  0  0  0  # atno 6908 bound_to 6896
  150.8287  133.8058  159.3131 H   0  0  0  0  0  0  0  0  0  0  0  0  # atno 6909 bound_to 6896
  144.8887  139.5590  143.5808 H   0  0  0  0  0  0  0  0  0  0  0  0  # atno 7974 bound_to 7965
  156.2782  140.2752  156.1702 H   0  0  0  0  0  0  0  0  0  0  0  0  # atno 8008 bound_to 7997
  155.0663  140.0387  157.2611 H   0  0  0  0  0  0  0  0  0  0  0  0  # atno 8009 bound_to 7997
  154.7076  140.2662  155.6665 H   0  0  0  0  0  0  0  0  0  0  0  0  # atno 8010 bound_to 7997
  139.5020  144.3589  151.9845 H   0  0  0  0  0  0  0  0  0  0  0  0  # atno 10167 bound_to 10162
  156.1262  130.4162  150.0351 H   0  0  0  0  0  0  0  0  0  0  0  0  # atno 10718 bound_to 10713
  153.3119  135.4084  155.1343 H   0  0  0  0  0  0  0  0  0  0  0  0  # atno 10763 bound_to 10752
  154.8578  135.3566  154.5712 H   0  0  0  0  0  0  0  0  0  0  0  0  # atno 10764 bound_to 10752
  153.6142  135.7067  153.5394 H   0  0  0  0  0  0  0  0  0  0  0  0  # atno 10765 bound_to 10752
  140.5719  134.0095  155.8012 H   0  0  0  0  0  0  0  0  0  0  0  0  # atno 11005 bound_to 11000
  146.3041  139.7521  142.9069 LP  0  0  0  0  0  0  0  0  0  0  0  0  # atno 17320 bound_to 7965
  145.3821  141.0360  143.3171 LP  0  0  0  0  0  0  0  0  0  0  0  0  # atno 17321 bound_to 7965
  140.3025  144.3630  150.6056 LP  0  0  0  0  0  0  0  0  0  0  0  0  # atno 17342 bound_to 10162
  140.5862  143.2170  151.7338 LP  0  0  0  0  0  0  0  0  0  0  0  0  # atno 17343 bound_to 10162
  156.8276  130.9381  151.3638 LP  0  0  0  0  0  0  0  0  0  0  0  0  # atno 17370 bound_to 10713
  157.6443  130.8831  149.9509 LP  0  0  0  0  0  0  0  0  0  0  0  0  # atno 17371 bound_to 10713
  141.1051  133.9706  157.3011 LP  0  0  0  0  0  0  0  0  0  0  0  0  # atno 17394 bound_to 11000
  139.9358  135.0196  156.8550 LP  0  0  0  0  0  0  0  0  0  0  0  0  # atno 17395 bound_to 11000

$$$$
