#       Name:                AV-unprocessed.smi:760
#       Creating user name   scv26
#       Creation time:       Fri Mar 27 01:02:11 2020


#       File generated by GOLD software.
#

@<TRIPOS>MOLECULE
AV-unprocessed.smi:760
    47    48     1
SMALL
NO_CHARGES


@<TRIPOS>ATOM
      1 ****        -3.4178   2.5830  -4.1086 C.2            1 S1                 0.0000
      2 ****        -3.4241   2.2387  -2.8101 C.2            1 S1                 0.0000
      3 ****        -4.0806   3.1101  -1.7537 C.3            1 S1                 0.0000
      4 ****        -2.8009   0.9381  -2.3262 C.3            1 S1                 0.0000
      5 ****        -1.3196   1.0111  -2.2229 N.4            1 S1                 1.0000
      6 ****        -0.7143  -0.3402  -2.0978 C.3            1 S1                 0.0000
      7 ****         0.8218  -0.2749  -2.1465 C.3            1 S1                 0.0000
      8 ****         1.3908   0.6652  -1.0675 C.3            1 S1                 0.0000
      9 ****         1.2333   0.1083   0.2761 N.am           1 S1                 0.0000
     10 ****         2.0291  -0.8221   0.8234 C.2            1 S1                 0.0000
     11 ****         2.9939  -1.3176   0.2415 O.2            1 S1                 0.0000
     12 ****         1.6322  -1.1368   2.0671 N.am           1 S1                 0.0000
     13 ****         2.2302  -2.0763   2.9443 C.2            1 S1                 0.0000
     14 ****         3.3886  -2.8817   2.7506 C.2            1 S1                 0.0000
     15 ****         3.6265  -3.6355   3.8137 N.2            1 S1                 0.0000
     16 ****         2.6386  -3.3309   4.6898 N.pl3          1 S1                 0.0000
     17 ****         2.6036  -3.9901   5.9779 C.3            1 S1                 0.0000
     18 ****         1.7709  -2.3800   4.1907 C.2            1 S1                 0.0000
     19 ****         0.7076   2.0385  -1.1707 C.3            1 S1                 0.0000
     20 ****        -0.8289   1.9330  -1.1634 C.3            1 S1                 0.0000
     21 ****        -3.8720   3.5024  -4.4487 H              1 S1                 0.0000
     22 ****        -2.9577   1.9495  -4.8529 H              1 S1                 0.0000
     23 ****        -4.9168   2.5786  -1.2989 H              1 S1                 0.0000
     24 ****        -4.4673   4.0331  -2.1873 H              1 S1                 0.0000
     25 ****        -3.3830   3.3785  -0.9620 H              1 S1                 0.0000
     26 ****        -3.2376   0.6372  -1.3725 H              1 S1                 0.0000
     27 ****        -3.0691   0.1628  -3.0454 H              1 S1                 0.0000
     28 ****        -1.0449  -0.8048  -1.1675 H              1 S1                 0.0000
     29 ****        -1.0671  -0.9775  -2.9096 H              1 S1                 0.0000
     30 ****         1.2428  -1.2760  -2.0452 H              1 S1                 0.0000
     31 ****         1.1311   0.0819  -3.1299 H              1 S1                 0.0000
     32 ****         2.4576   0.8066  -1.2511 H              1 S1                 0.0000
     33 ****         0.4680   0.4620   0.8315 H              1 S1                 0.0000
     34 ****         0.8180  -0.6584   2.4232 H              1 S1                 0.0000
     35 ****         4.0543  -2.9507   1.9032 H              1 S1                 0.0000
     36 ****         1.6106  -3.8952   6.4182 H              1 S1                 0.0000
     37 ****         3.3340  -3.5311   6.6445 H              1 S1                 0.0000
     38 ****         2.8385  -5.0491   5.8633 H              1 S1                 0.0000
     39 ****         0.9243  -2.0137   4.7528 H              1 S1                 0.0000
     40 ****         1.0425   2.6898  -0.3623 H              1 S1                 0.0000
     41 ****         1.0228   2.5222  -2.0965 H              1 S1                 0.0000
     42 ****        -1.2307   2.9323  -1.3215 H              1 S1                 0.0000
     43 ****        -1.1845   1.5946  -0.1891 H              1 S1                 0.0000
     44 ****        -0.9945   1.3846  -3.1034 H              1 S1                 0.0000
     45 ****         3.2186  -1.0291  -0.6893 LP             1 S1                 0.0000
     46 ****         3.5531  -2.0086   0.6995 LP             1 S1                 0.0000
     47 ****         4.3734  -4.2880   3.9419 LP             1 S1                 0.0000
@<TRIPOS>BOND
    1    1    2 2     
    2    1   21 1     
    3    1   22 1     
    4    2    3 1     
    5    2    4 1     
    6    3   23 1     
    7    3   24 1     
    8    3   25 1     
    9    4    5 1     
   10    4   26 1     
   11    4   27 1     
   12    5   20 1     
   13    5    6 1     
   14    5   44 1     
   15    6    7 1     
   16    6   28 1     
   17    6   29 1     
   18    7    8 1     
   19    7   30 1     
   20    7   31 1     
   21    8    9 1     
   22    8   19 1     
   23    8   32 1     
   24    9   10 am    
   25    9   33 1     
   26   10   11 2     
   27   10   12 am    
   28   12   13 1     
   29   12   34 1     
   30   13   18 2     
   31   13   14 1     
   32   14   15 2     
   33   14   35 1     
   34   15   16 1     
   35   16   17 1     
   36   16   18 1     
   37   17   36 1     
   38   17   37 1     
   39   17   38 1     
   40   18   39 1     
   41   19   20 1     
   42   19   40 1     
   43   19   41 1     
   44   20   42 1     
   45   20   43 1     
   46   11   45 1     
   47   11   46 1     
   48   15   47 1     
@<TRIPOS>SUBSTRUCTURE
      1 S1             1
@<TRIPOS>SET
LONE_PAIRS      STATIC     ATOMS    <user>   **** ""
3 45 46 47
DONOR_HYDROGENS      STATIC     ATOMS    <user>   **** ""
3 44 33 34
ATOM$BLUE        STATIC     ATOMS    COLORGROUP SYSTEM
3 45 46 47
ATOM$RED        STATIC     ATOMS    COLORGROUP SYSTEM
3 44 33 34
