AV-unprocessed.smi:649|AV-procd|sdf|3181|dock7
  -GOLD-   22720 0103D 1   1.00000     0.00000
 Structure written by MMmdl.
 34 35  0  0  0  0  0  0  0  0  2 V2000
  153.9611  140.5640  160.9994 C   0  0  0  0  0  0  0  0  0  0  0  0
  153.0821  141.7542  160.6764 C   0  0  0  0  0  0  0  0  0  0  0  0
  153.1052  142.8994  161.4926 C   0  0  0  0  0  0  0  0  0  0  0  0
  152.2970  144.0048  161.1723 C   0  0  0  0  0  0  0  0  0  0  0  0
  151.4607  143.9856  160.0350 C   0  0  0  0  0  0  0  0  0  0  0  0
  150.6290  145.2248  159.7456 C   0  0  0  0  0  0  0  0  0  0  0  0
  151.4295  142.8275  159.2072 C   0  0  0  0  0  0  0  0  0  0  0  0
  150.5854  142.7165  157.9320 C   0  0  1  0  0  0  0  0  0  0  0  0
  150.9913  143.5972  156.9047 O   0  0  0  0  0  0  0  0  0  0  0  0
  150.4755  141.2779  157.3704 C   0  0  0  0  0  0  0  0  0  0  0  0
  149.5116  141.1720  156.2635 N   0  0  0  0  0  0  0  0  0  0  0  0
  148.2224  141.6966  156.4620 C   0  0  0  0  0  0  0  0  0  0  0  0
  147.2878  141.6824  155.4925 C   0  0  0  0  0  0  0  0  0  0  0  0
  145.7175  142.3508  155.7604 Cl  0  0  0  0  0  0  0  0  0  0  0  0
  147.6449  141.0920  154.2043 C   0  0  0  0  0  0  0  0  0  0  0  0
  146.8146  141.0615  153.2969 O   0  0  0  0  0  0  0  0  0  0  0  0
  148.9076  140.5918  154.0640 N   0  5  0  0  0  0  0  0  0  0  0  0
  149.8468  140.6222  155.0591 C   0  0  0  0  0  0  0  0  0  0  0  0
  150.9847  140.1783  154.9047 O   0  0  0  0  0  0  0  0  0  0  0  0
  152.2450  141.7235  159.5454 C   0  0  0  0  0  0  0  0  0  0  0  0
  154.2823  140.5824  162.0412 H   0  0  0  0  0  0  0  0  0  0  0  0
  154.8481  140.5709  160.3655 H   0  0  0  0  0  0  0  0  0  0  0  0
  153.4230  139.6314  160.8273 H   0  0  0  0  0  0  0  0  0  0  0  0
  153.7444  142.9372  162.3623 H   0  0  0  0  0  0  0  0  0  0  0  0
  152.3289  144.8775  161.8077 H   0  0  0  0  0  0  0  0  0  0  0  0
  149.5736  145.0310  159.9360 H   0  0  0  0  0  0  0  0  0  0  0  0
  150.7462  145.5515  158.7145 H   0  0  0  0  0  0  0  0  0  0  0  0
  150.9294  146.0576  160.3819 H   0  0  0  0  0  0  0  0  0  0  0  0
  149.5757  143.0403  158.1872 H   0  0  0  0  0  0  0  0  0  0  0  0
  150.2564  144.1458  156.6775 H   0  0  0  0  0  0  0  0  0  0  0  0
  151.4583  140.9280  157.0498 H   0  0  0  0  0  0  0  0  0  0  0  0
  150.1871  140.5865  158.1611 H   0  0  0  0  0  0  0  0  0  0  0  0
  148.0464  142.1232  157.4386 H   0  0  0  0  0  0  0  0  0  0  0  0
  152.2447  140.8441  158.9174 H   0  0  0  0  0  0  0  0  0  0  0  0
  1  2  1  0  0  0  0
  1 21  1  0  0  0  0
  1 22  1  0  0  0  0
  1 23  1  0  0  0  0
  2 20  1  0  0  0  0
  2  3  2  0  0  0  0
  3  4  1  0  0  0  0
  3 24  1  0  0  0  0
  4  5  2  0  0  0  0
  4 25  1  0  0  0  0
  5  6  1  0  0  0  0
  5  7  1  0  0  0  0
  6 26  1  0  0  0  0
  6 27  1  0  0  0  0
  6 28  1  0  0  0  0
  7  8  1  0  0  0  0
  7 20  2  0  0  0  0
  8  9  1  0  0  0  0
  8 10  1  0  0  0  0
  8 29  1  0  0  0  0
  9 30  1  0  0  0  0
 10 11  1  0  0  0  0
 10 31  1  0  0  0  0
 10 32  1  0  0  0  0
 11 18  1  0  0  0  0
 11 12  1  0  0  0  0
 12 13  2  0  0  0  0
 12 33  1  0  0  0  0
 13 14  1  0  0  0  0
 13 15  1  0  0  0  0
 15 16  2  0  0  0  0
 15 17  1  0  0  0  0
 17 18  1  0  0  0  0
 18 19  2  0  0  0  0
 20 34  1  0  0  0  0
M  CHG  1  17  -1
M  END
> <s_m_source_file>
AV-unprocessed.smi

> <i_m_source_file_index>
649

> <i_lp_mmshare_version>
43012

> <i_f3d_flags>
0

> <s_epik_input>
W0NIM11jMVtjSF1bY0hdYyhbQ0gzXSljKFtjSF0xKVtDQEhdKFtPSF0pW0NIMl1uMltjSF1jKENsKWMoPU8pW25IXWMyPU8=

> <s_epik_cmdline>
J2VwaWtfcHl0aG9uJywgJy1waCcsICc3LjAnLCAnLXRuJywgJzgnLCAnLW1hJywgJzIwMCcsICctbWV0YWxfYmluZGluZycsICctaW1hZScsICc8aW5maWxlLm1hZT4nLCAnLW9tYWUnLCAnPG91dGZpbGUubWFlPic=

> <r_epik_Ionization_Penalty>
1.7979

> <r_epik_Ionization_Penalty_Charging>
3.23819e-08

> <r_epik_Ionization_Penalty_Neutral>
1.7979

> <r_epik_State_Penalty>
1.91135

> <r_epik_Charging_Adjusted_Penalty>
1.91135

> <i_epik_Tot_Q>
-1

> <i_epik_Tot_abs_Q>
1

> <r_epik_Metal_State_Penalty>
0.014155

> <b_epik_Metal_Only>
0

> <s_lp_Force_Field>
OPLS_2005

> <r_lp_Energy>
20.3663

> <b_lp_Chiralities_Consistent>
1

> <s_lp_Variant>
AV-unprocessed.smi:649-4

> <Gold.Version>
5.8.1

> <Gold.Id.Protein>
6NUR|6NUR_protein|mol2

> <Gold.PLP.Fitness>
47.5981

> <Gold.PLP.PLP>
-42.0827

> <Gold.PLP.part.hbond>
-2.0000

> <Gold.PLP.part.metal>
0.0000

> <Gold.PLP.part.buried>
-7.3105

> <Gold.PLP.part.nonpolar>
-32.9786

> <Gold.PLP.part.repulsive>
1.0265

> <Gold.PLP.ligand.clash>
0.0000

> <Gold.PLP.ligand.torsion>
0.2796

> <Gold.PLP.Chemscore.Hbond>
2.0000

> <Gold.PLP.Chemscore.CHOScore>
0.0000

> <Gold.PLP.Chemscore.Metal>
0.0000

> <Gold.Chemscore.Hbonds>
donor molecule, donor type, donor heavy atom, donor atom, acceptor molecule, acceptor atom, score
      L1  H     9    30       P1  8028  1.00
      P1  H  7989  7998       L1    19  1.00

> <Gold.PLP.Chemscore.Internal.Correction>
0.0745

> <Gold.Rescore>
     Score         DG    S(hbond)    S(metal)    S(lipo)     H(rot)  DE(clash)    DE(int)     intcor
     18.50     -19.00       1.92        0.00     106.40       2.09       0.30       0.20       ----

> <Gold.Chemscore.Fitness>
18.5042

> <Gold.Chemscore.DG>
-19.0039

> <Gold.Chemscore.ZeroCoef>
-5.4800

> <Gold.Chemscore.Hbond>
1.9214

> <Gold.Chemscore.Metal>
0.0000

> <Gold.Chemscore.Lipo>
106.3991

> <Gold.Chemscore.Internal_Hbond>
0.0000

> <Gold.Chemscore.DEClash>
0.2951

> <Gold.Chemscore.DEInternal>
0.2047

> <Gold.Chemscore.Rot>
2.0868

> <Gold.Chemscore.Internal.Correction>
   9.000000E+99

> <Gold.Chemscore.Hbonds>
donor molecule, donor type, donor heavy atom, donor atom, acceptor molecule, acceptor atom, score
      L1  H     9    30       P1  8028  0.98
      P1  H  7989  7998       L1    19  0.65

> <Gold.Chemscore.Hbond.Weighted>
-6.4175

> <Gold.Chemscore.Metal.Weighted>
-0.0000

> <Gold.Chemscore.Lipo.Weighted>
-12.4487

> <Gold.Chemscore.Internal_Hbond.Weighted>
0.0000

> <Gold.Chemscore.DEClash.Weighted>
0.2951

> <Gold.Chemscore.DEInternal.Weighted>
0.2047

> <Gold.Chemscore.Rot.Weighted>
5.3423

> <Gold.Chemscore.Internal.Correction.Weighted>
   9.000000E+99

> <Gold.Protein.RotatedTorsions>
[ 6907 6896 6895 6894 ] final  108.31 input  -60.11 | X-H torsion
[ 7974 7965 7964 7962 ] final   93.47 input  175.53 | X-H torsion
[ 8008 7997 7996 7995 ] final -158.13 input   59.86 | X-H torsion
[ 10167 10162 10161 10158 ] final  -80.35 input  -65.29 | X-H torsion
[ 10718 10713 10712 10709 ] final  145.68 input   66.30 | X-H torsion
[ 10763 10752 10751 10750 ] final  -56.48 input  -60.55 | X-H torsion
[ 11005 11000 10999 10996 ] final   66.12 input  -57.11 | X-H torsion

> <Gold.Protein.ActiveResidues>
 VAL166  LYS551  ARG553  GLY616  TRP617  ASP618  TYR619  PRO620  LYS621  CYS622 
 ASP623  PHE694  ASN695  SER759  ASP760  ASP761  ALA762  ILE779  LEU786  VAL792 
 PHE793  MET794  SER795  GLU796  ALA797  LYS798  CYS799  TRP800  GLU811  SER814 

> <Gold.Protein.RotatedAtoms>
  152.5117  133.9107  159.7486 H   0  0  0  0  0  0  0  0  0  0  0  0  # atno 6907 bound_to 6896
  150.9501  133.6550  159.2780 H   0  0  0  0  0  0  0  0  0  0  0  0  # atno 6908 bound_to 6896
  151.3832  135.0948  159.9555 H   0  0  0  0  0  0  0  0  0  0  0  0  # atno 6909 bound_to 6896
  145.4785  139.2279  143.2895 H   0  0  0  0  0  0  0  0  0  0  0  0  # atno 7974 bound_to 7965
  155.7430  140.0816  157.2237 H   0  0  0  0  0  0  0  0  0  0  0  0  # atno 8008 bound_to 7997
  154.4020  140.1574  156.2692 H   0  0  0  0  0  0  0  0  0  0  0  0  # atno 8009 bound_to 7997
  155.9003  140.3410  155.6024 H   0  0  0  0  0  0  0  0  0  0  0  0  # atno 8010 bound_to 7997
  140.4511  143.2483  151.8488 H   0  0  0  0  0  0  0  0  0  0  0  0  # atno 10167 bound_to 10162
  157.3423  131.0937  151.1072 H   0  0  0  0  0  0  0  0  0  0  0  0  # atno 10718 bound_to 10713
  154.2073  135.6400  153.5105 H   0  0  0  0  0  0  0  0  0  0  0  0  # atno 10763 bound_to 10752
  152.9998  135.5465  154.6252 H   0  0  0  0  0  0  0  0  0  0  0  0  # atno 10764 bound_to 10752
  154.5680  135.2914  155.0828 H   0  0  0  0  0  0  0  0  0  0  0  0  # atno 10765 bound_to 10752
  139.9852  134.6680  156.0190 H   0  0  0  0  0  0  0  0  0  0  0  0  # atno 11005 bound_to 11000
  146.2355  140.5569  142.8957 LP  0  0  0  0  0  0  0  0  0  0  0  0  # atno 17320 bound_to 7965
  144.7903  140.6018  143.6546 LP  0  0  0  0  0  0  0  0  0  0  0  0  # atno 17321 bound_to 7965
  139.4797  144.5119  151.8921 LP  0  0  0  0  0  0  0  0  0  0  0  0  # atno 17342 bound_to 10162
  140.4206  144.2248  150.5887 LP  0  0  0  0  0  0  0  0  0  0  0  0  # atno 17343 bound_to 10162
  157.2279  130.6511  149.5837 LP  0  0  0  0  0  0  0  0  0  0  0  0  # atno 17370 bound_to 10713
  155.9709  130.4608  150.6086 LP  0  0  0  0  0  0  0  0  0  0  0  0  # atno 17371 bound_to 10713
  141.1518  133.6547  156.4036 LP  0  0  0  0  0  0  0  0  0  0  0  0  # atno 17394 bound_to 11000
  140.5017  134.6479  157.5251 LP  0  0  0  0  0  0  0  0  0  0  0  0  # atno 17395 bound_to 11000

$$$$
