AV-unprocessed.smi:224|AV-procd|sdf|1721|dock7
  -GOLD-   2262020203D 1   1.00000     0.00000
 Structure written by MMmdl.
 56 59  0  0  0  0  0  0  0  0  2 V2000
  145.2287  132.1351  149.9874 C   0  0  0  0  0  0  0  0  0  0  0  0
  144.0517  132.5015  150.9008 C   0  0  2  0  0  0  0  0  0  0  0  0
  142.9535  132.8370  150.0761 O   0  0  0  0  0  0  0  0  0  0  0  0
  144.3882  133.6961  151.8169 C   0  0  0  0  0  0  0  0  0  0  0  0
  144.8355  133.2690  153.1740 N   0  3  1  0  0  0  0  0  0  0  0  0
  145.7937  132.1300  153.0880 C   0  0  0  0  0  0  0  0  0  0  0  0
  146.2364  131.6346  154.4743 C   0  0  0  0  0  0  0  0  0  0  0  0
  146.7447  132.7349  155.2853 N   0  0  0  0  0  0  0  0  0  0  0  0
  148.0651  133.0570  155.2320 C   0  0  0  0  0  0  0  0  0  0  0  0
  148.9742  132.1205  154.8500 N   0  0  0  0  0  0  0  0  0  0  0  0
  150.2737  132.4233  154.7836 C   0  0  0  0  0  0  0  0  0  0  0  0
  150.8739  133.5824  155.0570 N   0  0  0  0  0  0  0  0  0  0  0  0
  149.9730  134.5244  155.4570 C   0  0  0  0  0  0  0  0  0  0  0  0
  148.5640  134.3488  155.5686 C   0  0  0  0  0  0  0  0  0  0  0  0
  147.9778  135.5285  156.0124 N   0  0  0  0  0  0  0  0  0  0  0  0
  148.9790  136.3551  156.1439 C   0  0  0  0  0  0  0  0  0  0  0  0
  150.2159  135.8318  155.8416 N   0  0  0  0  0  0  0  0  0  0  0  0
  151.4939  136.5258  155.9045 C   0  0  0  0  0  0  0  0  0  0  0  0
  151.6658  137.6138  154.8166 C   0  0  2  0  0  0  0  0  0  0  0  0
  151.8173  136.9821  153.5580 O   0  0  0  0  0  0  0  0  0  0  0  0
  152.8806  138.5091  155.0721 C   0  0  0  0  0  0  0  0  0  0  0  0
  152.2652  139.8425  155.4793 C   0  0  0  0  0  0  0  0  0  0  0  0
  151.0925  139.8968  154.6874 O   0  0  0  0  0  0  0  0  0  0  0  0
  150.4917  138.6113  154.7457 C   0  0  0  0  0  0  0  0  0  0  0  0
  145.8042  133.8404  155.4172 C   0  0  0  0  0  0  0  0  0  0  0  0
  145.3476  134.3792  154.0414 C   0  0  2  0  0  0  0  0  0  0  0  0
  144.2997  135.4848  154.2888 C   0  0  0  0  0  0  0  0  0  0  0  0
  146.1055  131.8556  150.5720 H   0  0  0  0  0  0  0  0  0  0  0  0
  145.5104  132.9698  149.3442 H   0  0  0  0  0  0  0  0  0  0  0  0
  144.9801  131.2893  149.3454 H   0  0  0  0  0  0  0  0  0  0  0  0
  143.7866  131.6202  151.4837 H   0  0  0  0  0  0  0  0  0  0  0  0
  142.5719  133.6447  150.3833 H   0  0  0  0  0  0  0  0  0  0  0  0
  145.1665  134.3122  151.3640 H   0  0  0  0  0  0  0  0  0  0  0  0
  143.5088  134.3337  151.8545 H   0  0  0  0  0  0  0  0  0  0  0  0
  145.3499  131.2959  152.5465 H   0  0  0  0  0  0  0  0  0  0  0  0
  146.6658  132.4418  152.5117 H   0  0  0  0  0  0  0  0  0  0  0  0
  145.3854  131.1944  154.9952 H   0  0  0  0  0  0  0  0  0  0  0  0
  146.9776  130.8396  154.3827 H   0  0  0  0  0  0  0  0  0  0  0  0
  150.9261  131.6230  154.4668 H   0  0  0  0  0  0  0  0  0  0  0  0
  148.8430  137.3747  156.4748 H   0  0  0  0  0  0  0  0  0  0  0  0
  151.5945  136.9709  156.8952 H   0  0  0  0  0  0  0  0  0  0  0  0
  152.2878  135.7825  155.8239 H   0  0  0  0  0  0  0  0  0  0  0  0
  151.1080  137.2590  152.9980 H   0  0  0  0  0  0  0  0  0  0  0  0
  153.5582  138.1174  155.8315 H   0  0  0  0  0  0  0  0  0  0  0  0
  153.4619  138.6520  154.1597 H   0  0  0  0  0  0  0  0  0  0  0  0
  151.9978  139.8453  156.5373 H   0  0  0  0  0  0  0  0  0  0  0  0
  152.9243  140.6890  155.2850 H   0  0  0  0  0  0  0  0  0  0  0  0
  149.8238  138.4433  153.8998 H   0  0  0  0  0  0  0  0  0  0  0  0
  149.8883  138.5746  155.6528 H   0  0  0  0  0  0  0  0  0  0  0  0
  144.9409  133.4789  155.9776 H   0  0  0  0  0  0  0  0  0  0  0  0
  146.2233  134.6543  156.0069 H   0  0  0  0  0  0  0  0  0  0  0  0
  146.2115  134.8240  153.5443 H   0  0  0  0  0  0  0  0  0  0  0  0
  144.6445  136.1778  155.0568 H   0  0  0  0  0  0  0  0  0  0  0  0
  143.3525  135.0658  154.6301 H   0  0  0  0  0  0  0  0  0  0  0  0
  144.1050  136.0926  153.4068 H   0  0  0  0  0  0  0  0  0  0  0  0
  144.0136  132.9207  153.6458 H   0  0  0  0  0  0  0  0  0  0  0  0
  1  2  1  0  0  0  0
  1 28  1  0  0  0  0
  1 29  1  0  0  0  0
  1 30  1  0  0  0  0
  2  3  1  0  0  0  0
  2  4  1  0  0  0  0
  2 31  1  0  0  0  0
  3 32  1  0  0  0  0
  4  5  1  0  0  0  0
  4 33  1  0  0  0  0
  4 34  1  0  0  0  0
  5 26  1  0  0  0  0
  5  6  1  0  0  0  0
  5 56  1  0  0  0  0
  6  7  1  0  0  0  0
  6 35  1  0  0  0  0
  6 36  1  0  0  0  0
  7  8  1  0  0  0  0
  7 37  1  0  0  0  0
  7 38  1  0  0  0  0
  8  9  1  0  0  0  0
  8 25  1  0  0  0  0
  9 14  1  0  0  0  0
  9 10  2  0  0  0  0
 10 11  1  0  0  0  0
 11 12  2  0  0  0  0
 11 39  1  0  0  0  0
 12 13  1  0  0  0  0
 13 17  1  0  0  0  0
 13 14  2  0  0  0  0
 14 15  1  0  0  0  0
 15 16  2  0  0  0  0
 16 17  1  0  0  0  0
 16 40  1  0  0  0  0
 17 18  1  0  0  0  0
 18 19  1  0  0  0  0
 18 41  1  0  0  0  0
 18 42  1  0  0  0  0
 19 24  1  0  0  0  0
 19 20  1  0  0  0  0
 19 21  1  0  0  0  0
 20 43  1  0  0  0  0
 21 22  1  0  0  0  0
 21 44  1  0  0  0  0
 21 45  1  0  0  0  0
 22 23  1  0  0  0  0
 22 46  1  0  0  0  0
 22 47  1  0  0  0  0
 23 24  1  0  0  0  0
 24 48  1  0  0  0  0
 24 49  1  0  0  0  0
 25 26  1  0  0  0  0
 25 50  1  0  0  0  0
 25 51  1  0  0  0  0
 26 27  1  0  0  0  0
 26 52  1  0  0  0  0
 27 53  1  0  0  0  0
 27 54  1  0  0  0  0
 27 55  1  0  0  0  0
M  CHG  1   5   1
M  END
> <s_m_source_file>
AV-unprocessed.smi

> <i_m_source_file_index>
224

> <i_lp_mmshare_version>
43012

> <i_f3d_flags>
0

> <s_epik_input>
W0NIM11bQ0BIXShbT0hdKVtDSDJdTjFbQ0gyXVtDSDJdTihbQ0gyXVtDQEhdMVtDSDNdKWMobltjSF1uMiljKGMyMyluW2NIXW4zW0NIMl1bQ0BAXTQoW09IXSlbQ0gyXVtDSDJdT1tDSDJdNA==

> <s_epik_cmdline>
J2VwaWtfcHl0aG9uJywgJy1waCcsICc3LjAnLCAnLXRuJywgJzgnLCAnLW1hJywgJzIwMCcsICctbWV0YWxfYmluZGluZycsICctaW1hZScsICc8aW5maWxlLm1hZT4nLCAnLW9tYWUnLCAnPG91dGZpbGUubWFlPic=

> <r_lp_tautomer_probability>
1

> <r_epik_Ionization_Penalty>
0.00516958

> <r_epik_Ionization_Penalty_Charging>
0.00509693

> <r_epik_Ionization_Penalty_Neutral>
7.26542e-05

> <r_epik_State_Penalty>
-0

> <r_epik_Charging_Adjusted_Penalty>
0.00509693

> <i_epik_Tot_Q>
1

> <i_epik_Tot_abs_Q>
1

> <r_epik_Metal_State_Penalty>
-0

> <b_epik_Metal_Only>
0

> <s_lp_Force_Field>
OPLS_2005

> <r_lp_Energy>
50.3432

> <b_lp_Chiralities_Consistent>
1

> <s_lp_Variant>
AV-unprocessed.smi:224-15

> <Gold.Version>
5.8.1

> <Gold.Id.Protein>
6NUR|6NUR_protein|mol2

> <Gold.PLP.Fitness>
47.9651

> <Gold.PLP.PLP>
-36.3110

> <Gold.PLP.part.hbond>
-5.3791

> <Gold.PLP.part.metal>
0.0000

> <Gold.PLP.part.buried>
-6.5081

> <Gold.PLP.part.nonpolar>
-24.8993

> <Gold.PLP.part.repulsive>
0.1898

> <Gold.PLP.ligand.clash>
0.0000

> <Gold.PLP.ligand.torsion>
1.2407

> <Gold.PLP.Chemscore.Hbond>
4.4844

> <Gold.PLP.Chemscore.CHOScore>
0.0000

> <Gold.PLP.Chemscore.Metal>
0.0000

> <Gold.Chemscore.Hbonds>
donor molecule, donor type, donor heavy atom, donor atom, acceptor molecule, acceptor atom, score
      L1  H     3    32       P1 10186  0.45
      L1  H     5    56       P1 10957  1.62
      L1  H    20    43       P1  7949  0.08
      P1  H  7989  7998       L1    23  0.95
      P1  H 10752 10763       L1    20  0.90

> <Gold.PLP.Chemscore.Internal.Correction>
0.6823

> <Gold.Rescore>
     Score         DG    S(hbond)    S(metal)    S(lipo)     H(rot)  DE(clash)    DE(int)     intcor
     12.21     -15.07       3.06        0.00      68.21       3.36       0.12       2.74       ----

> <Gold.Chemscore.Fitness>
12.2079

> <Gold.Chemscore.DG>
-15.0650

> <Gold.Chemscore.ZeroCoef>
-5.4800

> <Gold.Chemscore.Hbond>
3.0565

> <Gold.Chemscore.Metal>
0.0000

> <Gold.Chemscore.Lipo>
68.2112

> <Gold.Chemscore.Internal_Hbond>
0.0000

> <Gold.Chemscore.DEClash>
0.1214

> <Gold.Chemscore.DEInternal>
2.7357

> <Gold.Chemscore.Rot>
3.3611

> <Gold.Chemscore.Internal.Correction>
   9.000000E+99

> <Gold.Chemscore.Hbonds>
donor molecule, donor type, donor heavy atom, donor atom, acceptor molecule, acceptor atom, score
      L1  H     3    32       P1 10186  0.43
      L1  H     5    56       P1 10957  0.66
      L1  H    20    43       P1  7949  0.05
      P1  H  7989  7998       L1    23  0.21
      P1  H 10752 10763       L1    20  0.18

> <Gold.Chemscore.Hbond.Weighted>
-10.2088

> <Gold.Chemscore.Metal.Weighted>
-0.0000

> <Gold.Chemscore.Lipo.Weighted>
-7.9807

> <Gold.Chemscore.Internal_Hbond.Weighted>
0.0000

> <Gold.Chemscore.DEClash.Weighted>
0.1214

> <Gold.Chemscore.DEInternal.Weighted>
2.7357

> <Gold.Chemscore.Rot.Weighted>
8.6045

> <Gold.Chemscore.Internal.Correction.Weighted>
   9.000000E+99

> <Gold.Protein.RotatedTorsions>
[ 6907 6896 6895 6894 ] final   36.26 input  -60.11 | X-H torsion
[ 7974 7965 7964 7962 ] final   50.29 input  175.53 | X-H torsion
[ 8008 7997 7996 7995 ] final   84.64 input   59.86 | X-H torsion
[ 10167 10162 10161 10158 ] final -152.34 input  -65.29 | X-H torsion
[ 10718 10713 10712 10709 ] final   33.08 input   66.30 | X-H torsion
[ 10763 10752 10751 10750 ] final   29.04 input  -60.55 | X-H torsion
[ 11005 11000 10999 10996 ] final   28.38 input  -57.11 | X-H torsion

> <Gold.Protein.ActiveResidues>
 VAL166  LYS551  ARG553  GLY616  TRP617  ASP618  TYR619  PRO620  LYS621  CYS622 
 ASP623  PHE694  ASN695  SER759  ASP760  ASP761  ALA762  ILE779  LEU786  VAL792 
 PHE793  MET794  SER795  GLU796  ALA797  LYS798  CYS799  TRP800  GLU811  SER814 

> <Gold.Protein.RotatedAtoms>
  152.1273  134.9161  160.0560 H   0  0  0  0  0  0  0  0  0  0  0  0  # atno 6907 bound_to 6896
  152.0279  133.3920  159.4293 H   0  0  0  0  0  0  0  0  0  0  0  0  # atno 6908 bound_to 6896
  150.6853  134.3474  159.4938 H   0  0  0  0  0  0  0  0  0  0  0  0  # atno 6909 bound_to 6896
  146.0026  139.4456  143.0005 H   0  0  0  0  0  0  0  0  0  0  0  0  # atno 7974 bound_to 7965
  155.9397  140.3409  155.6317 H   0  0  0  0  0  0  0  0  0  0  0  0  # atno 8008 bound_to 7997
  155.7055  140.0765  157.2411 H   0  0  0  0  0  0  0  0  0  0  0  0  # atno 8009 bound_to 7997
  154.4100  140.1632  156.2225 H   0  0  0  0  0  0  0  0  0  0  0  0  # atno 8010 bound_to 7997
  139.7190  143.8987  152.2496 H   0  0  0  0  0  0  0  0  0  0  0  0  # atno 10167 bound_to 10162
  157.2933  130.7314  149.6623 H   0  0  0  0  0  0  0  0  0  0  0  0  # atno 10718 bound_to 10713
  153.0455  135.6499  154.0829 H   0  0  0  0  0  0  0  0  0  0  0  0  # atno 10763 bound_to 10752
  154.0528  135.2894  155.3339 H   0  0  0  0  0  0  0  0  0  0  0  0  # atno 10764 bound_to 10752
  154.6709  135.5356  153.8202 H   0  0  0  0  0  0  0  0  0  0  0  0  # atno 10765 bound_to 10752
  140.3162  134.2594  155.7725 H   0  0  0  0  0  0  0  0  0  0  0  0  # atno 11005 bound_to 11000
  145.7464  140.9989  143.1274 LP  0  0  0  0  0  0  0  0  0  0  0  0  # atno 17320 bound_to 7965
  144.6925  139.9161  143.7466 LP  0  0  0  0  0  0  0  0  0  0  0  0  # atno 17321 bound_to 7965
  139.8878  144.6982  150.8805 LP  0  0  0  0  0  0  0  0  0  0  0  0  # atno 17342 bound_to 10162
  140.7750  143.3610  151.1828 LP  0  0  0  0  0  0  0  0  0  0  0  0  # atno 17343 bound_to 10162
  155.9668  130.4302  150.4866 LP  0  0  0  0  0  0  0  0  0  0  0  0  # atno 17370 bound_to 10713
  157.2833  131.0611  151.2183 LP  0  0  0  0  0  0  0  0  0  0  0  0  # atno 17371 bound_to 10713
  141.2097  133.7741  156.9980 LP  0  0  0  0  0  0  0  0  0  0  0  0  # atno 17394 bound_to 11000
  140.0981  134.9552  157.1881 LP  0  0  0  0  0  0  0  0  0  0  0  0  # atno 17395 bound_to 11000

$$$$
