#       Name:                AV-unprocessed.smi:1679
#       Creating user name   scv26
#       Creation time:       Fri Mar 27 07:48:14 2020


#       File generated by GOLD software.
#

@<TRIPOS>MOLECULE
AV-unprocessed.smi:1679
    53    54     1
SMALL
NO_CHARGES


@<TRIPOS>ATOM
      1 ****        -1.6859  -0.4682   0.5398 C.3            1 S1                 0.0000
      2 ****        -2.0582   0.4363  -0.6443 C.3            1 S1                 0.0000
      3 ****        -1.5158   1.8677  -0.4660 C.3            1 S1                 0.0000
      4 ****        -1.9570   2.7827  -1.6189 C.3            1 S1                 0.0000
      5 ****        -1.5319   2.2071  -2.9780 C.3            1 S1                 0.0000
      6 ****        -2.0527   0.7719  -3.1658 C.3            1 S1                 0.0000
      7 ****        -1.6278  -0.1524  -2.0092 C.3            1 S1                 0.0000
      8 ****        -0.2115  -0.2914  -2.0659 O.3            1 S1                 0.0000
      9 ****         0.2479  -1.6338  -2.0272 C.3            1 S1                 0.0000
     10 ****         1.7842  -1.6456  -1.9936 C.3            1 S1                 0.0000
     11 ****         2.3190  -0.9866  -0.8062 N.am           1 S1                 0.0000
     12 ****         2.2831  -1.4829   0.4396 C.2            1 S1                 0.0000
     13 ****         1.7901  -2.5767   0.7171 O.2            1 S1                 0.0000
     14 ****         2.9329  -0.6302   1.5358 C.3            1 S1                 0.0000
     15 ****         2.0067  -0.3670   2.6477 N.am           1 S1                 0.0000
     16 ****         1.9972  -1.2740   3.7221 C.2            1 S1                 0.0000
     17 ****         1.1651  -1.1248   4.7704 C.2            1 S1                 0.0000
     18 ****         0.2563   0.0149   4.7732 C.2            1 S1                 0.0000
     19 ****        -0.5126   0.1657   5.7206 O.2            1 S1                 0.0000
     20 ****         0.3060   0.8690   3.7096 N.pl3          1 S1                -1.0000
     21 ****         1.1585   0.7048   2.6511 C.2            1 S1                 0.0000
     22 ****         1.1864   1.4878   1.7015 O.2            1 S1                 0.0000
     23 ****        -0.6063  -0.5733   0.6356 H              1 S1                 0.0000
     24 ****        -2.1090  -1.4658   0.4222 H              1 S1                 0.0000
     25 ****        -2.0591  -0.0591   1.4791 H              1 S1                 0.0000
     26 ****        -3.1472   0.5030  -0.6518 H              1 S1                 0.0000
     27 ****        -1.8584   2.2826   0.4824 H              1 S1                 0.0000
     28 ****        -0.4267   1.8472  -0.4173 H              1 S1                 0.0000
     29 ****        -3.0406   2.9038  -1.5947 H              1 S1                 0.0000
     30 ****        -1.5313   3.7776  -1.4869 H              1 S1                 0.0000
     31 ****        -1.9004   2.8439  -3.7824 H              1 S1                 0.0000
     32 ****        -0.4438   2.2155  -3.0526 H              1 S1                 0.0000
     33 ****        -3.1413   0.7909  -3.2305 H              1 S1                 0.0000
     34 ****        -1.6972   0.3686  -4.1144 H              1 S1                 0.0000
     35 ****        -2.1183  -1.1170  -2.1552 H              1 S1                 0.0000
     36 ****        -0.1590  -2.1598  -1.1632 H              1 S1                 0.0000
     37 ****        -0.1025  -2.1606  -2.9157 H              1 S1                 0.0000
     38 ****         2.1516  -2.6718  -2.0370 H              1 S1                 0.0000
     39 ****         2.1776  -1.1378  -2.8745 H              1 S1                 0.0000
     40 ****         2.7370  -0.0771  -0.9390 H              1 S1                 0.0000
     41 ****         3.8131  -1.1603   1.9016 H              1 S1                 0.0000
     42 ****         3.3184   0.3012   1.1167 H              1 S1                 0.0000
     43 ****         2.6956  -2.0935   3.6366 H              1 S1                 0.0000
     44 ****         1.1674  -1.8323   5.5863 H              1 S1                 0.0000
     45 ****         0.1821   0.1965  -1.2867 LP             1 S1                 0.0000
     46 ****         0.1098   0.1247  -2.9165 LP             1 S1                 0.0000
     47 ****         1.3902  -3.1423  -0.0041 LP             1 S1                 0.0000
     48 ****         1.7897  -2.8993   1.6637 LP             1 S1                 0.0000
     49 ****        -0.5092  -0.4891   6.4764 LP             1 S1                 0.0000
     50 ****        -1.1414   0.9431   5.7354 LP             1 S1                 0.0000
     51 ****        -0.3121   1.6551   3.7033 LP             1 S1                 0.0000
     52 ****         1.8222   1.3340   0.9452 LP             1 S1                 0.0000
     53 ****         0.5733   2.2776   1.6865 LP             1 S1                 0.0000
@<TRIPOS>BOND
    1    1    2 1     
    2    1   23 1     
    3    1   24 1     
    4    1   25 1     
    5    2    7 1     
    6    2    3 1     
    7    2   26 1     
    8    3    4 1     
    9    3   27 1     
   10    3   28 1     
   11    4    5 1     
   12    4   29 1     
   13    4   30 1     
   14    5    6 1     
   15    5   31 1     
   16    5   32 1     
   17    6    7 1     
   18    6   33 1     
   19    6   34 1     
   20    7    8 1     
   21    7   35 1     
   22    8    9 1     
   23    9   10 1     
   24    9   36 1     
   25    9   37 1     
   26   10   11 1     
   27   10   38 1     
   28   10   39 1     
   29   11   12 am    
   30   11   40 1     
   31   12   13 2     
   32   12   14 1     
   33   14   15 1     
   34   14   41 1     
   35   14   42 1     
   36   15   21 am    
   37   15   16 1     
   38   16   17 2     
   39   16   43 1     
   40   17   18 1     
   41   17   44 1     
   42   18   19 2     
   43   18   20 1     
   44   20   21 1     
   45   21   22 2     
   46    8   45 1     
   47    8   46 1     
   48   13   47 1     
   49   13   48 1     
   50   19   49 1     
   51   19   50 1     
   52   20   51 1     
   53   22   52 1     
   54   22   53 1     
@<TRIPOS>SUBSTRUCTURE
      1 S1             1
@<TRIPOS>SET
LONE_PAIRS      STATIC     ATOMS    <user>   **** ""
9 45 46 47 48 49 50 51 52 53
DONOR_HYDROGENS      STATIC     ATOMS    <user>   **** ""
1 40
ATOM$BLUE        STATIC     ATOMS    COLORGROUP SYSTEM
9 45 46 47 48 49 50 51 52 53
ATOM$RED        STATIC     ATOMS    COLORGROUP SYSTEM
1 40
