AV-unprocessed.smi:1579|AV-procd|sdf|6356|dock2
  -GOLD-   22720 6573D 1   1.00000     0.00000
 Structure written by MMmdl.
 47 48  0  0  0  0  0  0  0  0  2 V2000
  147.4437  137.2612  157.1795 C   0  0  0  0  0  0  0  0  0  0  0  0
  148.1531  138.2021  156.2435 C   0  0  0  0  0  0  0  0  0  0  0  0
  147.4681  138.6558  155.2456 N   0  0  0  0  0  0  0  0  0  0  0  0
  148.0228  139.5239  154.3256 N   0  0  0  0  0  0  0  0  0  0  0  0
  147.0964  139.9267  153.2587 C   0  0  0  0  0  0  0  0  0  0  0  0
  146.7846  138.7752  152.2775 C   0  0  2  0  0  0  0  0  0  0  0  0
  146.1137  139.3386  151.1673 O   0  0  0  0  0  0  0  0  0  0  0  0
  145.8993  137.6685  152.8939 C   0  0  0  0  0  0  0  0  0  0  0  0
  146.1423  136.3257  152.3060 N   0  3  2  0  0  0  0  0  0  0  0  0
  145.2316  136.0463  151.1658 C   0  0  0  0  0  0  0  0  0  0  0  0
  145.5817  134.7124  150.4822 C   0  0  0  0  0  0  0  0  0  0  0  0
  145.5812  133.5338  151.4719 C   0  0  2  0  0  0  0  0  0  0  0  0
  144.1628  133.1098  151.8924 C   0  0  0  0  0  0  0  0  0  0  0  0
  146.4813  133.8767  152.6725 C   0  0  0  0  0  0  0  0  0  0  0  0
  146.1128  135.2284  153.3103 C   0  0  0  0  0  0  0  0  0  0  0  0
  149.3051  139.9867  154.3719 C   0  0  0  0  0  0  0  0  0  0  0  0
  149.7557  140.7775  153.5419 O   0  0  0  0  0  0  0  0  0  0  0  0
  150.0762  139.4684  155.5040 C   0  0  0  0  0  0  0  0  0  0  0  0
  151.4242  139.9295  155.5897 C   0  0  0  0  0  0  0  0  0  0  0  0
  152.5234  140.2871  155.6484 N   0  0  0  0  0  0  0  0  0  0  0  0
  149.5430  138.6130  156.4116 C   0  0  0  0  0  0  0  0  0  0  0  0
  150.3011  138.0484  157.6052 C   0  0  0  0  0  0  0  0  0  0  0  0
  147.9547  136.2993  157.2224 H   0  0  0  0  0  0  0  0  0  0  0  0
  146.4157  137.0731  156.8662 H   0  0  0  0  0  0  0  0  0  0  0  0
  147.4098  137.6717  158.1888 H   0  0  0  0  0  0  0  0  0  0  0  0
  146.1698  140.3396  153.6621 H   0  0  0  0  0  0  0  0  0  0  0  0
  147.5535  140.7531  152.7104 H   0  0  0  0  0  0  0  0  0  0  0  0
  147.7276  138.3645  151.9186 H   0  0  0  0  0  0  0  0  0  0  0  0
  145.2938  138.8867  151.0410 H   0  0  0  0  0  0  0  0  0  0  0  0
  146.0527  137.6010  153.9712 H   0  0  0  0  0  0  0  0  0  0  0  0
  144.8542  137.9497  152.7541 H   0  0  0  0  0  0  0  0  0  0  0  0
  144.1979  136.0403  151.5145 H   0  0  0  0  0  0  0  0  0  0  0  0
  145.3090  136.8490  150.4311 H   0  0  0  0  0  0  0  0  0  0  0  0
  144.8891  134.5184  149.6625 H   0  0  0  0  0  0  0  0  0  0  0  0
  146.5701  134.7971  150.0282 H   0  0  0  0  0  0  0  0  0  0  0  0
  146.0220  132.6751  150.9633 H   0  0  0  0  0  0  0  0  0  0  0  0
  143.6299  133.9066  152.4104 H   0  0  0  0  0  0  0  0  0  0  0  0
  144.1949  132.2481  152.5597 H   0  0  0  0  0  0  0  0  0  0  0  0
  143.5670  132.8268  151.0241 H   0  0  0  0  0  0  0  0  0  0  0  0
  146.4326  133.0840  153.4200 H   0  0  0  0  0  0  0  0  0  0  0  0
  147.5200  133.9138  152.3408 H   0  0  0  0  0  0  0  0  0  0  0  0
  146.8158  135.4325  154.1166 H   0  0  0  0  0  0  0  0  0  0  0  0
  145.1240  135.1758  153.7678 H   0  0  0  0  0  0  0  0  0  0  0  0
  151.3281  138.4097  157.6504 H   0  0  0  0  0  0  0  0  0  0  0  0
  150.3400  136.9600  157.5536 H   0  0  0  0  0  0  0  0  0  0  0  0
  149.8136  138.3315  158.5385 H   0  0  0  0  0  0  0  0  0  0  0  0
  147.0744  136.3483  151.9179 H   0  0  0  0  0  0  0  0  0  0  0  0
  1  2  1  0  0  0  0
  1 23  1  0  0  0  0
  1 24  1  0  0  0  0
  1 25  1  0  0  0  0
  2 21  1  0  0  0  0
  2  3  2  0  0  0  0
  3  4  1  0  0  0  0
  4  5  1  0  0  0  0
  4 16  1  0  0  0  0
  5  6  1  0  0  0  0
  5 26  1  0  0  0  0
  5 27  1  0  0  0  0
  6  7  1  0  0  0  0
  6  8  1  0  0  0  0
  6 28  1  0  0  0  0
  7 29  1  0  0  0  0
  8  9  1  0  0  0  0
  8 30  1  0  0  0  0
  8 31  1  0  0  0  0
  9 15  1  0  0  0  0
  9 10  1  0  0  0  0
  9 47  1  0  0  0  0
 10 11  1  0  0  0  0
 10 32  1  0  0  0  0
 10 33  1  0  0  0  0
 11 12  1  0  0  0  0
 11 34  1  0  0  0  0
 11 35  1  0  0  0  0
 12 13  1  0  0  0  0
 12 14  1  0  0  0  0
 12 36  1  0  0  0  0
 13 37  1  0  0  0  0
 13 38  1  0  0  0  0
 13 39  1  0  0  0  0
 14 15  1  0  0  0  0
 14 40  1  0  0  0  0
 14 41  1  0  0  0  0
 15 42  1  0  0  0  0
 15 43  1  0  0  0  0
 16 17  2  0  0  0  0
 16 18  1  0  0  0  0
 18 19  1  0  0  0  0
 18 21  2  0  0  0  0
 19 20  3  0  0  0  0
 21 22  1  0  0  0  0
 22 44  1  0  0  0  0
 22 45  1  0  0  0  0
 22 46  1  0  0  0  0
M  CHG  1   9   1
M  END
> <s_m_source_file>
AV-unprocessed.smi

> <i_m_source_file_index>
1579

> <i_lp_mmshare_version>
43012

> <i_f3d_flags>
0

> <s_epik_input>
TiNDYyhjMVtDSDNdKWMoPU8pbihuYzFbQ0gzXSlbQ0gyXVtDQEhdKFtPSF0pW0NIMl1OMltDSDJdW0NIMl1bQ0hdKFtDSDNdKVtDSDJdW0NIMl0y

> <s_epik_cmdline>
J2VwaWtfcHl0aG9uJywgJy1waCcsICc3LjAnLCAnLXRuJywgJzgnLCAnLW1hJywgJzIwMCcsICctbWV0YWxfYmluZGluZycsICctaW1hZScsICc8aW5maWxlLm1hZT4nLCAnLW9tYWUnLCAnPG91dGZpbGUubWFlPic=

> <r_epik_Ionization_Penalty>
0.00136816

> <r_epik_Ionization_Penalty_Charging>
0.00136813

> <r_epik_Ionization_Penalty_Neutral>
3.19884e-08

> <r_epik_State_Penalty>
0.000910892

> <r_epik_Charging_Adjusted_Penalty>
0.00227902

> <i_epik_Tot_Q>
1

> <i_epik_Tot_abs_Q>
1

> <r_epik_Metal_State_Penalty>
-0

> <b_epik_Metal_Only>
0

> <s_lp_Force_Field>
OPLS_2005

> <r_lp_Energy>
38.3008

> <b_lp_Chiralities_Consistent>
1

> <s_lp_Variant>
AV-unprocessed.smi:1579-3

> <Gold.Version>
5.8.1

> <Gold.Id.Protein>
6NUR|6NUR_protein|mol2

> <Gold.PLP.Fitness>
41.7268

> <Gold.PLP.PLP>
-27.8271

> <Gold.PLP.part.hbond>
-6.3694

> <Gold.PLP.part.metal>
0.0000

> <Gold.PLP.part.buried>
2.1525

> <Gold.PLP.part.nonpolar>
-25.1581

> <Gold.PLP.part.repulsive>
4.0679

> <Gold.PLP.ligand.clash>
0.0000

> <Gold.PLP.ligand.torsion>
1.0139

> <Gold.PLP.Chemscore.Hbond>
5.2873

> <Gold.PLP.Chemscore.CHOScore>
0.0000

> <Gold.PLP.Chemscore.Metal>
0.0000

> <Gold.Chemscore.Hbonds>
donor molecule, donor type, donor heavy atom, donor atom, acceptor molecule, acceptor atom, score
      L1  H     7    29       P1 10171  0.86
      L1  H     9    47       P1  7948  2.00
      P1  H  7989  7998       L1    17  0.37
      P1  H  7997  8010       L1    20  1.00
      P1  H  8011  8017       L1    17  0.99

> <Gold.PLP.Chemscore.Internal.Correction>
0.0657

> <Gold.Rescore>
     Score         DG    S(hbond)    S(metal)    S(lipo)     H(rot)  DE(clash)    DE(int)     intcor
     16.37     -20.22       3.92        0.00      61.55       2.17       2.62       1.23       ----

> <Gold.Chemscore.Fitness>
16.3701

> <Gold.Chemscore.DG>
-20.2213

> <Gold.Chemscore.ZeroCoef>
-5.4800

> <Gold.Chemscore.Hbond>
3.9220

> <Gold.Chemscore.Metal>
0.0000

> <Gold.Chemscore.Lipo>
61.5455

> <Gold.Chemscore.Internal_Hbond>
0.0000

> <Gold.Chemscore.DEClash>
2.6219

> <Gold.Chemscore.DEInternal>
1.2293

> <Gold.Chemscore.Rot>
2.1715

> <Gold.Chemscore.Internal.Correction>
   9.000000E+99

> <Gold.Chemscore.Hbonds>
donor molecule, donor type, donor heavy atom, donor atom, acceptor molecule, acceptor atom, score
      L1  H     7    29       P1 10171  0.85
      L1  H     9    47       P1  7948  1.00
      P1  H  7989  7998       L1    17  0.35
      P1  H  7997  8010       L1    20  0.98
      P1  H  8011  8017       L1    17  0.91

> <Gold.Chemscore.Hbond.Weighted>
-13.0996

> <Gold.Chemscore.Metal.Weighted>
-0.0000

> <Gold.Chemscore.Lipo.Weighted>
-7.2008

> <Gold.Chemscore.Internal_Hbond.Weighted>
0.0000

> <Gold.Chemscore.DEClash.Weighted>
2.6219

> <Gold.Chemscore.DEInternal.Weighted>
1.2293

> <Gold.Chemscore.Rot.Weighted>
5.5591

> <Gold.Chemscore.Internal.Correction.Weighted>
   9.000000E+99

> <Gold.Protein.RotatedTorsions>
[ 6907 6896 6895 6894 ] final    3.10 input  -60.11 | X-H torsion
[ 7974 7965 7964 7962 ] final -139.35 input  175.53 | X-H torsion
[ 8008 7997 7996 7995 ] final   84.08 input   59.86 | X-H torsion
[ 10167 10162 10161 10158 ] final   55.24 input  -65.29 | X-H torsion
[ 10718 10713 10712 10709 ] final  -70.58 input   66.30 | X-H torsion
[ 10763 10752 10751 10750 ] final -152.72 input  -60.55 | X-H torsion
[ 11005 11000 10999 10996 ] final  -49.60 input  -57.11 | X-H torsion

> <Gold.Protein.ActiveResidues>
 VAL166  LYS551  ARG553  GLY616  TRP617  ASP618  TYR619  PRO620  LYS621  CYS622 
 ASP623  PHE694  ASN695  SER759  ASP760  ASP761  ALA762  ILE779  LEU786  VAL792 
 PHE793  MET794  SER795  GLU796  ALA797  LYS798  CYS799  TRP800  GLU811  SER814 

> <Gold.Protein.RotatedAtoms>
  151.6196  135.1033  160.0098 H   0  0  0  0  0  0  0  0  0  0  0  0  # atno 6907 bound_to 6896
  152.4165  133.7042  159.6452 H   0  0  0  0  0  0  0  0  0  0  0  0  # atno 6908 bound_to 6896
  150.8053  133.8448  159.3230 H   0  0  0  0  0  0  0  0  0  0  0  0  # atno 6909 bound_to 6896
  144.8684  140.6329  143.5283 H   0  0  0  0  0  0  0  0  0  0  0  0  # atno 7974 bound_to 7965
  155.9324  140.3414  155.6259 H   0  0  0  0  0  0  0  0  0  0  0  0  # atno 8008 bound_to 7997
  155.7141  140.0775  157.2377 H   0  0  0  0  0  0  0  0  0  0  0  0  # atno 8009 bound_to 7997
  154.4087  140.1617  156.2317 H   0  0  0  0  0  0  0  0  0  0  0  0  # atno 8010 bound_to 7997
  140.2216  144.3783  150.6448 H   0  0  0  0  0  0  0  0  0  0  0  0  # atno 10167 bound_to 10162
  156.0401  130.4334  150.2316 H   0  0  0  0  0  0  0  0  0  0  0  0  # atno 10718 bound_to 10713
  154.7975  135.3229  154.7630 H   0  0  0  0  0  0  0  0  0  0  0  0  # atno 10763 bound_to 10752
  153.8305  135.6880  153.4819 H   0  0  0  0  0  0  0  0  0  0  0  0  # atno 10764 bound_to 10752
  153.1675  135.4636  154.9799 H   0  0  0  0  0  0  0  0  0  0  0  0  # atno 10765 bound_to 10752
  141.0768  133.6663  156.3609 H   0  0  0  0  0  0  0  0  0  0  0  0  # atno 11005 bound_to 11000
  145.4177  139.1569  143.4091 LP  0  0  0  0  0  0  0  0  0  0  0  0  # atno 17320 bound_to 7965
  146.2912  140.4285  142.8738 LP  0  0  0  0  0  0  0  0  0  0  0  0  # atno 17321 bound_to 7965
  140.6251  143.2180  151.6613 LP  0  0  0  0  0  0  0  0  0  0  0  0  # atno 17342 bound_to 10162
  139.5142  144.3418  152.0733 LP  0  0  0  0  0  0  0  0  0  0  0  0  # atno 17343 bound_to 10162
  157.0412  131.0036  151.3283 LP  0  0  0  0  0  0  0  0  0  0  0  0  # atno 17370 bound_to 10713
  157.5208  130.7997  149.7807 LP  0  0  0  0  0  0  0  0  0  0  0  0  # atno 17371 bound_to 10713
  140.5555  134.5986  157.5419 LP  0  0  0  0  0  0  0  0  0  0  0  0  # atno 17394 bound_to 11000
  139.9581  134.7500  156.0297 LP  0  0  0  0  0  0  0  0  0  0  0  0  # atno 17395 bound_to 11000

$$$$
