AV-unprocessed.smi:1048|AV-procd|sdf|4607|dock5
  -GOLD-   22720 3103D 1   1.00000     0.00000
 Structure written by MMmdl.
 46 47  0  0  0  0  0  0  0  0  2 V2000
  143.1412  135.7382  152.7248 C   0  0  0  0  0  0  0  0  0  0  0  0
  144.6325  135.3659  152.6559 C   0  0  2  0  0  0  0  0  0  0  0  0
  145.4291  135.8641  153.8761 C   0  0  0  0  0  0  0  0  0  0  0  0
  145.6711  137.3836  153.8345 C   0  0  0  0  0  0  0  0  0  0  0  0
  146.3425  137.7850  152.5704 N   0  3  2  0  0  0  0  0  0  0  0  0
  146.7232  139.2205  152.5385 C   0  0  0  0  0  0  0  0  0  0  0  0
  147.7294  139.5866  153.6489 C   0  0  1  0  0  0  0  0  0  0  0  0
  148.5746  138.4660  153.8223 O   0  0  0  0  0  0  0  0  0  0  0  0
  148.5973  140.7967  153.2466 C   0  0  0  0  0  0  0  0  0  0  0  0
  148.9349  141.6369  154.3918 N   0  0  0  0  0  0  0  0  0  0  0  0
  149.9660  141.4261  155.2223 C   0  0  0  0  0  0  0  0  0  0  0  0
  150.7284  140.4656  155.1226 O   0  0  0  0  0  0  0  0  0  0  0  0
  150.0331  142.3773  156.1695 N   0  0  0  0  0  0  0  0  0  0  0  0
  150.9959  142.5280  157.2043 C   0  0  0  0  0  0  0  0  0  0  0  0
  151.4518  143.8295  157.4990 C   0  0  0  0  0  0  0  0  0  0  0  0
  152.4194  144.0071  158.5062 C   0  0  0  0  0  0  0  0  0  0  0  0
  152.9034  142.8678  159.1776 C   0  0  0  0  0  0  0  0  0  0  0  0
  152.4906  141.6137  158.8982 N   0  0  0  0  0  0  0  0  0  0  0  0
  151.5611  141.4508  157.9320 C   0  0  0  0  0  0  0  0  0  0  0  0
  145.5548  137.3794  151.3785 C   0  0  0  0  0  0  0  0  0  0  0  0
  145.3099  135.8598  151.3646 C   0  0  0  0  0  0  0  0  0  0  0  0
  142.9844  136.8165  152.7275 H   0  0  0  0  0  0  0  0  0  0  0  0
  142.6807  135.3360  153.6274 H   0  0  0  0  0  0  0  0  0  0  0  0
  142.5980  135.3293  151.8724 H   0  0  0  0  0  0  0  0  0  0  0  0
  144.6781  134.2759  152.6556 H   0  0  0  0  0  0  0  0  0  0  0  0
  144.9164  135.5910  154.7992 H   0  0  0  0  0  0  0  0  0  0  0  0
  146.3932  135.3544  153.9050 H   0  0  0  0  0  0  0  0  0  0  0  0
  144.7277  137.9219  153.9358 H   0  0  0  0  0  0  0  0  0  0  0  0
  146.2825  137.6664  154.6907 H   0  0  0  0  0  0  0  0  0  0  0  0
  147.1716  139.4656  151.5742 H   0  0  0  0  0  0  0  0  0  0  0  0
  145.8230  139.8322  152.6148 H   0  0  0  0  0  0  0  0  0  0  0  0
  147.2094  139.8000  154.5831 H   0  0  0  0  0  0  0  0  0  0  0  0
  148.4301  137.8660  153.1049 H   0  0  0  0  0  0  0  0  0  0  0  0
  149.4901  140.4877  152.6993 H   0  0  0  0  0  0  0  0  0  0  0  0
  148.0343  141.4347  152.5648 H   0  0  0  0  0  0  0  0  0  0  0  0
  148.3542  142.4474  154.5501 H   0  0  0  0  0  0  0  0  0  0  0  0
  149.2843  143.0542  156.1749 H   0  0  0  0  0  0  0  0  0  0  0  0
  151.0638  144.6843  156.9643 H   0  0  0  0  0  0  0  0  0  0  0  0
  152.7827  144.9925  158.7577 H   0  0  0  0  0  0  0  0  0  0  0  0
  153.6460  142.9659  159.9556 H   0  0  0  0  0  0  0  0  0  0  0  0
  151.2925  140.4245  157.7372 H   0  0  0  0  0  0  0  0  0  0  0  0
  144.6096  137.9236  151.3591 H   0  0  0  0  0  0  0  0  0  0  0  0
  146.0949  137.6561  150.4721 H   0  0  0  0  0  0  0  0  0  0  0  0
  146.2671  135.3499  151.2468 H   0  0  0  0  0  0  0  0  0  0  0  0
  144.7132  135.5842  150.4944 H   0  0  0  0  0  0  0  0  0  0  0  0
  147.2090  137.2680  152.5181 H   0  0  0  0  0  0  0  0  0  0  0  0
  1  2  1  0  0  0  0
  1 22  1  0  0  0  0
  1 23  1  0  0  0  0
  1 24  1  0  0  0  0
  2 21  1  0  0  0  0
  2  3  1  0  0  0  0
  2 25  1  0  0  0  0
  3  4  1  0  0  0  0
  3 26  1  0  0  0  0
  3 27  1  0  0  0  0
  4  5  1  0  0  0  0
  4 28  1  0  0  0  0
  4 29  1  0  0  0  0
  5  6  1  0  0  0  0
  5 20  1  0  0  0  0
  5 46  1  0  0  0  0
  6  7  1  0  0  0  0
  6 30  1  0  0  0  0
  6 31  1  0  0  0  0
  7  8  1  0  0  0  0
  7  9  1  0  0  0  0
  7 32  1  0  0  0  0
  8 33  1  0  0  0  0
  9 10  1  0  0  0  0
  9 34  1  0  0  0  0
  9 35  1  0  0  0  0
 10 11  1  0  0  0  0
 10 36  1  0  0  0  0
 11 12  2  0  0  0  0
 11 13  1  0  0  0  0
 13 14  1  0  0  0  0
 13 37  1  0  0  0  0
 14 19  1  0  0  0  0
 14 15  2  0  0  0  0
 15 16  1  0  0  0  0
 15 38  1  0  0  0  0
 16 17  2  0  0  0  0
 16 39  1  0  0  0  0
 17 18  1  0  0  0  0
 17 40  1  0  0  0  0
 18 19  2  0  0  0  0
 19 41  1  0  0  0  0
 20 21  1  0  0  0  0
 20 42  1  0  0  0  0
 20 43  1  0  0  0  0
 21 44  1  0  0  0  0
 21 45  1  0  0  0  0
M  CHG  1   5   1
M  END
> <s_m_source_file>
AV-unprocessed.smi

> <i_m_source_file_index>
1048

> <i_lp_mmshare_version>
43012

> <i_f3d_flags>
0

> <s_epik_input>
W0NIM11bQ0hdMVtDSDJdW0NIMl1OKFtDSDJdW0NIMl0xKVtDSDJdW0NASF0oW09IXSlbQ0gyXVtOSF1DKD1PKVtOSF1jMltjSF1bY0hdW2NIXW5bY0hdMg==

> <s_epik_cmdline>
J2VwaWtfcHl0aG9uJywgJy1waCcsICc3LjAnLCAnLXRuJywgJzgnLCAnLW1hJywgJzIwMCcsICctbWV0YWxfYmluZGluZycsICctaW1hZScsICc8aW5maWxlLm1hZT4nLCAnLW9tYWUnLCAnPG91dGZpbGUubWFlPic=

> <r_lp_tautomer_probability>
1

> <r_epik_Ionization_Penalty>
0.00581049

> <r_epik_Ionization_Penalty_Charging>
0.00147689

> <r_epik_Ionization_Penalty_Neutral>
0.0043336

> <r_epik_State_Penalty>
-0

> <r_epik_Charging_Adjusted_Penalty>
0.00147689

> <i_epik_Tot_Q>
1

> <i_epik_Tot_abs_Q>
1

> <r_epik_Metal_State_Penalty>
-0

> <b_epik_Metal_Only>
0

> <s_lp_Force_Field>
OPLS_2005

> <r_lp_Energy>
24.6749

> <b_lp_Chiralities_Consistent>
1

> <s_lp_Variant>
AV-unprocessed.smi:1048-4

> <Gold.Version>
5.8.1

> <Gold.Id.Protein>
6NUR|6NUR_protein|mol2

> <Gold.PLP.Fitness>
48.5078

> <Gold.PLP.PLP>
-36.8984

> <Gold.PLP.part.hbond>
-4.7126

> <Gold.PLP.part.metal>
0.0000

> <Gold.PLP.part.buried>
4.3758

> <Gold.PLP.part.nonpolar>
-36.7068

> <Gold.PLP.part.repulsive>
0.4074

> <Gold.PLP.ligand.clash>
0.0000

> <Gold.PLP.ligand.torsion>
1.2766

> <Gold.PLP.Chemscore.Hbond>
4.6720

> <Gold.PLP.Chemscore.CHOScore>
0.0000

> <Gold.PLP.Chemscore.Metal>
0.0000

> <Gold.Chemscore.Hbonds>
donor molecule, donor type, donor heavy atom, donor atom, acceptor molecule, acceptor atom, score
      L1  H     5    46       P1  7948  1.53
      L1  H     8    33       P1  7948  0.81
      L1  H    13    37       P1  8028  0.85
      P1  H  7989  7998       L1    12  1.00

> <Gold.PLP.Chemscore.Internal.Correction>
0.1467

> <Gold.Rescore>
     Score         DG    S(hbond)    S(metal)    S(lipo)     H(rot)  DE(clash)    DE(int)     intcor
     17.53     -21.51       3.01        0.00     101.18       2.29       2.22       1.76       ----

> <Gold.Chemscore.Fitness>
17.5307

> <Gold.Chemscore.DG>
-21.5114

> <Gold.Chemscore.ZeroCoef>
-5.4800

> <Gold.Chemscore.Hbond>
3.0080

> <Gold.Chemscore.Metal>
0.0000

> <Gold.Chemscore.Lipo>
101.1828

> <Gold.Chemscore.Internal_Hbond>
0.0000

> <Gold.Chemscore.DEClash>
2.2232

> <Gold.Chemscore.DEInternal>
1.7575

> <Gold.Chemscore.Rot>
2.2865

> <Gold.Chemscore.Internal.Correction>
   9.000000E+99

> <Gold.Chemscore.Hbonds>
donor molecule, donor type, donor heavy atom, donor atom, acceptor molecule, acceptor atom, score
      L1  H     5    46       P1  7948  0.77
      L1  H     8    33       P1  7948  0.78
      L1  H    13    37       P1  8028  0.83
      P1  H  7989  7998       L1    12  0.29

> <Gold.Chemscore.Hbond.Weighted>
-10.0466

> <Gold.Chemscore.Metal.Weighted>
-0.0000

> <Gold.Chemscore.Lipo.Weighted>
-11.8384

> <Gold.Chemscore.Internal_Hbond.Weighted>
0.0000

> <Gold.Chemscore.DEClash.Weighted>
2.2232

> <Gold.Chemscore.DEInternal.Weighted>
1.7575

> <Gold.Chemscore.Rot.Weighted>
5.8536

> <Gold.Chemscore.Internal.Correction.Weighted>
   9.000000E+99

> <Gold.Protein.RotatedTorsions>
[ 6907 6896 6895 6894 ] final   46.48 input  -60.11 | X-H torsion
[ 7974 7965 7964 7962 ] final -119.78 input  175.53 | X-H torsion
[ 8008 7997 7996 7995 ] final -168.93 input   59.86 | X-H torsion
[ 10167 10162 10161 10158 ] final  -50.40 input  -65.29 | X-H torsion
[ 10718 10713 10712 10709 ] final    8.09 input   66.30 | X-H torsion
[ 10763 10752 10751 10750 ] final -142.59 input  -60.55 | X-H torsion
[ 11005 11000 10999 10996 ] final  155.99 input  -57.11 | X-H torsion

> <Gold.Protein.ActiveResidues>
 VAL166  LYS551  ARG553  GLY616  TRP617  ASP618  TYR619  PRO620  LYS621  CYS622 
 ASP623  PHE694  ASN695  SER759  ASP760  ASP761  ALA762  ILE779  LEU786  VAL792 
 PHE793  MET794  SER795  GLU796  ALA797  LYS798  CYS799  TRP800  GLU811  SER814 

> <Gold.Protein.RotatedAtoms>
  152.2569  134.8075  160.0436 H   0  0  0  0  0  0  0  0  0  0  0  0  # atno 6907 bound_to 6896
  151.8735  133.3475  159.3751 H   0  0  0  0  0  0  0  0  0  0  0  0  # atno 6908 bound_to 6896
  150.7103  134.5016  159.5608 H   0  0  0  0  0  0  0  0  0  0  0  0  # atno 6909 bound_to 6896
  145.0587  140.8274  143.4165 H   0  0  0  0  0  0  0  0  0  0  0  0  # atno 7974 bound_to 7965
  155.8981  140.1036  157.1370 H   0  0  0  0  0  0  0  0  0  0  0  0  # atno 8008 bound_to 7997
  154.4023  140.1298  156.4465 H   0  0  0  0  0  0  0  0  0  0  0  0  # atno 8009 bound_to 7997
  155.7455  140.3466  155.5127 H   0  0  0  0  0  0  0  0  0  0  0  0  # atno 8010 bound_to 7997
  140.6639  143.2659  151.4354 H   0  0  0  0  0  0  0  0  0  0  0  0  # atno 10167 bound_to 10162
  156.9466  130.5881  149.5655 H   0  0  0  0  0  0  0  0  0  0  0  0  # atno 10718 bound_to 10713
  154.8503  135.3492  154.6052 H   0  0  0  0  0  0  0  0  0  0  0  0  # atno 10763 bound_to 10752
  153.6660  135.6987  153.5166 H   0  0  0  0  0  0  0  0  0  0  0  0  # atno 10764 bound_to 10752
  153.2780  135.4272  155.1008 H   0  0  0  0  0  0  0  0  0  0  0  0  # atno 10765 bound_to 10752
  140.1633  134.8594  157.2601 H   0  0  0  0  0  0  0  0  0  0  0  0  # atno 11005 bound_to 11000
  145.1436  139.2557  143.5477 LP  0  0  0  0  0  0  0  0  0  0  0  0  # atno 17320 bound_to 7965
  146.3523  140.1120  142.8603 LP  0  0  0  0  0  0  0  0  0  0  0  0  # atno 17321 bound_to 7965
  139.5881  144.1558  152.2055 LP  0  0  0  0  0  0  0  0  0  0  0  0  # atno 17342 bound_to 10162
  140.0904  144.5625  150.7058 LP  0  0  0  0  0  0  0  0  0  0  0  0  # atno 17343 bound_to 10162
  156.0381  130.5466  150.8704 LP  0  0  0  0  0  0  0  0  0  0  0  0  # atno 17370 bound_to 10713
  157.5750  131.0946  150.9360 LP  0  0  0  0  0  0  0  0  0  0  0  0  # atno 17371 bound_to 10713
  140.2464  134.3735  155.7460 LP  0  0  0  0  0  0  0  0  0  0  0  0  # atno 17394 bound_to 11000
  141.2211  133.7292  156.8868 LP  0  0  0  0  0  0  0  0  0  0  0  0  # atno 17395 bound_to 11000

$$$$
