AV-unprocessed.smi:224|AV-procd|sdf|1719|dock2
  -GOLD-   2262020193D 1   1.00000     0.00000
 Structure written by MMmdl.
 56 59  0  0  0  0  0  0  0  0  2 V2000
  144.8963  132.0701  149.5855 C   0  0  0  0  0  0  0  0  0  0  0  0
  144.0974  133.2946  150.0499 C   0  0  2  0  0  0  0  0  0  0  0  0
  143.7751  134.0679  148.9116 O   0  0  0  0  0  0  0  0  0  0  0  0
  144.8954  134.1610  151.0456 C   0  0  0  0  0  0  0  0  0  0  0  0
  145.2977  133.4369  152.2836 N   0  3  2  0  0  0  0  0  0  0  0  0
  145.4666  134.3591  153.4379 C   0  0  0  0  0  0  0  0  0  0  0  0
  145.7284  133.5854  154.7422 C   0  0  0  0  0  0  0  0  0  0  0  0
  146.8430  132.6538  154.5884 N   0  0  0  0  0  0  0  0  0  0  0  0
  148.1052  133.0610  154.8926 C   0  0  0  0  0  0  0  0  0  0  0  0
  149.0976  132.1389  155.0143 N   0  0  0  0  0  0  0  0  0  0  0  0
  150.3387  132.5142  155.3350 C   0  0  0  0  0  0  0  0  0  0  0  0
  150.8033  133.7417  155.5698 N   0  0  0  0  0  0  0  0  0  0  0  0
  149.8200  134.6763  155.4327 C   0  0  0  0  0  0  0  0  0  0  0  0
  148.4582  134.4263  155.0986 C   0  0  0  0  0  0  0  0  0  0  0  0
  147.7626  135.6287  155.0384 N   0  0  0  0  0  0  0  0  0  0  0  0
  148.6565  136.5330  155.3324 C   0  0  0  0  0  0  0  0  0  0  0  0
  149.9212  136.0489  155.5771 N   0  0  0  0  0  0  0  0  0  0  0  0
  151.1001  136.8256  155.9292 C   0  0  0  0  0  0  0  0  0  0  0  0
  151.6165  137.7449  154.7932 C   0  0  2  0  0  0  0  0  0  0  0  0
  152.1398  136.9430  153.7502 O   0  0  0  0  0  0  0  0  0  0  0  0
  152.6795  138.7508  155.2352 C   0  0  0  0  0  0  0  0  0  0  0  0
  151.8557  139.9935  155.5346 C   0  0  0  0  0  0  0  0  0  0  0  0
  150.9138  139.9938  154.4762 O   0  0  0  0  0  0  0  0  0  0  0  0
  150.4940  138.6525  154.2488 C   0  0  0  0  0  0  0  0  0  0  0  0
  146.6904  131.7259  153.4700 C   0  0  0  0  0  0  0  0  0  0  0  0
  146.4255  132.4628  152.1374 C   0  0  2  0  0  0  0  0  0  0  0  0
  147.7101  133.0880  151.5531 C   0  0  0  0  0  0  0  0  0  0  0  0
  145.1553  131.4296  150.4290 H   0  0  0  0  0  0  0  0  0  0  0  0
  145.8246  132.3617  149.0926 H   0  0  0  0  0  0  0  0  0  0  0  0
  144.3199  131.4682  148.8820 H   0  0  0  0  0  0  0  0  0  0  0  0
  143.1727  132.9374  150.5016 H   0  0  0  0  0  0  0  0  0  0  0  0
  144.5551  134.1796  148.3892 H   0  0  0  0  0  0  0  0  0  0  0  0
  145.7764  134.5836  150.5619 H   0  0  0  0  0  0  0  0  0  0  0  0
  144.2776  135.0158  151.3265 H   0  0  0  0  0  0  0  0  0  0  0  0
  146.2819  135.0540  153.2353 H   0  0  0  0  0  0  0  0  0  0  0  0
  144.5674  134.9638  153.5604 H   0  0  0  0  0  0  0  0  0  0  0  0
  145.8962  134.2715  155.5734 H   0  0  0  0  0  0  0  0  0  0  0  0
  144.8423  133.0073  155.0069 H   0  0  0  0  0  0  0  0  0  0  0  0
  151.0627  131.7168  155.4167 H   0  0  0  0  0  0  0  0  0  0  0  0
  148.4180  137.5861  155.3742 H   0  0  0  0  0  0  0  0  0  0  0  0
  150.8616  137.4198  156.8125 H   0  0  0  0  0  0  0  0  0  0  0  0
  151.8845  136.1323  156.2350 H   0  0  0  0  0  0  0  0  0  0  0  0
  151.4545  136.7917  153.1170 H   0  0  0  0  0  0  0  0  0  0  0  0
  153.2875  138.4315  156.0800 H   0  0  0  0  0  0  0  0  0  0  0  0
  153.3617  138.9760  154.4136 H   0  0  0  0  0  0  0  0  0  0  0  0
  151.3413  139.9044  156.4928 H   0  0  0  0  0  0  0  0  0  0  0  0
  152.4533  140.9051  155.5438 H   0  0  0  0  0  0  0  0  0  0  0  0
  150.3031  138.5042  153.1851 H   0  0  0  0  0  0  0  0  0  0  0  0
  149.5526  138.4828  154.7732 H   0  0  0  0  0  0  0  0  0  0  0  0
  147.5460  131.0619  153.3593 H   0  0  0  0  0  0  0  0  0  0  0  0
  145.8429  131.0783  153.6978 H   0  0  0  0  0  0  0  0  0  0  0  0
  146.1080  131.6889  151.4399 H   0  0  0  0  0  0  0  0  0  0  0  0
  148.5185  132.3567  151.5306 H   0  0  0  0  0  0  0  0  0  0  0  0
  148.0585  133.9388  152.1374 H   0  0  0  0  0  0  0  0  0  0  0  0
  147.5651  133.4259  150.5274 H   0  0  0  0  0  0  0  0  0  0  0  0
  144.4971  132.8694  152.5236 H   0  0  0  0  0  0  0  0  0  0  0  0
  1  2  1  0  0  0  0
  1 28  1  0  0  0  0
  1 29  1  0  0  0  0
  1 30  1  0  0  0  0
  2  3  1  0  0  0  0
  2  4  1  0  0  0  0
  2 31  1  0  0  0  0
  3 32  1  0  0  0  0
  4  5  1  0  0  0  0
  4 33  1  0  0  0  0
  4 34  1  0  0  0  0
  5 26  1  0  0  0  0
  5  6  1  0  0  0  0
  5 56  1  0  0  0  0
  6  7  1  0  0  0  0
  6 35  1  0  0  0  0
  6 36  1  0  0  0  0
  7  8  1  0  0  0  0
  7 37  1  0  0  0  0
  7 38  1  0  0  0  0
  8  9  1  0  0  0  0
  8 25  1  0  0  0  0
  9 14  1  0  0  0  0
  9 10  2  0  0  0  0
 10 11  1  0  0  0  0
 11 12  2  0  0  0  0
 11 39  1  0  0  0  0
 12 13  1  0  0  0  0
 13 17  1  0  0  0  0
 13 14  2  0  0  0  0
 14 15  1  0  0  0  0
 15 16  2  0  0  0  0
 16 17  1  0  0  0  0
 16 40  1  0  0  0  0
 17 18  1  0  0  0  0
 18 19  1  0  0  0  0
 18 41  1  0  0  0  0
 18 42  1  0  0  0  0
 19 24  1  0  0  0  0
 19 20  1  0  0  0  0
 19 21  1  0  0  0  0
 20 43  1  0  0  0  0
 21 22  1  0  0  0  0
 21 44  1  0  0  0  0
 21 45  1  0  0  0  0
 22 23  1  0  0  0  0
 22 46  1  0  0  0  0
 22 47  1  0  0  0  0
 23 24  1  0  0  0  0
 24 48  1  0  0  0  0
 24 49  1  0  0  0  0
 25 26  1  0  0  0  0
 25 50  1  0  0  0  0
 25 51  1  0  0  0  0
 26 27  1  0  0  0  0
 26 52  1  0  0  0  0
 27 53  1  0  0  0  0
 27 54  1  0  0  0  0
 27 55  1  0  0  0  0
M  CHG  1   5   1
M  END
> <s_m_source_file>
AV-unprocessed.smi

> <i_m_source_file_index>
224

> <i_lp_mmshare_version>
43012

> <i_f3d_flags>
0

> <s_epik_input>
W0NIM11bQ0BIXShbT0hdKVtDSDJdTjFbQ0gyXVtDSDJdTihbQ0gyXVtDQEhdMVtDSDNdKWMobltjSF1uMiljKGMyMyluW2NIXW4zW0NIMl1bQ0BAXTQoW09IXSlbQ0gyXVtDSDJdT1tDSDJdNA==

> <s_epik_cmdline>
J2VwaWtfcHl0aG9uJywgJy1waCcsICc3LjAnLCAnLXRuJywgJzgnLCAnLW1hJywgJzIwMCcsICctbWV0YWxfYmluZGluZycsICctaW1hZScsICc8aW5maWxlLm1hZT4nLCAnLW9tYWUnLCAnPG91dGZpbGUubWFlPic=

> <r_lp_tautomer_probability>
1

> <r_epik_Ionization_Penalty>
0.00516958

> <r_epik_Ionization_Penalty_Charging>
0.00509693

> <r_epik_Ionization_Penalty_Neutral>
7.26542e-05

> <r_epik_State_Penalty>
-0

> <r_epik_Charging_Adjusted_Penalty>
0.00509693

> <i_epik_Tot_Q>
1

> <i_epik_Tot_abs_Q>
1

> <r_epik_Metal_State_Penalty>
-0

> <b_epik_Metal_Only>
0

> <s_lp_Force_Field>
OPLS_2005

> <r_lp_Energy>
49.9792

> <b_lp_Chiralities_Consistent>
1

> <s_lp_Variant>
AV-unprocessed.smi:224-13

> <Gold.Version>
5.8.1

> <Gold.Id.Protein>
6NUR|6NUR_protein|mol2

> <Gold.PLP.Fitness>
49.9278

> <Gold.PLP.PLP>
-39.6831

> <Gold.PLP.part.hbond>
-5.0000

> <Gold.PLP.part.metal>
0.0000

> <Gold.PLP.part.buried>
-5.7241

> <Gold.PLP.part.nonpolar>
-29.8075

> <Gold.PLP.part.repulsive>
0.1980

> <Gold.PLP.ligand.clash>
0.0000

> <Gold.PLP.ligand.torsion>
0.7819

> <Gold.PLP.Chemscore.Hbond>
3.8000

> <Gold.PLP.Chemscore.CHOScore>
0.0000

> <Gold.PLP.Chemscore.Metal>
0.0000

> <Gold.Chemscore.Hbonds>
donor molecule, donor type, donor heavy atom, donor atom, acceptor molecule, acceptor atom, score
      L1  H     3    32       P1  7921  1.00
      L1  H    20    43       P1  7949  0.82
      P1  H  7989  7998       L1    23  0.91
      P1  H 10752 10763       L1    20  1.00

> <Gold.PLP.Chemscore.Internal.Correction>
0.4085

> <Gold.Rescore>
     Score         DG    S(hbond)    S(metal)    S(lipo)     H(rot)  DE(clash)    DE(int)     intcor
     15.47     -18.27       3.26        0.00      82.41       3.02       0.17       2.63       ----

> <Gold.Chemscore.Fitness>
15.4683

> <Gold.Chemscore.DG>
-18.2663

> <Gold.Chemscore.ZeroCoef>
-5.4800

> <Gold.Chemscore.Hbond>
3.2584

> <Gold.Chemscore.Metal>
0.0000

> <Gold.Chemscore.Lipo>
82.4128

> <Gold.Chemscore.Internal_Hbond>
0.0000

> <Gold.Chemscore.DEClash>
0.1721

> <Gold.Chemscore.DEInternal>
2.6258

> <Gold.Chemscore.Rot>
3.0231

> <Gold.Chemscore.Internal.Correction>
   9.000000E+99

> <Gold.Chemscore.Hbonds>
donor molecule, donor type, donor heavy atom, donor atom, acceptor molecule, acceptor atom, score
      L1  H     3    32       P1  7921  1.00
      L1  H    20    43       P1  7949  0.72
      P1  H  7989  7998       L1    23  0.23
      P1  H 10752 10763       L1    20  0.82

> <Gold.Chemscore.Hbond.Weighted>
-10.8831

> <Gold.Chemscore.Metal.Weighted>
-0.0000

> <Gold.Chemscore.Lipo.Weighted>
-9.6423

> <Gold.Chemscore.Internal_Hbond.Weighted>
0.0000

> <Gold.Chemscore.DEClash.Weighted>
0.1721

> <Gold.Chemscore.DEInternal.Weighted>
2.6258

> <Gold.Chemscore.Rot.Weighted>
7.7391

> <Gold.Chemscore.Internal.Correction.Weighted>
   9.000000E+99

> <Gold.Protein.RotatedTorsions>
[ 6907 6896 6895 6894 ] final   21.16 input  -60.11 | X-H torsion
[ 7974 7965 7964 7962 ] final    4.01 input  175.53 | X-H torsion
[ 8008 7997 7996 7995 ] final   -6.21 input   59.86 | X-H torsion
[ 10167 10162 10161 10158 ] final  132.37 input  -65.29 | X-H torsion
[ 10718 10713 10712 10709 ] final  -34.76 input   66.30 | X-H torsion
[ 10763 10752 10751 10750 ] final   34.47 input  -60.55 | X-H torsion
[ 11005 11000 10999 10996 ] final  -79.98 input  -57.11 | X-H torsion

> <Gold.Protein.ActiveResidues>
 VAL166  LYS551  ARG553  GLY616  TRP617  ASP618  TYR619  PRO620  LYS621  CYS622 
 ASP623  PHE694  ASN695  SER759  ASP760  ASP761  ALA762  ILE779  LEU786  VAL792 
 PHE793  MET794  SER795  GLU796  ALA797  LYS798  CYS799  TRP800  GLU811  SER814 

> <Gold.Protein.RotatedAtoms>
  151.9075  135.0353  160.0511 H   0  0  0  0  0  0  0  0  0  0  0  0  # atno 6907 bound_to 6896
  152.2307  133.5051  159.5222 H   0  0  0  0  0  0  0  0  0  0  0  0  # atno 6908 bound_to 6896
  150.7025  134.1136  159.4052 H   0  0  0  0  0  0  0  0  0  0  0  0  # atno 6909 bound_to 6896
  146.2444  140.0599  142.8369 H   0  0  0  0  0  0  0  0  0  0  0  0  # atno 7974 bound_to 7965
  154.5961  140.2439  155.7855 H   0  0  0  0  0  0  0  0  0  0  0  0  # atno 8008 bound_to 7997
  156.2280  140.2976  156.0069 H   0  0  0  0  0  0  0  0  0  0  0  0  # atno 8009 bound_to 7997
  155.2291  140.0403  157.2950 H   0  0  0  0  0  0  0  0  0  0  0  0  # atno 8010 bound_to 7997
  139.5342  144.6665  151.4842 H   0  0  0  0  0  0  0  0  0  0  0  0  # atno 10167 bound_to 10162
  156.3468  130.4302  149.7739 H   0  0  0  0  0  0  0  0  0  0  0  0  # atno 10718 bound_to 10713
  153.0163  135.6359  154.1674 H   0  0  0  0  0  0  0  0  0  0  0  0  # atno 10763 bound_to 10752
  154.1412  135.2834  155.3162 H   0  0  0  0  0  0  0  0  0  0  0  0  # atno 10764 bound_to 10752
  154.6123  135.5552  153.7547 H   0  0  0  0  0  0  0  0  0  0  0  0  # atno 10765 bound_to 10752
  141.1668  133.7130  156.8204 H   0  0  0  0  0  0  0  0  0  0  0  0  # atno 11005 bound_to 11000
  145.0909  140.9283  143.4770 LP  0  0  0  0  0  0  0  0  0  0  0  0  # atno 17320 bound_to 7965
  145.0772  139.2987  143.5802 LP  0  0  0  0  0  0  0  0  0  0  0  0  # atno 17321 bound_to 7965
  140.6539  143.8639  150.6815 LP  0  0  0  0  0  0  0  0  0  0  0  0  # atno 17342 bound_to 10162
  140.2012  143.3957  152.1790 LP  0  0  0  0  0  0  0  0  0  0  0  0  # atno 17343 bound_to 10162
  156.4955  130.8105  151.3112 LP  0  0  0  0  0  0  0  0  0  0  0  0  # atno 17370 bound_to 10713
  157.7455  130.9961  150.2769 LP  0  0  0  0  0  0  0  0  0  0  0  0  # atno 17371 bound_to 10713
  140.2123  134.8818  157.3288 LP  0  0  0  0  0  0  0  0  0  0  0  0  # atno 17394 bound_to 11000
  140.2074  134.4181  155.7631 LP  0  0  0  0  0  0  0  0  0  0  0  0  # atno 17395 bound_to 11000

$$$$
