AV-unprocessed.smi:2597|AV-procd|sdf|10173|dock5
  -GOLD-   2272014183D 1   1.00000     0.00000
 Structure written by MMmdl.
 31 32  0  0  0  0  0  0  0  0  2 V2000
  148.8106  143.7937  158.3045 N   0  3  0  0  0  0  0  0  0  0  0  0
  150.1482  143.6797  158.9165 C   0  0  2  0  0  0  0  0  0  0  0  0
  151.1111  144.7398  158.3438 C   0  0  0  0  0  0  0  0  0  0  0  0
  152.5046  144.6303  158.9828 C   0  0  0  0  0  0  0  0  0  0  0  0
  153.0911  143.2186  158.8278 C   0  0  0  0  0  0  0  0  0  0  0  0
  152.1387  142.1474  159.3919 C   0  0  0  0  0  0  0  0  0  0  0  0
  150.7028  142.2319  158.8232 C   0  0  2  0  0  0  0  0  0  0  0  0
  150.5847  141.6312  157.4935 N   0  0  0  0  0  0  0  0  0  0  0  0
  149.4265  141.2356  156.8540 C   0  0  0  0  0  0  0  0  0  0  0  0
  149.8635  140.7670  155.6478 C   0  0  0  0  0  0  0  0  0  0  0  0
  149.0750  140.2065  154.5040 C   0  0  0  0  0  0  0  0  0  0  0  0
  149.5038  140.8875  153.3445 O   0  0  0  0  0  0  0  0  0  0  0  0
  151.2503  140.8870  155.6015 N   0  0  0  0  0  0  0  0  0  0  0  0
  151.6702  141.4013  156.7130 N   0  0  0  0  0  0  0  0  0  0  0  0
  150.0139  143.9079  159.9748 H   0  0  0  0  0  0  0  0  0  0  0  0
  150.0796  141.6164  159.4742 H   0  0  0  0  0  0  0  0  0  0  0  0
  148.4455  144.7216  158.4662 H   0  0  0  0  0  0  0  0  0  0  0  0
  148.1903  143.1117  158.7171 H   0  0  0  0  0  0  0  0  0  0  0  0
  151.1941  144.6463  157.2614 H   0  0  0  0  0  0  0  0  0  0  0  0
  150.7111  145.7379  158.5261 H   0  0  0  0  0  0  0  0  0  0  0  0
  153.1773  145.3622  158.5347 H   0  0  0  0  0  0  0  0  0  0  0  0
  152.4393  144.8811  160.0423 H   0  0  0  0  0  0  0  0  0  0  0  0
  153.3096  143.0217  157.7789 H   0  0  0  0  0  0  0  0  0  0  0  0
  154.0492  143.1625  159.3453 H   0  0  0  0  0  0  0  0  0  0  0  0
  152.5537  141.1528  159.2237 H   0  0  0  0  0  0  0  0  0  0  0  0
  152.0901  142.2700  160.4748 H   0  0  0  0  0  0  0  0  0  0  0  0
  148.4398  141.3214  157.2849 H   0  0  0  0  0  0  0  0  0  0  0  0
  149.2428  139.1358  154.3827 H   0  0  0  0  0  0  0  0  0  0  0  0
  148.0058  140.3625  154.6471 H   0  0  0  0  0  0  0  0  0  0  0  0
  149.5790  140.2617  152.6405 H   0  0  0  0  0  0  0  0  0  0  0  0
  148.8786  143.6291  157.3103 H   0  0  0  0  0  0  0  0  0  0  0  0
  1  2  1  0  0  0  0
  1 17  1  0  0  0  0
  1 18  1  0  0  0  0
  1 31  1  0  0  0  0
  2 15  1  0  0  0  0
  2  7  1  0  0  0  0
  2  3  1  0  0  0  0
  3  4  1  0  0  0  0
  3 19  1  0  0  0  0
  3 20  1  0  0  0  0
  4  5  1  0  0  0  0
  4 21  1  0  0  0  0
  4 22  1  0  0  0  0
  5  6  1  0  0  0  0
  5 23  1  0  0  0  0
  5 24  1  0  0  0  0
  6  7  1  0  0  0  0
  6 25  1  0  0  0  0
  6 26  1  0  0  0  0
  7 16  1  0  0  0  0
  7  8  1  0  0  0  0
  8 14  1  0  0  0  0
  8  9  1  0  0  0  0
  9 10  2  0  0  0  0
  9 27  1  0  0  0  0
 10 11  1  0  0  0  0
 10 13  1  0  0  0  0
 11 12  1  0  0  0  0
 11 28  1  0  0  0  0
 11 29  1  0  0  0  0
 12 30  1  0  0  0  0
 13 14  2  0  0  0  0
M  CHG  1   1   1
M  END
> <s_m_source_file>
AV-unprocessed.smi

> <i_m_source_file_index>
2597

> <i_lp_mmshare_version>
43012

> <i_f3d_flags>
0

> <s_epik_input>
W05IMl1bQ0BIXTFbQ0gyXVtDSDJdW0NIMl1bQ0gyXVtDQEhdMW4yW2NIXWMobm4yKVtDSDJdW09IXQ==

> <s_epik_cmdline>
J2VwaWtfcHl0aG9uJywgJy1waCcsICc3LjAnLCAnLXRuJywgJzgnLCAnLW1hJywgJzIwMCcsICctbWV0YWxfYmluZGluZycsICctaW1hZScsICc8aW5maWxlLm1hZT4nLCAnLW9tYWUnLCAnPG91dGZpbGUubWFlPic=

> <r_lp_tautomer_probability>
1

> <r_epik_Ionization_Penalty>
0.014346

> <r_epik_Ionization_Penalty_Charging>
0.014316

> <r_epik_Ionization_Penalty_Neutral>
3.00097e-05

> <r_epik_State_Penalty>
0.0111909

> <r_epik_Charging_Adjusted_Penalty>
0.0255069

> <i_epik_Tot_Q>
1

> <i_epik_Tot_abs_Q>
1

> <r_epik_Metal_State_Penalty>
0.011192

> <b_epik_Metal_Only>
0

> <s_lp_Force_Field>
OPLS_2005

> <r_lp_Energy>
16.1833

> <b_lp_Chiralities_Consistent>
1

> <s_lp_Variant>
AV-unprocessed.smi:2597-4

> <Gold.Version>
5.8.1

> <Gold.Id.Protein>
6NUR|6NUR_protein|mol2

> <Gold.PLP.Fitness>
41.5813

> <Gold.PLP.PLP>
-28.0822

> <Gold.PLP.part.hbond>
-5.3653

> <Gold.PLP.part.metal>
0.0000

> <Gold.PLP.part.buried>
-0.0079

> <Gold.PLP.part.nonpolar>
-21.9449

> <Gold.PLP.part.repulsive>
0.1135

> <Gold.PLP.ligand.clash>
0.0000

> <Gold.PLP.ligand.torsion>
0.4314

> <Gold.PLP.Chemscore.Hbond>
4.7657

> <Gold.PLP.Chemscore.CHOScore>
0.0000

> <Gold.PLP.Chemscore.Metal>
0.0000

> <Gold.Chemscore.Hbonds>
donor molecule, donor type, donor heavy atom, donor atom, acceptor molecule, acceptor atom, score
      L1  H     1    17       P1  8029  1.15
      L1  H     1    31       P1  8028  1.37
      L1  H    12    30       P1  7957  0.84
      P1  H  7989  7998       L1    13  0.53
      P1  H  8011  8017       L1    12  0.85

> <Gold.PLP.Chemscore.Internal.Correction>
0.0649

> <Gold.Rescore>
     Score         DG    S(hbond)    S(metal)    S(lipo)     H(rot)  DE(clash)    DE(int)     intcor
     14.08     -16.66       1.99        0.00      79.38       1.86       1.01       1.58       ----

> <Gold.Chemscore.Fitness>
14.0766

> <Gold.Chemscore.DG>
-16.6630

> <Gold.Chemscore.ZeroCoef>
-5.4800

> <Gold.Chemscore.Hbond>
1.9895

> <Gold.Chemscore.Metal>
0.0000

> <Gold.Chemscore.Lipo>
79.3769

> <Gold.Chemscore.Internal_Hbond>
0.0000

> <Gold.Chemscore.DEClash>
1.0111

> <Gold.Chemscore.DEInternal>
1.5752

> <Gold.Chemscore.Rot>
1.8551

> <Gold.Chemscore.Internal.Correction>
   9.000000E+99

> <Gold.Chemscore.Hbonds>
donor molecule, donor type, donor heavy atom, donor atom, acceptor molecule, acceptor atom, score
      L1  H     1    17       P1  8029  0.51
      L1  H     1    31       P1  8028  0.15
      L1  H    12    30       P1  7957  0.78
      P1  H  7989  7998       L1    13  0.21
      P1  H  8011  8017       L1    12  0.15

> <Gold.Chemscore.Hbond.Weighted>
-6.6448

> <Gold.Chemscore.Metal.Weighted>
-0.0000

> <Gold.Chemscore.Lipo.Weighted>
-9.2871

> <Gold.Chemscore.Internal_Hbond.Weighted>
0.0000

> <Gold.Chemscore.DEClash.Weighted>
1.0111

> <Gold.Chemscore.DEInternal.Weighted>
1.5752

> <Gold.Chemscore.Rot.Weighted>
4.7489

> <Gold.Chemscore.Internal.Correction.Weighted>
   9.000000E+99

> <Gold.Protein.RotatedTorsions>
[ 6907 6896 6895 6894 ] final  -69.68 input  -60.11 | X-H torsion
[ 7974 7965 7964 7962 ] final  162.36 input  175.53 | X-H torsion
[ 8008 7997 7996 7995 ] final -134.00 input   59.86 | X-H torsion
[ 10167 10162 10161 10158 ] final  -47.27 input  -65.29 | X-H torsion
[ 10718 10713 10712 10709 ] final  -17.34 input   66.30 | X-H torsion
[ 10763 10752 10751 10750 ] final   17.23 input  -60.55 | X-H torsion
[ 11005 11000 10999 10996 ] final  105.53 input  -57.11 | X-H torsion

> <Gold.Protein.ActiveResidues>
 VAL166  LYS551  ARG553  GLY616  TRP617  ASP618  TYR619  PRO620  LYS621  CYS622 
 ASP623  PHE694  ASN695  SER759  ASP760  ASP761  ALA762  ILE779  LEU786  VAL792 
 PHE793  MET794  SER795  GLU796  ALA797  LYS798  CYS799  TRP800  GLU811  SER814 

> <Gold.Protein.RotatedAtoms>
  150.7294  134.5562  159.5818 H   0  0  0  0  0  0  0  0  0  0  0  0  # atno 6907 bound_to 6896
  152.3037  134.7578  160.0361 H   0  0  0  0  0  0  0  0  0  0  0  0  # atno 6908 bound_to 6896
  151.8150  133.3351  159.3603 H   0  0  0  0  0  0  0  0  0  0  0  0  # atno 6909 bound_to 6896
  144.7640  139.8028  143.6322 H   0  0  0  0  0  0  0  0  0  0  0  0  # atno 7974 bound_to 7965
  155.3548  140.0479  157.3046 H   0  0  0  0  0  0  0  0  0  0  0  0  # atno 8008 bound_to 7997
  154.5208  140.2224  155.8943 H   0  0  0  0  0  0  0  0  0  0  0  0  # atno 8009 bound_to 7997
  156.1687  140.3100  155.8941 H   0  0  0  0  0  0  0  0  0  0  0  0  # atno 8010 bound_to 7997
  140.6782  143.2792  151.3902 H   0  0  0  0  0  0  0  0  0  0  0  0  # atno 10167 bound_to 10162
  156.5749  130.4759  149.6346 H   0  0  0  0  0  0  0  0  0  0  0  0  # atno 10718 bound_to 10713
  153.1358  135.6749  153.9106 H   0  0  0  0  0  0  0  0  0  0  0  0  # atno 10763 bound_to 10752
  153.8578  135.3085  155.3437 H   0  0  0  0  0  0  0  0  0  0  0  0  # atno 10764 bound_to 10752
  154.7746  135.4921  153.9800 H   0  0  0  0  0  0  0  0  0  0  0  0  # atno 10765 bound_to 10752
  139.8803  134.9339  156.5527 H   0  0  0  0  0  0  0  0  0  0  0  0  # atno 11005 bound_to 11000
  146.1731  139.4890  142.9914 LP  0  0  0  0  0  0  0  0  0  0  0  0  # atno 17320 bound_to 7965
  145.6527  141.0259  143.1751 LP  0  0  0  0  0  0  0  0  0  0  0  0  # atno 17321 bound_to 7965
  139.6088  144.1142  152.2277 LP  0  0  0  0  0  0  0  0  0  0  0  0  # atno 17342 bound_to 10162
  140.0549  144.5903  150.7307 LP  0  0  0  0  0  0  0  0  0  0  0  0  # atno 17343 bound_to 10162
  156.2682  130.7002  151.1791 LP  0  0  0  0  0  0  0  0  0  0  0  0  # atno 17370 bound_to 10713
  157.7340  131.0586  150.5548 LP  0  0  0  0  0  0  0  0  0  0  0  0  # atno 17371 bound_to 10713
  140.8228  133.8340  155.8911 LP  0  0  0  0  0  0  0  0  0  0  0  0  # atno 17394 bound_to 11000
  140.9402  134.1910  157.4803 LP  0  0  0  0  0  0  0  0  0  0  0  0  # atno 17395 bound_to 11000

$$$$
