AV-unprocessed.smi:1591|AV-procd|sdf|6400|dock7
  -GOLD-   22720 7 33D 1   1.00000     0.00000
 Structure written by MMmdl.
 51 54  0  0  0  0  0  0  0  0  2 V2000
  147.7058  132.2130  157.1328 C   0  0  0  0  0  0  0  0  0  0  0  0
  147.0446  132.8621  158.3591 C   0  0  0  0  0  0  0  0  0  0  0  0
  147.8140  134.0858  158.9201 C   0  0  1  0  0  0  0  0  0  0  0  0
  147.8824  135.1198  157.8838 N   0  0  0  0  0  0  0  0  0  0  0  0
  148.9967  135.6011  157.3105 C   0  0  0  0  0  0  0  0  0  0  0  0
  150.1340  135.2561  157.6301 O   0  0  0  0  0  0  0  0  0  0  0  0
  148.7861  136.6376  156.2034 C   0  0  0  0  0  0  0  0  0  0  0  0
  150.0271  137.3759  155.9255 N   0  0  0  0  0  0  0  0  0  0  0  0
  150.4912  137.3766  154.5979 C   0  0  0  0  0  0  0  0  0  0  0  0
  151.6286  138.0029  154.2417 C   0  0  0  0  0  0  0  0  0  0  0  0
  152.3880  138.6936  155.2759 C   0  0  0  0  0  0  0  0  0  0  0  0
  153.4292  139.2709  154.9691 O   0  0  0  0  0  0  0  0  0  0  0  0
  151.8980  138.6640  156.5498 N   0  5  0  0  0  0  0  0  0  0  0  0
  150.7393  138.0221  156.8977 C   0  0  0  0  0  0  0  0  0  0  0  0
  150.3174  138.0080  158.0540 O   0  0  0  0  0  0  0  0  0  0  0  0
  147.2496  134.6805  160.2536 C   0  0  0  0  0  0  0  0  0  0  0  0
  147.9729  136.0235  160.5750 C   0  0  0  0  0  0  0  0  0  0  0  0
  147.4542  136.6336  161.8933 C   0  0  1  0  0  0  0  0  0  0  0  0
  145.9410  136.9051  161.7719 C   0  0  0  0  0  0  0  0  0  0  0  0
  145.2089  135.5764  161.4941 C   0  0  2  0  0  0  0  0  0  0  0  0
  145.4665  134.5933  162.6547 C   0  0  0  0  0  0  0  0  0  0  0  0
  146.9823  134.3315  162.7708 C   0  0  2  0  0  0  0  0  0  0  0  0
  147.7186  135.6551  163.0540 C   0  0  0  0  0  0  0  0  0  0  0  0
  147.5002  133.7187  161.4519 C   0  0  0  0  0  0  0  0  0  0  0  0
  145.7215  134.9659  160.1712 C   0  0  0  0  0  0  0  0  0  0  0  0
  147.1709  131.3096  156.8391 H   0  0  0  0  0  0  0  0  0  0  0  0
  148.7382  131.9333  157.3445 H   0  0  0  0  0  0  0  0  0  0  0  0
  147.7090  132.8821  156.2719 H   0  0  0  0  0  0  0  0  0  0  0  0
  146.0249  133.1422  158.0957 H   0  0  0  0  0  0  0  0  0  0  0  0
  146.9627  132.0900  159.1221 H   0  0  0  0  0  0  0  0  0  0  0  0
  148.8242  133.7354  159.1395 H   0  0  0  0  0  0  0  0  0  0  0  0
  146.9992  135.4768  157.5500 H   0  0  0  0  0  0  0  0  0  0  0  0
  148.4256  136.1441  155.2990 H   0  0  0  0  0  0  0  0  0  0  0  0
  147.9823  137.3157  156.4947 H   0  0  0  0  0  0  0  0  0  0  0  0
  149.8741  136.8356  153.8955 H   0  0  0  0  0  0  0  0  0  0  0  0
  151.9717  137.9911  153.2177 H   0  0  0  0  0  0  0  0  0  0  0  0
  149.0502  135.8638  160.6413 H   0  0  0  0  0  0  0  0  0  0  0  0
  147.8257  136.7489  159.7743 H   0  0  0  0  0  0  0  0  0  0  0  0
  147.9752  137.5718  162.0870 H   0  0  0  0  0  0  0  0  0  0  0  0
  145.5638  137.3609  162.6881 H   0  0  0  0  0  0  0  0  0  0  0  0
  145.7476  137.6185  160.9698 H   0  0  0  0  0  0  0  0  0  0  0  0
  144.1380  135.7651  161.4122 H   0  0  0  0  0  0  0  0  0  0  0  0
  145.0809  135.0028  163.5892 H   0  0  0  0  0  0  0  0  0  0  0  0
  144.9322  133.6579  162.4842 H   0  0  0  0  0  0  0  0  0  0  0  0
  147.1663  133.6349  163.5894 H   0  0  0  0  0  0  0  0  0  0  0  0
  148.7888  135.4770  163.1636 H   0  0  0  0  0  0  0  0  0  0  0  0
  147.3782  136.0845  163.9971 H   0  0  0  0  0  0  0  0  0  0  0  0
  146.9935  132.7661  161.3020 H   0  0  0  0  0  0  0  0  0  0  0  0
  148.5635  133.4915  161.5393 H   0  0  0  0  0  0  0  0  0  0  0  0
  145.4978  135.6474  159.3499 H   0  0  0  0  0  0  0  0  0  0  0  0
  145.1697  134.0487  159.9645 H   0  0  0  0  0  0  0  0  0  0  0  0
  1  2  1  0  0  0  0
  1 26  1  0  0  0  0
  1 27  1  0  0  0  0
  1 28  1  0  0  0  0
  2  3  1  0  0  0  0
  2 29  1  0  0  0  0
  2 30  1  0  0  0  0
  3  4  1  0  0  0  0
  3 16  1  0  0  0  0
  3 31  1  0  0  0  0
  4  5  1  0  0  0  0
  4 32  1  0  0  0  0
  5  6  2  0  0  0  0
  5  7  1  0  0  0  0
  7  8  1  0  0  0  0
  7 33  1  0  0  0  0
  7 34  1  0  0  0  0
  8 14  1  0  0  0  0
  8  9  1  0  0  0  0
  9 10  2  0  0  0  0
  9 35  1  0  0  0  0
 10 11  1  0  0  0  0
 10 36  1  0  0  0  0
 11 12  2  0  0  0  0
 11 13  1  0  0  0  0
 13 14  1  0  0  0  0
 14 15  2  0  0  0  0
 16 24  1  0  0  0  0
 16 25  1  0  0  0  0
 16 17  1  0  0  0  0
 17 18  1  0  0  0  0
 17 37  1  0  0  0  0
 17 38  1  0  0  0  0
 18 23  1  0  0  0  0
 18 19  1  0  0  0  0
 18 39  1  0  0  0  0
 19 20  1  0  0  0  0
 19 40  1  0  0  0  0
 19 41  1  0  0  0  0
 20 21  1  0  0  0  0
 20 25  1  0  0  0  0
 20 42  1  0  0  0  0
 21 22  1  0  0  0  0
 21 43  1  0  0  0  0
 21 44  1  0  0  0  0
 22 23  1  0  0  0  0
 22 24  1  0  0  0  0
 22 45  1  0  0  0  0
 23 46  1  0  0  0  0
 23 47  1  0  0  0  0
 24 48  1  0  0  0  0
 24 49  1  0  0  0  0
 25 50  1  0  0  0  0
 25 51  1  0  0  0  0
M  CHG  1  13  -1
M  END
> <s_m_source_file>
AV-unprocessed.smi

> <i_m_source_file_index>
1591

> <i_lp_mmshare_version>
43012

> <i_f3d_flags>
0

> <s_epik_input>
W0NIMl0xW0NASF0oW0NIMl0yKVtDSDJdW0NASF0oW0NIMl0zKVtDSDJdW0NAQEhdMVtDSDJdQzIzW0NASF0oW0NIMl1bQ0gzXSlbTkhdQyg9TylbQ0gyXW40W2NIXVtjSF1jKD1PKVtuSF1jND1P

> <s_epik_cmdline>
J2VwaWtfcHl0aG9uJywgJy1waCcsICc3LjAnLCAnLXRuJywgJzgnLCAnLW1hJywgJzIwMCcsICctbWV0YWxfYmluZGluZycsICctaW1hZScsICc8aW5maWxlLm1hZT4nLCAnLW9tYWUnLCAnPG91dGZpbGUubWFlPic=

> <r_lp_tautomer_probability>
0.999537

> <r_epik_Ionization_Penalty>
3.13902

> <r_epik_Ionization_Penalty_Charging>
2.97334e-08

> <r_epik_Ionization_Penalty_Neutral>
3.13902

> <r_epik_State_Penalty>
3.13814

> <r_epik_Charging_Adjusted_Penalty>
3.13814

> <i_epik_Tot_Q>
-1

> <i_epik_Tot_abs_Q>
1

> <r_epik_Metal_State_Penalty>
0.465244

> <b_epik_Metal_Only>
1

> <s_lp_Force_Field>
OPLS_2005

> <r_lp_Energy>
49.2124

> <b_lp_Chiralities_Consistent>
1

> <s_lp_Variant>
AV-unprocessed.smi:1591-4

> <Gold.Version>
5.8.1

> <Gold.Id.Protein>
6NUR|6NUR_protein|mol2

> <Gold.PLP.Fitness>
43.3815

> <Gold.PLP.PLP>
-36.1182

> <Gold.PLP.part.hbond>
-1.9542

> <Gold.PLP.part.metal>
0.0000

> <Gold.PLP.part.buried>
-5.4159

> <Gold.PLP.part.nonpolar>
-30.2206

> <Gold.PLP.part.repulsive>
0.0413

> <Gold.PLP.ligand.clash>
0.0000

> <Gold.PLP.ligand.torsion>
0.4709

> <Gold.PLP.Chemscore.Hbond>
1.6880

> <Gold.PLP.Chemscore.CHOScore>
1.0046

> <Gold.PLP.Chemscore.Metal>
0.0000

> <Gold.Chemscore.Hbonds>
donor molecule, donor type, donor heavy atom, donor atom, acceptor molecule, acceptor atom, score
      P1  H  6896  6909       L1     6  0.59
      P1  H  7997  8008       L1    12  0.99
      L1  C     9    35       P1  7948  1.00

> <Gold.PLP.Chemscore.Internal.Correction>
0.1274

> <Gold.Rescore>
     Score         DG    S(hbond)    S(metal)    S(lipo)     H(rot)  DE(clash)    DE(int)     intcor
     16.02     -16.42       1.61        0.00      90.88       1.99       0.00       0.40       ----

> <Gold.Chemscore.Fitness>
16.0156

> <Gold.Chemscore.DG>
-16.4187

> <Gold.Chemscore.ZeroCoef>
-5.4800

> <Gold.Chemscore.Hbond>
1.6136

> <Gold.Chemscore.Metal>
0.0000

> <Gold.Chemscore.Lipo>
90.8792

> <Gold.Chemscore.Internal_Hbond>
0.0000

> <Gold.Chemscore.DEClash>
0.0029

> <Gold.Chemscore.DEInternal>
0.4002

> <Gold.Chemscore.Rot>
1.9858

> <Gold.Chemscore.Internal.Correction>
   9.000000E+99

> <Gold.Chemscore.Hbonds>
donor molecule, donor type, donor heavy atom, donor atom, acceptor molecule, acceptor atom, score
      P1  H  6896  6909       L1     6  0.57
      P1  H  7997  8008       L1    12  0.94

> <Gold.Chemscore.Hbond.Weighted>
-5.3895

> <Gold.Chemscore.Metal.Weighted>
-0.0000

> <Gold.Chemscore.Lipo.Weighted>
-10.6329

> <Gold.Chemscore.Internal_Hbond.Weighted>
0.0000

> <Gold.Chemscore.DEClash.Weighted>
0.0029

> <Gold.Chemscore.DEInternal.Weighted>
0.4002

> <Gold.Chemscore.Rot.Weighted>
5.0836

> <Gold.Chemscore.Internal.Correction.Weighted>
   9.000000E+99

> <Gold.Protein.RotatedTorsions>
[ 6907 6896 6895 6894 ] final   27.38 input  -60.11 | X-H torsion
[ 7974 7965 7964 7962 ] final -161.71 input  175.53 | X-H torsion
[ 8008 7997 7996 7995 ] final  -29.40 input   59.86 | X-H torsion
[ 10167 10162 10161 10158 ] final   88.97 input  -65.29 | X-H torsion
[ 10718 10713 10712 10709 ] final  -82.69 input   66.30 | X-H torsion
[ 10763 10752 10751 10750 ] final  -72.22 input  -60.55 | X-H torsion
[ 11005 11000 10999 10996 ] final  124.41 input  -57.11 | X-H torsion

> <Gold.Protein.ActiveResidues>
 VAL166  LYS551  ARG553  GLY616  TRP617  ASP618  TYR619  PRO620  LYS621  CYS622 
 ASP623  PHE694  ASN695  SER759  ASP760  ASP761  ALA762  ILE779  LEU786  VAL792 
 PHE793  MET794  SER795  GLU796  ALA797  LYS798  CYS799  TRP800  GLU811  SER814 

> <Gold.Protein.RotatedAtoms>
  152.0014  134.9926  160.0564 H   0  0  0  0  0  0  0  0  0  0  0  0  # atno 6907 bound_to 6896
  152.1515  133.4520  159.4824 H   0  0  0  0  0  0  0  0  0  0  0  0  # atno 6908 bound_to 6896
  150.6876  134.2101  159.4399 H   0  0  0  0  0  0  0  0  0  0  0  0  # atno 6909 bound_to 6896
  144.7382  140.3358  143.6144 H   0  0  0  0  0  0  0  0  0  0  0  0  # atno 7974 bound_to 7965
  154.4291  140.1819  156.1242 H   0  0  0  0  0  0  0  0  0  0  0  0  # atno 8008 bound_to 7997
  156.0118  140.3350  155.6924 H   0  0  0  0  0  0  0  0  0  0  0  0  # atno 8009 bound_to 7997
  155.6099  140.0649  157.2700 H   0  0  0  0  0  0  0  0  0  0  0  0  # atno 8010 bound_to 7997
  139.8619  144.6539  150.9048 H   0  0  0  0  0  0  0  0  0  0  0  0  # atno 10167 bound_to 10162
  156.0029  130.4642  150.4144 H   0  0  0  0  0  0  0  0  0  0  0  0  # atno 10718 bound_to 10713
  154.4427  135.5937  153.6140 H   0  0  0  0  0  0  0  0  0  0  0  0  # atno 10763 bound_to 10752
  152.9807  135.6002  154.3702 H   0  0  0  0  0  0  0  0  0  0  0  0  # atno 10764 bound_to 10752
  154.3554  135.2841  155.2328 H   0  0  0  0  0  0  0  0  0  0  0  0  # atno 10765 bound_to 10752
  139.9357  134.9639  156.8405 H   0  0  0  0  0  0  0  0  0  0  0  0  # atno 11005 bound_to 11000
  145.7425  139.1768  143.2367 LP  0  0  0  0  0  0  0  0  0  0  0  0  # atno 17320 bound_to 7965
  146.1123  140.7413  142.9497 LP  0  0  0  0  0  0  0  0  0  0  0  0  # atno 17321 bound_to 7965
  140.7774  143.3737  151.1602 LP  0  0  0  0  0  0  0  0  0  0  0  0  # atno 17342 bound_to 10162
  139.7366  143.8990  152.3036 LP  0  0  0  0  0  0  0  0  0  0  0  0  # atno 17343 bound_to 10162
  157.2204  131.0481  151.2549 LP  0  0  0  0  0  0  0  0  0  0  0  0  # atno 17370 bound_to 10713
  157.3805  130.7229  149.6627 LP  0  0  0  0  0  0  0  0  0  0  0  0  # atno 17371 bound_to 10713
  140.6081  134.0108  155.7565 LP  0  0  0  0  0  0  0  0  0  0  0  0  # atno 17394 bound_to 11000
  141.0970  133.9828  157.3143 LP  0  0  0  0  0  0  0  0  0  0  0  0  # atno 17395 bound_to 11000

$$$$
