#       Name:                AV-unprocessed.smi:160
#       Creating user name   scv26
#       Creation time:       Thu Mar 26 19:09:04 2020


#       File generated by GOLD software.
#

@<TRIPOS>MOLECULE
AV-unprocessed.smi:160
    41    42     1
SMALL
NO_CHARGES


@<TRIPOS>ATOM
      1 ****        -4.0073   0.9201  -0.1862 N.pl3          1 S1                -1.0000
      2 ****        -4.0271  -0.0643   0.7387 C.2            1 S1                 0.0000
      3 ****        -5.0224  -0.4986   1.3175 O.2            1 S1                 0.0000
      4 ****        -2.6737  -0.6550   1.0553 C.2            1 S1                 0.0000
      5 ****        -2.5515  -1.6688   1.9655 N.2            1 S1                 0.0000
      6 ****        -1.2386  -1.8467   1.9101 C.2            1 S1                 0.0000
      7 ****        -0.6116  -1.0374   1.0520 N.pl3          1 S1                 0.0000
      8 ****         0.8445  -0.9264   0.7257 C.3            1 S1                 0.0000
      9 ****         1.2117   0.4103   0.8912 O.3            1 S1                 0.0000
     10 ****         1.9506   0.8672  -0.2391 C.3            1 S1                 0.0000
     11 ****         1.8146   2.3910  -0.4067 C.3            1 S1                 0.0000
     12 ****         2.7285   3.0575   0.4386 O.3            1 S1                 0.0000
     13 ****         1.4164   0.0212  -1.4036 C.3            1 S1                 0.0000
     14 ****         0.2352   0.5854  -1.9468 O.3            1 S1                 0.0000
     15 ****         1.1733  -1.3229  -0.7282 C.3            1 S1                 0.0000
     16 ****         0.2092  -2.1247  -1.3905 O.3            1 S1                 0.0000
     17 ****        -1.5423  -0.2331   0.4826 N.2            1 S1                 0.0000
     18 ****         1.3376  -1.5618   1.4624 H              1 S1                 0.0000
     19 ****         2.9980   0.5993  -0.0867 H              1 S1                 0.0000
     20 ****         2.1469  -0.0638  -2.2086 H              1 S1                 0.0000
     21 ****         2.1142  -1.8738  -0.6991 H              1 S1                 0.0000
     22 ****        -3.1040   1.1866  -0.5960 H              1 S1                 0.0000
     23 ****        -0.7229  -2.5841   2.5073 H              1 S1                 0.0000
     24 ****         2.0512   2.6794  -1.4312 H              1 S1                 0.0000
     25 ****         0.7963   2.7234  -0.2015 H              1 S1                 0.0000
     26 ****         2.6100   3.9888   0.3311 H              1 S1                 0.0000
     27 ****        -0.1894  -0.0687  -2.4811 H              1 S1                 0.0000
     28 ****         0.0539  -2.8996  -0.8728 H              1 S1                 0.0000
     29 ****        -4.8514   1.3781  -0.4650 LP             1 S1                 0.0000
     30 ****        -5.9244  -0.1167   1.1161 LP             1 S1                 0.0000
     31 ****        -4.9293  -1.2335   1.9893 LP             1 S1                 0.0000
     32 ****        -3.2465  -2.1371   2.5111 LP             1 S1                 0.0000
     33 ****         1.7770   0.4974   1.7114 LP             1 S1                 0.0000
     34 ****         0.3879   0.9679   0.9935 LP             1 S1                 0.0000
     35 ****         3.6637   2.8052   0.1904 LP             1 S1                 0.0000
     36 ****         2.5559   2.8027   1.3901 LP             1 S1                 0.0000
     37 ****         0.4673   1.3805  -2.5071 LP             1 S1                 0.0000
     38 ****        -0.3763   0.8661  -1.2069 LP             1 S1                 0.0000
     39 ****         0.5511  -2.3858  -2.2932 LP             1 S1                 0.0000
     40 ****        -0.6430  -1.6115  -1.4924 LP             1 S1                 0.0000
     41 ****        -1.4148   0.4919  -0.1942 LP             1 S1                 0.0000
@<TRIPOS>BOND
    1    1    2 1     
    2    1   22 1     
    3    2    3 2     
    4    2    4 1     
    5    4   17 2     
    6    4    5 1     
    7    5    6 2     
    8    6    7 1     
    9    6   23 1     
   10    7    8 1     
   11    7   17 1     
   12    8   18 1     
   13    8   15 1     
   14    8    9 1     
   15    9   10 1     
   16   10   19 1     
   17   10   11 1     
   18   10   13 1     
   19   11   12 1     
   20   11   24 1     
   21   11   25 1     
   22   12   26 1     
   23   13   20 1     
   24   13   14 1     
   25   13   15 1     
   26   14   27 1     
   27   15   21 1     
   28   15   16 1     
   29   16   28 1     
   30    1   29 1     
   31    3   30 1     
   32    3   31 1     
   33    5   32 1     
   34    9   33 1     
   35    9   34 1     
   36   12   35 1     
   37   12   36 1     
   38   14   37 1     
   39   14   38 1     
   40   16   39 1     
   41   16   40 1     
   42   17   41 1     
@<TRIPOS>SUBSTRUCTURE
      1 S1             1
@<TRIPOS>SET
LONE_PAIRS      STATIC     ATOMS    <user>   **** ""
13 29 30 31 32 33 34 35 36 37 38 39 40 41
DONOR_HYDROGENS      STATIC     ATOMS    <user>   **** ""
4 22 26 27 28
ATOM$BLUE        STATIC     ATOMS    COLORGROUP SYSTEM
13 29 30 31 32 33 34 35 36 37 38 39 40 41
ATOM$RED        STATIC     ATOMS    COLORGROUP SYSTEM
4 22 26 27 28
