AV-unprocessed.smi:37|AV-procd|sdf|308|dock10
  -GOLD-   2262016123D 1   1.00000     0.00000
 Structure written by MMmdl.
 44 45  0  0  0  0  0  0  0  0  1 V2000
  145.8881  144.4210  161.5771 C   0  0  0  0  0  0  0  0  0  0  0  0
  145.9975  144.5192  160.0500 C   0  0  0  0  0  0  0  0  0  0  0  0
  146.2557  143.1613  159.4014 C   0  0  0  0  0  0  0  0  0  0  0  0
  145.4606  142.2299  159.5258 O   0  0  0  0  0  0  0  0  0  0  0  0
  147.4015  143.1335  158.7014 O   0  0  0  0  0  0  0  0  0  0  0  0
  147.7993  141.9464  158.0334 C   0  0  0  0  0  0  0  0  0  0  0  0
  148.8519  142.2818  156.9617 C   0  0  1  0  0  0  0  0  0  0  0  0
  150.0700  142.5758  157.6500 O   0  0  0  0  0  0  0  0  0  0  0  0
  151.0553  141.6562  157.2930 C   0  0  1  0  0  0  0  0  0  0  0  0
  151.8358  141.2900  158.5322 N   0  0  0  0  0  0  0  0  0  0  0  0
  151.8194  142.1220  159.6429 C   0  0  0  0  0  0  0  0  0  0  0  0
  152.5198  141.8604  160.7715 C   0  0  0  0  0  0  0  0  0  0  0  0
  152.4523  142.7137  161.8073 F   0  0  0  0  0  0  0  0  0  0  0  0
  153.3500  140.6636  160.8708 C   0  0  0  0  0  0  0  0  0  0  0  0
  154.0184  140.3385  161.8501 O   0  0  0  0  0  0  0  0  0  0  0  0
  153.3451  139.8619  159.7255 N   0  0  0  0  0  0  0  0  0  0  0  0
  152.6286  140.1205  158.5551 C   0  0  0  0  0  0  0  0  0  0  0  0
  152.7008  139.3368  157.6098 O   0  0  0  0  0  0  0  0  0  0  0  0
  150.3446  140.4493  156.6937 C   0  0  2  0  0  0  0  0  0  0  0  0
  151.5086  139.4603  155.4173 Br  0  0  0  0  0  0  0  0  0  0  0  0
  149.1896  141.1291  155.9941 C   0  0  1  0  0  0  0  0  0  0  0  0
  148.1334  140.2030  155.7731 O   0  0  0  0  0  0  0  0  0  0  0  0
  148.2143  139.3069  154.7725 C   0  0  0  0  0  0  0  0  0  0  0  0
  149.2205  139.0513  154.1112 O   0  0  0  0  0  0  0  0  0  0  0  0
  146.8803  138.6204  154.4885 C   0  0  0  0  0  0  0  0  0  0  0  0
  146.3634  138.9154  153.0742 C   0  0  0  0  0  0  0  0  0  0  0  0
  153.9079  139.0239  159.7470 H   0  0  0  0  0  0  0  0  0  0  0  0
  145.6755  145.3988  162.0091 H   0  0  0  0  0  0  0  0  0  0  0  0
  146.8153  144.0587  162.0226 H   0  0  0  0  0  0  0  0  0  0  0  0
  145.0842  143.7469  161.8745 H   0  0  0  0  0  0  0  0  0  0  0  0
  145.0791  144.9387  159.6387 H   0  0  0  0  0  0  0  0  0  0  0  0
  146.8057  145.1982  159.7769 H   0  0  0  0  0  0  0  0  0  0  0  0
  148.2265  141.2727  158.7768 H   0  0  0  0  0  0  0  0  0  0  0  0
  146.9514  141.4306  157.5806 H   0  0  0  0  0  0  0  0  0  0  0  0
  148.5416  143.1681  156.4073 H   0  0  0  0  0  0  0  0  0  0  0  0
  151.7197  142.1481  156.5813 H   0  0  0  0  0  0  0  0  0  0  0  0
  151.2244  143.0232  159.6128 H   0  0  0  0  0  0  0  0  0  0  0  0
  150.0016  139.7677  157.4730 H   0  0  0  0  0  0  0  0  0  0  0  0
  149.5572  141.5465  155.0550 H   0  0  0  0  0  0  0  0  0  0  0  0
  147.0008  137.5454  154.6254 H   0  0  0  0  0  0  0  0  0  0  0  0
  146.1498  138.9529  155.2264 H   0  0  0  0  0  0  0  0  0  0  0  0
  145.3876  138.4551  152.9185 H   0  0  0  0  0  0  0  0  0  0  0  0
  147.0372  138.5228  152.3118 H   0  0  0  0  0  0  0  0  0  0  0  0
  146.2531  139.9874  152.9070 H   0  0  0  0  0  0  0  0  0  0  0  0
  1  2  1  0  0  0  0
  1 28  1  0  0  0  0
  1 29  1  0  0  0  0
  1 30  1  0  0  0  0
  2  3  1  0  0  0  0
  2 31  1  0  0  0  0
  2 32  1  0  0  0  0
  3  4  2  0  0  0  0
  3  5  1  0  0  0  0
  5  6  1  0  0  0  0
  6  7  1  0  0  0  0
  6 33  1  0  0  0  0
  6 34  1  0  0  0  0
  7 21  1  0  0  0  0
  7  8  1  0  0  0  0
  7 35  1  0  0  0  0
  8  9  1  0  0  0  0
  9 10  1  0  0  0  0
  9 19  1  0  0  0  0
  9 36  1  0  0  0  0
 10 17  1  0  0  0  0
 10 11  1  0  0  0  0
 11 12  2  0  0  0  0
 11 37  1  0  0  0  0
 12 13  1  0  0  0  0
 12 14  1  0  0  0  0
 14 15  2  0  0  0  0
 14 16  1  0  0  0  0
 16 27  1  0  0  0  0
 16 17  1  0  0  0  0
 17 18  2  0  0  0  0
 19 20  1  0  0  0  0
 19 21  1  0  0  0  0
 19 38  1  0  0  0  0
 21 22  1  0  0  0  0
 21 39  1  0  0  0  0
 22 23  1  0  0  0  0
 23 24  2  0  0  0  0
 23 25  1  0  0  0  0
 25 26  1  0  0  0  0
 25 40  1  0  0  0  0
 25 41  1  0  0  0  0
 26 42  1  0  0  0  0
 26 43  1  0  0  0  0
 26 44  1  0  0  0  0
M  END
> <s_m_source_file>
AV-unprocessed.smi

> <i_m_source_file_index>
37

> <i_lp_mmshare_version>
43012

> <i_f3d_flags>
0

> <s_epik_input>
W0NIM11bQ0gyXUMoPU8pT1tDSDJdW0NAQEhdMU9bQ0BASF0objJbY0hdYyhGKWMoPU8pW25IXWMyPU8pW0NAQEhdKEJyKVtDQEhdMU9DKD1PKVtDSDJdW0NIM10=

> <s_epik_cmdline>
J2VwaWtfcHl0aG9uJywgJy1waCcsICc3LjAnLCAnLXRuJywgJzgnLCAnLW1hJywgJzIwMCcsICctbWV0YWxfYmluZGluZycsICctaW1hZScsICc8aW5maWxlLm1hZT4nLCAnLW9tYWUnLCAnPG91dGZpbGUubWFlPic=

> <r_lp_tautomer_probability>
0.999537

> <r_epik_Ionization_Penalty>
0.104106

> <r_epik_Ionization_Penalty_Charging>
0.104106

> <r_epik_Ionization_Penalty_Neutral>
3.94675e-16

> <r_epik_State_Penalty>
0.0940182

> <r_epik_Charging_Adjusted_Penalty>
0.198124

> <i_epik_Tot_Q>
0

> <i_epik_Tot_abs_Q>
0

> <r_epik_Metal_State_Penalty>
3.05314

> <b_epik_Metal_Only>
0

> <s_epik_Chemistry_Notes>
This compound has an ester and may undergo hydrolysis at high or low pH. This compound contains an acetal/aminal-like group ( X-CH(R)-Y where X, Y are N, S, or O) that may be acid/base labile, releasing an aldehyde.

> <s_lp_Force_Field>
OPLS_2005

> <r_lp_Energy>
26.2696

> <b_lp_Chiralities_Consistent>
1

> <s_lp_Variant>
AV-unprocessed.smi:37-6

> <Gold.Version>
5.8.1

> <Gold.Id.Protein>
6NUR|6NUR_protein|mol2

> <Gold.PLP.Fitness>
43.6065

> <Gold.PLP.PLP>
-39.2833

> <Gold.PLP.part.hbond>
-2.0000

> <Gold.PLP.part.metal>
0.0000

> <Gold.PLP.part.buried>
-3.9209

> <Gold.PLP.part.nonpolar>
-32.7590

> <Gold.PLP.part.repulsive>
0.8229

> <Gold.PLP.ligand.clash>
0.0504

> <Gold.PLP.ligand.torsion>
0.8966

> <Gold.PLP.Chemscore.Hbond>
2.0000

> <Gold.PLP.Chemscore.CHOScore>
0.0000

> <Gold.PLP.Chemscore.Metal>
0.0000

> <Gold.Chemscore.Hbonds>
donor molecule, donor type, donor heavy atom, donor atom, acceptor molecule, acceptor atom, score
      P1  H  6934  6946       L1     4  0.22
      P1  H  7997  8008       L1    18  0.91

> <Gold.PLP.Chemscore.Internal.Correction>
0.1668

> <Gold.Rescore>
     Score         DG    S(hbond)    S(metal)    S(lipo)     H(rot)  DE(clash)    DE(int)     intcor
      2.34      -7.95       1.10        0.00      62.55       3.33       0.12       5.49       ----

> <Gold.Chemscore.Fitness>
2.3437

> <Gold.Chemscore.DG>
-7.9511

> <Gold.Chemscore.ZeroCoef>
-5.4800

> <Gold.Chemscore.Hbond>
1.1012

> <Gold.Chemscore.Metal>
0.0000

> <Gold.Chemscore.Lipo>
62.5533

> <Gold.Chemscore.Internal_Hbond>
0.0000

> <Gold.Chemscore.DEClash>
0.1200

> <Gold.Chemscore.DEInternal>
5.4873

> <Gold.Chemscore.Rot>
3.3303

> <Gold.Chemscore.Internal.Correction>
   9.000000E+99

> <Gold.Chemscore.Hbonds>
donor molecule, donor type, donor heavy atom, donor atom, acceptor molecule, acceptor atom, score
      P1  H  6934  6946       L1     4  0.03
      P1  H  7997  8008       L1    18  0.23

> <Gold.Chemscore.Hbond.Weighted>
-3.6779

> <Gold.Chemscore.Metal.Weighted>
-0.0000

> <Gold.Chemscore.Lipo.Weighted>
-7.3187

> <Gold.Chemscore.Internal_Hbond.Weighted>
0.0000

> <Gold.Chemscore.DEClash.Weighted>
0.1200

> <Gold.Chemscore.DEInternal.Weighted>
5.4873

> <Gold.Chemscore.Rot.Weighted>
8.5256

> <Gold.Chemscore.Internal.Correction.Weighted>
   9.000000E+99

> <Gold.Protein.RotatedTorsions>
[ 6907 6896 6895 6894 ] final  -39.85 input  -60.11 | X-H torsion
[ 7974 7965 7964 7962 ] final  100.34 input  175.53 | X-H torsion
[ 8008 7997 7996 7995 ] final  -61.71 input   59.86 | X-H torsion
[ 10167 10162 10161 10158 ] final  141.49 input  -65.29 | X-H torsion
[ 10718 10713 10712 10709 ] final   56.59 input   66.30 | X-H torsion
[ 10763 10752 10751 10750 ] final   58.88 input  -60.55 | X-H torsion
[ 11005 11000 10999 10996 ] final  -21.65 input  -57.11 | X-H torsion

> <Gold.Protein.ActiveResidues>
 VAL166  LYS551  ARG553  GLY616  TRP617  ASP618  TYR619  PRO620  LYS621  CYS622 
 ASP623  PHE694  ASN695  SER759  ASP760  ASP761  ALA762  ILE779  LEU786  VAL792 
 PHE793  MET794  SER795  GLU796  ALA797  LYS798  CYS799  TRP800  GLU811  SER814 

> <Gold.Protein.RotatedAtoms>
  150.9854  134.9201  159.7868 H   0  0  0  0  0  0  0  0  0  0  0  0  # atno 6907 bound_to 6896
  152.5235  134.3353  159.9207 H   0  0  0  0  0  0  0  0  0  0  0  0  # atno 6908 bound_to 6896
  151.3360  133.3940  159.2701 H   0  0  0  0  0  0  0  0  0  0  0  0  # atno 6909 bound_to 6896
  145.3869  139.2370  143.3373 H   0  0  0  0  0  0  0  0  0  0  0  0  # atno 7974 bound_to 7965
  154.4462  140.1012  156.6474 H   0  0  0  0  0  0  0  0  0  0  0  0  # atno 8008 bound_to 7997
  155.5435  140.3484  155.4434 H   0  0  0  0  0  0  0  0  0  0  0  0  # atno 8009 bound_to 7997
  156.0580  140.1319  156.9963 H   0  0  0  0  0  0  0  0  0  0  0  0  # atno 8010 bound_to 7997
  139.5019  144.6168  151.6146 H   0  0  0  0  0  0  0  0  0  0  0  0  # atno 10167 bound_to 10162
  157.5444  130.8720  149.8869 H   0  0  0  0  0  0  0  0  0  0  0  0  # atno 10718 bound_to 10713
  152.9881  135.5591  154.5624 H   0  0  0  0  0  0  0  0  0  0  0  0  # atno 10763 bound_to 10752
  154.5040  135.2799  155.1399 H   0  0  0  0  0  0  0  0  0  0  0  0  # atno 10764 bound_to 10752
  154.2818  135.6343  153.5403 H   0  0  0  0  0  0  0  0  0  0  0  0  # atno 10765 bound_to 10752
  140.8582  133.7807  156.0044 H   0  0  0  0  0  0  0  0  0  0  0  0  # atno 11005 bound_to 11000
  146.2816  140.4546  142.8774 LP  0  0  0  0  0  0  0  0  0  0  0  0  # atno 17320 bound_to 7965
  144.8468  140.6941  143.6194 LP  0  0  0  0  0  0  0  0  0  0  0  0  # atno 17321 bound_to 7965
  140.5858  143.9867  150.6295 LP  0  0  0  0  0  0  0  0  0  0  0  0  # atno 17342 bound_to 10162
  140.3031  143.3247  152.0952 LP  0  0  0  0  0  0  0  0  0  0  0  0  # atno 17343 bound_to 10162
  156.0523  130.3715  150.1172 LP  0  0  0  0  0  0  0  0  0  0  0  0  # atno 17370 bound_to 10713
  156.9350  130.9726  151.3526 LP  0  0  0  0  0  0  0  0  0  0  0  0  # atno 17371 bound_to 10713
  140.8713  134.2723  157.5189 LP  0  0  0  0  0  0  0  0  0  0  0  0  # atno 17394 bound_to 11000
  139.8706  134.9569  156.4251 LP  0  0  0  0  0  0  0  0  0  0  0  0  # atno 17395 bound_to 11000

$$$$
