#       Name:                AV-unprocessed.smi:2074
#       Creating user name   scv26
#       Creation time:       Fri Mar 27 11:15:16 2020


#       File generated by GOLD software.
#

@<TRIPOS>MOLECULE
AV-unprocessed.smi:2074
    51    52     1
SMALL
NO_CHARGES


@<TRIPOS>ATOM
      1 ****        -3.9093   1.9735   0.8589 C.3            1 S1                 0.0000
      2 ****        -3.7749   2.3366  -0.5922 C.2            1 S1                 0.0000
      3 ****        -4.0775   3.5614  -0.9878 N.2            1 S1                 0.0000
      4 ****        -3.8500   3.5861  -2.3670 O.3            1 S1                 0.0000
      5 ****        -3.4103   2.3610  -2.7517 C.2            1 S1                 0.0000
      6 ****        -3.1076   2.1848  -4.2015 C.3            1 S1                 0.0000
      7 ****        -3.3381   1.5199  -1.6750 C.2            1 S1                 0.0000
      8 ****        -2.9021   0.0776  -1.6371 C.3            1 S1                 0.0000
      9 ****        -1.3818   0.0038  -1.4976 C.2            1 S1                 0.0000
     10 ****        -0.6792  -0.1418  -2.4974 O.2            1 S1                 0.0000
     11 ****        -0.8883   0.1049  -0.2529 N.am           1 S1                 0.0000
     12 ****         0.5297   0.1100   0.0998 C.3            1 S1                 0.0000
     13 ****         1.0000  -1.2009   0.7919 C.3            1 S1                 0.0000
     14 ****         0.6578  -2.4328  -0.0815 C.3            1 S1                 0.0000
     15 ****         2.4609  -1.1743   1.1422 N.4            1 S1                 1.0000
     16 ****         2.9099   0.0760   1.8189 C.3            1 S1                 0.0000
     17 ****         4.4117   0.0360   2.1493 C.3            1 S1                 0.0000
     18 ****         4.6994  -1.0999   2.9482 O.3            1 S1                 0.0000
     19 ****         4.4011  -2.3012   2.2556 C.3            1 S1                 0.0000
     20 ****         2.8973  -2.3556   1.9397 C.3            1 S1                 0.0000
     21 ****        -4.3568   0.9866   0.9763 H              1 S1                 0.0000
     22 ****        -4.5383   2.6848   1.3960 H              1 S1                 0.0000
     23 ****        -2.9349   1.9566   1.3470 H              1 S1                 0.0000
     24 ****        -2.3148   1.4512  -4.3480 H              1 S1                 0.0000
     25 ****        -2.7818   3.1237  -4.6495 H              1 S1                 0.0000
     26 ****        -3.9905   1.8404  -4.7401 H              1 S1                 0.0000
     27 ****        -3.3673  -0.4620  -0.8113 H              1 S1                 0.0000
     28 ****        -3.2000  -0.4488  -2.5446 H              1 S1                 0.0000
     29 ****        -1.5462   0.2187   0.5047 H              1 S1                 0.0000
     30 ****         1.1517   0.3216  -0.7716 H              1 S1                 0.0000
     31 ****         0.6377   0.9612   0.7706 H              1 S1                 0.0000
     32 ****         0.4431  -1.2901   1.7261 H              1 S1                 0.0000
     33 ****        -0.3946  -2.4559  -0.3609 H              1 S1                 0.0000
     34 ****         0.8293  -3.3760   0.4336 H              1 S1                 0.0000
     35 ****         1.2413  -2.4383  -1.0026 H              1 S1                 0.0000
     36 ****         2.7519   0.9441   1.1812 H              1 S1                 0.0000
     37 ****         2.3297   0.2271   2.7305 H              1 S1                 0.0000
     38 ****         5.0116   0.0193   1.2377 H              1 S1                 0.0000
     39 ****         4.6973   0.9330   2.6991 H              1 S1                 0.0000
     40 ****         4.9958  -2.3715   1.3431 H              1 S1                 0.0000
     41 ****         4.6826  -3.1474   2.8828 H              1 S1                 0.0000
     42 ****         2.3247  -2.4021   2.8673 H              1 S1                 0.0000
     43 ****         2.7154  -3.2843   1.4032 H              1 S1                 0.0000
     44 ****         2.9645  -1.2151   0.2674 H              1 S1                 0.0000
     45 ****        -4.4025   4.3156  -0.4173 LP             1 S1                 0.0000
     46 ****        -3.1589   4.2758  -2.5828 LP             1 S1                 0.0000
     47 ****        -4.7003   3.8051  -2.8455 LP             1 S1                 0.0000
     48 ****        -1.1030  -0.2118  -3.4005 LP             1 S1                 0.0000
     49 ****         0.3155  -0.1902  -2.4068 LP             1 S1                 0.0000
     50 ****         4.1503  -1.0595   3.7830 LP             1 S1                 0.0000
     51 ****         5.6704  -1.0934   3.1872 LP             1 S1                 0.0000
@<TRIPOS>BOND
    1    1    2 1     
    2    1   21 1     
    3    1   22 1     
    4    1   23 1     
    5    2    7 1     
    6    2    3 2     
    7    3    4 1     
    8    4    5 1     
    9    5    6 1     
   10    5    7 2     
   11    6   24 1     
   12    6   25 1     
   13    6   26 1     
   14    7    8 1     
   15    8    9 1     
   16    8   27 1     
   17    8   28 1     
   18    9   10 2     
   19    9   11 am    
   20   11   12 1     
   21   11   29 1     
   22   12   13 1     
   23   12   30 1     
   24   12   31 1     
   25   13   14 1     
   26   13   15 1     
   27   13   32 1     
   28   14   33 1     
   29   14   34 1     
   30   14   35 1     
   31   15   20 1     
   32   15   16 1     
   33   15   44 1     
   34   16   17 1     
   35   16   36 1     
   36   16   37 1     
   37   17   18 1     
   38   17   38 1     
   39   17   39 1     
   40   18   19 1     
   41   19   20 1     
   42   19   40 1     
   43   19   41 1     
   44   20   42 1     
   45   20   43 1     
   46    3   45 1     
   47    4   46 1     
   48    4   47 1     
   49   10   48 1     
   50   10   49 1     
   51   18   50 1     
   52   18   51 1     
@<TRIPOS>SUBSTRUCTURE
      1 S1             1
@<TRIPOS>SET
LONE_PAIRS      STATIC     ATOMS    <user>   **** ""
7 45 46 47 48 49 50 51
DONOR_HYDROGENS      STATIC     ATOMS    <user>   **** ""
2 29 44
ATOM$BLUE        STATIC     ATOMS    COLORGROUP SYSTEM
7 45 46 47 48 49 50 51
ATOM$RED        STATIC     ATOMS    COLORGROUP SYSTEM
2 29 44
