#       Name:                AV-unprocessed.smi:280
#       Creating user name   scv26
#       Creation time:       Thu Mar 26 21:38:54 2020


#       File generated by GOLD software.
#

@<TRIPOS>MOLECULE
AV-unprocessed.smi:280
    69    72     1
SMALL
NO_CHARGES


@<TRIPOS>ATOM
      1 ****        -3.0083  -0.2304  -1.6968 C.3            1 S1                 0.0000
      2 ****        -2.4981   0.0876  -0.2759 C.3            1 S1                 0.0000
      3 ****        -0.9675   0.2919  -0.3542 C.3            1 S1                 0.0000
      4 ****        -0.4017   0.7308   0.9153 N.3            1 S1                 0.0000
      5 ****         0.9501   0.6356   0.9998 C.ar           1 S1                 0.0000
      6 ****         1.7007   1.7582   1.1612 N.ar           1 S1                 0.0000
      7 ****         3.0318   1.6747   1.2435 C.ar           1 S1                 0.0000
      8 ****         3.8035   0.5878   1.1913 N.ar           1 S1                 0.0000
      9 ****         3.0580  -0.5431   1.0344 C.ar           1 S1                 0.0000
     10 ****         1.6396  -0.6081   0.9299 C.ar           1 S1                 0.0000
     11 ****         1.2365  -1.9311   0.7936 N.2            1 S1                 0.0000
     12 ****         2.3520  -2.6083   0.8115 C.2            1 S1                 0.0000
     13 ****         3.4960  -1.8536   0.9439 N.pl3          1 S1                 0.0000
     14 ****         4.8644  -2.3461   1.0015 C.3            1 S1                 0.0000
     15 ****         5.4496  -2.7260  -0.3736 C.3            1 S1                 0.0000
     16 ****         5.4368  -1.5111  -1.3177 C.3            1 S1                 0.0000
     17 ****         6.2593  -0.4715  -0.8279 O.3            1 S1                 0.0000
     18 ****         6.7673  -3.5126  -0.3483 C.3            1 S1                 0.0000
     19 ****         6.2398  -4.5377  -1.2170 O.3            1 S1                 0.0000
     20 ****         4.9102  -4.0208  -0.9986 C.3            1 S1                 0.0000
     21 ****        -1.0354   1.9243   1.4608 C.3            1 S1                 0.0000
     22 ****        -2.5429   1.6976   1.6121 C.3            1 S1                 0.0000
     23 ****        -3.1780   1.2749   0.3337 N.4            1 S1                 1.0000
     24 ****        -4.6559   1.1359   0.4926 C.3            1 S1                 0.0000
     25 ****        -5.4444   2.3197  -0.1199 C.3            1 S1                 0.0000
     26 ****        -5.1534   2.5203  -1.6179 C.3            1 S1                 0.0000
     27 ****        -6.9531   2.1193   0.1030 C.3            1 S1                 0.0000
     28 ****        -5.0930   3.5091   0.5591 O.3            1 S1                 0.0000
     29 ****        -2.4486  -1.0609  -2.1281 H              1 S1                 0.0000
     30 ****        -2.8823   0.6235  -2.3627 H              1 S1                 0.0000
     31 ****        -4.0567  -0.5222  -1.7234 H              1 S1                 0.0000
     32 ****        -2.6938  -0.7723   0.3673 H              1 S1                 0.0000
     33 ****        -0.4989  -0.6314  -0.6936 H              1 S1                 0.0000
     34 ****        -0.7341   1.0487  -1.1049 H              1 S1                 0.0000
     35 ****         3.5527   2.6123   1.3707 H              1 S1                 0.0000
     36 ****         2.3680  -3.6854   0.7316 H              1 S1                 0.0000
     37 ****         5.4845  -1.5949   1.4916 H              1 S1                 0.0000
     38 ****         4.8735  -3.2085   1.6693 H              1 S1                 0.0000
     39 ****         5.8054  -1.7890  -2.3056 H              1 S1                 0.0000
     40 ****         4.4279  -1.1278  -1.4694 H              1 S1                 0.0000
     41 ****         6.2206   0.2540  -1.4324 H              1 S1                 0.0000
     42 ****         7.6126  -2.9832  -0.7898 H              1 S1                 0.0000
     43 ****         7.0282  -3.9094   0.6342 H              1 S1                 0.0000
     44 ****         4.3473  -4.6507  -0.3084 H              1 S1                 0.0000
     45 ****         4.3586  -3.8711  -1.9276 H              1 S1                 0.0000
     46 ****        -0.6059   2.1689   2.4335 H              1 S1                 0.0000
     47 ****        -0.8479   2.7720   0.8000 H              1 S1                 0.0000
     48 ****        -2.7161   0.9314   2.3698 H              1 S1                 0.0000
     49 ****        -3.0081   2.6129   1.9781 H              1 S1                 0.0000
     50 ****        -5.0128   0.2070   0.0519 H              1 S1                 0.0000
     51 ****        -4.9094   1.0369   1.5498 H              1 S1                 0.0000
     52 ****        -5.4084   1.6287  -2.1914 H              1 S1                 0.0000
     53 ****        -4.1023   2.7448  -1.8008 H              1 S1                 0.0000
     54 ****        -5.7348   3.3480  -2.0260 H              1 S1                 0.0000
     55 ****        -7.3089   1.2193  -0.3996 H              1 S1                 0.0000
     56 ****        -7.5303   2.9600  -0.2844 H              1 S1                 0.0000
     57 ****        -7.1907   2.0191   1.1629 H              1 S1                 0.0000
     58 ****        -5.6164   4.2181   0.2162 H              1 S1                 0.0000
     59 ****        -3.0370   2.0354  -0.3159 H              1 S1                 0.0000
     60 ****        -0.6683   0.0390   1.5864 LP             1 S1                 0.0000
     61 ****         1.2540   2.6510   1.2186 LP             1 S1                 0.0000
     62 ****         4.8012   0.6007   1.2586 LP             1 S1                 0.0000
     63 ****         0.3051  -2.2835   0.7026 LP             1 S1                 0.0000
     64 ****         7.2021  -0.7958  -0.7509 LP             1 S1                 0.0000
     65 ****         5.9330  -0.1789   0.0709 LP             1 S1                 0.0000
     66 ****         6.3775  -5.4698  -0.8821 LP             1 S1                 0.0000
     67 ****         6.5540  -4.4741  -2.1643 LP             1 S1                 0.0000
     68 ****        -4.1232   3.7057   0.4144 LP             1 S1                 0.0000
     69 ****        -5.2692   3.4030   1.5377 LP             1 S1                 0.0000
@<TRIPOS>BOND
    1    1    2 1     
    2    1   29 1     
    3    1   30 1     
    4    1   31 1     
    5    2   23 1     
    6    2    3 1     
    7    2   32 1     
    8    3    4 1     
    9    3   33 1     
   10    3   34 1     
   11    4    5 1     
   12    4   21 1     
   13    5   10 ar    
   14    5    6 ar    
   15    6    7 ar    
   16    7    8 ar    
   17    7   35 1     
   18    8    9 ar    
   19    9   13 1     
   20    9   10 ar    
   21   10   11 1     
   22   11   12 2     
   23   12   13 1     
   24   12   36 1     
   25   13   14 1     
   26   14   15 1     
   27   14   37 1     
   28   14   38 1     
   29   15   20 1     
   30   15   16 1     
   31   15   18 1     
   32   16   17 1     
   33   16   39 1     
   34   16   40 1     
   35   17   41 1     
   36   18   19 1     
   37   18   42 1     
   38   18   43 1     
   39   19   20 1     
   40   20   44 1     
   41   20   45 1     
   42   21   22 1     
   43   21   46 1     
   44   21   47 1     
   45   22   23 1     
   46   22   48 1     
   47   22   49 1     
   48   23   24 1     
   49   23   59 1     
   50   24   25 1     
   51   24   50 1     
   52   24   51 1     
   53   25   26 1     
   54   25   27 1     
   55   25   28 1     
   56   26   52 1     
   57   26   53 1     
   58   26   54 1     
   59   27   55 1     
   60   27   56 1     
   61   27   57 1     
   62   28   58 1     
   63    4   60 1     
   64    6   61 1     
   65    8   62 1     
   66   11   63 1     
   67   17   64 1     
   68   17   65 1     
   69   19   66 1     
   70   19   67 1     
   71   28   68 1     
   72   28   69 1     
@<TRIPOS>SUBSTRUCTURE
      1 S1             1
@<TRIPOS>SET
LONE_PAIRS      STATIC     ATOMS    <user>   **** ""
10 60 61 62 63 64 65 66 67 68 69
DONOR_HYDROGENS      STATIC     ATOMS    <user>   **** ""
3 41 59 58
ATOM$BLUE        STATIC     ATOMS    COLORGROUP SYSTEM
10 60 61 62 63 64 65 66 67 68 69
ATOM$RED        STATIC     ATOMS    COLORGROUP SYSTEM
3 41 59 58
