AV-unprocessed.smi:3168|AV-procd|sdf|12100|dock9
  -GOLD-   2272017533D 1   1.00000     0.00000
 Structure written by MMmdl.
 33 34  0  0  0  0  0  0  0  0  1 V2000
  147.2065  142.2702  155.0834 C   0  0  0  0  0  0  0  0  0  0  0  0
  148.2485  141.5632  154.1925 C   0  0  1  0  0  0  0  0  0  0  0  0
  149.5715  141.3040  154.9275 C   0  0  0  0  0  0  0  0  0  0  0  0
  150.3824  140.4869  154.4899 O   0  0  0  0  0  0  0  0  0  0  0  0
  149.7838  142.0316  156.0354 N   0  0  0  0  0  0  0  0  0  0  0  0
  151.0065  142.0280  156.8304 C   0  0  0  0  0  0  0  0  0  0  0  0
  150.9642  143.1104  157.9218 C   0  0  2  0  0  0  0  0  0  0  0  0
  151.8187  144.3467  157.6457 C   0  0  0  0  0  0  0  0  0  0  0  0
  152.0667  144.9126  159.0334 C   0  0  0  0  0  0  0  0  0  0  0  0
  151.7754  143.7380  159.9738 C   0  0  0  0  0  0  0  0  0  0  0  0
  151.5244  142.6219  159.1291 O   0  0  0  0  0  0  0  0  0  0  0  0
  147.7488  140.3169  153.6215 N   0  0  0  0  0  0  0  0  0  0  0  0
  146.7169  140.1539  152.7191 C   0  0  0  0  0  0  0  0  0  0  0  0
  146.6352  138.8238  152.4220 C   0  0  0  0  0  0  0  0  0  0  0  0
  147.6825  138.2421  153.1882 C   0  0  0  0  0  0  0  0  0  0  0  0
  148.3535  139.1366  153.8944 N   0  0  0  0  0  0  0  0  0  0  0  0
  147.5915  143.2192  155.4582 H   0  0  0  0  0  0  0  0  0  0  0  0
  146.9233  141.6670  155.9471 H   0  0  0  0  0  0  0  0  0  0  0  0
  146.2985  142.4869  154.5201 H   0  0  0  0  0  0  0  0  0  0  0  0
  148.4601  142.2332  153.3572 H   0  0  0  0  0  0  0  0  0  0  0  0
  149.0590  142.6723  156.3241 H   0  0  0  0  0  0  0  0  0  0  0  0
  151.0997  141.0467  157.2958 H   0  0  0  0  0  0  0  0  0  0  0  0
  151.8895  142.1519  156.2012 H   0  0  0  0  0  0  0  0  0  0  0  0
  149.9319  143.4088  158.1144 H   0  0  0  0  0  0  0  0  0  0  0  0
  152.7682  144.0543  157.1952 H   0  0  0  0  0  0  0  0  0  0  0  0
  151.3334  145.0574  156.9757 H   0  0  0  0  0  0  0  0  0  0  0  0
  153.0900  145.2755  159.1352 H   0  0  0  0  0  0  0  0  0  0  0  0
  151.3924  145.7436  159.2441 H   0  0  0  0  0  0  0  0  0  0  0  0
  152.6047  143.5301  160.6504 H   0  0  0  0  0  0  0  0  0  0  0  0
  150.8888  143.9406  160.5761 H   0  0  0  0  0  0  0  0  0  0  0  0
  146.1331  140.9909  152.3655 H   0  0  0  0  0  0  0  0  0  0  0  0
  145.9379  138.3407  151.7539 H   0  0  0  0  0  0  0  0  0  0  0  0
  147.9771  137.2047  153.2474 H   0  0  0  0  0  0  0  0  0  0  0  0
  1  2  1  0  0  0  0
  1 17  1  0  0  0  0
  1 18  1  0  0  0  0
  1 19  1  0  0  0  0
  2  3  1  0  0  0  0
  2 12  1  0  0  0  0
  2 20  1  0  0  0  0
  3  4  2  0  0  0  0
  3  5  1  0  0  0  0
  5  6  1  0  0  0  0
  5 21  1  0  0  0  0
  6  7  1  0  0  0  0
  6 22  1  0  0  0  0
  6 23  1  0  0  0  0
  7 11  1  0  0  0  0
  7  8  1  0  0  0  0
  7 24  1  0  0  0  0
  8  9  1  0  0  0  0
  8 25  1  0  0  0  0
  8 26  1  0  0  0  0
  9 10  1  0  0  0  0
  9 27  1  0  0  0  0
  9 28  1  0  0  0  0
 10 11  1  0  0  0  0
 10 29  1  0  0  0  0
 10 30  1  0  0  0  0
 12 16  1  0  0  0  0
 12 13  1  0  0  0  0
 13 14  2  0  0  0  0
 13 31  1  0  0  0  0
 14 15  1  0  0  0  0
 14 32  1  0  0  0  0
 15 16  2  0  0  0  0
 15 33  1  0  0  0  0
M  END
> <s_m_source_file>
AV-unprocessed.smi

> <i_m_source_file_index>
3168

> <i_lp_mmshare_version>
43012

> <i_f3d_flags>
0

> <s_epik_input>
bjFbY0hdW2NIXVtjSF1uMVtDQEhdKFtDSDNdKUMoPU8pW05IXVtDSDJdW0NAQEhdMltDSDJdW0NIMl1bQ0gyXU8y

> <s_epik_cmdline>
J2VwaWtfcHl0aG9uJywgJy1waCcsICc3LjAnLCAnLXRuJywgJzgnLCAnLW1hJywgJzIwMCcsICctbWV0YWxfYmluZGluZycsICctaW1hZScsICc8aW5maWxlLm1hZT4nLCAnLW9tYWUnLCAnPG91dGZpbGUubWFlPic=

> <r_lp_tautomer_probability>
1

> <r_epik_Ionization_Penalty>
4.14877e-05

> <r_epik_Ionization_Penalty_Charging>
0

> <r_epik_Ionization_Penalty_Neutral>
4.14877e-05

> <r_epik_State_Penalty>
-0

> <r_epik_Charging_Adjusted_Penalty>
0

> <i_epik_Tot_Q>
0

> <i_epik_Tot_abs_Q>
0

> <r_epik_Metal_State_Penalty>
-0

> <b_epik_Metal_Only>
0

> <s_lp_Force_Field>
OPLS_2005

> <r_lp_Energy>
21.2446

> <b_lp_Chiralities_Consistent>
1

> <s_lp_Variant>
AV-unprocessed.smi:3168-2

> <Gold.Version>
5.8.1

> <Gold.Id.Protein>
6NUR|6NUR_protein|mol2

> <Gold.PLP.Fitness>
39.1865

> <Gold.PLP.PLP>
-33.4058

> <Gold.PLP.part.hbond>
-2.0000

> <Gold.PLP.part.metal>
0.0000

> <Gold.PLP.part.buried>
4.5227

> <Gold.PLP.part.nonpolar>
-35.6528

> <Gold.PLP.part.repulsive>
0.4150

> <Gold.PLP.ligand.clash>
0.0000

> <Gold.PLP.ligand.torsion>
1.3010

> <Gold.PLP.Chemscore.Hbond>
1.5211

> <Gold.PLP.Chemscore.CHOScore>
1.2364

> <Gold.PLP.Chemscore.Metal>
0.0000

> <Gold.Chemscore.Hbonds>
donor molecule, donor type, donor heavy atom, donor atom, acceptor molecule, acceptor atom, score
      L1  H     5    21       P1  8028  0.35
      P1  H  7989  7998       L1     4  0.98
      L1  C    13    31       P1 10175  0.44
      L1  C    15    33       P1  7948  0.72

> <Gold.PLP.Chemscore.Internal.Correction>
0.1104

> <Gold.Rescore>
     Score         DG    S(hbond)    S(metal)    S(lipo)     H(rot)  DE(clash)    DE(int)     intcor
     12.68     -17.58       1.58        0.00      93.68       1.61       1.97       2.93       ----

> <Gold.Chemscore.Fitness>
12.6837

> <Gold.Chemscore.DG>
-17.5847

> <Gold.Chemscore.ZeroCoef>
-5.4800

> <Gold.Chemscore.Hbond>
1.5762

> <Gold.Chemscore.Metal>
0.0000

> <Gold.Chemscore.Lipo>
93.6764

> <Gold.Chemscore.Internal_Hbond>
0.0000

> <Gold.Chemscore.DEClash>
1.9693

> <Gold.Chemscore.DEInternal>
2.9317

> <Gold.Chemscore.Rot>
1.6094

> <Gold.Chemscore.Internal.Correction>
   9.000000E+99

> <Gold.Chemscore.Hbonds>
donor molecule, donor type, donor heavy atom, donor atom, acceptor molecule, acceptor atom, score
      L1  H     5    21       P1  8028  0.34
      P1  H  7989  7998       L1     4  0.92

> <Gold.Chemscore.Hbond.Weighted>
-5.2646

> <Gold.Chemscore.Metal.Weighted>
-0.0000

> <Gold.Chemscore.Lipo.Weighted>
-10.9601

> <Gold.Chemscore.Internal_Hbond.Weighted>
0.0000

> <Gold.Chemscore.DEClash.Weighted>
1.9693

> <Gold.Chemscore.DEInternal.Weighted>
2.9317

> <Gold.Chemscore.Rot.Weighted>
4.1201

> <Gold.Chemscore.Internal.Correction.Weighted>
   9.000000E+99

> <Gold.Protein.RotatedTorsions>
[ 6907 6896 6895 6894 ] final  -78.69 input  -60.11 | X-H torsion
[ 7974 7965 7964 7962 ] final   63.93 input  175.53 | X-H torsion
[ 8008 7997 7996 7995 ] final  169.37 input   59.86 | X-H torsion
[ 10167 10162 10161 10158 ] final   96.39 input  -65.29 | X-H torsion
[ 10718 10713 10712 10709 ] final  -10.46 input   66.30 | X-H torsion
[ 10763 10752 10751 10750 ] final   66.52 input  -60.55 | X-H torsion
[ 11005 11000 10999 10996 ] final   99.03 input  -57.11 | X-H torsion

> <Gold.Protein.ActiveResidues>
 VAL166  LYS551  ARG553  GLY616  TRP617  ASP618  TYR619  PRO620  LYS621  CYS622 
 ASP623  PHE694  ASN695  SER759  ASP760  ASP761  ALA762  ILE779  LEU786  VAL792 
 PHE793  MET794  SER795  GLU796  ALA797  LYS798  CYS799  TRP800  GLU811  SER814 

> <Gold.Protein.RotatedAtoms>
  150.6967  134.4234  159.5215 H   0  0  0  0  0  0  0  0  0  0  0  0  # atno 6907 bound_to 6896
  152.1973  134.8616  160.0520 H   0  0  0  0  0  0  0  0  0  0  0  0  # atno 6908 bound_to 6896
  151.9550  133.3642  159.4051 H   0  0  0  0  0  0  0  0  0  0  0  0  # atno 6909 bound_to 6896
  145.8562  139.3285  143.0846 H   0  0  0  0  0  0  0  0  0  0  0  0  # atno 7974 bound_to 7965
  156.1463  140.1566  156.8841 H   0  0  0  0  0  0  0  0  0  0  0  0  # atno 8008 bound_to 7997
  154.5031  140.0820  156.7877 H   0  0  0  0  0  0  0  0  0  0  0  0  # atno 8009 bound_to 7997
  155.3982  140.3413  155.4257 H   0  0  0  0  0  0  0  0  0  0  0  0  # atno 8010 bound_to 7997
  139.7899  144.6856  150.9907 H   0  0  0  0  0  0  0  0  0  0  0  0  # atno 10167 bound_to 10162
  156.6731  130.5015  149.5994 H   0  0  0  0  0  0  0  0  0  0  0  0  # atno 10718 bound_to 10713
  153.0144  135.5317  154.6836 H   0  0  0  0  0  0  0  0  0  0  0  0  # atno 10763 bound_to 10752
  154.5989  135.2866  155.0558 H   0  0  0  0  0  0  0  0  0  0  0  0  # atno 10764 bound_to 10752
  154.1623  135.6545  153.5041 H   0  0  0  0  0  0  0  0  0  0  0  0  # atno 10765 bound_to 10752
  139.8771  134.9077  156.4545 H   0  0  0  0  0  0  0  0  0  0  0  0  # atno 11005 bound_to 11000
  145.9301  140.9054  143.0360 LP  0  0  0  0  0  0  0  0  0  0  0  0  # atno 17320 bound_to 7965
  144.6727  140.1407  143.7437 LP  0  0  0  0  0  0  0  0  0  0  0  0  # atno 17321 bound_to 7965
  140.7820  143.4392  151.0577 LP  0  0  0  0  0  0  0  0  0  0  0  0  # atno 17342 bound_to 10162
  139.8069  143.8005  152.3168 LP  0  0  0  0  0  0  0  0  0  0  0  0  # atno 17343 bound_to 10162
  156.1924  130.6568  151.1076 LP  0  0  0  0  0  0  0  0  0  0  0  0  # atno 17370 bound_to 10713
  157.7070  131.0752  150.6632 LP  0  0  0  0  0  0  0  0  0  0  0  0  # atno 17371 bound_to 10713
  140.8908  133.7849  155.9570 LP  0  0  0  0  0  0  0  0  0  0  0  0  # atno 17394 bound_to 11000
  140.8755  134.2674  157.5170 LP  0  0  0  0  0  0  0  0  0  0  0  0  # atno 17395 bound_to 11000

$$$$
