AV-unprocessed.smi:1384|AV-procd|sdf|5627|dock7
  -GOLD-   22720 5243D 1   1.00000     0.00000
 Structure written by MMmdl.
 41 42  0  0  0  0  0  0  0  0  1 V2000
  146.8725  137.8903  154.4934 C   0  0  0  0  0  0  0  0  0  0  0  0
  148.1835  138.6272  154.1836 C   0  0  2  0  0  0  0  0  0  0  0  0
  149.4059  137.8268  154.6724 C   0  0  0  0  0  0  0  0  0  0  0  0
  150.7248  138.5609  154.3706 C   0  0  0  0  0  0  0  0  0  0  0  0
  150.7448  139.9877  154.9516 C   0  0  2  0  0  0  0  0  0  0  0  0
  150.8348  139.9372  156.4100 N   0  0  0  0  0  0  0  0  0  0  0  0
  151.9040  139.5332  157.1126 C   0  0  0  0  0  0  0  0  0  0  0  0
  152.9548  139.1616  156.5878 O   0  0  0  0  0  0  0  0  0  0  0  0
  151.7533  139.5771  158.6402 C   0  0  0  0  0  0  0  0  0  0  0  0
  152.2223  140.8370  159.2428 N   0  0  0  0  0  0  0  0  0  0  0  0
  153.3108  140.7502  160.1289 C   0  0  0  0  0  0  0  0  0  0  0  0
  153.8167  141.8335  160.7335 C   0  0  0  0  0  0  0  0  0  0  0  0
  153.2147  143.1142  160.4536 C   0  0  0  0  0  0  0  0  0  0  0  0
  152.1621  143.2286  159.6109 C   0  0  0  0  0  0  0  0  0  0  0  0
  151.5164  144.5772  159.3002 C   0  0  0  0  0  0  0  0  0  0  0  0
  151.7242  144.9165  158.0272 F   0  0  0  0  0  0  0  0  0  0  0  0
  150.2002  144.5234  159.5076 F   0  0  0  0  0  0  0  0  0  0  0  0
  152.0106  145.5510  160.0662 F   0  0  0  0  0  0  0  0  0  0  0  0
  151.6095  142.0266  158.9530 C   0  0  0  0  0  0  0  0  0  0  0  0
  150.6484  142.0791  158.1835 O   0  0  0  0  0  0  0  0  0  0  0  0
  149.5065  140.7837  154.4867 C   0  0  0  0  0  0  0  0  0  0  0  0
  148.1908  140.0443  154.7880 C   0  0  0  0  0  0  0  0  0  0  0  0
  146.7375  137.7558  155.5671 H   0  0  0  0  0  0  0  0  0  0  0  0
  146.8580  136.9036  154.0299 H   0  0  0  0  0  0  0  0  0  0  0  0
  146.0118  138.4436  154.1162 H   0  0  0  0  0  0  0  0  0  0  0  0
  148.2570  138.7245  153.0993 H   0  0  0  0  0  0  0  0  0  0  0  0
  149.3234  137.6465  155.7449 H   0  0  0  0  0  0  0  0  0  0  0  0
  149.4207  136.8449  154.1984 H   0  0  0  0  0  0  0  0  0  0  0  0
  151.5687  137.9852  154.7526 H   0  0  0  0  0  0  0  0  0  0  0  0
  150.8607  138.6147  153.2897 H   0  0  0  0  0  0  0  0  0  0  0  0
  151.6403  140.4870  154.5769 H   0  0  0  0  0  0  0  0  0  0  0  0
  150.0169  140.2325  156.9234 H   0  0  0  0  0  0  0  0  0  0  0  0
  150.7033  139.4062  158.8827 H   0  0  0  0  0  0  0  0  0  0  0  0
  152.2855  138.7297  159.0765 H   0  0  0  0  0  0  0  0  0  0  0  0
  153.6978  139.7541  160.2893 H   0  0  0  0  0  0  0  0  0  0  0  0
  154.6501  141.7496  161.4152 H   0  0  0  0  0  0  0  0  0  0  0  0
  153.6248  143.9890  160.9356 H   0  0  0  0  0  0  0  0  0  0  0  0
  149.4919  141.7729  154.9454 H   0  0  0  0  0  0  0  0  0  0  0  0
  149.5781  140.9543  153.4118 H   0  0  0  0  0  0  0  0  0  0  0  0
  147.3531  140.6209  154.3939 H   0  0  0  0  0  0  0  0  0  0  0  0
  148.0416  139.9875  155.8671 H   0  0  0  0  0  0  0  0  0  0  0  0
  1  2  1  0  0  0  0
  1 23  1  0  0  0  0
  1 24  1  0  0  0  0
  1 25  1  0  0  0  0
  2 22  1  0  0  0  0
  2  3  1  0  0  0  0
  2 26  1  0  0  0  0
  3  4  1  0  0  0  0
  3 27  1  0  0  0  0
  3 28  1  0  0  0  0
  4  5  1  0  0  0  0
  4 29  1  0  0  0  0
  4 30  1  0  0  0  0
  5  6  1  0  0  0  0
  5 21  1  0  0  0  0
  5 31  1  0  0  0  0
  6  7  1  0  0  0  0
  6 32  1  0  0  0  0
  7  8  2  0  0  0  0
  7  9  1  0  0  0  0
  9 10  1  0  0  0  0
  9 33  1  0  0  0  0
  9 34  1  0  0  0  0
 10 19  1  0  0  0  0
 10 11  1  0  0  0  0
 11 12  2  0  0  0  0
 11 35  1  0  0  0  0
 12 13  1  0  0  0  0
 12 36  1  0  0  0  0
 13 14  2  0  0  0  0
 13 37  1  0  0  0  0
 14 15  1  0  0  0  0
 14 19  1  0  0  0  0
 15 16  1  0  0  0  0
 15 17  1  0  0  0  0
 15 18  1  0  0  0  0
 19 20  2  0  0  0  0
 21 22  1  0  0  0  0
 21 38  1  0  0  0  0
 21 39  1  0  0  0  0
 22 40  1  0  0  0  0
 22 41  1  0  0  0  0
M  END
> <s_m_source_file>
AV-unprocessed.smi

> <i_m_source_file_index>
1384

> <i_lp_mmshare_version>
43012

> <i_f3d_flags>
0

> <s_epik_input>
W0NIM11bQ0BASF0xW0NIMl1bQ0gyXVtDQEhdKFtDSDJdW0NIMl0xKVtOSF1DKD1PKVtDSDJdbjJbY0hdW2NIXVtjSF1jKEMoRikoRilGKWMyPU8=

> <s_epik_cmdline>
J2VwaWtfcHl0aG9uJywgJy1waCcsICc3LjAnLCAnLXRuJywgJzgnLCAnLW1hJywgJzIwMCcsICctbWV0YWxfYmluZGluZycsICctaW1hZScsICc8aW5maWxlLm1hZT4nLCAnLW9tYWUnLCAnPG91dGZpbGUubWFlPic=

> <r_lp_tautomer_probability>
1

> <r_epik_Ionization_Penalty>
2.11165e-08

> <r_epik_Ionization_Penalty_Charging>
2.06965e-09

> <r_epik_Ionization_Penalty_Neutral>
1.90469e-08

> <r_epik_State_Penalty>
-0

> <r_epik_Charging_Adjusted_Penalty>
2.06965e-09

> <i_epik_Tot_Q>
0

> <i_epik_Tot_abs_Q>
0

> <r_epik_Metal_State_Penalty>
-0

> <b_epik_Metal_Only>
0

> <s_lp_Force_Field>
OPLS_2005

> <r_lp_Energy>
18.4349

> <b_lp_Chiralities_Consistent>
1

> <s_lp_Variant>
AV-unprocessed.smi:1384-2

> <Gold.Version>
5.8.1

> <Gold.Id.Protein>
6NUR|6NUR_protein|mol2

> <Gold.PLP.Fitness>
49.2227

> <Gold.PLP.PLP>
-47.3369

> <Gold.PLP.part.hbond>
-1.0000

> <Gold.PLP.part.metal>
0.0000

> <Gold.PLP.part.buried>
-4.3727

> <Gold.PLP.part.nonpolar>
-41.3113

> <Gold.PLP.part.repulsive>
0.1342

> <Gold.PLP.ligand.clash>
0.1630

> <Gold.PLP.ligand.torsion>
0.6379

> <Gold.PLP.Chemscore.Hbond>
1.0000

> <Gold.PLP.Chemscore.CHOScore>
0.0000

> <Gold.PLP.Chemscore.Metal>
0.0000

> <Gold.Chemscore.Hbonds>
donor molecule, donor type, donor heavy atom, donor atom, acceptor molecule, acceptor atom, score
      P1  H  7997  8008       L1     8  1.00

> <Gold.PLP.Chemscore.Internal.Correction>
0.3246

> <Gold.Rescore>
     Score         DG    S(hbond)    S(metal)    S(lipo)     H(rot)  DE(clash)    DE(int)     intcor
     12.88     -15.97       1.00        0.00      94.52       1.52       0.13       2.96       ----

> <Gold.Chemscore.Fitness>
12.8792

> <Gold.Chemscore.DG>
-15.9669

> <Gold.Chemscore.ZeroCoef>
-5.4800

> <Gold.Chemscore.Hbond>
0.9970

> <Gold.Chemscore.Metal>
0.0000

> <Gold.Chemscore.Lipo>
94.5215

> <Gold.Chemscore.Internal_Hbond>
0.0000

> <Gold.Chemscore.DEClash>
0.1312

> <Gold.Chemscore.DEInternal>
2.9565

> <Gold.Chemscore.Rot>
1.5242

> <Gold.Chemscore.Internal.Correction>
   9.000000E+99

> <Gold.Chemscore.Hbonds>
donor molecule, donor type, donor heavy atom, donor atom, acceptor molecule, acceptor atom, score
      P1  H  7997  8008       L1     8  0.99

> <Gold.Chemscore.Hbond.Weighted>
-3.3298

> <Gold.Chemscore.Metal.Weighted>
-0.0000

> <Gold.Chemscore.Lipo.Weighted>
-11.0590

> <Gold.Chemscore.Internal_Hbond.Weighted>
0.0000

> <Gold.Chemscore.DEClash.Weighted>
0.1312

> <Gold.Chemscore.DEInternal.Weighted>
2.9565

> <Gold.Chemscore.Rot.Weighted>
3.9019

> <Gold.Chemscore.Internal.Correction.Weighted>
   9.000000E+99

> <Gold.Protein.RotatedTorsions>
[ 6907 6896 6895 6894 ] final   34.80 input  -60.11 | X-H torsion
[ 7974 7965 7964 7962 ] final -106.11 input  175.53 | X-H torsion
[ 8008 7997 7996 7995 ] final  -56.97 input   59.86 | X-H torsion
[ 10167 10162 10161 10158 ] final   77.50 input  -65.29 | X-H torsion
[ 10718 10713 10712 10709 ] final  -68.54 input   66.30 | X-H torsion
[ 10763 10752 10751 10750 ] final   43.16 input  -60.55 | X-H torsion
[ 11005 11000 10999 10996 ] final   -1.05 input  -57.11 | X-H torsion

> <Gold.Protein.ActiveResidues>
 VAL166  LYS551  ARG553  GLY616  TRP617  ASP618  TYR619  PRO620  LYS621  CYS622 
 ASP623  PHE694  ASN695  SER759  ASP760  ASP761  ALA762  ILE779  LEU786  VAL792 
 PHE793  MET794  SER795  GLU796  ALA797  LYS798  CYS799  TRP800  GLU811  SER814 

> <Gold.Protein.RotatedAtoms>
  152.1074  134.9299  160.0567 H   0  0  0  0  0  0  0  0  0  0  0  0  # atno 6907 bound_to 6896
  152.0489  133.4005  159.4377 H   0  0  0  0  0  0  0  0  0  0  0  0  # atno 6908 bound_to 6896
  150.6842  134.3250  159.4846 H   0  0  0  0  0  0  0  0  0  0  0  0  # atno 6909 bound_to 6896
  145.2220  140.9138  143.3254 H   0  0  0  0  0  0  0  0  0  0  0  0  # atno 7974 bound_to 7965
  154.4250  140.1117  156.5723 H   0  0  0  0  0  0  0  0  0  0  0  0  # atno 8008 bound_to 7997
  155.6199  140.3495  155.4630 H   0  0  0  0  0  0  0  0  0  0  0  0  # atno 8009 bound_to 7997
  156.0032  140.1203  157.0516 H   0  0  0  0  0  0  0  0  0  0  0  0  # atno 8010 bound_to 7997
  139.9809  144.5827  150.7901 H   0  0  0  0  0  0  0  0  0  0  0  0  # atno 10167 bound_to 10162
  156.0500  130.4296  150.2016 H   0  0  0  0  0  0  0  0  0  0  0  0  # atno 10718 bound_to 10713
  152.9867  135.6110  154.3066 H   0  0  0  0  0  0  0  0  0  0  0  0  # atno 10763 bound_to 10752
  154.2783  135.2777  155.2710 H   0  0  0  0  0  0  0  0  0  0  0  0  # atno 10764 bound_to 10752
  154.5060  135.5854  153.6624 H   0  0  0  0  0  0  0  0  0  0  0  0  # atno 10765 bound_to 10752
  140.6430  133.9472  155.8337 H   0  0  0  0  0  0  0  0  0  0  0  0  # atno 11005 bound_to 11000
  144.9757  139.3835  143.6287 LP  0  0  0  0  0  0  0  0  0  0  0  0  # atno 17320 bound_to 7965
  146.3374  139.8874  142.8814 LP  0  0  0  0  0  0  0  0  0  0  0  0  # atno 17321 bound_to 7965
  140.7489  143.2930  151.3279 LP  0  0  0  0  0  0  0  0  0  0  0  0  # atno 17342 bound_to 10162
  139.6410  144.0539  152.2554 LP  0  0  0  0  0  0  0  0  0  0  0  0  # atno 17343 bound_to 10162
  157.0101  130.9948  151.3368 LP  0  0  0  0  0  0  0  0  0  0  0  0  # atno 17370 bound_to 10713
  157.5416  130.8123  149.8036 LP  0  0  0  0  0  0  0  0  0  0  0  0  # atno 17371 bound_to 10713
  141.0593  134.0370  157.3681 LP  0  0  0  0  0  0  0  0  0  0  0  0  # atno 17394 bound_to 11000
  139.9073  135.0182  156.7541 LP  0  0  0  0  0  0  0  0  0  0  0  0  # atno 17395 bound_to 11000

$$$$
