AV-unprocessed.smi:1492|AV-procd|sdf|6036|dock5
  -GOLD-   22720 6143D 1   1.00000     0.00000
 Structure written by MMmdl.
 52 53  0  0  0  0  0  0  0  0  1 V2000
  149.7768  140.6911  154.8441 C   0  0  0  0  0  0  0  0  0  0  0  0
  148.5165  141.5750  154.9099 C   0  0  0  0  0  0  0  0  0  0  0  0
  147.2287  141.0690  154.1735 C   0  0  1  0  0  0  0  0  0  0  0  0
  147.4701  141.1684  152.6457 C   0  0  0  0  0  0  0  0  0  0  0  0
  147.0296  139.5598  154.5084 C   0  0  0  0  0  0  0  0  0  0  0  0
  145.8898  138.9997  153.7938 N   0  0  0  0  0  0  0  0  0  0  0  0
  145.7028  137.6987  153.5397 C   0  0  0  0  0  0  0  0  0  0  0  0
  146.5262  136.8262  153.8133 O   0  0  0  0  0  0  0  0  0  0  0  0
  144.3687  137.3300  152.8921 C   0  0  0  0  0  0  0  0  0  0  0  0
  144.3957  136.0575  152.0462 C   0  0  0  0  0  0  0  0  0  0  0  0
  143.5445  135.0100  152.2527 C   0  0  0  0  0  0  0  0  0  0  0  0
  142.4922  135.0069  153.3478 C   0  0  0  0  0  0  0  0  0  0  0  0
  143.5919  133.8568  151.4573 N   0  0  0  0  0  0  0  0  0  0  0  0
  144.4632  133.7936  150.5050 C   0  0  0  0  0  0  0  0  0  0  0  0
  144.6190  132.6040  149.5815 C   0  0  0  0  0  0  0  0  0  0  0  0
  145.3550  134.8304  150.2358 N   0  0  0  0  0  0  0  0  0  0  0  0
  145.3800  135.9786  150.9491 C   0  0  0  0  0  0  0  0  0  0  0  0
  146.1760  136.8715  150.6617 O   0  0  0  0  0  0  0  0  0  0  0  0
  146.0458  141.8721  154.6127 N   0  0  0  0  0  0  0  0  0  0  0  0
  145.9886  143.2466  154.0950 C   0  0  0  0  0  0  0  0  0  0  0  0
  144.6879  143.9664  154.4898 C   0  0  0  0  0  0  0  0  0  0  0  0
  144.5467  143.9627  155.9042 O   0  0  0  0  0  0  0  0  0  0  0  0
  144.5266  142.6458  156.4387 C   0  0  0  0  0  0  0  0  0  0  0  0
  145.8268  141.9142  156.0650 C   0  0  0  0  0  0  0  0  0  0  0  0
  146.0103  134.7274  149.4747 H   0  0  0  0  0  0  0  0  0  0  0  0
  150.6196  141.2035  155.3082 H   0  0  0  0  0  0  0  0  0  0  0  0
  150.0644  140.4620  153.8187 H   0  0  0  0  0  0  0  0  0  0  0  0
  149.6477  139.7524  155.3828 H   0  0  0  0  0  0  0  0  0  0  0  0
  148.2880  141.7477  155.9630 H   0  0  0  0  0  0  0  0  0  0  0  0
  148.8080  142.5456  154.5093 H   0  0  0  0  0  0  0  0  0  0  0  0
  148.3113  140.5510  152.3318 H   0  0  0  0  0  0  0  0  0  0  0  0
  147.6937  142.1869  152.3297 H   0  0  0  0  0  0  0  0  0  0  0  0
  146.6104  140.8251  152.0710 H   0  0  0  0  0  0  0  0  0  0  0  0
  147.9190  138.9701  154.2890 H   0  0  0  0  0  0  0  0  0  0  0  0
  146.8828  139.4214  155.5801 H   0  0  0  0  0  0  0  0  0  0  0  0
  145.1657  139.6479  153.5182 H   0  0  0  0  0  0  0  0  0  0  0  0
  143.6098  137.2519  153.6719 H   0  0  0  0  0  0  0  0  0  0  0  0
  144.0420  138.1663  152.2738 H   0  0  0  0  0  0  0  0  0  0  0  0
  141.8272  135.8644  153.2462 H   0  0  0  0  0  0  0  0  0  0  0  0
  142.9628  135.0452  154.3304 H   0  0  0  0  0  0  0  0  0  0  0  0
  141.8797  134.1053  153.3060 H   0  0  0  0  0  0  0  0  0  0  0  0
  144.8551  131.7100  150.1594 H   0  0  0  0  0  0  0  0  0  0  0  0
  145.4163  132.7600  148.8536 H   0  0  0  0  0  0  0  0  0  0  0  0
  143.6904  132.4264  149.0387 H   0  0  0  0  0  0  0  0  0  0  0  0
  146.8349  143.8260  154.4635 H   0  0  0  0  0  0  0  0  0  0  0  0
  146.0412  143.2606  153.0087 H   0  0  0  0  0  0  0  0  0  0  0  0
  144.7048  144.9978  154.1373 H   0  0  0  0  0  0  0  0  0  0  0  0
  143.8246  143.4842  154.0286 H   0  0  0  0  0  0  0  0  0  0  0  0
  144.4235  142.7037  157.5222 H   0  0  0  0  0  0  0  0  0  0  0  0
  143.6568  142.1046  156.0629 H   0  0  0  0  0  0  0  0  0  0  0  0
  145.7621  140.9115  156.4819 H   0  0  0  0  0  0  0  0  0  0  0  0
  146.6624  142.4109  156.5581 H   0  0  0  0  0  0  0  0  0  0  0  0
  1  2  1  0  0  0  0
  1 26  1  0  0  0  0
  1 27  1  0  0  0  0
  1 28  1  0  0  0  0
  2  3  1  0  0  0  0
  2 29  1  0  0  0  0
  2 30  1  0  0  0  0
  3  4  1  0  0  0  0
  3  5  1  0  0  0  0
  3 19  1  0  0  0  0
  4 31  1  0  0  0  0
  4 32  1  0  0  0  0
  4 33  1  0  0  0  0
  5  6  1  0  0  0  0
  5 34  1  0  0  0  0
  5 35  1  0  0  0  0
  6  7  1  0  0  0  0
  6 36  1  0  0  0  0
  7  8  2  0  0  0  0
  7  9  1  0  0  0  0
  9 10  1  0  0  0  0
  9 37  1  0  0  0  0
  9 38  1  0  0  0  0
 10 17  1  0  0  0  0
 10 11  2  0  0  0  0
 11 12  1  0  0  0  0
 11 13  1  0  0  0  0
 12 39  1  0  0  0  0
 12 40  1  0  0  0  0
 12 41  1  0  0  0  0
 13 14  2  0  0  0  0
 14 15  1  0  0  0  0
 14 16  1  0  0  0  0
 15 42  1  0  0  0  0
 15 43  1  0  0  0  0
 15 44  1  0  0  0  0
 16 25  1  0  0  0  0
 16 17  1  0  0  0  0
 17 18  2  0  0  0  0
 19 24  1  0  0  0  0
 19 20  1  0  0  0  0
 20 21  1  0  0  0  0
 20 45  1  0  0  0  0
 20 46  1  0  0  0  0
 21 22  1  0  0  0  0
 21 47  1  0  0  0  0
 21 48  1  0  0  0  0
 22 23  1  0  0  0  0
 23 24  1  0  0  0  0
 23 49  1  0  0  0  0
 23 50  1  0  0  0  0
 24 51  1  0  0  0  0
 24 52  1  0  0  0  0
M  END
> <s_m_source_file>
AV-unprocessed.smi

> <i_m_source_file_index>
1492

> <i_lp_mmshare_version>
43012

> <i_f3d_flags>
0

> <s_epik_input>
W0NIMl0xW0NIMl1PW0NIMl1bQ0gyXU4xW0NAQF0oW0NIM10pKFtDSDJdW0NIM10pW0NIMl1bTkhdQyg9TylbQ0gyXWMyYyhbQ0gzXSluYyhbQ0gzXSlbbkhdYzI9Tw==

> <s_epik_cmdline>
J2VwaWtfcHl0aG9uJywgJy1waCcsICc3LjAnLCAnLXRuJywgJzgnLCAnLW1hJywgJzIwMCcsICctbWV0YWxfYmluZGluZycsICctaW1hZScsICc8aW5maWxlLm1hZT4nLCAnLW9tYWUnLCAnPG91dGZpbGUubWFlPic=

> <r_lp_tautomer_probability>
0.839158

> <r_epik_Ionization_Penalty>
0.328652

> <r_epik_Ionization_Penalty_Charging>
0.000364731

> <r_epik_Ionization_Penalty_Neutral>
0.328288

> <r_epik_State_Penalty>
0.414451

> <r_epik_Charging_Adjusted_Penalty>
0.414816

> <i_epik_Tot_Q>
0

> <i_epik_Tot_abs_Q>
0

> <r_epik_Metal_State_Penalty>
0.592978

> <b_epik_Metal_Only>
0

> <s_lp_Force_Field>
OPLS_2005

> <r_lp_Energy>
47.024

> <b_lp_Chiralities_Consistent>
1

> <s_lp_Variant>
AV-unprocessed.smi:1492-1

> <Gold.Version>
5.8.1

> <Gold.Id.Protein>
6NUR|6NUR_protein|mol2

> <Gold.PLP.Fitness>
38.9389

> <Gold.PLP.PLP>
-34.1545

> <Gold.PLP.part.hbond>
-2.4097

> <Gold.PLP.part.metal>
0.0000

> <Gold.PLP.part.buried>
-3.6369

> <Gold.PLP.part.nonpolar>
-29.5866

> <Gold.PLP.part.repulsive>
2.3611

> <Gold.PLP.ligand.clash>
0.0000

> <Gold.PLP.ligand.torsion>
0.8105

> <Gold.PLP.Chemscore.Hbond>
2.0625

> <Gold.PLP.Chemscore.CHOScore>
0.0000

> <Gold.PLP.Chemscore.Metal>
0.0000

> <Gold.Chemscore.Hbonds>
donor molecule, donor type, donor heavy atom, donor atom, acceptor molecule, acceptor atom, score
      L1  H     6    36       P1 10175  1.00
      L1  H    16    25       P1  7921  0.86
      P1  H  7954  7966       L1    18  0.20

> <Gold.PLP.Chemscore.Internal.Correction>
0.2180

> <Gold.Rescore>
     Score         DG    S(hbond)    S(metal)    S(lipo)     H(rot)  DE(clash)    DE(int)     intcor
     11.07     -14.79       1.83        0.00      73.58       2.12       2.91       0.81       ----

> <Gold.Chemscore.Fitness>
11.0727

> <Gold.Chemscore.DG>
-14.7917

> <Gold.Chemscore.ZeroCoef>
-5.4800

> <Gold.Chemscore.Hbond>
1.8319

> <Gold.Chemscore.Metal>
0.0000

> <Gold.Chemscore.Lipo>
73.5813

> <Gold.Chemscore.Internal_Hbond>
0.0000

> <Gold.Chemscore.DEClash>
2.9139

> <Gold.Chemscore.DEInternal>
0.8052

> <Gold.Chemscore.Rot>
2.1155

> <Gold.Chemscore.Internal.Correction>
   9.000000E+99

> <Gold.Chemscore.Hbonds>
donor molecule, donor type, donor heavy atom, donor atom, acceptor molecule, acceptor atom, score
      L1  H     6    36       P1 10175  0.96
      L1  H    16    25       P1  7921  0.55
      P1  H  7954  7966       L1    18  0.20

> <Gold.Chemscore.Hbond.Weighted>
-6.1185

> <Gold.Chemscore.Metal.Weighted>
-0.0000

> <Gold.Chemscore.Lipo.Weighted>
-8.6090

> <Gold.Chemscore.Internal_Hbond.Weighted>
0.0000

> <Gold.Chemscore.DEClash.Weighted>
2.9139

> <Gold.Chemscore.DEInternal.Weighted>
0.8052

> <Gold.Chemscore.Rot.Weighted>
5.4157

> <Gold.Chemscore.Internal.Correction.Weighted>
   9.000000E+99

> <Gold.Protein.RotatedTorsions>
[ 6907 6896 6895 6894 ] final   93.31 input  -60.11 | X-H torsion
[ 7974 7965 7964 7962 ] final  162.65 input  175.53 | X-H torsion
[ 8008 7997 7996 7995 ] final   53.37 input   59.86 | X-H torsion
[ 10167 10162 10161 10158 ] final   96.94 input  -65.29 | X-H torsion
[ 10718 10713 10712 10709 ] final  -83.96 input   66.30 | X-H torsion
[ 10763 10752 10751 10750 ] final   43.40 input  -60.55 | X-H torsion
[ 11005 11000 10999 10996 ] final  -60.06 input  -57.11 | X-H torsion

> <Gold.Protein.ActiveResidues>
 VAL166  LYS551  ARG553  GLY616  TRP617  ASP618  TYR619  PRO620  LYS621  CYS622 
 ASP623  PHE694  ASN695  SER759  ASP760  ASP761  ALA762  ILE779  LEU786  VAL792 
 PHE793  MET794  SER795  GLU796  ALA797  LYS798  CYS799  TRP800  GLU811  SER814 

> <Gold.Protein.RotatedAtoms>
  152.5452  134.1368  159.8461 H   0  0  0  0  0  0  0  0  0  0  0  0  # atno 6907 bound_to 6896
  151.1408  133.4965  159.2604 H   0  0  0  0  0  0  0  0  0  0  0  0  # atno 6908 bound_to 6896
  151.1575  135.0267  159.8750 H   0  0  0  0  0  0  0  0  0  0  0  0  # atno 6909 bound_to 6896
  144.7626  139.8071  143.6327 H   0  0  0  0  0  0  0  0  0  0  0  0  # atno 7974 bound_to 7965
  155.4672  140.3464  155.4321 H   0  0  0  0  0  0  0  0  0  0  0  0  # atno 8008 bound_to 7997
  156.1123  140.1464  156.9350 H   0  0  0  0  0  0  0  0  0  0  0  0  # atno 8009 bound_to 7997
  154.4765  140.0883  156.7253 H   0  0  0  0  0  0  0  0  0  0  0  0  # atno 8010 bound_to 7997
  139.7847  144.6875  150.9974 H   0  0  0  0  0  0  0  0  0  0  0  0  # atno 10167 bound_to 10162
  156.0012  130.4682  150.4336 H   0  0  0  0  0  0  0  0  0  0  0  0  # atno 10718 bound_to 10713
  152.9861  135.6102  154.3106 H   0  0  0  0  0  0  0  0  0  0  0  0  # atno 10763 bound_to 10752
  154.2821  135.2777  155.2694 H   0  0  0  0  0  0  0  0  0  0  0  0  # atno 10764 bound_to 10752
  154.5028  135.5862  153.6601 H   0  0  0  0  0  0  0  0  0  0  0  0  # atno 10765 bound_to 10752
  141.1272  133.6620  156.5166 H   0  0  0  0  0  0  0  0  0  0  0  0  # atno 11005 bound_to 11000
  146.1704  139.4852  142.9931 LP  0  0  0  0  0  0  0  0  0  0  0  0  # atno 17320 bound_to 7965
  145.6570  141.0249  143.1729 LP  0  0  0  0  0  0  0  0  0  0  0  0  # atno 17321 bound_to 7965
  140.7819  143.4445  151.0503 LP  0  0  0  0  0  0  0  0  0  0  0  0  # atno 17342 bound_to 10162
  139.8124  143.7932  152.3172 LP  0  0  0  0  0  0  0  0  0  0  0  0  # atno 17343 bound_to 10162
  157.2383  131.0519  151.2452 LP  0  0  0  0  0  0  0  0  0  0  0  0  # atno 17370 bound_to 10713
  157.3645  130.7148  149.6523 LP  0  0  0  0  0  0  0  0  0  0  0  0  # atno 17371 bound_to 10713
  140.4326  134.7088  157.4950 LP  0  0  0  0  0  0  0  0  0  0  0  0  # atno 17394 bound_to 11000
  140.0283  134.6443  155.9141 LP  0  0  0  0  0  0  0  0  0  0  0  0  # atno 17395 bound_to 11000

$$$$
