#       Name:                AV-unprocessed.smi:526
#       Creating user name   scv26
#       Creation time:       Thu Mar 26 23:29:25 2020


#       File generated by GOLD software.
#

@<TRIPOS>MOLECULE
AV-unprocessed.smi:526
    38    38     1
SMALL
NO_CHARGES


@<TRIPOS>ATOM
      1 ****        -4.7579   1.4496   1.2359 C.2            1 S1                 0.0000
      2 ****        -3.9096   1.6252   0.2094 C.2            1 S1                 0.0000
      3 ****        -4.3671   2.1865  -1.1236 C.3            1 S1                 0.0000
      4 ****        -2.4369   1.2738   0.3116 C.3            1 S1                 0.0000
      5 ****        -1.9980  -0.1773  -0.6933 S.3            1 S1                 0.0000
      6 ****        -0.2415  -0.3430  -0.4128 C.ar           1 S1                 0.0000
      7 ****         0.3340  -1.3724  -1.0333 N.ar           1 S1                 0.0000
      8 ****         1.6630  -1.5296  -0.8456 C.ar           1 S1                 0.0000
      9 ****         2.2954  -2.7111  -1.5585 C.3            1 S1                 0.0000
     10 ****         2.4108  -0.6392  -0.0330 C.ar           1 S1                 0.0000
     11 ****         3.9120  -0.8085   0.1898 C.3            1 S1                 0.0000
     12 ****         4.1382  -1.7840   1.3498 C.2            1 S1                 0.0000
     13 ****         4.8925  -2.7567   1.1299 O.co2          1 S1                 0.0000
     14 ****         3.5646  -1.5430   2.4352 O.co2          1 S1                -1.0000
     15 ****         1.6815   0.4154   0.5714 C.ar           1 S1                 0.0000
     16 ****         2.3047   1.3273   1.3731 O.3            1 S1                 0.0000
     17 ****         0.3532   0.5567   0.3735 N.ar           1 S1                 0.0000
     18 ****         1.7027   1.9481   1.7528 H              1 S1                 0.0000
     19 ****        -5.8039   1.7045   1.1485 H              1 S1                 0.0000
     20 ****        -4.4198   1.0474   2.1798 H              1 S1                 0.0000
     21 ****        -4.2036   1.4625  -1.9220 H              1 S1                 0.0000
     22 ****        -3.8105   3.0931  -1.3629 H              1 S1                 0.0000
     23 ****        -5.4287   2.4355  -1.1069 H              1 S1                 0.0000
     24 ****        -1.8466   2.1341  -0.0052 H              1 S1                 0.0000
     25 ****        -2.1785   1.0697   1.3517 H              1 S1                 0.0000
     26 ****         3.0155  -2.3664  -2.3005 H              1 S1                 0.0000
     27 ****         1.5450  -3.3131  -2.0724 H              1 S1                 0.0000
     28 ****         2.8109  -3.3571  -0.8479 H              1 S1                 0.0000
     29 ****         4.3838   0.1459   0.4234 H              1 S1                 0.0000
     30 ****         4.3945  -1.1747  -0.7168 H              1 S1                 0.0000
     31 ****        -0.1918  -1.9979  -1.6097 LP             1 S1                 0.0000
     32 ****         5.0782  -3.4194   1.8553 LP             1 S1                 0.0000
     33 ****         5.3101  -2.8718   0.2285 LP             1 S1                 0.0000
     34 ****         3.6942  -2.1545   3.2158 LP             1 S1                 0.0000
     35 ****         2.9766  -0.7388   2.5223 LP             1 S1                 0.0000
     36 ****         2.9778   1.8265   0.8274 LP             1 S1                 0.0000
     37 ****         2.7700   0.8395   2.1116 LP             1 S1                 0.0000
     38 ****        -0.1617   1.3020   0.7970 LP             1 S1                 0.0000
@<TRIPOS>BOND
    1    1    2 2     
    2    1   19 1     
    3    1   20 1     
    4    2    3 1     
    5    2    4 1     
    6    3   21 1     
    7    3   22 1     
    8    3   23 1     
    9    4   24 1     
   10    4   25 1     
   11    4    5 1     
   12    5    6 1     
   13    6   17 ar    
   14    6    7 ar    
   15    7    8 ar    
   16    8   10 ar    
   17    8    9 1     
   18    9   26 1     
   19    9   27 1     
   20    9   28 1     
   21   10   15 ar    
   22   10   11 1     
   23   11   12 1     
   24   11   29 1     
   25   11   30 1     
   26   12   13 ar    
   27   12   14 ar    
   28   15   17 ar    
   29   15   16 1     
   30   16   18 1     
   31    7   31 1     
   32   13   32 1     
   33   13   33 1     
   34   14   34 1     
   35   14   35 1     
   36   16   36 1     
   37   16   37 1     
   38   17   38 1     
@<TRIPOS>SUBSTRUCTURE
      1 S1             1
@<TRIPOS>SET
LONE_PAIRS      STATIC     ATOMS    <user>   **** ""
8 31 32 33 34 35 36 37 38
DONOR_HYDROGENS      STATIC     ATOMS    <user>   **** ""
1 18
ATOM$BLUE        STATIC     ATOMS    COLORGROUP SYSTEM
8 31 32 33 34 35 36 37 38
ATOM$RED        STATIC     ATOMS    COLORGROUP SYSTEM
1 18
