AV-unprocessed.smi:2660|AV-procd|sdf|10315|dock5
  -GOLD-   2272014333D 1   1.00000     0.00000
 Structure written by MMmdl.
 36 37  0  0  0  0  0  0  0  0  1 V2000
  145.1139  143.1555  153.9601 N   0  0  0  0  0  0  0  0  0  0  0  0
  145.7445  143.2115  155.1399 C   0  0  0  0  0  0  0  0  0  0  0  0
  145.3099  143.9669  156.0092 O   0  0  0  0  0  0  0  0  0  0  0  0
  146.9237  142.3225  155.2414 C   0  0  0  0  0  0  0  0  0  0  0  0
  147.4688  141.7049  154.1690 C   0  0  0  0  0  0  0  0  0  0  0  0
  148.6060  140.8398  154.3233 C   0  0  0  0  0  0  0  0  0  0  0  0
  149.1970  140.7082  155.5255 C   0  0  0  0  0  0  0  0  0  0  0  0
  150.3323  139.6979  155.7341 C   0  0  0  0  0  0  0  0  0  0  0  0
  150.5662  138.9962  154.6243 F   0  0  0  0  0  0  0  0  0  0  0  0
  151.4724  140.3087  156.0512 F   0  0  0  0  0  0  0  0  0  0  0  0
  150.0244  138.8143  156.6848 F   0  0  0  0  0  0  0  0  0  0  0  0
  148.6895  141.4334  156.6487 N   0  0  0  0  0  0  0  0  0  0  0  0
  149.4461  141.4761  157.9269 C   0  0  0  0  0  0  0  0  0  0  0  0
  150.4731  142.6370  157.9955 C   0  0  1  0  0  0  0  0  0  0  0  0
  149.7624  143.8581  158.0490 O   0  0  0  0  0  0  0  0  0  0  0  0
  151.4781  142.4890  159.1327 C   0  0  0  0  0  0  0  0  0  0  0  0
  152.2436  141.3100  159.2763 C   0  0  0  0  0  0  0  0  0  0  0  0
  153.1781  141.1913  160.3232 C   0  0  0  0  0  0  0  0  0  0  0  0
  153.3528  142.2491  161.2353 C   0  0  0  0  0  0  0  0  0  0  0  0
  152.5911  143.4253  161.1008 C   0  0  0  0  0  0  0  0  0  0  0  0
  151.6559  143.5437  160.0547 C   0  0  0  0  0  0  0  0  0  0  0  0
  147.5156  142.1494  156.5924 C   0  0  0  0  0  0  0  0  0  0  0  0
  147.0312  142.6265  157.6230 O   0  0  0  0  0  0  0  0  0  0  0  0
  144.2963  143.7271  153.8038 H   0  0  0  0  0  0  0  0  0  0  0  0
  145.4530  142.5429  153.2333 H   0  0  0  0  0  0  0  0  0  0  0  0
  147.0708  141.8252  153.1724 H   0  0  0  0  0  0  0  0  0  0  0  0
  148.9465  140.2740  153.4692 H   0  0  0  0  0  0  0  0  0  0  0  0
  148.7403  141.5622  158.7555 H   0  0  0  0  0  0  0  0  0  0  0  0
  149.9797  140.5583  158.1465 H   0  0  0  0  0  0  0  0  0  0  0  0
  151.0416  142.6814  157.0666 H   0  0  0  0  0  0  0  0  0  0  0  0
  149.8367  144.2856  157.2097 H   0  0  0  0  0  0  0  0  0  0  0  0
  152.1269  140.4938  158.5787 H   0  0  0  0  0  0  0  0  0  0  0  0
  153.7629  140.2890  160.4247 H   0  0  0  0  0  0  0  0  0  0  0  0
  154.0699  142.1579  162.0377 H   0  0  0  0  0  0  0  0  0  0  0  0
  152.7247  144.2375  161.8001 H   0  0  0  0  0  0  0  0  0  0  0  0
  151.0782  144.4514  159.9588 H   0  0  0  0  0  0  0  0  0  0  0  0
  1  2  1  0  0  0  0
  1 24  1  0  0  0  0
  1 25  1  0  0  0  0
  2  3  2  0  0  0  0
  2  4  1  0  0  0  0
  4 22  1  0  0  0  0
  4  5  2  0  0  0  0
  5  6  1  0  0  0  0
  5 26  1  0  0  0  0
  6  7  2  0  0  0  0
  6 27  1  0  0  0  0
  7  8  1  0  0  0  0
  7 12  1  0  0  0  0
  8  9  1  0  0  0  0
  8 10  1  0  0  0  0
  8 11  1  0  0  0  0
 12 13  1  0  0  0  0
 12 22  1  0  0  0  0
 13 14  1  0  0  0  0
 13 28  1  0  0  0  0
 13 29  1  0  0  0  0
 14 15  1  0  0  0  0
 14 16  1  0  0  0  0
 14 30  1  0  0  0  0
 15 31  1  0  0  0  0
 16 21  1  0  0  0  0
 16 17  2  0  0  0  0
 17 18  1  0  0  0  0
 17 32  1  0  0  0  0
 18 19  2  0  0  0  0
 18 33  1  0  0  0  0
 19 20  1  0  0  0  0
 19 34  1  0  0  0  0
 20 21  2  0  0  0  0
 20 35  1  0  0  0  0
 21 36  1  0  0  0  0
 22 23  2  0  0  0  0
M  END
> <s_m_source_file>
AV-unprocessed.smi

> <i_m_source_file_index>
2660

> <i_lp_mmshare_version>
43012

> <i_f3d_flags>
0

> <s_epik_input>
W05IMl1DKD1PKWMxW2NIXVtjSF1jKEMoRikoRilGKW4oYzE9TylbQ0gyXVtDQEhdKFtPSF0pYzJbY0hdW2NIXVtjSF1bY0hdW2NIXTI=

> <s_epik_cmdline>
J2VwaWtfcHl0aG9uJywgJy1waCcsICc3LjAnLCAnLXRuJywgJzgnLCAnLW1hJywgJzIwMCcsICctbWV0YWxfYmluZGluZycsICctaW1hZScsICc8aW5maWxlLm1hZT4nLCAnLW9tYWUnLCAnPG91dGZpbGUubWFlPic=

> <r_lp_tautomer_probability>
1

> <r_epik_Ionization_Penalty>
1.58596e-06

> <r_epik_Ionization_Penalty_Charging>
5.13453e-09

> <r_epik_Ionization_Penalty_Neutral>
1.58083e-06

> <r_epik_State_Penalty>
-0

> <r_epik_Charging_Adjusted_Penalty>
5.13453e-09

> <i_epik_Tot_Q>
0

> <i_epik_Tot_abs_Q>
0

> <r_epik_Metal_State_Penalty>
-0

> <b_epik_Metal_Only>
0

> <s_lp_Force_Field>
OPLS_2005

> <r_lp_Energy>
32.13

> <b_lp_Chiralities_Consistent>
1

> <s_lp_Variant>
AV-unprocessed.smi:2660-2

> <Gold.Version>
5.8.1

> <Gold.Id.Protein>
6NUR|6NUR_protein|mol2

> <Gold.PLP.Fitness>
46.4753

> <Gold.PLP.PLP>
-44.5310

> <Gold.PLP.part.hbond>
-3.2880

> <Gold.PLP.part.metal>
0.0000

> <Gold.PLP.part.buried>
-2.4700

> <Gold.PLP.part.nonpolar>
-38.1246

> <Gold.PLP.part.repulsive>
0.3124

> <Gold.PLP.ligand.clash>
1.8099

> <Gold.PLP.ligand.torsion>
0.6466

> <Gold.PLP.Chemscore.Hbond>
1.0000

> <Gold.PLP.Chemscore.CHOScore>
0.0000

> <Gold.PLP.Chemscore.Metal>
0.0000

> <Gold.Chemscore.Hbonds>
donor molecule, donor type, donor heavy atom, donor atom, acceptor molecule, acceptor atom, score
      L1  H    15    31       P1  8028  0.88

> <Gold.PLP.Chemscore.Internal.Correction>
2.0474

> <Gold.Rescore>
     Score         DG    S(hbond)    S(metal)    S(lipo)     H(rot)  DE(clash)    DE(int)     intcor
      9.16     -13.50       0.45        0.00     103.93       2.21       0.10       4.24       ----

> <Gold.Chemscore.Fitness>
9.1551

> <Gold.Chemscore.DG>
-13.4953

> <Gold.Chemscore.ZeroCoef>
-5.4800

> <Gold.Chemscore.Hbond>
0.4521

> <Gold.Chemscore.Metal>
0.0000

> <Gold.Chemscore.Lipo>
103.9250

> <Gold.Chemscore.Internal_Hbond>
0.0000

> <Gold.Chemscore.DEClash>
0.0971

> <Gold.Chemscore.DEInternal>
4.2431

> <Gold.Chemscore.Rot>
2.2086

> <Gold.Chemscore.Internal.Correction>
   9.000000E+99

> <Gold.Chemscore.Hbonds>
donor molecule, donor type, donor heavy atom, donor atom, acceptor molecule, acceptor atom, score
      L1  H    15    31       P1  8028  0.43

> <Gold.Chemscore.Hbond.Weighted>
-1.5101

> <Gold.Chemscore.Metal.Weighted>
-0.0000

> <Gold.Chemscore.Lipo.Weighted>
-12.1592

> <Gold.Chemscore.Internal_Hbond.Weighted>
0.0000

> <Gold.Chemscore.DEClash.Weighted>
0.0971

> <Gold.Chemscore.DEInternal.Weighted>
4.2431

> <Gold.Chemscore.Rot.Weighted>
5.6540

> <Gold.Chemscore.Internal.Correction.Weighted>
   9.000000E+99

> <Gold.Protein.RotatedTorsions>
[ 6907 6896 6895 6894 ] final   39.00 input  -60.11 | X-H torsion
[ 7974 7965 7964 7962 ] final   87.69 input  175.53 | X-H torsion
[ 8008 7997 7996 7995 ] final -173.57 input   59.86 | X-H torsion
[ 10167 10162 10161 10158 ] final   21.72 input  -65.29 | X-H torsion
[ 10718 10713 10712 10709 ] final   66.90 input   66.30 | X-H torsion
[ 10763 10752 10751 10750 ] final  -98.77 input  -60.55 | X-H torsion
[ 11005 11000 10999 10996 ] final  106.44 input  -57.11 | X-H torsion

> <Gold.Protein.ActiveResidues>
 VAL166  LYS551  ARG553  GLY616  TRP617  ASP618  TYR619  PRO620  LYS621  CYS622 
 ASP623  PHE694  ASN695  SER759  ASP760  ASP761  ALA762  ILE779  LEU786  VAL792 
 PHE793  MET794  SER795  GLU796  ALA797  LYS798  CYS799  TRP800  GLU811  SER814 

> <Gold.Protein.RotatedAtoms>
  152.1639  134.8890  160.0539 H   0  0  0  0  0  0  0  0  0  0  0  0  # atno 6907 bound_to 6896
  151.9875  133.3774  159.4140 H   0  0  0  0  0  0  0  0  0  0  0  0  # atno 6908 bound_to 6896
  150.6891  134.3895  159.5113 H   0  0  0  0  0  0  0  0  0  0  0  0  # atno 6909 bound_to 6896
  145.5557  139.2299  143.2488 H   0  0  0  0  0  0  0  0  0  0  0  0  # atno 7974 bound_to 7965
  155.9591  140.1141  157.0911 H   0  0  0  0  0  0  0  0  0  0  0  0  # atno 8008 bound_to 7997
  154.4127  140.1185  156.5221 H   0  0  0  0  0  0  0  0  0  0  0  0  # atno 8009 bound_to 7997
  155.6744  140.3473  155.4833 H   0  0  0  0  0  0  0  0  0  0  0  0  # atno 8010 bound_to 7997
  140.5404  143.9687  150.6516 H   0  0  0  0  0  0  0  0  0  0  0  0  # atno 10167 bound_to 10162
  157.6198  130.9292  150.0171 H   0  0  0  0  0  0  0  0  0  0  0  0  # atno 10718 bound_to 10713
  154.7442  135.4997  153.9175 H   0  0  0  0  0  0  0  0  0  0  0  0  # atno 10763 bound_to 10752
  153.1075  135.6701  153.9569 H   0  0  0  0  0  0  0  0  0  0  0  0  # atno 10764 bound_to 10752
  153.9337  135.3075  155.3424 H   0  0  0  0  0  0  0  0  0  0  0  0  # atno 10765 bound_to 10752
  139.8814  134.9369  156.5667 H   0  0  0  0  0  0  0  0  0  0  0  0  # atno 11005 bound_to 11000
  146.1886  140.6381  142.9156 LP  0  0  0  0  0  0  0  0  0  0  0  0  # atno 17320 bound_to 7965
  144.7507  140.5184  143.6803 LP  0  0  0  0  0  0  0  0  0  0  0  0  # atno 17321 bound_to 7965
  140.3086  143.3213  152.0902 LP  0  0  0  0  0  0  0  0  0  0  0  0  # atno 17342 bound_to 10162
  139.4987  144.6651  151.6375 LP  0  0  0  0  0  0  0  0  0  0  0  0  # atno 17343 bound_to 10162
  156.1337  130.3643  149.9691 LP  0  0  0  0  0  0  0  0  0  0  0  0  # atno 17370 bound_to 10713
  156.7746  130.9199  151.3645 LP  0  0  0  0  0  0  0  0  0  0  0  0  # atno 17371 bound_to 10713
  140.8129  133.8415  155.8826 LP  0  0  0  0  0  0  0  0  0  0  0  0  # atno 17394 bound_to 11000
  140.9490  134.1804  157.4742 LP  0  0  0  0  0  0  0  0  0  0  0  0  # atno 17395 bound_to 11000

$$$$
