AV-unprocessed.smi:1681|AV-procd|sdf|6741|dock5
  -GOLD-   22720 7493D 1   1.00000     0.00000
 Structure written by MMmdl.
 40 41  0  0  0  0  0  0  0  0  1 V2000
  153.3876  142.4062  162.0752 C   0  0  0  0  0  0  0  0  0  0  0  0
  152.7425  143.3604  161.0673 C   0  0  0  0  0  0  0  0  0  0  0  0
  152.2764  144.4187  161.4899 O   0  0  0  0  0  0  0  0  0  0  0  0
  152.7073  143.0166  159.7572 N   0  0  0  0  0  0  0  0  0  0  0  0
  152.0532  143.7899  158.6937 C   0  0  0  0  0  0  0  0  0  0  0  0
  150.7958  143.0309  158.2341 C   0  0  0  0  0  0  0  0  0  0  0  0
  151.1506  141.6017  157.7805 C   0  0  0  0  0  0  0  0  0  0  0  0
  151.9937  140.8562  158.8420 C   0  0  1  0  0  0  0  0  0  0  0  0
  152.4533  139.4865  158.3244 C   0  0  0  0  0  0  0  0  0  0  0  0
  153.6558  139.2432  158.2219 O   0  0  0  0  0  0  0  0  0  0  0  0
  151.4751  138.6193  158.0103 N   0  0  0  0  0  0  0  0  0  0  0  0
  151.6193  137.3016  157.5095 C   0  0  0  0  0  0  0  0  0  0  0  0
  152.7753  136.4717  157.4683 C   0  0  0  0  0  0  0  0  0  0  0  0
  152.4999  135.3006  156.9138 N   0  0  0  0  0  0  0  0  0  0  0  0
  151.1821  135.3607  156.5962 N   0  0  0  0  0  0  0  0  0  0  0  0
  150.5430  134.2244  155.9564 C   0  0  0  0  0  0  0  0  0  0  0  0
  150.6825  132.9592  156.8050 C   0  0  0  0  0  0  0  0  0  0  0  0
  151.2980  131.9139  156.2457 N   0  0  0  0  0  0  0  0  0  0  0  0
  150.2417  132.9269  157.9518 O   0  0  0  0  0  0  0  0  0  0  0  0
  150.6154  136.5694  156.9508 C   0  0  0  0  0  0  0  0  0  0  0  0
  153.2011  141.7248  159.2627 C   0  0  0  0  0  0  0  0  0  0  0  0
  154.4308  142.2184  161.8187 H   0  0  0  0  0  0  0  0  0  0  0  0
  152.8521  141.4570  162.1060 H   0  0  0  0  0  0  0  0  0  0  0  0
  153.3640  142.8335  163.0782 H   0  0  0  0  0  0  0  0  0  0  0  0
  151.7872  144.8038  158.9891 H   0  0  0  0  0  0  0  0  0  0  0  0
  152.7453  143.9037  157.8580 H   0  0  0  0  0  0  0  0  0  0  0  0
  150.0767  142.9874  159.0533 H   0  0  0  0  0  0  0  0  0  0  0  0
  150.3073  143.5695  157.4217 H   0  0  0  0  0  0  0  0  0  0  0  0
  150.2373  141.0465  157.5633 H   0  0  0  0  0  0  0  0  0  0  0  0
  151.7038  141.6616  156.8418 H   0  0  0  0  0  0  0  0  0  0  0  0
  151.3683  140.6997  159.7231 H   0  0  0  0  0  0  0  0  0  0  0  0
  150.5265  138.9406  158.1395 H   0  0  0  0  0  0  0  0  0  0  0  0
  153.7816  136.6645  157.8087 H   0  0  0  0  0  0  0  0  0  0  0  0
  149.4883  134.4441  155.7817 H   0  0  0  0  0  0  0  0  0  0  0  0
  151.0042  134.0703  154.9799 H   0  0  0  0  0  0  0  0  0  0  0  0
  151.4183  131.0602  156.7720 H   0  0  0  0  0  0  0  0  0  0  0  0
  151.6470  131.9834  155.3007 H   0  0  0  0  0  0  0  0  0  0  0  0
  149.5743  136.7961  156.7736 H   0  0  0  0  0  0  0  0  0  0  0  0
  153.8642  141.9003  158.4137 H   0  0  0  0  0  0  0  0  0  0  0  0
  153.8059  141.1984  160.0032 H   0  0  0  0  0  0  0  0  0  0  0  0
  1  2  1  0  0  0  0
  1 22  1  0  0  0  0
  1 23  1  0  0  0  0
  1 24  1  0  0  0  0
  2  3  2  0  0  0  0
  2  4  1  0  0  0  0
  4 21  1  0  0  0  0
  4  5  1  0  0  0  0
  5  6  1  0  0  0  0
  5 25  1  0  0  0  0
  5 26  1  0  0  0  0
  6  7  1  0  0  0  0
  6 27  1  0  0  0  0
  6 28  1  0  0  0  0
  7  8  1  0  0  0  0
  7 29  1  0  0  0  0
  7 30  1  0  0  0  0
  8  9  1  0  0  0  0
  8 21  1  0  0  0  0
  8 31  1  0  0  0  0
  9 10  2  0  0  0  0
  9 11  1  0  0  0  0
 11 12  1  0  0  0  0
 11 32  1  0  0  0  0
 12 20  2  0  0  0  0
 12 13  1  0  0  0  0
 13 14  2  0  0  0  0
 13 33  1  0  0  0  0
 14 15  1  0  0  0  0
 15 16  1  0  0  0  0
 15 20  1  0  0  0  0
 16 17  1  0  0  0  0
 16 34  1  0  0  0  0
 16 35  1  0  0  0  0
 17 18  1  0  0  0  0
 17 19  2  0  0  0  0
 18 36  1  0  0  0  0
 18 37  1  0  0  0  0
 20 38  1  0  0  0  0
 21 39  1  0  0  0  0
 21 40  1  0  0  0  0
M  END
> <s_m_source_file>
AV-unprocessed.smi

> <i_m_source_file_index>
1681

> <i_lp_mmshare_version>
43012

> <i_f3d_flags>
0

> <s_epik_input>
W0NIM11DKD1PKU4xW0NIMl1bQ0gyXVtDSDJdW0NASF0oW0NIMl0xKUMoPU8pW05IXWMyW2NIXW5uKFtjSF0yKVtDSDJdQyg9TylbTkgyXQ==

> <s_epik_cmdline>
J2VwaWtfcHl0aG9uJywgJy1waCcsICc3LjAnLCAnLXRuJywgJzgnLCAnLW1hJywgJzIwMCcsICctbWV0YWxfYmluZGluZycsICctaW1hZScsICc8aW5maWxlLm1hZT4nLCAnLW9tYWUnLCAnPG91dGZpbGUubWFlPic=

> <r_lp_tautomer_probability>
1

> <r_epik_Ionization_Penalty>
6.05275e-06

> <r_epik_Ionization_Penalty_Charging>
0

> <r_epik_Ionization_Penalty_Neutral>
6.05275e-06

> <r_epik_State_Penalty>
-0

> <r_epik_Charging_Adjusted_Penalty>
0

> <i_epik_Tot_Q>
0

> <i_epik_Tot_abs_Q>
0

> <r_epik_Metal_State_Penalty>
-0

> <b_epik_Metal_Only>
0

> <s_lp_Force_Field>
OPLS_2005

> <r_lp_Energy>
29.0931

> <b_lp_Chiralities_Consistent>
1

> <s_lp_Variant>
AV-unprocessed.smi:1681-1

> <Gold.Version>
5.8.1

> <Gold.Id.Protein>
6NUR|6NUR_protein|mol2

> <Gold.PLP.Fitness>
46.9556

> <Gold.PLP.PLP>
-38.0839

> <Gold.PLP.part.hbond>
-3.0000

> <Gold.PLP.part.metal>
0.0000

> <Gold.PLP.part.buried>
-6.3619

> <Gold.PLP.part.nonpolar>
-29.1162

> <Gold.PLP.part.repulsive>
0.2935

> <Gold.PLP.ligand.clash>
0.0000

> <Gold.PLP.ligand.torsion>
0.0770

> <Gold.PLP.Chemscore.Hbond>
3.0000

> <Gold.PLP.Chemscore.CHOScore>
0.0000

> <Gold.PLP.Chemscore.Metal>
0.0000

> <Gold.Chemscore.Hbonds>
donor molecule, donor type, donor heavy atom, donor atom, acceptor molecule, acceptor atom, score
      P1  H  6896  6909       L1    19  1.00
      P1  H  7997  8010       L1    10  1.00
      P1  H 10752 10765       L1    14  1.00

> <Gold.PLP.Chemscore.Internal.Correction>
0.0257

> <Gold.Rescore>
     Score         DG    S(hbond)    S(metal)    S(lipo)     H(rot)  DE(clash)    DE(int)     intcor
     16.95     -18.10       2.82        0.00      70.16       1.96       0.06       1.09       ----

> <Gold.Chemscore.Fitness>
16.9511

> <Gold.Chemscore.DG>
-18.1000

> <Gold.Chemscore.ZeroCoef>
-5.4800

> <Gold.Chemscore.Hbond>
2.8242

> <Gold.Chemscore.Metal>
0.0000

> <Gold.Chemscore.Lipo>
70.1649

> <Gold.Chemscore.Internal_Hbond>
0.0000

> <Gold.Chemscore.DEClash>
0.0597

> <Gold.Chemscore.DEInternal>
1.0891

> <Gold.Chemscore.Rot>
1.9617

> <Gold.Chemscore.Internal.Correction>
   9.000000E+99

> <Gold.Chemscore.Hbonds>
donor molecule, donor type, donor heavy atom, donor atom, acceptor molecule, acceptor atom, score
      P1  H  6896  6909       L1    19  0.97
      P1  H  7997  8010       L1    10  1.00
      P1  H 10752 10765       L1    14  0.15

> <Gold.Chemscore.Hbond.Weighted>
-9.4328

> <Gold.Chemscore.Metal.Weighted>
-0.0000

> <Gold.Chemscore.Lipo.Weighted>
-8.2093

> <Gold.Chemscore.Internal_Hbond.Weighted>
0.0000

> <Gold.Chemscore.DEClash.Weighted>
0.0597

> <Gold.Chemscore.DEInternal.Weighted>
1.0891

> <Gold.Chemscore.Rot.Weighted>
5.0220

> <Gold.Chemscore.Internal.Correction.Weighted>
   9.000000E+99

> <Gold.Protein.RotatedTorsions>
[ 6907 6896 6895 6894 ] final  -28.67 input  -60.11 | X-H torsion
[ 7974 7965 7964 7962 ] final  143.29 input  175.53 | X-H torsion
[ 8008 7997 7996 7995 ] final   17.78 input   59.86 | X-H torsion
[ 10167 10162 10161 10158 ] final  -25.40 input  -65.29 | X-H torsion
[ 10718 10713 10712 10709 ] final  134.75 input   66.30 | X-H torsion
[ 10763 10752 10751 10750 ] final -137.30 input  -60.55 | X-H torsion
[ 11005 11000 10999 10996 ] final  -50.41 input  -57.11 | X-H torsion

> <Gold.Protein.ActiveResidues>
 VAL166  LYS551  ARG553  GLY616  TRP617  ASP618  TYR619  PRO620  LYS621  CYS622 
 ASP623  PHE694  ASN695  SER759  ASP760  ASP761  ALA762  ILE779  LEU786  VAL792 
 PHE793  MET794  SER795  GLU796  ALA797  LYS798  CYS799  TRP800  GLU811  SER814 

> <Gold.Protein.RotatedAtoms>
  151.1298  135.0124  159.8576 H   0  0  0  0  0  0  0  0  0  0  0  0  # atno 6907 bound_to 6896
  152.5450  134.1624  159.8573 H   0  0  0  0  0  0  0  0  0  0  0  0  # atno 6908 bound_to 6896
  151.1689  133.4751  159.2627 H   0  0  0  0  0  0  0  0  0  0  0  0  # atno 6909 bound_to 6896
  144.8934  139.5526  143.5788 H   0  0  0  0  0  0  0  0  0  0  0  0  # atno 7974 bound_to 7965
  154.8963  140.2994  155.5342 H   0  0  0  0  0  0  0  0  0  0  0  0  # atno 8008 bound_to 7997
  156.3020  140.2415  156.3920 H   0  0  0  0  0  0  0  0  0  0  0  0  # atno 8009 bound_to 7997
  154.8566  140.0407  157.1627 H   0  0  0  0  0  0  0  0  0  0  0  0  # atno 8010 bound_to 7997
  140.7286  143.4268  151.0864 H   0  0  0  0  0  0  0  0  0  0  0  0  # atno 10167 bound_to 10162
  157.4641  131.1075  150.9884 H   0  0  0  0  0  0  0  0  0  0  0  0  # atno 10718 bound_to 10713
  154.8665  135.3646  154.5200 H   0  0  0  0  0  0  0  0  0  0  0  0  # atno 10763 bound_to 10752
  153.5831  135.7018  153.5460 H   0  0  0  0  0  0  0  0  0  0  0  0  # atno 10764 bound_to 10752
  153.3440  135.4090  155.1556 H   0  0  0  0  0  0  0  0  0  0  0  0  # atno 10765 bound_to 10752
  141.0814  133.6652  156.3726 H   0  0  0  0  0  0  0  0  0  0  0  0  # atno 11005 bound_to 11000
  146.3067  139.7604  142.9051 LP  0  0  0  0  0  0  0  0  0  0  0  0  # atno 17320 bound_to 7965
  145.3743  141.0348  143.3213 LP  0  0  0  0  0  0  0  0  0  0  0  0  # atno 17321 bound_to 7965
  139.7920  143.8205  152.3153 LP  0  0  0  0  0  0  0  0  0  0  0  0  # atno 17342 bound_to 10162
  139.8192  144.7303  150.9595 LP  0  0  0  0  0  0  0  0  0  0  0  0  # atno 17343 bound_to 10162
  157.0672  130.5849  149.5396 LP  0  0  0  0  0  0  0  0  0  0  0  0  # atno 17370 bound_to 10713
  156.0042  130.5126  150.7771 LP  0  0  0  0  0  0  0  0  0  0  0  0  # atno 17371 bound_to 10713
  140.5460  134.6074  157.5394 LP  0  0  0  0  0  0  0  0  0  0  0  0  # atno 17394 bound_to 11000
  139.9628  134.7423  156.0200 LP  0  0  0  0  0  0  0  0  0  0  0  0  # atno 17395 bound_to 11000

$$$$
