#       Name:                AV-unprocessed.smi:3011
#       Creating user name   scv26
#       Creation time:       Fri Mar 27 16:39:10 2020


#       File generated by GOLD software.
#

@<TRIPOS>MOLECULE
AV-unprocessed.smi:3011
    53    55     1
SMALL
NO_CHARGES


@<TRIPOS>ATOM
      1 ****         4.5750   0.5867  10.4427 C.3            1 S1                 0.0000
      2 ****         5.1978   0.6201   9.1677 O.3            1 S1                 0.0000
      3 ****         5.5466   1.8466   8.6402 C.ar           1 S1                 0.0000
      4 ****         5.3340   3.0804   9.3058 C.ar           1 S1                 0.0000
      5 ****         5.7118   4.2924   8.6994 C.ar           1 S1                 0.0000
      6 ****         6.3053   4.2865   7.4254 C.ar           1 S1                 0.0000
      7 ****         6.5217   3.0682   6.7563 C.ar           1 S1                 0.0000
      8 ****         6.1433   1.8426   7.3588 C.ar           1 S1                 0.0000
      9 ****         6.3258   0.6124   6.7674 O.3            1 S1                 0.0000
     10 ****         6.7523   0.5571   5.4134 C.3            1 S1                 0.0000
     11 ****         6.6940  -0.9062   4.9535 C.3            1 S1                 0.0000
     12 ****         5.3741  -1.4857   5.1668 N.pl3          1 S1                 0.0000
     13 ****         4.2659  -1.3913   4.3858 C.2            1 S1                 0.0000
     14 ****         4.2396  -0.6111   3.0948 C.3            1 S1                 0.0000
     15 ****         3.3331   0.6243   3.1854 C.3            1 S1                 0.0000
     16 ****         3.7877  -1.4965   2.0263 N.am           1 S1                 0.0000
     17 ****         4.5870  -2.3405   1.3619 C.2            1 S1                 0.0000
     18 ****         5.7884  -2.4518   1.5927 O.2            1 S1                 0.0000
     19 ****         3.1866  -2.0336   4.8409 N.2            1 S1                 0.0000
     20 ****         3.6262  -2.5712   6.0334 C.ar           1 S1                 0.0000
     21 ****         2.9445  -3.3495   6.9963 C.ar           1 S1                 0.0000
     22 ****         3.6073  -3.7823   8.1632 C.ar           1 S1                 0.0000
     23 ****         4.9583  -3.4445   8.3828 C.ar           1 S1                 0.0000
     24 ****         5.6565  -2.6737   7.4337 C.ar           1 S1                 0.0000
     25 ****         4.9904  -2.2444   6.2696 C.ar           1 S1                 0.0000
     26 ****         4.3484  -0.4471  10.7031 H              1 S1                 0.0000
     27 ****         3.6349   1.1399  10.4434 H              1 S1                 0.0000
     28 ****         5.2318   0.9858  11.2167 H              1 S1                 0.0000
     29 ****         4.8812   3.1239  10.2845 H              1 S1                 0.0000
     30 ****         5.5459   5.2277   9.2135 H              1 S1                 0.0000
     31 ****         6.5961   5.2170   6.9605 H              1 S1                 0.0000
     32 ****         6.9844   3.0983   5.7818 H              1 S1                 0.0000
     33 ****         6.1028   1.1668   4.7839 H              1 S1                 0.0000
     34 ****         7.7703   0.9367   5.3189 H              1 S1                 0.0000
     35 ****         6.9788  -1.0059   3.9064 H              1 S1                 0.0000
     36 ****         7.4230  -1.4927   5.5131 H              1 S1                 0.0000
     37 ****         5.2378  -0.2557   2.8434 H              1 S1                 0.0000
     38 ****         3.6669   1.2954   3.9772 H              1 S1                 0.0000
     39 ****         2.3001   0.3474   3.3989 H              1 S1                 0.0000
     40 ****         3.3408   1.1863   2.2510 H              1 S1                 0.0000
     41 ****         2.8042  -1.4831   1.7977 H              1 S1                 0.0000
     42 ****         4.0367  -2.9121   0.5977 H              1 S1                 0.0000
     43 ****         1.9084  -3.6100   6.8384 H              1 S1                 0.0000
     44 ****         3.0763  -4.3741   8.8943 H              1 S1                 0.0000
     45 ****         5.4587  -3.7767   9.2806 H              1 S1                 0.0000
     46 ****         6.6898  -2.4099   7.6028 H              1 S1                 0.0000
     47 ****         4.5700   0.1876   8.5205 LP             1 S1                 0.0000
     48 ****         6.0351   0.0774   9.2333 LP             1 S1                 0.0000
     49 ****         5.4518   0.1293   6.8196 LP             1 S1                 0.0000
     50 ****         7.0093   0.1244   7.3103 LP             1 S1                 0.0000
     51 ****         6.2140  -1.8960   2.3068 LP             1 S1                 0.0000
     52 ****         6.3409  -3.0983   1.0665 LP             1 S1                 0.0000
     53 ****         2.2822  -2.1069   4.4205 LP             1 S1                 0.0000
@<TRIPOS>BOND
    1    1    2 1     
    2    1   26 1     
    3    1   27 1     
    4    1   28 1     
    5    2    3 1     
    6    3    8 ar    
    7    3    4 ar    
    8    4    5 ar    
    9    4   29 1     
   10    5    6 ar    
   11    5   30 1     
   12    6    7 ar    
   13    6   31 1     
   14    7    8 ar    
   15    7   32 1     
   16    8    9 1     
   17    9   10 1     
   18   10   11 1     
   19   10   33 1     
   20   10   34 1     
   21   11   12 1     
   22   11   35 1     
   23   11   36 1     
   24   12   25 1     
   25   12   13 1     
   26   13   14 1     
   27   13   19 2     
   28   14   15 1     
   29   14   16 1     
   30   14   37 1     
   31   15   38 1     
   32   15   39 1     
   33   15   40 1     
   34   16   17 am    
   35   16   41 1     
   36   17   18 2     
   37   17   42 1     
   38   19   20 1     
   39   20   25 ar    
   40   20   21 ar    
   41   21   22 ar    
   42   21   43 1     
   43   22   23 ar    
   44   22   44 1     
   45   23   24 ar    
   46   23   45 1     
   47   24   25 ar    
   48   24   46 1     
   49    2   47 1     
   50    2   48 1     
   51    9   49 1     
   52    9   50 1     
   53   18   51 1     
   54   18   52 1     
   55   19   53 1     
@<TRIPOS>SUBSTRUCTURE
      1 S1             1
@<TRIPOS>SET
LONE_PAIRS      STATIC     ATOMS    <user>   **** ""
7 47 48 49 50 51 52 53
DONOR_HYDROGENS      STATIC     ATOMS    <user>   **** ""
1 41
ATOM$BLUE        STATIC     ATOMS    COLORGROUP SYSTEM
7 47 48 49 50 51 52 53
ATOM$RED        STATIC     ATOMS    COLORGROUP SYSTEM
1 41
