#       Name:                AV-unprocessed.smi:906
#       Creating user name   scv26
#       Creation time:       Fri Mar 27 01:59:22 2020


#       File generated by GOLD software.
#

@<TRIPOS>MOLECULE
AV-unprocessed.smi:906
    51    52     1
SMALL
NO_CHARGES


@<TRIPOS>ATOM
      1 ****        -8.3214  -1.1730  -0.2768 C.3            1 S1                 0.0000
      2 ****        -6.9202  -0.6268  -0.0987 C.ar           1 S1                 0.0000
      3 ****        -6.4525  -0.2422   1.1756 C.ar           1 S1                 0.0000
      4 ****        -5.1390   0.2534   1.2862 C.ar           1 S1                 0.0000
      5 ****        -4.3464   0.3443   0.1238 C.ar           1 S1                 0.0000
      6 ****        -2.9240   0.8641   0.1896 C.3            1 S1                 0.0000
      7 ****        -1.9103  -0.2600   0.4576 C.3            1 S1                 0.0000
      8 ****        -0.5489   0.2557   0.5366 N.am           1 S1                 0.0000
      9 ****         0.2387   0.5325  -0.5167 C.2            1 S1                 0.0000
     10 ****        -0.1422   0.3754  -1.6777 O.2            1 S1                 0.0000
     11 ****         1.4577   1.0336  -0.1966 N.am           1 S1                 0.0000
     12 ****         2.0824   1.0499   1.1342 C.3            1 S1                 0.0000
     13 ****         3.2501   0.0446   1.1456 C.3            1 S1                 0.0000
     14 ****         4.2320   0.3942   0.1115 N.3            1 S1                 0.0000
     15 ****         5.4412  -0.4425   0.2010 C.3            1 S1                 0.0000
     16 ****         5.2332  -1.8953  -0.2809 C.3            1 S1                 0.0000
     17 ****         6.6616   0.2306  -0.4717 C.3            1 S1                 0.0000
     18 ****         6.7748   1.4955  -0.0650 F              1 S1                 0.0000
     19 ****         7.7690  -0.4182  -0.1117 F              1 S1                 0.0000
     20 ****         6.5816   0.2077  -1.8021 F              1 S1                 0.0000
     21 ****         3.6025   0.4397  -1.2157 C.3            1 S1                 0.0000
     22 ****         2.4333   1.4433  -1.2107 C.3            1 S1                 0.0000
     23 ****        -4.9092  -0.0680  -1.1025 C.ar           1 S1                 0.0000
     24 ****        -6.1675  -0.5444  -1.2181 N.ar           1 S1                 0.0000
     25 ****        -8.9670  -0.8697   0.5480 H              1 S1                 0.0000
     26 ****        -8.2981  -2.2625  -0.3114 H              1 S1                 0.0000
     27 ****        -8.7649  -0.8085  -1.2040 H              1 S1                 0.0000
     28 ****        -7.0828  -0.3259   2.0488 H              1 S1                 0.0000
     29 ****        -4.7480   0.5549   2.2470 H              1 S1                 0.0000
     30 ****        -2.6907   1.3693  -0.7487 H              1 S1                 0.0000
     31 ****        -2.8584   1.6223   0.9712 H              1 S1                 0.0000
     32 ****        -2.1404  -0.7505   1.4039 H              1 S1                 0.0000
     33 ****        -1.9763  -1.0285  -0.3145 H              1 S1                 0.0000
     34 ****        -0.1771   0.4221   1.4603 H              1 S1                 0.0000
     35 ****         2.4500   2.0551   1.3468 H              1 S1                 0.0000
     36 ****         1.3963   0.8141   1.9473 H              1 S1                 0.0000
     37 ****         3.7266   0.0596   2.1263 H              1 S1                 0.0000
     38 ****         2.8691  -0.9646   0.9873 H              1 S1                 0.0000
     39 ****         5.6901  -0.4917   1.2621 H              1 S1                 0.0000
     40 ****         6.1245  -2.4923  -0.0882 H              1 S1                 0.0000
     41 ****         5.0408  -1.9468  -1.3524 H              1 S1                 0.0000
     42 ****         4.4072  -2.3855   0.2328 H              1 S1                 0.0000
     43 ****         4.3225   0.7492  -1.9704 H              1 S1                 0.0000
     44 ****         3.2366  -0.5473  -1.5007 H              1 S1                 0.0000
     45 ****         1.9990   1.5063  -2.2093 H              1 S1                 0.0000
     46 ****         2.7963   2.4467  -0.9824 H              1 S1                 0.0000
     47 ****        -4.3340  -0.0180  -2.0154 H              1 S1                 0.0000
     48 ****        -1.0635   0.0319  -1.8595 LP             1 S1                 0.0000
     49 ****         0.4701   0.5913  -2.4384 LP             1 S1                 0.0000
     50 ****         4.5632   1.3231   0.2769 LP             1 S1                 0.0000
     51 ****        -6.5314  -0.8278  -2.1054 LP             1 S1                 0.0000
@<TRIPOS>BOND
    1    1    2 1     
    2    1   25 1     
    3    1   26 1     
    4    1   27 1     
    5    2   24 ar    
    6    2    3 ar    
    7    3    4 ar    
    8    3   28 1     
    9    4    5 ar    
   10    4   29 1     
   11    5    6 1     
   12    5   23 ar    
   13    6    7 1     
   14    6   30 1     
   15    6   31 1     
   16    7    8 1     
   17    7   32 1     
   18    7   33 1     
   19    8    9 am    
   20    8   34 1     
   21    9   10 2     
   22    9   11 am    
   23   11   22 1     
   24   11   12 1     
   25   12   13 1     
   26   12   35 1     
   27   12   36 1     
   28   13   14 1     
   29   13   37 1     
   30   13   38 1     
   31   14   15 1     
   32   14   21 1     
   33   15   16 1     
   34   15   17 1     
   35   15   39 1     
   36   16   40 1     
   37   16   41 1     
   38   16   42 1     
   39   17   18 1     
   40   17   19 1     
   41   17   20 1     
   42   21   22 1     
   43   21   43 1     
   44   21   44 1     
   45   22   45 1     
   46   22   46 1     
   47   23   24 ar    
   48   23   47 1     
   49   10   48 1     
   50   10   49 1     
   51   14   50 1     
   52   24   51 1     
@<TRIPOS>SUBSTRUCTURE
      1 S1             1
@<TRIPOS>SET
LONE_PAIRS      STATIC     ATOMS    <user>   **** ""
4 48 49 50 51
DONOR_HYDROGENS      STATIC     ATOMS    <user>   **** ""
1 34
ATOM$BLUE        STATIC     ATOMS    COLORGROUP SYSTEM
4 48 49 50 51
ATOM$RED        STATIC     ATOMS    COLORGROUP SYSTEM
1 34
