#       Name:                AV-unprocessed.smi:3201
#       Creating user name   scv26
#       Creation time:       Fri Mar 27 18:07:34 2020


#       File generated by GOLD software.
#

@<TRIPOS>MOLECULE
AV-unprocessed.smi:3201
    42    44     1
SMALL
NO_CHARGES


@<TRIPOS>ATOM
      1 ****        -2.9011   2.6695  -1.5069 C.3            1 S1                 0.0000
      2 ****        -3.1969   1.2065  -1.5962 C.2            1 S1                 0.0000
      3 ****        -2.3517   0.1293  -1.6276 C.2            1 S1                 0.0000
      4 ****        -0.8484   0.0998  -1.5831 C.3            1 S1                 0.0000
      5 ****        -0.3283   0.0634  -0.1404 C.3            1 S1                 0.0000
      6 ****         1.1479   0.0403  -0.1122 N.4            1 S1                 1.0000
      7 ****         1.7405  -0.0015   1.2426 C.3            1 S1                 0.0000
      8 ****         1.5734  -1.3565   1.9646 C.3            1 S1                 0.0000
      9 ****         3.0163  -1.6943   2.3888 C.3            1 S1                 0.0000
     10 ****         3.8043  -2.1576   1.1513 C.3            1 S1                 0.0000
     11 ****         3.9819  -0.8499   0.3584 C.3            1 S1                 0.0000
     12 ****         3.2722   0.1952   1.2471 C.3            1 S1                 0.0000
     13 ****         3.6191  -0.3154   2.6422 C.3            1 S1                 0.0000
     14 ****        -3.2304  -0.9872  -1.7114 C.2            1 S1                 0.0000
     15 ****        -4.5034  -0.6374  -1.7319 N.2            1 S1                 0.0000
     16 ****        -4.4869   0.7092  -1.6636 N.pl3          1 S1                 0.0000
     17 ****        -5.7523   1.4185  -1.6662 C.3            1 S1                 0.0000
     18 ****        -1.8316   2.8531  -1.4073 H              1 S1                 0.0000
     19 ****        -3.3953   3.1132  -0.6424 H              1 S1                 0.0000
     20 ****        -3.2471   3.1895  -2.4004 H              1 S1                 0.0000
     21 ****        -0.4707  -0.7695  -2.1229 H              1 S1                 0.0000
     22 ****        -0.4320   0.9665  -2.0974 H              1 S1                 0.0000
     23 ****        -0.6828   0.9382   0.4066 H              1 S1                 0.0000
     24 ****        -0.7181  -0.8173   0.3715 H              1 S1                 0.0000
     25 ****         1.4753  -0.7618  -0.6316 H              1 S1                 0.0000
     26 ****         1.2877   0.7909   1.8417 H              1 S1                 0.0000
     27 ****         0.9254  -1.2464   2.8350 H              1 S1                 0.0000
     28 ****         1.1470  -2.1355   1.3310 H              1 S1                 0.0000
     29 ****         3.0764  -2.3876   3.2284 H              1 S1                 0.0000
     30 ****         4.7742  -2.5663   1.4385 H              1 S1                 0.0000
     31 ****         3.2751  -2.9230   0.5823 H              1 S1                 0.0000
     32 ****         5.0414  -0.6104   0.2583 H              1 S1                 0.0000
     33 ****         3.5665  -0.9116  -0.6473 H              1 S1                 0.0000
     34 ****         3.5819   1.2215   1.0477 H              1 S1                 0.0000
     35 ****         3.1224   0.2333   3.4443 H              1 S1                 0.0000
     36 ****         4.6925  -0.3423   2.8400 H              1 S1                 0.0000
     37 ****        -2.9804  -2.0369  -1.7566 H              1 S1                 0.0000
     38 ****        -5.5947   2.4958  -1.7111 H              1 S1                 0.0000
     39 ****        -6.3069   1.1812  -0.7581 H              1 S1                 0.0000
     40 ****        -6.3422   1.1168  -2.5324 H              1 S1                 0.0000
     41 ****         1.4783   0.8769  -0.5715 H              1 S1                 0.0000
     42 ****        -5.3016  -1.2373  -1.7860 LP             1 S1                 0.0000
@<TRIPOS>BOND
    1    1    2 1     
    2    1   18 1     
    3    1   19 1     
    4    1   20 1     
    5    2   16 1     
    6    2    3 2     
    7    3    4 1     
    8    3   14 1     
    9    4    5 1     
   10    4   21 1     
   11    4   22 1     
   12    5    6 1     
   13    5   23 1     
   14    5   24 1     
   15    6    7 1     
   16    6   25 1     
   17    6   41 1     
   18    7   12 1     
   19    7    8 1     
   20    7   26 1     
   21    8    9 1     
   22    8   27 1     
   23    8   28 1     
   24    9   13 1     
   25    9   10 1     
   26    9   29 1     
   27   10   11 1     
   28   10   30 1     
   29   10   31 1     
   30   11   12 1     
   31   11   32 1     
   32   11   33 1     
   33   12   13 1     
   34   12   34 1     
   35   13   35 1     
   36   13   36 1     
   37   14   15 2     
   38   14   37 1     
   39   15   16 1     
   40   16   17 1     
   41   17   38 1     
   42   17   39 1     
   43   17   40 1     
   44   15   42 1     
@<TRIPOS>SUBSTRUCTURE
      1 S1             1
@<TRIPOS>SET
LONE_PAIRS      STATIC     ATOMS    <user>   **** ""
1 42
DONOR_HYDROGENS      STATIC     ATOMS    <user>   **** ""
2 25 41
ATOM$BLUE        STATIC     ATOMS    COLORGROUP SYSTEM
1 42
ATOM$RED        STATIC     ATOMS    COLORGROUP SYSTEM
2 25 41
