AV-unprocessed.smi:3122|AV-procd|sdf|11896|dock5
  -GOLD-   2272017283D 1   1.00000     0.00000
 Structure written by MMmdl.
 30 31  0  0  0  0  0  0  0  0  2 V2000
  152.2184  143.7144  161.5531 C   0  0  0  0  0  0  0  0  0  0  0  0
  152.8137  143.7133  160.1380 C   0  0  0  0  0  0  0  0  0  0  0  0
  152.1726  144.7782  159.2361 C   0  0  0  0  0  0  0  0  0  0  0  0
  152.7590  142.3514  159.5202 C   0  0  0  0  0  0  0  0  0  0  0  0
  153.3062  141.2246  159.9851 N   0  0  0  0  0  0  0  0  0  0  0  0
  153.0468  140.2606  159.0379 N   0  0  0  0  0  0  0  0  0  0  0  0
  152.4029  140.8864  158.0489 C   0  0  0  0  0  0  0  0  0  0  0  0
  151.8430  140.2862  156.7998 C   0  0  2  0  0  0  0  0  0  0  0  0
  150.8060  139.1856  157.0935 C   0  0  0  0  0  0  0  0  0  0  0  0
  150.3588  138.5638  155.8317 N   0  3  0  0  0  0  0  0  0  0  0  0
  151.5011  138.0632  155.0412 C   0  0  0  0  0  0  0  0  0  0  0  0
  152.5244  139.1903  154.8156 C   0  0  0  0  0  0  0  0  0  0  0  0
  152.9324  139.7271  156.0697 O   0  0  0  0  0  0  0  0  0  0  0  0
  152.1861  142.2043  158.2967 O   0  0  0  0  0  0  0  0  0  0  0  0
  152.7358  143.0029  162.1974 H   0  0  0  0  0  0  0  0  0  0  0  0
  151.1621  143.4435  161.5387 H   0  0  0  0  0  0  0  0  0  0  0  0
  152.3030  144.6989  162.0137 H   0  0  0  0  0  0  0  0  0  0  0  0
  153.8683  143.9747  160.2352 H   0  0  0  0  0  0  0  0  0  0  0  0
  152.6535  144.8040  158.2577 H   0  0  0  0  0  0  0  0  0  0  0  0
  152.2656  145.7719  159.6753 H   0  0  0  0  0  0  0  0  0  0  0  0
  151.1111  144.5822  159.0808 H   0  0  0  0  0  0  0  0  0  0  0  0
  151.3880  141.0864  156.2131 H   0  0  0  0  0  0  0  0  0  0  0  0
  151.2383  138.4167  157.7358 H   0  0  0  0  0  0  0  0  0  0  0  0
  149.9437  139.5969  157.6192 H   0  0  0  0  0  0  0  0  0  0  0  0
  149.7309  137.7994  156.0370 H   0  0  0  0  0  0  0  0  0  0  0  0
  151.9674  137.2318  155.5714 H   0  0  0  0  0  0  0  0  0  0  0  0
  151.1402  137.6758  154.0883 H   0  0  0  0  0  0  0  0  0  0  0  0
  153.4006  138.8040  154.2946 H   0  0  0  0  0  0  0  0  0  0  0  0
  152.1035  139.9790  154.1899 H   0  0  0  0  0  0  0  0  0  0  0  0
  149.8665  139.2562  155.2852 H   0  0  0  0  0  0  0  0  0  0  0  0
  1  2  1  0  0  0  0
  1 15  1  0  0  0  0
  1 16  1  0  0  0  0
  1 17  1  0  0  0  0
  2  3  1  0  0  0  0
  2  4  1  0  0  0  0
  2 18  1  0  0  0  0
  3 19  1  0  0  0  0
  3 20  1  0  0  0  0
  3 21  1  0  0  0  0
  4 14  1  0  0  0  0
  4  5  2  0  0  0  0
  5  6  1  0  0  0  0
  6  7  2  0  0  0  0
  7  8  1  0  0  0  0
  7 14  1  0  0  0  0
  8 13  1  0  0  0  0
  8  9  1  0  0  0  0
  8 22  1  0  0  0  0
  9 10  1  0  0  0  0
  9 23  1  0  0  0  0
  9 24  1  0  0  0  0
 10 11  1  0  0  0  0
 10 25  1  0  0  0  0
 10 30  1  0  0  0  0
 11 12  1  0  0  0  0
 11 26  1  0  0  0  0
 11 27  1  0  0  0  0
 12 13  1  0  0  0  0
 12 28  1  0  0  0  0
 12 29  1  0  0  0  0
M  CHG  1  10   1
M  END
> <s_m_source_file>
AV-unprocessed.smi

> <i_m_source_file_index>
3122

> <i_lp_mmshare_version>
43012

> <i_f3d_flags>
0

> <s_epik_input>
W0NIM11bQ0hdKFtDSDNdKWMxbm5jKG8xKVtDQEBIXTJbQ0gyXVtOSF1bQ0gyXVtDSDJdTzI=

> <s_epik_cmdline>
J2VwaWtfcHl0aG9uJywgJy1waCcsICc3LjAnLCAnLXRuJywgJzgnLCAnLW1hJywgJzIwMCcsICctbWV0YWxfYmluZGluZycsICctaW1hZScsICc8aW5maWxlLm1hZT4nLCAnLW9tYWUnLCAnPG91dGZpbGUubWFlPic=

> <r_lp_tautomer_probability>
1

> <r_epik_Ionization_Penalty>
0.0380945

> <r_epik_Ionization_Penalty_Charging>
0.0380945

> <r_epik_Ionization_Penalty_Neutral>
3.26791e-13

> <r_epik_State_Penalty>
0.0319257

> <r_epik_Charging_Adjusted_Penalty>
0.0700202

> <i_epik_Tot_Q>
1

> <i_epik_Tot_abs_Q>
1

> <r_epik_Metal_State_Penalty>
0.0319257

> <b_epik_Metal_Only>
0

> <s_lp_Force_Field>
OPLS_2005

> <r_lp_Energy>
10.6056

> <b_lp_Chiralities_Consistent>
1

> <s_lp_Variant>
AV-unprocessed.smi:3122-1

> <Gold.Version>
5.8.1

> <Gold.Id.Protein>
6NUR|6NUR_protein|mol2

> <Gold.PLP.Fitness>
31.9918

> <Gold.PLP.PLP>
-28.9954

> <Gold.PLP.part.hbond>
-1.0000

> <Gold.PLP.part.metal>
0.0000

> <Gold.PLP.part.buried>
-4.6654

> <Gold.PLP.part.nonpolar>
-23.3993

> <Gold.PLP.part.repulsive>
0.0105

> <Gold.PLP.ligand.clash>
0.0000

> <Gold.PLP.ligand.torsion>
0.0501

> <Gold.PLP.Chemscore.Hbond>
1.0000

> <Gold.PLP.Chemscore.CHOScore>
0.0000

> <Gold.PLP.Chemscore.Metal>
0.0000

> <Gold.Chemscore.Hbonds>
donor molecule, donor type, donor heavy atom, donor atom, acceptor molecule, acceptor atom, score
      P1  H  7997  8008       L1    13  0.96

> <Gold.PLP.Chemscore.Internal.Correction>
0.0966

> <Gold.Rescore>
     Score         DG    S(hbond)    S(metal)    S(lipo)     H(rot)  DE(clash)    DE(int)     intcor
     12.78     -13.18       0.98        0.00      65.30       1.26       0.04       0.36       ----

> <Gold.Chemscore.Fitness>
12.7804

> <Gold.Chemscore.DG>
-13.1773

> <Gold.Chemscore.ZeroCoef>
-5.4800

> <Gold.Chemscore.Hbond>
0.9848

> <Gold.Chemscore.Metal>
0.0000

> <Gold.Chemscore.Lipo>
65.2998

> <Gold.Chemscore.Internal_Hbond>
0.0000

> <Gold.Chemscore.DEClash>
0.0414

> <Gold.Chemscore.DEInternal>
0.3556

> <Gold.Chemscore.Rot>
1.2625

> <Gold.Chemscore.Internal.Correction>
   9.000000E+99

> <Gold.Chemscore.Hbonds>
donor molecule, donor type, donor heavy atom, donor atom, acceptor molecule, acceptor atom, score
      P1  H  7997  8008       L1    13  0.74

> <Gold.Chemscore.Hbond.Weighted>
-3.2893

> <Gold.Chemscore.Metal.Weighted>
-0.0000

> <Gold.Chemscore.Lipo.Weighted>
-7.6401

> <Gold.Chemscore.Internal_Hbond.Weighted>
0.0000

> <Gold.Chemscore.DEClash.Weighted>
0.0414

> <Gold.Chemscore.DEInternal.Weighted>
0.3556

> <Gold.Chemscore.Rot.Weighted>
3.2320

> <Gold.Chemscore.Internal.Correction.Weighted>
   9.000000E+99

> <Gold.Protein.RotatedTorsions>
[ 6907 6896 6895 6894 ] final   85.90 input  -60.11 | X-H torsion
[ 7974 7965 7964 7962 ] final   98.65 input  175.53 | X-H torsion
[ 8008 7997 7996 7995 ] final  -25.25 input   59.86 | X-H torsion
[ 10167 10162 10161 10158 ] final  162.84 input  -65.29 | X-H torsion
[ 10718 10713 10712 10709 ] final   52.57 input   66.30 | X-H torsion
[ 10763 10752 10751 10750 ] final -127.68 input  -60.55 | X-H torsion
[ 11005 11000 10999 10996 ] final  -16.89 input  -57.11 | X-H torsion

> <Gold.Protein.ActiveResidues>
 VAL166  LYS551  ARG553  GLY616  TRP617  ASP618  TYR619  PRO620  LYS621  CYS622 
 ASP623  PHE694  ASN695  SER759  ASP760  ASP761  ALA762  ILE779  LEU786  VAL792 
 PHE793  MET794  SER795  GLU796  ALA797  LYS798  CYS799  TRP800  GLU811  SER814 

> <Gold.Protein.RotatedAtoms>
  152.5384  134.2515  159.8900 H   0  0  0  0  0  0  0  0  0  0  0  0  # atno 6907 bound_to 6896
  151.2478  133.4359  159.2617 H   0  0  0  0  0  0  0  0  0  0  0  0  # atno 6908 bound_to 6896
  151.0567  134.9723  159.8295 H   0  0  0  0  0  0  0  0  0  0  0  0  # atno 6909 bound_to 6896
  145.4093  139.2336  143.3257 H   0  0  0  0  0  0  0  0  0  0  0  0  # atno 7974 bound_to 7965
  154.4486  140.1931  156.0590 H   0  0  0  0  0  0  0  0  0  0  0  0  # atno 8008 bound_to 7997
  156.0597  140.3298  155.7420 H   0  0  0  0  0  0  0  0  0  0  0  0  # atno 8009 bound_to 7997
  155.5431  140.0588  157.2857 H   0  0  0  0  0  0  0  0  0  0  0  0  # atno 8010 bound_to 7997
  139.4866  144.4397  151.8967 H   0  0  0  0  0  0  0  0  0  0  0  0  # atno 10167 bound_to 10162
  157.5087  130.8486  149.8407 H   0  0  0  0  0  0  0  0  0  0  0  0  # atno 10718 bound_to 10713
  154.8753  135.3954  154.3633 H   0  0  0  0  0  0  0  0  0  0  0  0  # atno 10763 bound_to 10752
  153.4402  135.7026  153.6179 H   0  0  0  0  0  0  0  0  0  0  0  0  # atno 10764 bound_to 10752
  153.4763  135.3779  155.2387 H   0  0  0  0  0  0  0  0  0  0  0  0  # atno 10765 bound_to 10752
  140.8113  133.8138  155.9566 H   0  0  0  0  0  0  0  0  0  0  0  0  # atno 11005 bound_to 11000
  146.2713  140.4802  142.8813 LP  0  0  0  0  0  0  0  0  0  0  0  0  # atno 17320 bound_to 7965
  144.8320  140.6722  143.6285 LP  0  0  0  0  0  0  0  0  0  0  0  0  # atno 17321 bound_to 7965
  140.3848  144.2690  150.5905 LP  0  0  0  0  0  0  0  0  0  0  0  0  # atno 17342 bound_to 10162
  140.5200  143.2268  151.8403 LP  0  0  0  0  0  0  0  0  0  0  0  0  # atno 17343 bound_to 10162
  156.0275  130.3775  150.1782 LP  0  0  0  0  0  0  0  0  0  0  0  0  # atno 17370 bound_to 10713
  156.9972  130.9911  151.3400 LP  0  0  0  0  0  0  0  0  0  0  0  0  # atno 17371 bound_to 10713
  140.9194  134.2160  157.4936 LP  0  0  0  0  0  0  0  0  0  0  0  0  # atno 17394 bound_to 11000
  139.8714  134.9786  156.5002 LP  0  0  0  0  0  0  0  0  0  0  0  0  # atno 17395 bound_to 11000

$$$$
