AV-unprocessed.smi:264|AV-procd|sdf|2009|dock1
  -GOLD-   2262021203D 1   1.00000     0.00000
 Structure written by MMmdl.
 52 56  0  0  0  0  0  0  0  0  1 V2000
  143.4303  132.6897  148.5475 C   0  0  0  0  0  0  0  0  0  0  0  0
  144.6637  132.9824  149.4176 C   0  0  2  0  0  0  0  0  0  0  0  0
  145.3657  131.7764  149.7179 O   0  0  0  0  0  0  0  0  0  0  0  0
  145.4823  131.6162  151.1247 C   0  0  0  0  0  0  0  0  0  0  0  0
  145.4310  133.0368  151.6704 C   0  0  0  0  0  0  0  0  0  0  0  0
  144.4072  133.7025  150.7619 C   0  0  2  0  0  0  0  0  0  0  0  0
  143.1103  133.4049  151.2571 O   0  0  0  0  0  0  0  0  0  0  0  0
  144.5573  135.2395  150.6606 C   0  0  0  0  0  0  0  0  0  0  0  0
  144.6549  135.8980  151.9542 N   0  0  0  0  0  0  0  0  0  0  0  0
  145.6634  136.7366  152.3729 C   0  0  0  0  0  0  0  0  0  0  0  0
  145.5219  137.2195  153.5767 N   0  0  0  0  0  0  0  0  0  0  0  0
  144.3319  136.6613  154.0288 C   0  0  0  0  0  0  0  0  0  0  0  0
  143.5840  136.7668  155.2349 C   0  0  0  0  0  0  0  0  0  0  0  0
  143.9896  137.5304  156.2798 N   0  0  0  0  0  0  0  0  0  0  0  0
  142.9952  138.4726  156.7763 C   0  0  0  0  0  0  0  0  0  0  0  0
  143.4218  139.0026  158.1526 C   0  0  0  0  0  0  0  0  0  0  0  0
  144.7348  139.5581  158.0828 O   0  0  0  0  0  0  0  0  0  0  0  0
  145.7395  138.6472  157.6257 C   0  0  1  0  0  0  0  0  0  0  0  0
  147.0598  139.4064  157.5484 C   0  0  0  0  0  0  0  0  0  0  0  0
  148.0877  138.3557  157.9398 C   0  0  0  0  0  0  0  0  0  0  0  0
  147.4356  137.6717  158.9933 O   0  0  0  0  0  0  0  0  0  0  0  0
  146.0601  137.5364  158.6539 C   0  0  0  0  0  0  0  0  0  0  0  0
  145.3361  138.0924  156.2396 C   0  0  0  0  0  0  0  0  0  0  0  0
  142.4195  136.0684  155.3123 N   0  0  0  0  0  0  0  0  0  0  0  0
  142.0182  135.3099  154.2880 C   0  0  0  0  0  0  0  0  0  0  0  0
  142.6144  135.1152  153.1103 N   0  0  0  0  0  0  0  0  0  0  0  0
  143.7762  135.8232  153.0210 C   0  0  0  0  0  0  0  0  0  0  0  0
  142.8786  133.6039  148.3280 H   0  0  0  0  0  0  0  0  0  0  0  0
  142.7495  131.9920  149.0361 H   0  0  0  0  0  0  0  0  0  0  0  0
  143.7260  132.2449  147.5972 H   0  0  0  0  0  0  0  0  0  0  0  0
  145.3586  133.5818  148.8279 H   0  0  0  0  0  0  0  0  0  0  0  0
  144.6363  131.0319  151.4895 H   0  0  0  0  0  0  0  0  0  0  0  0
  146.3999  131.0929  151.3940 H   0  0  0  0  0  0  0  0  0  0  0  0
  145.1777  133.0829  152.7306 H   0  0  0  0  0  0  0  0  0  0  0  0
  146.4097  133.5000  151.5392 H   0  0  0  0  0  0  0  0  0  0  0  0
  142.5000  134.0256  150.8892 H   0  0  0  0  0  0  0  0  0  0  0  0
  145.4415  135.4986  150.0766 H   0  0  0  0  0  0  0  0  0  0  0  0
  143.7050  135.6624  150.1268 H   0  0  0  0  0  0  0  0  0  0  0  0
  146.5081  136.9891  151.7480 H   0  0  0  0  0  0  0  0  0  0  0  0
  142.9070  139.2984  156.0690 H   0  0  0  0  0  0  0  0  0  0  0  0
  142.0099  138.0138  156.8516 H   0  0  0  0  0  0  0  0  0  0  0  0
  142.7311  139.7782  158.4835 H   0  0  0  0  0  0  0  0  0  0  0  0
  143.3772  138.2078  158.8973 H   0  0  0  0  0  0  0  0  0  0  0  0
  147.2551  139.8514  156.5721 H   0  0  0  0  0  0  0  0  0  0  0  0
  147.0761  140.2098  158.2867 H   0  0  0  0  0  0  0  0  0  0  0  0
  148.2835  137.6678  157.1157 H   0  0  0  0  0  0  0  0  0  0  0  0
  149.0340  138.7883  158.2648 H   0  0  0  0  0  0  0  0  0  0  0  0
  145.4688  137.6190  159.5656 H   0  0  0  0  0  0  0  0  0  0  0  0
  145.8875  136.5434  158.2372 H   0  0  0  0  0  0  0  0  0  0  0  0
  146.0529  137.3366  155.9144 H   0  0  0  0  0  0  0  0  0  0  0  0
  145.3563  138.8940  155.4996 H   0  0  0  0  0  0  0  0  0  0  0  0
  141.0855  134.7847  154.4324 H   0  0  0  0  0  0  0  0  0  0  0  0
  1  2  1  0  0  0  0
  1 28  1  0  0  0  0
  1 29  1  0  0  0  0
  1 30  1  0  0  0  0
  2  6  1  0  0  0  0
  2  3  1  0  0  0  0
  2 31  1  0  0  0  0
  3  4  1  0  0  0  0
  4  5  1  0  0  0  0
  4 32  1  0  0  0  0
  4 33  1  0  0  0  0
  5  6  1  0  0  0  0
  5 34  1  0  0  0  0
  5 35  1  0  0  0  0
  6  7  1  0  0  0  0
  6  8  1  0  0  0  0
  7 36  1  0  0  0  0
  8  9  1  0  0  0  0
  8 37  1  0  0  0  0
  8 38  1  0  0  0  0
  9 27  1  0  0  0  0
  9 10  1  0  0  0  0
 10 11  2  0  0  0  0
 10 39  1  0  0  0  0
 11 12  1  0  0  0  0
 12 27  2  0  0  0  0
 12 13  1  0  0  0  0
 13 14  1  0  0  0  0
 13 24  2  0  0  0  0
 14 23  1  0  0  0  0
 14 15  1  0  0  0  0
 15 16  1  0  0  0  0
 15 40  1  0  0  0  0
 15 41  1  0  0  0  0
 16 17  1  0  0  0  0
 16 42  1  0  0  0  0
 16 43  1  0  0  0  0
 17 18  1  0  0  0  0
 18 22  1  0  0  0  0
 18 19  1  0  0  0  0
 18 23  1  0  0  0  0
 19 20  1  0  0  0  0
 19 44  1  0  0  0  0
 19 45  1  0  0  0  0
 20 21  1  0  0  0  0
 20 46  1  0  0  0  0
 20 47  1  0  0  0  0
 21 22  1  0  0  0  0
 22 48  1  0  0  0  0
 22 49  1  0  0  0  0
 23 50  1  0  0  0  0
 23 51  1  0  0  0  0
 24 25  1  0  0  0  0
 25 26  2  0  0  0  0
 25 52  1  0  0  0  0
 26 27  1  0  0  0  0
M  END
> <s_m_source_file>
AV-unprocessed.smi

> <i_m_source_file_index>
264

> <i_lp_mmshare_version>
43012

> <i_f3d_flags>
0

> <s_epik_input>
W0NIMl0xW0NIMl1PW0NAQEhdKFtDSDNdKVtDQEBdMShbT0hdKVtDSDJdbihbY0hdbjIpYyhjMjMpbltjSF1uYzNOKFtDSDJdNClbQ0gyXVtDSDJdT1tDQF00NVtDSDJdW0NIMl1PW0NIMl01

> <s_epik_cmdline>
J2VwaWtfcHl0aG9uJywgJy1waCcsICc3LjAnLCAnLXRuJywgJzgnLCAnLW1hJywgJzIwMCcsICctbWV0YWxfYmluZGluZycsICctaW1hZScsICc8aW5maWxlLm1hZT4nLCAnLW9tYWUnLCAnPG91dGZpbGUubWFlPic=

> <r_lp_tautomer_probability>
1

> <r_epik_Ionization_Penalty>
0.00539389

> <r_epik_Ionization_Penalty_Charging>
0

> <r_epik_Ionization_Penalty_Neutral>
0.00539389

> <r_epik_State_Penalty>
0.00375441

> <r_epik_Charging_Adjusted_Penalty>
0.00375441

> <i_epik_Tot_Q>
0

> <i_epik_Tot_abs_Q>
0

> <r_epik_Metal_State_Penalty>
-0

> <b_epik_Metal_Only>
0

> <s_lp_Force_Field>
OPLS_2005

> <r_lp_Energy>
53.6529

> <b_lp_Chiralities_Consistent>
1

> <s_lp_Variant>
AV-unprocessed.smi:264-3

> <Gold.Version>
5.8.1

> <Gold.Id.Protein>
6NUR|6NUR_protein|mol2

> <Gold.PLP.Fitness>
36.4904

> <Gold.PLP.PLP>
-27.7480

> <Gold.PLP.part.hbond>
-2.6111

> <Gold.PLP.part.metal>
0.0000

> <Gold.PLP.part.buried>
-4.4500

> <Gold.PLP.part.nonpolar>
-22.8135

> <Gold.PLP.part.repulsive>
0.5111

> <Gold.PLP.ligand.clash>
0.0000

> <Gold.PLP.ligand.torsion>
0.2794

> <Gold.PLP.Chemscore.Hbond>
1.2964

> <Gold.PLP.Chemscore.CHOScore>
1.7008

> <Gold.PLP.Chemscore.Metal>
0.0000

> <Gold.Chemscore.Hbonds>
donor molecule, donor type, donor heavy atom, donor atom, acceptor molecule, acceptor atom, score
      L1  H     7    36       P1 10186  0.98
      P1  H  6934  6947       L1    21  0.11
      L1  C    10    39       P1  7948  0.99
      L1  C    25    52       P1 11000  0.83

> <Gold.PLP.Chemscore.Internal.Correction>
0.3096

> <Gold.Rescore>
     Score         DG    S(hbond)    S(metal)    S(lipo)     H(rot)  DE(clash)    DE(int)     intcor
      6.90     -10.39       1.16        0.00      54.81       2.11       0.10       3.39       ----

> <Gold.Chemscore.Fitness>
6.9043

> <Gold.Chemscore.DG>
-10.3895

> <Gold.Chemscore.ZeroCoef>
-5.4800

> <Gold.Chemscore.Hbond>
1.1642

> <Gold.Chemscore.Metal>
0.0000

> <Gold.Chemscore.Lipo>
54.8148

> <Gold.Chemscore.Internal_Hbond>
0.0000

> <Gold.Chemscore.DEClash>
0.0964

> <Gold.Chemscore.DEInternal>
3.3887

> <Gold.Chemscore.Rot>
2.1063

> <Gold.Chemscore.Internal.Correction>
   9.000000E+99

> <Gold.Chemscore.Hbonds>
donor molecule, donor type, donor heavy atom, donor atom, acceptor molecule, acceptor atom, score
      L1  H     7    36       P1 10186  0.43
      P1  H  6934  6947       L1    21  0.02

> <Gold.Chemscore.Hbond.Weighted>
-3.8883

> <Gold.Chemscore.Metal.Weighted>
-0.0000

> <Gold.Chemscore.Lipo.Weighted>
-6.4133

> <Gold.Chemscore.Internal_Hbond.Weighted>
0.0000

> <Gold.Chemscore.DEClash.Weighted>
0.0964

> <Gold.Chemscore.DEInternal.Weighted>
3.3887

> <Gold.Chemscore.Rot.Weighted>
5.3921

> <Gold.Chemscore.Internal.Correction.Weighted>
   9.000000E+99

> <Gold.Protein.RotatedTorsions>
[ 6907 6896 6895 6894 ] final  -57.88 input  -60.11 | X-H torsion
[ 7974 7965 7964 7962 ] final -150.83 input  175.53 | X-H torsion
[ 8008 7997 7996 7995 ] final  -11.30 input   59.86 | X-H torsion
[ 10167 10162 10161 10158 ] final -124.06 input  -65.29 | X-H torsion
[ 10718 10713 10712 10709 ] final  102.83 input   66.30 | X-H torsion
[ 10763 10752 10751 10750 ] final  -29.53 input  -60.55 | X-H torsion
[ 11005 11000 10999 10996 ] final -173.05 input  -57.11 | X-H torsion

> <Gold.Protein.ActiveResidues>
 VAL166  LYS551  ARG553  GLY616  TRP617  ASP618  TYR619  PRO620  LYS621  CYS622 
 ASP623  PHE694  ASN695  SER759  ASP760  ASP761  ALA762  ILE779  LEU786  VAL792 
 PHE793  MET794  SER795  GLU796  ALA797  LYS798  CYS799  TRP800  GLU811  SER814 

> <Gold.Protein.RotatedAtoms>
  150.8051  134.7170  159.6636 H   0  0  0  0  0  0  0  0  0  0  0  0  # atno 6907 bound_to 6896
  152.4170  134.6020  160.0012 H   0  0  0  0  0  0  0  0  0  0  0  0  # atno 6908 bound_to 6896
  151.6247  133.3299  159.3131 H   0  0  0  0  0  0  0  0  0  0  0  0  # atno 6909 bound_to 6896
  144.7884  140.4878  143.5790 H   0  0  0  0  0  0  0  0  0  0  0  0  # atno 7974 bound_to 7965
  154.5477  140.2306  155.8536 H   0  0  0  0  0  0  0  0  0  0  0  0  # atno 8008 bound_to 7997
  156.1918  140.3075  155.9309 H   0  0  0  0  0  0  0  0  0  0  0  0  # atno 8009 bound_to 7997
  155.3132  140.0437  157.3026 H   0  0  0  0  0  0  0  0  0  0  0  0  # atno 8010 bound_to 7997
  139.9968  143.5582  152.2320 H   0  0  0  0  0  0  0  0  0  0  0  0  # atno 10167 bound_to 10162
  157.6790  131.0763  150.5464 H   0  0  0  0  0  0  0  0  0  0  0  0  # atno 10718 bound_to 10713
  153.7662  135.6915  153.4915 H   0  0  0  0  0  0  0  0  0  0  0  0  # atno 10763 bound_to 10752
  153.1905  135.4473  155.0142 H   0  0  0  0  0  0  0  0  0  0  0  0  # atno 10764 bound_to 10752
  154.8135  135.3388  154.7174 H   0  0  0  0  0  0  0  0  0  0  0  0  # atno 10765 bound_to 10752
  140.4901  134.5993  157.4951 H   0  0  0  0  0  0  0  0  0  0  0  0  # atno 11005 bound_to 11000
  145.5859  139.1492  143.3209 LP  0  0  0  0  0  0  0  0  0  0  0  0  # atno 17320 bound_to 7965
  146.2126  140.5987  142.9052 LP  0  0  0  0  0  0  0  0  0  0  0  0  # atno 17321 bound_to 7965
  139.6300  144.7643  151.2556 LP  0  0  0  0  0  0  0  0  0  0  0  0  # atno 17342 bound_to 10162
  140.7434  143.6496  150.8261 LP  0  0  0  0  0  0  0  0  0  0  0  0  # atno 17343 bound_to 10162
  156.5769  130.4294  149.5994 LP  0  0  0  0  0  0  0  0  0  0  0  0  # atno 17370 bound_to 10713
  156.2693  130.7008  151.1800 LP  0  0  0  0  0  0  0  0  0  0  0  0  # atno 17371 bound_to 10713
  139.9774  134.7192  155.9923 LP  0  0  0  0  0  0  0  0  0  0  0  0  # atno 17394 bound_to 11000
  141.1488  133.6551  156.3950 LP  0  0  0  0  0  0  0  0  0  0  0  0  # atno 17395 bound_to 11000

$$$$
