AV-unprocessed.smi:1021|AV-procd|sdf|4454|dock9
  -GOLD-   22720 2423D 1   1.00000     0.00000
 Structure written by MMmdl.
 42 44  0  0  0  0  0  0  0  0  1 V2000
  152.3097  136.9013  159.2282 O   0  0  0  0  0  0  0  0  0  0  0  0
  151.0490  137.5299  159.3290 C   0  0  0  0  0  0  0  0  0  0  0  0
  150.5454  137.9521  157.9419 C   0  0  0  0  0  0  0  0  0  0  0  0
  151.5295  138.8550  157.1820 C   0  0  0  0  0  0  0  0  0  0  0  0
  151.7157  140.1906  157.8424 C   0  0  0  0  0  0  0  0  0  0  0  0
  152.1699  140.2650  159.0943 N   0  0  0  0  0  0  0  0  0  0  0  0
  152.1878  141.6225  159.3370 C   0  0  0  0  0  0  0  0  0  0  0  0
  152.5672  142.3426  160.4923 C   0  0  0  0  0  0  0  0  0  0  0  0
  152.4902  143.7504  160.5132 C   0  0  0  0  0  0  0  0  0  0  0  0
  152.0317  144.4557  159.3823 C   0  0  0  0  0  0  0  0  0  0  0  0
  151.6513  143.7567  158.2207 C   0  0  0  0  0  0  0  0  0  0  0  0
  151.7351  142.3508  158.2020 C   0  0  0  0  0  0  0  0  0  0  0  0
  151.4528  141.3834  157.2395 N   0  0  0  0  0  0  0  0  0  0  0  0
  150.9511  141.6630  155.8960 C   0  0  0  0  0  0  0  0  0  0  0  0
  149.8117  140.7154  155.4666 C   0  0  2  0  0  0  0  0  0  0  0  0
  150.1852  140.1029  154.2488 O   0  0  0  0  0  0  0  0  0  0  0  0
  148.4651  141.4171  155.3676 C   0  0  0  0  0  0  0  0  0  0  0  0
  147.9063  141.6890  154.1003 C   0  0  0  0  0  0  0  0  0  0  0  0
  146.6616  142.3404  153.9979 C   0  0  0  0  0  0  0  0  0  0  0  0
  145.9683  142.7235  155.1623 C   0  0  0  0  0  0  0  0  0  0  0  0
  144.7708  143.3476  155.0636 F   0  0  0  0  0  0  0  0  0  0  0  0
  146.5196  142.4533  156.4295 C   0  0  0  0  0  0  0  0  0  0  0  0
  147.7633  141.8000  156.5325 C   0  0  0  0  0  0  0  0  0  0  0  0
  152.5089  136.7725  158.3134 H   0  0  0  0  0  0  0  0  0  0  0  0
  150.3409  136.8558  159.8116 H   0  0  0  0  0  0  0  0  0  0  0  0
  151.1520  138.4050  159.9712 H   0  0  0  0  0  0  0  0  0  0  0  0
  150.3566  137.0573  157.3477 H   0  0  0  0  0  0  0  0  0  0  0  0
  149.5842  138.4507  158.0424 H   0  0  0  0  0  0  0  0  0  0  0  0
  152.4825  138.3525  157.0399 H   0  0  0  0  0  0  0  0  0  0  0  0
  151.1487  139.0277  156.1747 H   0  0  0  0  0  0  0  0  0  0  0  0
  152.9150  141.8099  161.3651 H   0  0  0  0  0  0  0  0  0  0  0  0
  152.7812  144.2909  161.4019 H   0  0  0  0  0  0  0  0  0  0  0  0
  151.9718  145.5339  159.4073 H   0  0  0  0  0  0  0  0  0  0  0  0
  151.2977  144.2970  157.3553 H   0  0  0  0  0  0  0  0  0  0  0  0
  150.6359  142.6987  155.7976 H   0  0  0  0  0  0  0  0  0  0  0  0
  151.7949  141.5470  155.2143 H   0  0  0  0  0  0  0  0  0  0  0  0
  149.7206  139.9047  156.1896 H   0  0  0  0  0  0  0  0  0  0  0  0
  150.4840  139.2257  154.4350 H   0  0  0  0  0  0  0  0  0  0  0  0
  148.4289  141.3953  153.2016 H   0  0  0  0  0  0  0  0  0  0  0  0
  146.2383  142.5444  153.0256 H   0  0  0  0  0  0  0  0  0  0  0  0
  145.9865  142.7416  157.3233 H   0  0  0  0  0  0  0  0  0  0  0  0
  148.1737  141.5905  157.5094 H   0  0  0  0  0  0  0  0  0  0  0  0
  1  2  1  0  0  0  0
  1 24  1  0  0  0  0
  2  3  1  0  0  0  0
  2 25  1  0  0  0  0
  2 26  1  0  0  0  0
  3  4  1  0  0  0  0
  3 27  1  0  0  0  0
  3 28  1  0  0  0  0
  4  5  1  0  0  0  0
  4 29  1  0  0  0  0
  4 30  1  0  0  0  0
  5 13  1  0  0  0  0
  5  6  2  0  0  0  0
  6  7  1  0  0  0  0
  7 12  2  0  0  0  0
  7  8  1  0  0  0  0
  8  9  2  0  0  0  0
  8 31  1  0  0  0  0
  9 10  1  0  0  0  0
  9 32  1  0  0  0  0
 10 11  2  0  0  0  0
 10 33  1  0  0  0  0
 11 12  1  0  0  0  0
 11 34  1  0  0  0  0
 12 13  1  0  0  0  0
 13 14  1  0  0  0  0
 14 15  1  0  0  0  0
 14 35  1  0  0  0  0
 14 36  1  0  0  0  0
 15 16  1  0  0  0  0
 15 17  1  0  0  0  0
 15 37  1  0  0  0  0
 16 38  1  0  0  0  0
 17 23  1  0  0  0  0
 17 18  2  0  0  0  0
 18 19  1  0  0  0  0
 18 39  1  0  0  0  0
 19 20  2  0  0  0  0
 19 40  1  0  0  0  0
 20 21  1  0  0  0  0
 20 22  1  0  0  0  0
 22 23  2  0  0  0  0
 22 41  1  0  0  0  0
 23 42  1  0  0  0  0
M  END
> <s_m_source_file>
AV-unprocessed.smi

> <i_m_source_file_index>
1021

> <i_lp_mmshare_version>
43012

> <i_f3d_flags>
0

> <s_epik_input>
W09IXVtDSDJdW0NIMl1bQ0gyXWMobjEpbihjKGMxMilbY0hdW2NIXVtjSF1bY0hdMilbQ0gyXVtDQEhdKFtPSF0pYzNbY0hdW2NIXWMoRilbY0hdW2NIXTM=

> <s_epik_cmdline>
J2VwaWtfcHl0aG9uJywgJy1waCcsICc3LjAnLCAnLXRuJywgJzgnLCAnLW1hJywgJzIwMCcsICctbWV0YWxfYmluZGluZycsICctaW1hZScsICc8aW5maWxlLm1hZT4nLCAnLW9tYWUnLCAnPG91dGZpbGUubWFlPic=

> <r_epik_Ionization_Penalty>
0.182562

> <r_epik_Ionization_Penalty_Charging>
0

> <r_epik_Ionization_Penalty_Neutral>
0.182562

> <r_epik_State_Penalty>
0.172086

> <r_epik_Charging_Adjusted_Penalty>
0.172086

> <i_epik_Tot_Q>
0

> <i_epik_Tot_abs_Q>
0

> <r_epik_Metal_State_Penalty>
0.000199649

> <b_epik_Metal_Only>
0

> <s_lp_Force_Field>
OPLS_2005

> <r_lp_Energy>
12.4475

> <b_lp_Chiralities_Consistent>
1

> <s_lp_Variant>
AV-unprocessed.smi:1021-1

> <Gold.Version>
5.8.1

> <Gold.Id.Protein>
6NUR|6NUR_protein|mol2

> <Gold.PLP.Fitness>
53.1679

> <Gold.PLP.PLP>
-49.6927

> <Gold.PLP.part.hbond>
-2.6340

> <Gold.PLP.part.metal>
0.0000

> <Gold.PLP.part.buried>
-7.6050

> <Gold.PLP.part.nonpolar>
-39.4551

> <Gold.PLP.part.repulsive>
0.0000

> <Gold.PLP.ligand.clash>
0.0000

> <Gold.PLP.ligand.torsion>
1.3193

> <Gold.PLP.Chemscore.Hbond>
2.0000

> <Gold.PLP.Chemscore.CHOScore>
0.0000

> <Gold.PLP.Chemscore.Metal>
0.0000

> <Gold.Chemscore.Hbonds>
donor molecule, donor type, donor heavy atom, donor atom, acceptor molecule, acceptor atom, score
      P1  H  6896  6907       L1     1  1.00
      P1  H  7989  7998       L1    16  1.00

> <Gold.PLP.Chemscore.Internal.Correction>
0.1137

> <Gold.Rescore>
     Score         DG    S(hbond)    S(metal)    S(lipo)     H(rot)  DE(clash)    DE(int)     intcor
     14.51     -17.19       1.50        0.00     124.65       3.07       0.09       2.59       ----

> <Gold.Chemscore.Fitness>
14.5090

> <Gold.Chemscore.DG>
-17.1923

> <Gold.Chemscore.ZeroCoef>
-5.4800

> <Gold.Chemscore.Hbond>
1.4964

> <Gold.Chemscore.Metal>
0.0000

> <Gold.Chemscore.Lipo>
124.6511

> <Gold.Chemscore.Internal_Hbond>
0.0000

> <Gold.Chemscore.DEClash>
0.0946

> <Gold.Chemscore.DEInternal>
2.5887

> <Gold.Chemscore.Rot>
3.0741

> <Gold.Chemscore.Internal.Correction>
   9.000000E+99

> <Gold.Chemscore.Hbonds>
donor molecule, donor type, donor heavy atom, donor atom, acceptor molecule, acceptor atom, score
      P1  H  6896  6907       L1     1  0.18
      P1  H  7989  7998       L1    16  0.33

> <Gold.Chemscore.Hbond.Weighted>
-4.9979

> <Gold.Chemscore.Metal.Weighted>
-0.0000

> <Gold.Chemscore.Lipo.Weighted>
-14.5842

> <Gold.Chemscore.Internal_Hbond.Weighted>
0.0000

> <Gold.Chemscore.DEClash.Weighted>
0.0946

> <Gold.Chemscore.DEInternal.Weighted>
2.5887

> <Gold.Chemscore.Rot.Weighted>
7.8698

> <Gold.Chemscore.Internal.Correction.Weighted>
   9.000000E+99

> <Gold.Protein.RotatedTorsions>
[ 6907 6896 6895 6894 ] final   19.94 input  -60.11 | X-H torsion
[ 7974 7965 7964 7962 ] final   74.64 input  175.53 | X-H torsion
[ 8008 7997 7996 7995 ] final    3.50 input   59.86 | X-H torsion
[ 10167 10162 10161 10158 ] final   43.07 input  -65.29 | X-H torsion
[ 10718 10713 10712 10709 ] final  179.82 input   66.30 | X-H torsion
[ 10763 10752 10751 10750 ] final  -88.19 input  -60.55 | X-H torsion
[ 11005 11000 10999 10996 ] final  133.06 input  -57.11 | X-H torsion

> <Gold.Protein.ActiveResidues>
 VAL166  LYS551  ARG553  GLY616  TRP617  ASP618  TYR619  PRO620  LYS621  CYS622 
 ASP623  PHE694  ASN695  SER759  ASP760  ASP761  ALA762  ILE779  LEU786  VAL792 
 PHE793  MET794  SER795  GLU796  ALA797  LYS798  CYS799  TRP800  GLU811  SER814 

> <Gold.Protein.RotatedAtoms>
  151.8886  135.0425  160.0495 H   0  0  0  0  0  0  0  0  0  0  0  0  # atno 6907 bound_to 6896
  152.2454  133.5166  159.5303 H   0  0  0  0  0  0  0  0  0  0  0  0  # atno 6908 bound_to 6896
  150.7066  134.0948  159.3987 H   0  0  0  0  0  0  0  0  0  0  0  0  # atno 6909 bound_to 6896
  145.7256  139.2664  143.1570 H   0  0  0  0  0  0  0  0  0  0  0  0  # atno 7974 bound_to 7965
  154.7045  140.2680  155.6688 H   0  0  0  0  0  0  0  0  0  0  0  0  # atno 8008 bound_to 7997
  156.2775  140.2765  156.1590 H   0  0  0  0  0  0  0  0  0  0  0  0  # atno 8009 bound_to 7997
  155.0719  140.0372  157.2601 H   0  0  0  0  0  0  0  0  0  0  0  0  # atno 8010 bound_to 7997
  140.3480  144.2386  150.6148 H   0  0  0  0  0  0  0  0  0  0  0  0  # atno 10167 bound_to 10162
  156.8700  130.9780  151.3074 H   0  0  0  0  0  0  0  0  0  0  0  0  # atno 10718 bound_to 10713
  154.6418  135.5386  153.7799 H   0  0  0  0  0  0  0  0  0  0  0  0  # atno 10763 bound_to 10752
  153.0338  135.6461  154.1148 H   0  0  0  0  0  0  0  0  0  0  0  0  # atno 10764 bound_to 10752
  154.1071  135.2929  155.3219 H   0  0  0  0  0  0  0  0  0  0  0  0  # atno 10765 bound_to 10752
  139.9828  134.9542  156.9670 H   0  0  0  0  0  0  0  0  0  0  0  0  # atno 11005 bound_to 11000
  146.0585  140.7996  142.9746 LP  0  0  0  0  0  0  0  0  0  0  0  0  # atno 17320 bound_to 7965
  144.6905  140.3160  143.7240 LP  0  0  0  0  0  0  0  0  0  0  0  0  # atno 17321 bound_to 7965
  140.5246  143.2257  151.8335 LP  0  0  0  0  0  0  0  0  0  0  0  0  # atno 17342 bound_to 10162
  139.4830  144.4795  151.9324 LP  0  0  0  0  0  0  0  0  0  0  0  0  # atno 17343 bound_to 10162
  157.6201  130.8648  149.9094 LP  0  0  0  0  0  0  0  0  0  0  0  0  # atno 17370 bound_to 10713
  156.0731  130.3682  150.0734 LP  0  0  0  0  0  0  0  0  0  0  0  0  # atno 17371 bound_to 10713
  140.5062  134.1047  155.7260 LP  0  0  0  0  0  0  0  0  0  0  0  0  # atno 17394 bound_to 11000
  141.1498  133.8990  157.2127 LP  0  0  0  0  0  0  0  0  0  0  0  0  # atno 17395 bound_to 11000

$$$$
