AV-unprocessed.smi:209|AV-procd|sdf|1609|dock5
  -GOLD-   2262019533D 1   1.00000     0.00000
 Structure written by MMmdl.
 48 52  0  0  0  0  0  0  0  0  1 V2000
  151.1214  145.6811  159.2549 O   0  0  0  0  0  0  0  0  0  0  0  0
  151.3451  144.5664  158.7881 C   0  0  0  0  0  0  0  0  0  0  0  0
  150.8067  144.0381  157.6824 N   0  0  0  0  0  0  0  0  0  0  0  0
  151.2216  142.6559  157.4637 C   0  0  0  0  0  0  0  0  0  0  0  0
  151.7370  142.2603  158.8560 C   0  0  2  0  0  0  0  0  0  0  0  0
  152.3206  143.5644  159.3779 C   0  0  2  0  0  0  0  0  0  0  0  0
  152.5267  143.4572  160.8900 C   0  0  0  0  0  0  0  0  0  0  0  0
  153.5111  142.2847  161.1175 C   0  0  0  0  0  0  0  0  0  0  0  0
  153.0785  140.9809  160.3915 C   0  0  0  0  0  0  0  0  0  0  0  0
  152.7371  141.2059  158.9789 N   0  0  0  0  0  0  0  0  0  0  0  0
  152.4222  140.0707  158.3179 C   0  0  0  0  0  0  0  0  0  0  0  0
  153.4032  139.2398  157.8764 N   0  0  0  0  0  0  0  0  0  0  0  0
  153.0809  138.1133  157.2337 C   0  0  0  0  0  0  0  0  0  0  0  0
  151.8686  137.6367  156.9409 N   0  0  0  0  0  0  0  0  0  0  0  0
  150.8841  138.4667  157.3922 C   0  0  0  0  0  0  0  0  0  0  0  0
  151.0749  139.6977  158.0786 C   0  0  0  0  0  0  0  0  0  0  0  0
  149.8487  140.2786  158.3713 N   0  0  0  0  0  0  0  0  0  0  0  0
  148.9788  139.4399  157.8780 C   0  0  0  0  0  0  0  0  0  0  0  0
  149.5116  138.3124  157.2913 N   0  0  0  0  0  0  0  0  0  0  0  0
  148.7768  137.2211  156.6674 C   0  0  0  0  0  0  0  0  0  0  0  0
  149.6199  136.3386  155.7227 C   0  0  0  0  0  0  0  0  0  0  0  0
  150.3241  137.2501  154.6977 C   0  0  0  0  0  0  0  0  0  0  0  0
  151.4240  136.6205  154.0711 O   0  0  0  0  0  0  0  0  0  0  0  0
  150.4936  135.3055  156.4506 C   0  0  0  0  0  0  0  0  0  0  0  0
  149.7007  134.1963  155.9740 O   0  0  0  0  0  0  0  0  0  0  0  0
  148.9202  135.0944  155.1549 C   0  0  0  0  0  0  0  0  0  0  0  0
  150.8753  141.9855  159.4691 H   0  0  0  0  0  0  0  0  0  0  0  0
  153.2830  143.7619  158.9006 H   0  0  0  0  0  0  0  0  0  0  0  0
  150.1273  144.5058  157.0996 H   0  0  0  0  0  0  0  0  0  0  0  0
  150.3949  142.0272  157.1314 H   0  0  0  0  0  0  0  0  0  0  0  0
  152.0133  142.6275  156.7135 H   0  0  0  0  0  0  0  0  0  0  0  0
  152.9343  144.3839  161.2948 H   0  0  0  0  0  0  0  0  0  0  0  0
  151.5802  143.2691  161.3985 H   0  0  0  0  0  0  0  0  0  0  0  0
  154.4969  142.5762  160.7528 H   0  0  0  0  0  0  0  0  0  0  0  0
  153.6267  142.0951  162.1847 H   0  0  0  0  0  0  0  0  0  0  0  0
  153.8769  140.2407  160.4590 H   0  0  0  0  0  0  0  0  0  0  0  0
  152.2155  140.5581  160.9085 H   0  0  0  0  0  0  0  0  0  0  0  0
  153.9129  137.5061  156.9090 H   0  0  0  0  0  0  0  0  0  0  0  0
  147.9151  139.6190  157.9370 H   0  0  0  0  0  0  0  0  0  0  0  0
  148.3322  136.6178  157.4598 H   0  0  0  0  0  0  0  0  0  0  0  0
  147.9347  137.6563  156.1277 H   0  0  0  0  0  0  0  0  0  0  0  0
  149.6393  137.5492  153.9053 H   0  0  0  0  0  0  0  0  0  0  0  0
  150.6841  138.1642  155.1709 H   0  0  0  0  0  0  0  0  0  0  0  0
  151.1627  136.3491  153.2043 H   0  0  0  0  0  0  0  0  0  0  0  0
  151.5248  135.2482  156.1014 H   0  0  0  0  0  0  0  0  0  0  0  0
  150.4670  135.3906  157.5377 H   0  0  0  0  0  0  0  0  0  0  0  0
  147.8571  135.0299  155.3799 H   0  0  0  0  0  0  0  0  0  0  0  0
  149.0942  134.9276  154.0912 H   0  0  0  0  0  0  0  0  0  0  0  0
  1  2  2  0  0  0  0
  2  6  1  0  0  0  0
  2  3  1  0  0  0  0
  3  4  1  0  0  0  0
  3 29  1  0  0  0  0
  4  5  1  0  0  0  0
  4 30  1  0  0  0  0
  4 31  1  0  0  0  0
  5 27  1  0  0  0  0
  5 10  1  0  0  0  0
  5  6  1  0  0  0  0
  6 28  1  0  0  0  0
  6  7  1  0  0  0  0
  7  8  1  0  0  0  0
  7 32  1  0  0  0  0
  7 33  1  0  0  0  0
  8  9  1  0  0  0  0
  8 34  1  0  0  0  0
  8 35  1  0  0  0  0
  9 10  1  0  0  0  0
  9 36  1  0  0  0  0
  9 37  1  0  0  0  0
 10 11  1  0  0  0  0
 11 16  1  0  0  0  0
 11 12  2  0  0  0  0
 12 13  1  0  0  0  0
 13 14  2  0  0  0  0
 13 38  1  0  0  0  0
 14 15  1  0  0  0  0
 15 19  1  0  0  0  0
 15 16  2  0  0  0  0
 16 17  1  0  0  0  0
 17 18  2  0  0  0  0
 18 19  1  0  0  0  0
 18 39  1  0  0  0  0
 19 20  1  0  0  0  0
 20 21  1  0  0  0  0
 20 40  1  0  0  0  0
 20 41  1  0  0  0  0
 21 26  1  0  0  0  0
 21 22  1  0  0  0  0
 21 24  1  0  0  0  0
 22 23  1  0  0  0  0
 22 42  1  0  0  0  0
 22 43  1  0  0  0  0
 23 44  1  0  0  0  0
 24 25  1  0  0  0  0
 24 45  1  0  0  0  0
 24 46  1  0  0  0  0
 25 26  1  0  0  0  0
 26 47  1  0  0  0  0
 26 48  1  0  0  0  0
M  END
> <s_m_source_file>
AV-unprocessed.smi

> <i_m_source_file_index>
209

> <i_lp_mmshare_version>
43012

> <i_f3d_flags>
0

> <s_epik_input>
W0NIMl0xW05IXUMoPU8pW0NAQEhdKFtDQEBIXTEyKVtDSDJdW0NIMl1bQ0gyXU4yYyhuW2NIXW4zKWMoYzM0KW5bY0hdbjRbQ0gyXUM1KFtDSDJdW09IXSlbQ0gyXU9bQ0gyXTU=

> <s_epik_cmdline>
J2VwaWtfcHl0aG9uJywgJy1waCcsICc3LjAnLCAnLXRuJywgJzgnLCAnLW1hJywgJzIwMCcsICctbWV0YWxfYmluZGluZycsICctaW1hZScsICc8aW5maWxlLm1hZT4nLCAnLW9tYWUnLCAnPG91dGZpbGUubWFlPic=

> <r_lp_tautomer_probability>
1

> <r_epik_Ionization_Penalty>
0.00113306

> <r_epik_Ionization_Penalty_Charging>
0

> <r_epik_Ionization_Penalty_Neutral>
0.00113306

> <r_epik_State_Penalty>
0.000624042

> <r_epik_Charging_Adjusted_Penalty>
0.000624042

> <i_epik_Tot_Q>
0

> <i_epik_Tot_abs_Q>
0

> <r_epik_Metal_State_Penalty>
-0

> <b_epik_Metal_Only>
0

> <s_lp_Force_Field>
OPLS_2005

> <r_lp_Energy>
56.7924

> <b_lp_Chiralities_Consistent>
1

> <s_lp_Variant>
AV-unprocessed.smi:209-3

> <Gold.Version>
5.8.1

> <Gold.Id.Protein>
6NUR|6NUR_protein|mol2

> <Gold.PLP.Fitness>
50.4408

> <Gold.PLP.PLP>
-40.5908

> <Gold.PLP.part.hbond>
-5.2799

> <Gold.PLP.part.metal>
0.0000

> <Gold.PLP.part.buried>
-6.9920

> <Gold.PLP.part.nonpolar>
-29.5665

> <Gold.PLP.part.repulsive>
0.2219

> <Gold.PLP.ligand.clash>
0.0000

> <Gold.PLP.ligand.torsion>
1.2565

> <Gold.PLP.Chemscore.Hbond>
4.0000

> <Gold.PLP.Chemscore.CHOScore>
0.0000

> <Gold.PLP.Chemscore.Metal>
0.0000

> <Gold.Chemscore.Hbonds>
donor molecule, donor type, donor heavy atom, donor atom, acceptor molecule, acceptor atom, score
      L1  H     3    29       P1  8028  1.00
      L1  H    23    44       P1  7949  1.00
      P1  H  7997  8010       L1    12  1.00
      P1  H 10752 10763       L1    23  1.00

> <Gold.PLP.Chemscore.Internal.Correction>
0.3630

> <Gold.Rescore>
     Score         DG    S(hbond)    S(metal)    S(lipo)     H(rot)  DE(clash)    DE(int)     intcor
     10.89     -19.24       3.09        0.00      87.54       2.66       0.77       7.57       ----

> <Gold.Chemscore.Fitness>
10.8890

> <Gold.Chemscore.DG>
-19.2350

> <Gold.Chemscore.ZeroCoef>
-5.4800

> <Gold.Chemscore.Hbond>
3.0920

> <Gold.Chemscore.Metal>
0.0000

> <Gold.Chemscore.Lipo>
87.5429

> <Gold.Chemscore.Internal_Hbond>
0.0000

> <Gold.Chemscore.DEClash>
0.7726

> <Gold.Chemscore.DEInternal>
7.5735

> <Gold.Chemscore.Rot>
2.6620

> <Gold.Chemscore.Internal.Correction>
   9.000000E+99

> <Gold.Chemscore.Hbonds>
donor molecule, donor type, donor heavy atom, donor atom, acceptor molecule, acceptor atom, score
      L1  H     3    29       P1  8028  0.60
      L1  H    23    44       P1  7949  0.45
      P1  H  7997  8010       L1    12  0.66
      P1  H 10752 10763       L1    23  0.54

> <Gold.Chemscore.Hbond.Weighted>
-10.3273

> <Gold.Chemscore.Metal.Weighted>
-0.0000

> <Gold.Chemscore.Lipo.Weighted>
-10.2425

> <Gold.Chemscore.Internal_Hbond.Weighted>
0.0000

> <Gold.Chemscore.DEClash.Weighted>
0.7726

> <Gold.Chemscore.DEInternal.Weighted>
7.5735

> <Gold.Chemscore.Rot.Weighted>
6.8148

> <Gold.Chemscore.Internal.Correction.Weighted>
   9.000000E+99

> <Gold.Protein.RotatedTorsions>
[ 6907 6896 6895 6894 ] final  -95.95 input  -60.11 | X-H torsion
[ 7974 7965 7964 7962 ] final  -21.72 input  175.53 | X-H torsion
[ 8008 7997 7996 7995 ] final   31.29 input   59.86 | X-H torsion
[ 10167 10162 10161 10158 ] final  -82.22 input  -65.29 | X-H torsion
[ 10718 10713 10712 10709 ] final -139.18 input   66.30 | X-H torsion
[ 10763 10752 10751 10750 ] final   56.32 input  -60.55 | X-H torsion
[ 11005 11000 10999 10996 ] final -134.86 input  -57.11 | X-H torsion

> <Gold.Protein.ActiveResidues>
 VAL166  LYS551  ARG553  GLY616  TRP617  ASP618  TYR619  PRO620  LYS621  CYS622 
 ASP623  PHE694  ASN695  SER759  ASP760  ASP761  ALA762  ILE779  LEU786  VAL792 
 PHE793  MET794  SER795  GLU796  ALA797  LYS798  CYS799  TRP800  GLU811  SER814 

> <Gold.Protein.RotatedAtoms>
  150.6976  134.1578  159.4164 H   0  0  0  0  0  0  0  0  0  0  0  0  # atno 6907 bound_to 6896
  151.9560  135.0144  160.0554 H   0  0  0  0  0  0  0  0  0  0  0  0  # atno 6908 bound_to 6896
  152.1969  133.4778  159.5074 H   0  0  0  0  0  0  0  0  0  0  0  0  # atno 6909 bound_to 6896
  146.1717  140.4380  142.8530 H   0  0  0  0  0  0  0  0  0  0  0  0  # atno 7974 bound_to 7965
  155.1040  140.3232  155.4539 H   0  0  0  0  0  0  0  0  0  0  0  0  # atno 8008 bound_to 7997
  156.2709  140.2056  156.6113 H   0  0  0  0  0  0  0  0  0  0  0  0  # atno 8009 bound_to 7997
  154.6807  140.0526  157.0250 H   0  0  0  0  0  0  0  0  0  0  0  0  # atno 8010 bound_to 7997
  140.4340  143.2538  151.8719 H   0  0  0  0  0  0  0  0  0  0  0  0  # atno 10167 bound_to 10162
  156.3078  130.7464  151.1533 H   0  0  0  0  0  0  0  0  0  0  0  0  # atno 10718 bound_to 10713
  152.9830  135.5680  154.5210 H   0  0  0  0  0  0  0  0  0  0  0  0  # atno 10763 bound_to 10752
  154.4698  135.2784  155.1653 H   0  0  0  0  0  0  0  0  0  0  0  0  # atno 10764 bound_to 10752
  154.3206  135.6269  153.5559 H   0  0  0  0  0  0  0  0  0  0  0  0  # atno 10765 bound_to 10752
  140.8951  134.1762  157.4500 H   0  0  0  0  0  0  0  0  0  0  0  0  # atno 11005 bound_to 11000
  144.8173  140.6489  143.6376 LP  0  0  0  0  0  0  0  0  0  0  0  0  # atno 17320 bound_to 7965
  145.4323  139.1547  143.4015 LP  0  0  0  0  0  0  0  0  0  0  0  0  # atno 17321 bound_to 7965
  139.4786  144.5303  151.8676 LP  0  0  0  0  0  0  0  0  0  0  0  0  # atno 17342 bound_to 10162
  140.4395  144.2006  150.5890 LP  0  0  0  0  0  0  0  0  0  0  0  0  # atno 17343 bound_to 10162
  157.7384  131.0541  150.5299 LP  0  0  0  0  0  0  0  0  0  0  0  0  # atno 17370 bound_to 10713
  156.5435  130.4214  149.6142 LP  0  0  0  0  0  0  0  0  0  0  0  0  # atno 17371 bound_to 10713
  139.8734  134.9875  156.5370 LP  0  0  0  0  0  0  0  0  0  0  0  0  # atno 17394 bound_to 11000
  140.8299  133.8287  155.8974 LP  0  0  0  0  0  0  0  0  0  0  0  0  # atno 17395 bound_to 11000

$$$$
