#       Name:                AV-unprocessed.smi:1251
#       Creating user name   scv26
#       Creation time:       Fri Mar 27 04:37:10 2020


#       File generated by GOLD software.
#

@<TRIPOS>MOLECULE
AV-unprocessed.smi:1251
    45    46     1
SMALL
NO_CHARGES


@<TRIPOS>ATOM
      1 ****        -6.9494   1.7774   2.3093 C.3            1 S1                 0.0000
      2 ****        -5.6253   1.3656   1.6567 C.3            1 S1                 0.0000
      3 ****        -4.9588   2.5208   0.8966 C.3            1 S1                 0.0000
      4 ****        -3.6661   2.1225   0.2662 C.2            1 S1                 0.0000
      5 ****        -3.5908   1.5879  -0.9552 N.2            1 S1                 0.0000
      6 ****        -2.2863   1.2777  -1.3105 N.2            1 S1                 0.0000
      7 ****        -1.3977   1.5585  -0.3470 C.2            1 S1                 0.0000
      8 ****        -0.0816   1.3346  -0.4967 N.pl3          1 S1                -1.0000
      9 ****         0.4840   0.2327   0.0467 C.2            1 S1                 0.0000
     10 ****        -0.0907  -0.6288   0.7159 O.2            1 S1                 0.0000
     11 ****         1.7975   0.1262  -0.2007 N.am           1 S1                 0.0000
     12 ****         2.6800  -0.9511   0.2441 C.3            1 S1                 0.0000
     13 ****         3.2491  -0.6145   1.6320 C.3            1 S1                 0.0000
     14 ****         3.7940  -1.1737  -0.7969 C.3            1 S1                 0.0000
     15 ****         3.2934  -1.4944  -2.2070 C.3            1 S1                 0.0000
     16 ****         4.4842  -2.2129  -2.7980 C.3            1 S1                 0.0000
     17 ****         4.9815  -3.0250  -1.6059 C.3            1 S1                 0.0000
     18 ****         4.6006  -2.2953  -0.4419 O.3            1 S1                 0.0000
     19 ****        -2.1258   2.2614   1.0975 S.3            1 S1                 0.0000
     20 ****        -7.3973   0.9381   2.8417 H              1 S1                 0.0000
     21 ****        -7.6664   2.1188   1.5622 H              1 S1                 0.0000
     22 ****        -6.8004   2.5853   3.0262 H              1 S1                 0.0000
     23 ****        -4.9463   0.9931   2.4246 H              1 S1                 0.0000
     24 ****        -5.8049   0.5343   0.9739 H              1 S1                 0.0000
     25 ****        -5.6271   2.8938   0.1192 H              1 S1                 0.0000
     26 ****        -4.7713   3.3555   1.5728 H              1 S1                 0.0000
     27 ****         2.2203   0.8575  -0.7530 H              1 S1                 0.0000
     28 ****         2.1071  -1.8769   0.3209 H              1 S1                 0.0000
     29 ****         3.8892  -1.4164   2.0005 H              1 S1                 0.0000
     30 ****         2.4510  -0.4725   2.3612 H              1 S1                 0.0000
     31 ****         3.8426   0.3000   1.6056 H              1 S1                 0.0000
     32 ****         4.4455  -0.2992  -0.8438 H              1 S1                 0.0000
     33 ****         2.4344  -2.1661  -2.1670 H              1 S1                 0.0000
     34 ****         3.0073  -0.6062  -2.7712 H              1 S1                 0.0000
     35 ****         4.2302  -2.8307  -3.6595 H              1 S1                 0.0000
     36 ****         5.2417  -1.4905  -3.1048 H              1 S1                 0.0000
     37 ****         4.4920  -3.9992  -1.5774 H              1 S1                 0.0000
     38 ****         6.0589  -3.1884  -1.6376 H              1 S1                 0.0000
     39 ****        -4.3826   1.4296  -1.5450 LP             1 S1                 0.0000
     40 ****        -2.0345   0.8848  -2.1949 LP             1 S1                 0.0000
     41 ****         0.4804   1.9831  -1.0102 LP             1 S1                 0.0000
     42 ****        -1.0700  -0.5473   0.9010 LP             1 S1                 0.0000
     43 ****         0.4226  -1.4090   1.0736 LP             1 S1                 0.0000
     44 ****         4.0810  -2.8948   0.1669 LP             1 S1                 0.0000
     45 ****         5.4225  -1.9739   0.0286 LP             1 S1                 0.0000
@<TRIPOS>BOND
    1    1    2 1     
    2    1   20 1     
    3    1   21 1     
    4    1   22 1     
    5    2    3 1     
    6    2   23 1     
    7    2   24 1     
    8    3    4 1     
    9    3   25 1     
   10    3   26 1     
   11    4   19 1     
   12    4    5 2     
   13    5    6 1     
   14    6    7 2     
   15    7    8 1     
   16    7   19 1     
   17    8    9 1     
   18    9   10 2     
   19    9   11 am    
   20   11   12 1     
   21   11   27 1     
   22   12   13 1     
   23   12   14 1     
   24   12   28 1     
   25   13   29 1     
   26   13   30 1     
   27   13   31 1     
   28   14   18 1     
   29   14   15 1     
   30   14   32 1     
   31   15   16 1     
   32   15   33 1     
   33   15   34 1     
   34   16   17 1     
   35   16   35 1     
   36   16   36 1     
   37   17   18 1     
   38   17   37 1     
   39   17   38 1     
   40    5   39 1     
   41    6   40 1     
   42    8   41 1     
   43   10   42 1     
   44   10   43 1     
   45   18   44 1     
   46   18   45 1     
@<TRIPOS>SUBSTRUCTURE
      1 S1             1
@<TRIPOS>SET
LONE_PAIRS      STATIC     ATOMS    <user>   **** ""
7 39 40 41 42 43 44 45
DONOR_HYDROGENS      STATIC     ATOMS    <user>   **** ""
1 27
ATOM$BLUE        STATIC     ATOMS    COLORGROUP SYSTEM
7 39 40 41 42 43 44 45
ATOM$RED        STATIC     ATOMS    COLORGROUP SYSTEM
1 27
