AV-unprocessed.smi:3250|AV-procd|sdf|12426|dock4
  -GOLD-   2272018313D 1   1.00000     0.00000
 Structure written by MMmdl.
 39 40  0  0  0  0  0  0  0  0  2 V2000
  146.9422  142.3328  154.1283 C   0  0  0  0  0  0  0  0  0  0  0  0
  147.1224  140.8096  154.1935 C   0  0  0  0  0  0  0  0  0  0  0  0
  148.5056  140.3856  153.8485 N   0  3  2  0  0  0  0  0  0  0  0  0
  148.7743  138.9547  154.1320 C   0  0  0  0  0  0  0  0  0  0  0  0
  149.0258  138.7232  155.6325 C   0  0  0  0  0  0  0  0  0  0  0  0
  150.1010  139.5482  156.0626 O   0  0  0  0  0  0  0  0  0  0  0  0
  149.8182  140.9367  155.9162 C   0  0  1  0  0  0  0  0  0  0  0  0
  151.0128  141.7273  156.4665 C   0  0  0  0  0  0  0  0  0  0  0  0
  150.5977  142.9958  157.0463 N   0  0  0  0  0  0  0  0  0  0  0  0
  151.1082  143.5129  158.2216 C   0  0  0  0  0  0  0  0  0  0  0  0
  150.7092  144.7494  158.5264 N   0  0  0  0  0  0  0  0  0  0  0  0
  151.1894  145.2837  159.6704 C   0  0  0  0  0  0  0  0  0  0  0  0
  152.0725  144.5738  160.5081 C   0  0  0  0  0  0  0  0  0  0  0  0
  152.4288  143.2757  160.0904 C   0  0  0  0  0  0  0  0  0  0  0  0
  153.2895  142.5263  160.8653 O   0  0  0  0  0  0  0  0  0  0  0  0
  153.6732  141.2411  160.3899 C   0  0  0  0  0  0  0  0  0  0  0  0
  151.9400  142.7494  158.9393 N   0  0  0  0  0  0  0  0  0  0  0  0
  149.5815  141.2371  154.4193 C   0  0  0  0  0  0  0  0  0  0  0  0
  145.8976  142.6009  154.2882 H   0  0  0  0  0  0  0  0  0  0  0  0
  147.2369  142.7238  153.1540 H   0  0  0  0  0  0  0  0  0  0  0  0
  147.5265  142.8485  154.8900 H   0  0  0  0  0  0  0  0  0  0  0  0
  146.8300  140.4333  155.1737 H   0  0  0  0  0  0  0  0  0  0  0  0
  146.4281  140.3665  153.4784 H   0  0  0  0  0  0  0  0  0  0  0  0
  147.9570  138.3282  153.7730 H   0  0  0  0  0  0  0  0  0  0  0  0
  149.6590  138.6543  153.5693 H   0  0  0  0  0  0  0  0  0  0  0  0
  148.1312  138.9267  156.2227 H   0  0  0  0  0  0  0  0  0  0  0  0
  149.2911  137.6807  155.8098 H   0  0  0  0  0  0  0  0  0  0  0  0
  148.9296  141.1952  156.4939 H   0  0  0  0  0  0  0  0  0  0  0  0
  151.5457  141.1389  157.2145 H   0  0  0  0  0  0  0  0  0  0  0  0
  151.7172  141.9357  155.6604 H   0  0  0  0  0  0  0  0  0  0  0  0
  149.8464  143.5059  156.6048 H   0  0  0  0  0  0  0  0  0  0  0  0
  150.8673  146.2841  159.9193 H   0  0  0  0  0  0  0  0  0  0  0  0
  152.4555  145.0024  161.4223 H   0  0  0  0  0  0  0  0  0  0  0  0
  154.3480  140.7771  161.1090 H   0  0  0  0  0  0  0  0  0  0  0  0
  154.2006  141.3093  159.4375 H   0  0  0  0  0  0  0  0  0  0  0  0
  152.8099  140.5841  160.2747 H   0  0  0  0  0  0  0  0  0  0  0  0
  150.4979  141.0354  153.8629 H   0  0  0  0  0  0  0  0  0  0  0  0
  149.3656  142.2940  154.2678 H   0  0  0  0  0  0  0  0  0  0  0  0
  148.5650  140.4819  152.8446 H   0  0  0  0  0  0  0  0  0  0  0  0
  1  2  1  0  0  0  0
  1 19  1  0  0  0  0
  1 20  1  0  0  0  0
  1 21  1  0  0  0  0
  2  3  1  0  0  0  0
  2 22  1  0  0  0  0
  2 23  1  0  0  0  0
  3 18  1  0  0  0  0
  3  4  1  0  0  0  0
  3 39  1  0  0  0  0
  4  5  1  0  0  0  0
  4 24  1  0  0  0  0
  4 25  1  0  0  0  0
  5  6  1  0  0  0  0
  5 26  1  0  0  0  0
  5 27  1  0  0  0  0
  6  7  1  0  0  0  0
  7  8  1  0  0  0  0
  7 18  1  0  0  0  0
  7 28  1  0  0  0  0
  8  9  1  0  0  0  0
  8 29  1  0  0  0  0
  8 30  1  0  0  0  0
  9 10  1  0  0  0  0
  9 31  1  0  0  0  0
 10 17  1  0  0  0  0
 10 11  2  0  0  0  0
 11 12  1  0  0  0  0
 12 13  2  0  0  0  0
 12 32  1  0  0  0  0
 13 14  1  0  0  0  0
 13 33  1  0  0  0  0
 14 15  1  0  0  0  0
 14 17  2  0  0  0  0
 15 16  1  0  0  0  0
 16 34  1  0  0  0  0
 16 35  1  0  0  0  0
 16 36  1  0  0  0  0
 18 37  1  0  0  0  0
 18 38  1  0  0  0  0
M  CHG  1   3   1
M  END
> <s_m_source_file>
AV-unprocessed.smi

> <i_m_source_file_index>
3250

> <i_lp_mmshare_version>
43012

> <i_f3d_flags>
0

> <s_epik_input>
W0NIM11bQ0gyXU4xW0NIMl1bQ0gyXU9bQ0BIXShbQ0gyXTEpW0NIMl1bTkhdYzJuW2NIXVtjSF1jKG4yKU9bQ0gzXQ==

> <s_epik_cmdline>
J2VwaWtfcHl0aG9uJywgJy1waCcsICc3LjAnLCAnLXRuJywgJzgnLCAnLW1hJywgJzIwMCcsICctbWV0YWxfYmluZGluZycsICctaW1hZScsICc8aW5maWxlLm1hZT4nLCAnLW9tYWUnLCAnPG91dGZpbGUubWFlPic=

> <r_lp_tautomer_probability>
1

> <r_epik_Ionization_Penalty>
0.19684

> <r_epik_Ionization_Penalty_Charging>
0.178504

> <r_epik_Ionization_Penalty_Neutral>
0.0183356

> <r_epik_State_Penalty>
0.162939

> <r_epik_Charging_Adjusted_Penalty>
0.341443

> <i_epik_Tot_Q>
1

> <i_epik_Tot_abs_Q>
1

> <r_epik_Metal_State_Penalty>
0.1608

> <b_epik_Metal_Only>
0

> <s_lp_Force_Field>
OPLS_2005

> <r_lp_Energy>
11.5983

> <b_lp_Chiralities_Consistent>
1

> <s_lp_Variant>
AV-unprocessed.smi:3250-2

> <Gold.Version>
5.8.1

> <Gold.Id.Protein>
6NUR|6NUR_protein|mol2

> <Gold.PLP.Fitness>
40.7383

> <Gold.PLP.PLP>
-36.1182

> <Gold.PLP.part.hbond>
-2.0000

> <Gold.PLP.part.metal>
0.0000

> <Gold.PLP.part.buried>
-5.1715

> <Gold.PLP.part.nonpolar>
-29.1377

> <Gold.PLP.part.repulsive>
0.3356

> <Gold.PLP.ligand.clash>
0.0000

> <Gold.PLP.ligand.torsion>
0.6675

> <Gold.PLP.Chemscore.Hbond>
1.9760

> <Gold.PLP.Chemscore.CHOScore>
0.0000

> <Gold.PLP.Chemscore.Metal>
0.0000

> <Gold.Chemscore.Hbonds>
donor molecule, donor type, donor heavy atom, donor atom, acceptor molecule, acceptor atom, score
      L1  H     3    39       P1  7957  0.94
      L1  H     9    31       P1  8028  1.00

> <Gold.PLP.Chemscore.Internal.Correction>
0.0272

> <Gold.Rescore>
     Score         DG    S(hbond)    S(metal)    S(lipo)     H(rot)  DE(clash)    DE(int)     intcor
     15.23     -16.27       1.94        0.00      74.30       1.71       0.45       0.59       ----

> <Gold.Chemscore.Fitness>
15.2285

> <Gold.Chemscore.DG>
-16.2677

> <Gold.Chemscore.ZeroCoef>
-5.4800

> <Gold.Chemscore.Hbond>
1.9398

> <Gold.Chemscore.Metal>
0.0000

> <Gold.Chemscore.Lipo>
74.3013

> <Gold.Chemscore.Internal_Hbond>
0.0000

> <Gold.Chemscore.DEClash>
0.4473

> <Gold.Chemscore.DEInternal>
0.5919

> <Gold.Chemscore.Rot>
1.7127

> <Gold.Chemscore.Internal.Correction>
   9.000000E+99

> <Gold.Chemscore.Hbonds>
donor molecule, donor type, donor heavy atom, donor atom, acceptor molecule, acceptor atom, score
      L1  H     3    39       P1  7957  0.85
      L1  H     9    31       P1  8028  1.00

> <Gold.Chemscore.Hbond.Weighted>
-6.4790

> <Gold.Chemscore.Metal.Weighted>
-0.0000

> <Gold.Chemscore.Lipo.Weighted>
-8.6933

> <Gold.Chemscore.Internal_Hbond.Weighted>
0.0000

> <Gold.Chemscore.DEClash.Weighted>
0.4473

> <Gold.Chemscore.DEInternal.Weighted>
0.5919

> <Gold.Chemscore.Rot.Weighted>
4.3846

> <Gold.Chemscore.Internal.Correction.Weighted>
   9.000000E+99

> <Gold.Protein.RotatedTorsions>
[ 6907 6896 6895 6894 ] final   17.51 input  -60.11 | X-H torsion
[ 7974 7965 7964 7962 ] final   89.70 input  175.53 | X-H torsion
[ 8008 7997 7996 7995 ] final -110.97 input   59.86 | X-H torsion
[ 10167 10162 10161 10158 ] final  133.71 input  -65.29 | X-H torsion
[ 10718 10713 10712 10709 ] final  156.87 input   66.30 | X-H torsion
[ 10763 10752 10751 10750 ] final  -11.97 input  -60.55 | X-H torsion
[ 11005 11000 10999 10996 ] final  147.60 input  -57.11 | X-H torsion

> <Gold.Protein.ActiveResidues>
 VAL166  LYS551  ARG553  GLY616  TRP617  ASP618  TYR619  PRO620  LYS621  CYS622 
 ASP623  PHE694  ASN695  SER759  ASP760  ASP761  ALA762  ILE779  LEU786  VAL792 
 PHE793  MET794  SER795  GLU796  ALA797  LYS798  CYS799  TRP800  GLU811  SER814 

> <Gold.Protein.RotatedAtoms>
  151.8508  135.0558  160.0458 H   0  0  0  0  0  0  0  0  0  0  0  0  # atno 6907 bound_to 6896
  152.2738  133.5402  159.5464 H   0  0  0  0  0  0  0  0  0  0  0  0  # atno 6908 bound_to 6896
  150.7162  134.0576  159.3862 H   0  0  0  0  0  0  0  0  0  0  0  0  # atno 6909 bound_to 6896
  145.5289  139.2282  143.2630 H   0  0  0  0  0  0  0  0  0  0  0  0  # atno 7974 bound_to 7965
  154.9827  140.0396  157.2285 H   0  0  0  0  0  0  0  0  0  0  0  0  # atno 8008 bound_to 7997
  154.7700  140.2800  155.6123 H   0  0  0  0  0  0  0  0  0  0  0  0  # atno 8009 bound_to 7997
  156.2919  140.2612  156.2500 H   0  0  0  0  0  0  0  0  0  0  0  0  # atno 8010 bound_to 7997
  139.5286  144.6603  151.5035 H   0  0  0  0  0  0  0  0  0  0  0  0  # atno 10167 bound_to 10162
  157.1991  131.0672  151.2035 H   0  0  0  0  0  0  0  0  0  0  0  0  # atno 10718 bound_to 10713
  153.4915  135.7017  153.5881 H   0  0  0  0  0  0  0  0  0  0  0  0  # atno 10763 bound_to 10752
  153.4052  135.3862  155.2014 H   0  0  0  0  0  0  0  0  0  0  0  0  # atno 10764 bound_to 10752
  154.8716  135.3891  154.4376 H   0  0  0  0  0  0  0  0  0  0  0  0  # atno 10765 bound_to 10752
  140.0889  134.9053  157.1620 H   0  0  0  0  0  0  0  0  0  0  0  0  # atno 11005 bound_to 11000
  146.2057  140.6104  142.9082 LP  0  0  0  0  0  0  0  0  0  0  0  0  # atno 17320 bound_to 7965
  144.7636  140.5480  143.6718 LP  0  0  0  0  0  0  0  0  0  0  0  0  # atno 17321 bound_to 7965
  140.6447  143.8817  150.6726 LP  0  0  0  0  0  0  0  0  0  0  0  0  # atno 17342 bound_to 10162
  140.2163  143.3843  152.1678 LP  0  0  0  0  0  0  0  0  0  0  0  0  # atno 17343 bound_to 10162
  157.3785  130.7218  149.6613 LP  0  0  0  0  0  0  0  0  0  0  0  0  # atno 17370 bound_to 10713
  155.9702  130.4179  150.4302 LP  0  0  0  0  0  0  0  0  0  0  0  0  # atno 17371 bound_to 10713
  140.3380  134.2735  155.7216 LP  0  0  0  0  0  0  0  0  0  0  0  0  # atno 17394 bound_to 11000
  141.2071  133.7813  157.0135 LP  0  0  0  0  0  0  0  0  0  0  0  0  # atno 17395 bound_to 11000

$$$$
