AV-unprocessed.smi:2976|AV-procd|sdf|11365|dock1
  -GOLD-   2272016283D 1   1.00000     0.00000
 Structure written by MMmdl.
 40 41  0  0  0  0  0  0  0  0  1 V2000
  152.3632  144.9801  158.6780 C   0  0  0  0  0  0  0  0  0  0  0  0
  152.4988  143.4488  158.6346 C   0  0  2  0  0  0  0  0  0  0  0  0
  151.1485  142.7617  158.3480 C   0  0  0  0  0  0  0  0  0  0  0  0
  151.3117  141.2406  158.2017 C   0  0  0  0  0  0  0  0  0  0  0  0
  152.0095  140.6265  159.4249 C   0  0  0  0  0  0  0  0  0  0  0  0
  153.3587  141.3164  159.7052 C   0  0  2  0  0  0  0  0  0  0  0  0
  154.0088  140.6836  160.8511 N   0  0  0  0  0  0  0  0  0  0  0  0
  154.0763  139.3624  161.0754 C   0  0  0  0  0  0  0  0  0  0  0  0
  153.5877  138.5246  160.3155 O   0  0  0  0  0  0  0  0  0  0  0  0
  154.8260  138.9396  162.3479 C   0  0  0  0  0  0  0  0  0  0  0  0
  154.7164  137.5042  162.6479 N   0  0  0  0  0  0  0  0  0  0  0  0
  154.2286  137.2302  163.9136 N   0  0  0  0  0  0  0  0  0  0  0  0
  154.1126  136.0059  164.2975 C   0  0  0  0  0  0  0  0  0  0  0  0
  154.4725  134.8939  163.4459 C   0  0  0  0  0  0  0  0  0  0  0  0
  154.2961  133.2722  164.0170 Cl  0  0  0  0  0  0  0  0  0  0  0  0
  154.9432  135.1732  162.2044 C   0  0  0  0  0  0  0  0  0  0  0  0
  155.3948  133.8958  161.1281 Cl  0  0  0  0  0  0  0  0  0  0  0  0
  155.0880  136.5572  161.7320 C   0  0  0  0  0  0  0  0  0  0  0  0
  155.5091  136.8517  160.6127 O   0  0  0  0  0  0  0  0  0  0  0  0
  153.1896  142.8506  159.8890 C   0  0  2  0  0  0  0  0  0  0  0  0
  152.4968  143.2333  161.2177 C   0  0  0  0  0  0  0  0  0  0  0  0
  151.6421  145.3026  159.4288 H   0  0  0  0  0  0  0  0  0  0  0  0
  152.0241  145.3658  157.7163 H   0  0  0  0  0  0  0  0  0  0  0  0
  153.3191  145.4541  158.9019 H   0  0  0  0  0  0  0  0  0  0  0  0
  153.1501  143.2304  157.7866 H   0  0  0  0  0  0  0  0  0  0  0  0
  150.4370  142.9808  159.1447 H   0  0  0  0  0  0  0  0  0  0  0  0
  150.7132  143.1660  157.4335 H   0  0  0  0  0  0  0  0  0  0  0  0
  150.3370  140.7742  158.0560 H   0  0  0  0  0  0  0  0  0  0  0  0
  151.8940  141.0231  157.3053 H   0  0  0  0  0  0  0  0  0  0  0  0
  151.3573  140.7034  160.2953 H   0  0  0  0  0  0  0  0  0  0  0  0
  152.1651  139.5605  159.2542 H   0  0  0  0  0  0  0  0  0  0  0  0
  153.9929  141.1469  158.8324 H   0  0  0  0  0  0  0  0  0  0  0  0
  154.4403  141.2998  161.5246 H   0  0  0  0  0  0  0  0  0  0  0  0
  155.8751  139.2177  162.2317 H   0  0  0  0  0  0  0  0  0  0  0  0
  154.4608  139.5296  163.1907 H   0  0  0  0  0  0  0  0  0  0  0  0
  153.7367  135.7427  165.2864 H   0  0  0  0  0  0  0  0  0  0  0  0
  154.1903  143.2830  159.9331 H   0  0  0  0  0  0  0  0  0  0  0  0
  151.4712  142.8693  161.2658 H   0  0  0  0  0  0  0  0  0  0  0  0
  152.4693  144.3134  161.3568 H   0  0  0  0  0  0  0  0  0  0  0  0
  153.0287  142.8281  162.0783 H   0  0  0  0  0  0  0  0  0  0  0  0
  1  2  1  0  0  0  0
  1 22  1  0  0  0  0
  1 23  1  0  0  0  0
  1 24  1  0  0  0  0
  2 20  1  0  0  0  0
  2  3  1  0  0  0  0
  2 25  1  0  0  0  0
  3  4  1  0  0  0  0
  3 26  1  0  0  0  0
  3 27  1  0  0  0  0
  4  5  1  0  0  0  0
  4 28  1  0  0  0  0
  4 29  1  0  0  0  0
  5  6  1  0  0  0  0
  5 30  1  0  0  0  0
  5 31  1  0  0  0  0
  6  7  1  0  0  0  0
  6 20  1  0  0  0  0
  6 32  1  0  0  0  0
  7  8  1  0  0  0  0
  7 33  1  0  0  0  0
  8  9  2  0  0  0  0
  8 10  1  0  0  0  0
 10 11  1  0  0  0  0
 10 34  1  0  0  0  0
 10 35  1  0  0  0  0
 11 18  1  0  0  0  0
 11 12  1  0  0  0  0
 12 13  2  0  0  0  0
 13 14  1  0  0  0  0
 13 36  1  0  0  0  0
 14 15  1  0  0  0  0
 14 16  2  0  0  0  0
 16 17  1  0  0  0  0
 16 18  1  0  0  0  0
 18 19  2  0  0  0  0
 20 21  1  0  0  0  0
 20 37  1  0  0  0  0
 21 38  1  0  0  0  0
 21 39  1  0  0  0  0
 21 40  1  0  0  0  0
M  END
> <s_m_source_file>
AV-unprocessed.smi

> <i_m_source_file_index>
2976

> <i_lp_mmshare_version>
43012

> <i_f3d_flags>
0

> <s_epik_input>
W0NIM11bQ0BASF0xW0NIMl1bQ0gyXVtDSDJdW0NASF0oW0NASF0xW0NIM10pW05IXUMoPU8pW0NIMl1uMm5bY0hdYyhDbCljKENsKWMyPU8=

> <s_epik_cmdline>
J2VwaWtfcHl0aG9uJywgJy1waCcsICc3LjAnLCAnLXRuJywgJzgnLCAnLW1hJywgJzIwMCcsICctbWV0YWxfYmluZGluZycsICctaW1hZScsICc8aW5maWxlLm1hZT4nLCAnLW9tYWUnLCAnPG91dGZpbGUubWFlPic=

> <r_lp_tautomer_probability>
1

> <r_epik_Ionization_Penalty>
1.90777e-08

> <r_epik_Ionization_Penalty_Charging>
3.07942e-11

> <r_epik_Ionization_Penalty_Neutral>
1.90469e-08

> <r_epik_State_Penalty>
-0

> <r_epik_Charging_Adjusted_Penalty>
3.07942e-11

> <i_epik_Tot_Q>
0

> <i_epik_Tot_abs_Q>
0

> <r_epik_Metal_State_Penalty>
-0

> <b_epik_Metal_Only>
0

> <s_lp_Force_Field>
OPLS_2005

> <r_lp_Energy>
28.3124

> <b_lp_Chiralities_Consistent>
1

> <s_lp_Variant>
AV-unprocessed.smi:2976-7

> <Gold.Version>
5.8.1

> <Gold.Id.Protein>
6NUR|6NUR_protein|mol2

> <Gold.PLP.Fitness>
43.5477

> <Gold.PLP.PLP>
-44.0674

> <Gold.PLP.part.hbond>
0.0000

> <Gold.PLP.part.metal>
0.0000

> <Gold.PLP.part.buried>
-5.7272

> <Gold.PLP.part.nonpolar>
-38.8850

> <Gold.PLP.part.repulsive>
0.0725

> <Gold.PLP.ligand.clash>
0.0000

> <Gold.PLP.ligand.torsion>
0.2690

> <Gold.PLP.Chemscore.Hbond>
0.0000

> <Gold.PLP.Chemscore.CHOScore>
0.0000

> <Gold.PLP.Chemscore.Metal>
0.0000

> <Gold.PLP.Chemscore.Internal.Correction>
0.0184

> <Gold.Rescore>
     Score         DG    S(hbond)    S(metal)    S(lipo)     H(rot)  DE(clash)    DE(int)     intcor
     12.47     -15.97       0.00        0.00     122.15       1.49       0.04       3.46       ----

> <Gold.Chemscore.Fitness>
12.4700

> <Gold.Chemscore.DG>
-15.9662

> <Gold.Chemscore.ZeroCoef>
-5.4800

> <Gold.Chemscore.Hbond>
0.0000

> <Gold.Chemscore.Metal>
0.0000

> <Gold.Chemscore.Lipo>
122.1529

> <Gold.Chemscore.Internal_Hbond>
0.0000

> <Gold.Chemscore.DEClash>
0.0375

> <Gold.Chemscore.DEInternal>
3.4588

> <Gold.Chemscore.Rot>
1.4866

> <Gold.Chemscore.Internal.Correction>
   9.000000E+99

> <Gold.Chemscore.Hbond.Weighted>
-0.0000

> <Gold.Chemscore.Metal.Weighted>
-0.0000

> <Gold.Chemscore.Lipo.Weighted>
-14.2919

> <Gold.Chemscore.Internal_Hbond.Weighted>
0.0000

> <Gold.Chemscore.DEClash.Weighted>
0.0375

> <Gold.Chemscore.DEInternal.Weighted>
3.4588

> <Gold.Chemscore.Rot.Weighted>
3.8057

> <Gold.Chemscore.Internal.Correction.Weighted>
   9.000000E+99

> <Gold.Protein.RotatedTorsions>
[ 6907 6896 6895 6894 ] final   13.98 input  -60.11 | X-H torsion
[ 7974 7965 7964 7962 ] final  -92.38 input  175.53 | X-H torsion
[ 8008 7997 7996 7995 ] final  -91.62 input   59.86 | X-H torsion
[ 10167 10162 10161 10158 ] final   -8.12 input  -65.29 | X-H torsion
[ 10718 10713 10712 10709 ] final  -33.04 input   66.30 | X-H torsion
[ 10763 10752 10751 10750 ] final -141.95 input  -60.55 | X-H torsion
[ 11005 11000 10999 10996 ] final  110.29 input  -57.11 | X-H torsion

> <Gold.Protein.ActiveResidues>
 VAL166  LYS551  ARG553  GLY616  TRP617  ASP618  TYR619  PRO620  LYS621  CYS622 
 ASP623  PHE694  ASN695  SER759  ASP760  ASP761  ALA762  ILE779  LEU786  VAL792 
 PHE793  MET794  SER795  GLU796  ALA797  LYS798  CYS799  TRP800  GLU811  SER814 

> <Gold.Protein.RotatedAtoms>
  151.7950  135.0725  160.0392 H   0  0  0  0  0  0  0  0  0  0  0  0  # atno 6907 bound_to 6896
  152.3130  133.5768  159.5701 H   0  0  0  0  0  0  0  0  0  0  0  0  # atno 6908 bound_to 6896
  150.7329  134.0041  159.3690 H   0  0  0  0  0  0  0  0  0  0  0  0  # atno 6909 bound_to 6896
  145.4006  140.9537  143.2289 H   0  0  0  0  0  0  0  0  0  0  0  0  # atno 7974 bound_to 7965
  154.7129  140.0517  157.0567 H   0  0  0  0  0  0  0  0  0  0  0  0  # atno 8008 bound_to 7997
  155.0530  140.3181  155.4666 H   0  0  0  0  0  0  0  0  0  0  0  0  # atno 8009 bound_to 7997
  156.2794  140.2112  156.5656 H   0  0  0  0  0  0  0  0  0  0  0  0  # atno 8010 bound_to 7997
  140.7049  143.6004  150.8803 H   0  0  0  0  0  0  0  0  0  0  0  0  # atno 10167 bound_to 10162
  156.3675  130.4334  149.7573 H   0  0  0  0  0  0  0  0  0  0  0  0  # atno 10718 bound_to 10713
  154.8527  135.3510  154.5950 H   0  0  0  0  0  0  0  0  0  0  0  0  # atno 10763 bound_to 10752
  153.6559  135.6992  153.5198 H   0  0  0  0  0  0  0  0  0  0  0  0  # atno 10764 bound_to 10752
  153.2856  135.4250  155.1077 H   0  0  0  0  0  0  0  0  0  0  0  0  # atno 10765 bound_to 10752
  139.8879  134.9480  156.6257 H   0  0  0  0  0  0  0  0  0  0  0  0  # atno 11005 bound_to 11000
  144.8376  139.5524  143.6915 LP  0  0  0  0  0  0  0  0  0  0  0  0  # atno 17320 bound_to 7965
  146.2753  139.6738  142.9267 LP  0  0  0  0  0  0  0  0  0  0  0  0  # atno 17321 bound_to 7965
  139.9729  143.6037  152.2968 LP  0  0  0  0  0  0  0  0  0  0  0  0  # atno 17342 bound_to 10162
  139.6630  144.7662  151.1926 LP  0  0  0  0  0  0  0  0  0  0  0  0  # atno 17343 bound_to 10162
  156.4713  130.7998  151.3015 LP  0  0  0  0  0  0  0  0  0  0  0  0  # atno 17370 bound_to 10713
  157.7480  131.0035  150.3040 LP  0  0  0  0  0  0  0  0  0  0  0  0  # atno 17371 bound_to 10713
  140.7705  133.8742  155.8488 LP  0  0  0  0  0  0  0  0  0  0  0  0  # atno 17394 bound_to 11000
  140.9846  134.1360  157.4464 LP  0  0  0  0  0  0  0  0  0  0  0  0  # atno 17395 bound_to 11000

$$$$
