AV-unprocessed.smi:212|AV-procd|sdf|1625|dock3
  -GOLD-   2262019563D 1   1.00000     0.00000
 Structure written by MMmdl.
 65 68  0  0  0  0  0  0  0  0  2 V2000
  150.7261  132.9033  156.8214 C   0  0  0  0  0  0  0  0  0  0  0  0
  149.2399  133.0450  156.4370 C   0  0  2  0  0  0  0  0  0  0  0  0
  148.9980  132.8202  154.9304 C   0  0  0  0  0  0  0  0  0  0  0  0
  147.5505  132.9031  154.6077 N   0  3  2  0  0  0  0  0  0  0  0  0
  147.2434  132.5718  153.1914 C   0  0  0  0  0  0  0  0  0  0  0  0
  145.8898  131.8411  153.0401 C   0  0  0  0  0  0  0  0  0  0  0  0
  144.9197  132.6918  152.2032 C   0  0  0  0  0  0  0  0  0  0  0  0
  146.0377  130.4391  152.4207 C   0  0  0  0  0  0  0  0  0  0  0  0
  145.3094  131.7028  154.3227 O   0  0  0  0  0  0  0  0  0  0  0  0
  146.9405  134.1806  155.0553 C   0  0  0  0  0  0  0  0  0  0  0  0
  147.2120  134.4408  156.5511 C   0  0  0  0  0  0  0  0  0  0  0  0
  148.6264  134.2988  156.8877 N   0  0  0  0  0  0  0  0  0  0  0  0
  149.3575  135.4333  156.7800 C   0  0  0  0  0  0  0  0  0  0  0  0
  149.8237  135.8373  155.5700 N   0  0  0  0  0  0  0  0  0  0  0  0
  150.5604  136.9486  155.4764 C   0  0  0  0  0  0  0  0  0  0  0  0
  150.9423  137.7809  156.4475 N   0  0  0  0  0  0  0  0  0  0  0  0
  150.4765  137.3737  157.6630 C   0  0  0  0  0  0  0  0  0  0  0  0
  149.6788  136.2233  157.9141 C   0  0  0  0  0  0  0  0  0  0  0  0
  149.3886  136.1267  159.2685 N   0  0  0  0  0  0  0  0  0  0  0  0
  149.9843  137.1633  159.7926 C   0  0  0  0  0  0  0  0  0  0  0  0
  150.6796  137.9532  158.9037 N   0  0  0  0  0  0  0  0  0  0  0  0
  151.4307  139.1535  159.2205 C   0  0  0  0  0  0  0  0  0  0  0  0
  150.6959  140.4807  158.8797 C   0  0  2  0  0  0  0  0  0  0  0  0
  150.1878  140.4415  157.4213 C   0  0  0  0  0  0  0  0  0  0  0  0
  151.2610  140.3296  156.5088 O   0  0  0  0  0  0  0  0  0  0  0  0
  151.4898  141.7992  159.1233 C   0  0  1  0  0  0  0  0  0  0  0  0
  150.7784  143.1194  158.8840 C   0  0  0  0  0  0  0  0  0  0  0  0
  151.7538  144.1064  159.5180 C   0  0  0  0  0  0  0  0  0  0  0  0
  152.3724  143.4081  160.5964 O   0  0  0  0  0  0  0  0  0  0  0  0
  152.0792  142.0153  160.5190 C   0  0  0  0  0  0  0  0  0  0  0  0
  151.1002  131.9124  156.5633 H   0  0  0  0  0  0  0  0  0  0  0  0
  150.8694  133.0367  157.8941 H   0  0  0  0  0  0  0  0  0  0  0  0
  151.3533  133.6314  156.3054 H   0  0  0  0  0  0  0  0  0  0  0  0
  148.7095  132.2545  156.9698 H   0  0  0  0  0  0  0  0  0  0  0  0
  149.5479  133.5528  154.3380 H   0  0  0  0  0  0  0  0  0  0  0  0
  149.3745  131.8376  154.6432 H   0  0  0  0  0  0  0  0  0  0  0  0
  147.2340  133.4813  152.5876 H   0  0  0  0  0  0  0  0  0  0  0  0
  148.0398  131.9568  152.7690 H   0  0  0  0  0  0  0  0  0  0  0  0
  145.3002  132.8432  151.1925 H   0  0  0  0  0  0  0  0  0  0  0  0
  144.7667  133.6764  152.6473 H   0  0  0  0  0  0  0  0  0  0  0  0
  143.9422  132.2155  152.1175 H   0  0  0  0  0  0  0  0  0  0  0  0
  146.5031  130.4917  151.4359 H   0  0  0  0  0  0  0  0  0  0  0  0
  145.0672  129.9562  152.2992 H   0  0  0  0  0  0  0  0  0  0  0  0
  146.6490  129.7818  153.0400 H   0  0  0  0  0  0  0  0  0  0  0  0
  145.0345  130.8049  154.4346 H   0  0  0  0  0  0  0  0  0  0  0  0
  147.3302  134.9983  154.4484 H   0  0  0  0  0  0  0  0  0  0  0  0
  145.8641  134.1506  154.8829 H   0  0  0  0  0  0  0  0  0  0  0  0
  146.8511  135.4310  156.8338 H   0  0  0  0  0  0  0  0  0  0  0  0
  146.6504  133.7264  157.1541 H   0  0  0  0  0  0  0  0  0  0  0  0
  150.8948  137.2072  154.4824 H   0  0  0  0  0  0  0  0  0  0  0  0
  149.9443  137.3755  160.8512 H   0  0  0  0  0  0  0  0  0  0  0  0
  151.7191  139.1297  160.2712 H   0  0  0  0  0  0  0  0  0  0  0  0
  152.3648  139.0903  158.6616 H   0  0  0  0  0  0  0  0  0  0  0  0
  149.8093  140.5399  159.5124 H   0  0  0  0  0  0  0  0  0  0  0  0
  149.5351  139.5832  157.2589 H   0  0  0  0  0  0  0  0  0  0  0  0
  149.6058  141.3336  157.1883 H   0  0  0  0  0  0  0  0  0  0  0  0
  152.0500  140.1391  156.9935 H   0  0  0  0  0  0  0  0  0  0  0  0
  152.3279  141.8022  158.4241 H   0  0  0  0  0  0  0  0  0  0  0  0
  150.5975  143.3229  157.8283 H   0  0  0  0  0  0  0  0  0  0  0  0
  149.8291  143.1834  159.4075 H   0  0  0  0  0  0  0  0  0  0  0  0
  152.5256  144.3909  158.8019 H   0  0  0  0  0  0  0  0  0  0  0  0
  151.2604  145.0158  159.8622 H   0  0  0  0  0  0  0  0  0  0  0  0
  151.3607  141.7868  161.3037 H   0  0  0  0  0  0  0  0  0  0  0  0
  152.9708  141.4126  160.6927 H   0  0  0  0  0  0  0  0  0  0  0  0
  147.1018  132.1829  155.1561 H   0  0  0  0  0  0  0  0  0  0  0  0
  1  2  1  0  0  0  0
  1 31  1  0  0  0  0
  1 32  1  0  0  0  0
  1 33  1  0  0  0  0
  2 12  1  0  0  0  0
  2  3  1  0  0  0  0
  2 34  1  0  0  0  0
  3  4  1  0  0  0  0
  3 35  1  0  0  0  0
  3 36  1  0  0  0  0
  4  5  1  0  0  0  0
  4 10  1  0  0  0  0
  4 65  1  0  0  0  0
  5  6  1  0  0  0  0
  5 37  1  0  0  0  0
  5 38  1  0  0  0  0
  6  7  1  0  0  0  0
  6  8  1  0  0  0  0
  6  9  1  0  0  0  0
  7 39  1  0  0  0  0
  7 40  1  0  0  0  0
  7 41  1  0  0  0  0
  8 42  1  0  0  0  0
  8 43  1  0  0  0  0
  8 44  1  0  0  0  0
  9 45  1  0  0  0  0
 10 11  1  0  0  0  0
 10 46  1  0  0  0  0
 10 47  1  0  0  0  0
 11 12  1  0  0  0  0
 11 48  1  0  0  0  0
 11 49  1  0  0  0  0
 12 13  1  0  0  0  0
 13 18  1  0  0  0  0
 13 14  2  0  0  0  0
 14 15  1  0  0  0  0
 15 16  2  0  0  0  0
 15 50  1  0  0  0  0
 16 17  1  0  0  0  0
 17 21  1  0  0  0  0
 17 18  2  0  0  0  0
 18 19  1  0  0  0  0
 19 20  2  0  0  0  0
 20 21  1  0  0  0  0
 20 51  1  0  0  0  0
 21 22  1  0  0  0  0
 22 23  1  0  0  0  0
 22 52  1  0  0  0  0
 22 53  1  0  0  0  0
 23 24  1  0  0  0  0
 23 26  1  0  0  0  0
 23 54  1  0  0  0  0
 24 25  1  0  0  0  0
 24 55  1  0  0  0  0
 24 56  1  0  0  0  0
 25 57  1  0  0  0  0
 26 30  1  0  0  0  0
 26 27  1  0  0  0  0
 26 58  1  0  0  0  0
 27 28  1  0  0  0  0
 27 59  1  0  0  0  0
 27 60  1  0  0  0  0
 28 29  1  0  0  0  0
 28 61  1  0  0  0  0
 28 62  1  0  0  0  0
 29 30  1  0  0  0  0
 30 63  1  0  0  0  0
 30 64  1  0  0  0  0
M  CHG  1   4   1
M  END
> <s_m_source_file>
AV-unprocessed.smi

> <i_m_source_file_index>
212

> <i_lp_mmshare_version>
43012

> <i_f3d_flags>
0

> <s_epik_input>
W0NIM11bQ0BASF0xW0NIMl1OKFtDSDJdQyhbQ0gzXSkoW0NIM10pW09IXSlbQ0gyXVtDSDJdTjFjKG5bY0hdbjIpYyhjMjMpbltjSF1uM1tDSDJdW0NASF0oW0NIMl1bT0hdKVtDQEBIXTRbQ0gyXVtDSDJdT1tDSDJdNA==

> <s_epik_cmdline>
J2VwaWtfcHl0aG9uJywgJy1waCcsICc3LjAnLCAnLXRuJywgJzgnLCAnLW1hJywgJzIwMCcsICctbWV0YWxfYmluZGluZycsICctaW1hZScsICc8aW5maWxlLm1hZT4nLCAnLW9tYWUnLCAnPG91dGZpbGUubWFlPic=

> <r_lp_tautomer_probability>
1

> <r_epik_Ionization_Penalty>
0.00182193

> <r_epik_Ionization_Penalty_Charging>
0.00173996

> <r_epik_Ionization_Penalty_Neutral>
8.19718e-05

> <r_epik_State_Penalty>
-0

> <r_epik_Charging_Adjusted_Penalty>
0.00173996

> <i_epik_Tot_Q>
1

> <i_epik_Tot_abs_Q>
1

> <r_epik_Metal_State_Penalty>
-0

> <b_epik_Metal_Only>
0

> <s_lp_Force_Field>
OPLS_2005

> <r_lp_Energy>
61.8926

> <b_lp_Chiralities_Consistent>
1

> <s_lp_Variant>
AV-unprocessed.smi:212-9

> <Gold.Version>
5.8.1

> <Gold.Id.Protein>
6NUR|6NUR_protein|mol2

> <Gold.PLP.Fitness>
48.6992

> <Gold.PLP.PLP>
-43.2620

> <Gold.PLP.part.hbond>
-2.7548

> <Gold.PLP.part.metal>
0.0000

> <Gold.PLP.part.buried>
-7.8768

> <Gold.PLP.part.nonpolar>
-33.8050

> <Gold.PLP.part.repulsive>
0.2106

> <Gold.PLP.ligand.clash>
0.0000

> <Gold.PLP.ligand.torsion>
2.0817

> <Gold.PLP.Chemscore.Hbond>
1.8480

> <Gold.PLP.Chemscore.CHOScore>
1.0000

> <Gold.PLP.Chemscore.Metal>
0.0000

> <Gold.Chemscore.Hbonds>
donor molecule, donor type, donor heavy atom, donor atom, acceptor molecule, acceptor atom, score
      L1  H     9    45       P1 10956  0.19
      P1  H  6896  6908       L1    19  0.75

> <Gold.PLP.Chemscore.Internal.Correction>
1.0565

> <Gold.Rescore>
     Score         DG    S(hbond)    S(metal)    S(lipo)     H(rot)  DE(clash)    DE(int)     intcor
     11.25     -13.98       1.72        0.00     104.01       3.68       0.01       2.71       ----

> <Gold.Chemscore.Fitness>
11.2507

> <Gold.Chemscore.DG>
-13.9756

> <Gold.Chemscore.ZeroCoef>
-5.4800

> <Gold.Chemscore.Hbond>
1.7217

> <Gold.Chemscore.Metal>
0.0000

> <Gold.Chemscore.Lipo>
104.0086

> <Gold.Chemscore.Internal_Hbond>
0.0000

> <Gold.Chemscore.DEClash>
0.0128

> <Gold.Chemscore.DEInternal>
2.7122

> <Gold.Chemscore.Rot>
3.6812

> <Gold.Chemscore.Internal.Correction>
   9.000000E+99

> <Gold.Chemscore.Hbonds>
donor molecule, donor type, donor heavy atom, donor atom, acceptor molecule, acceptor atom, score
      P1  H  6896  6908       L1    19  0.02

> <Gold.Chemscore.Hbond.Weighted>
-5.7506

> <Gold.Chemscore.Metal.Weighted>
-0.0000

> <Gold.Chemscore.Lipo.Weighted>
-12.1690

> <Gold.Chemscore.Internal_Hbond.Weighted>
0.0000

> <Gold.Chemscore.DEClash.Weighted>
0.0128

> <Gold.Chemscore.DEInternal.Weighted>
2.7122

> <Gold.Chemscore.Rot.Weighted>
9.4239

> <Gold.Chemscore.Internal.Correction.Weighted>
   9.000000E+99

> <Gold.Protein.RotatedTorsions>
[ 6907 6896 6895 6894 ] final  179.29 input  -60.11 | X-H torsion
[ 7974 7965 7964 7962 ] final   69.04 input  175.53 | X-H torsion
[ 8008 7997 7996 7995 ] final  116.43 input   59.86 | X-H torsion
[ 10167 10162 10161 10158 ] final  132.00 input  -65.29 | X-H torsion
[ 10718 10713 10712 10709 ] final   10.65 input   66.30 | X-H torsion
[ 10763 10752 10751 10750 ] final  -58.27 input  -60.55 | X-H torsion
[ 11005 11000 10999 10996 ] final  -88.24 input  -57.11 | X-H torsion

> <Gold.Protein.ActiveResidues>
 VAL166  LYS551  ARG553  GLY616  TRP617  ASP618  TYR619  PRO620  LYS621  CYS622 
 ASP623  PHE694  ASN695  SER759  ASP760  ASP761  ALA762  ILE779  LEU786  VAL792 
 PHE793  MET794  SER795  GLU796  ALA797  LYS798  CYS799  TRP800  GLU811  SER814 

> <Gold.Protein.RotatedAtoms>
  151.6741  133.3313  159.3203 H   0  0  0  0  0  0  0  0  0  0  0  0  # atno 6907 bound_to 6896
  150.7854  134.6837  159.6468 H   0  0  0  0  0  0  0  0  0  0  0  0  # atno 6908 bound_to 6896
  152.3922  134.6426  160.0155 H   0  0  0  0  0  0  0  0  0  0  0  0  # atno 6909 bound_to 6896
  145.7952  139.2954  143.1187 H   0  0  0  0  0  0  0  0  0  0  0  0  # atno 7974 bound_to 7965
  156.2439  140.2917  156.0522 H   0  0  0  0  0  0  0  0  0  0  0  0  # atno 8008 bound_to 7997
  155.1869  140.0406  157.2910 H   0  0  0  0  0  0  0  0  0  0  0  0  # atno 8009 bound_to 7997
  154.6221  140.2478  155.7543 H   0  0  0  0  0  0  0  0  0  0  0  0  # atno 8010 bound_to 7997
  139.5359  144.6681  151.4788 H   0  0  0  0  0  0  0  0  0  0  0  0  # atno 10167 bound_to 10162
  156.9841  130.6017  149.5679 H   0  0  0  0  0  0  0  0  0  0  0  0  # atno 10718 bound_to 10713
  154.2354  135.6353  153.5189 H   0  0  0  0  0  0  0  0  0  0  0  0  # atno 10763 bound_to 10752
  152.9940  135.5529  154.5967 H   0  0  0  0  0  0  0  0  0  0  0  0  # atno 10764 bound_to 10752
  154.5460  135.2898  155.1026 H   0  0  0  0  0  0  0  0  0  0  0  0  # atno 10765 bound_to 10752
  141.1605  133.7558  156.9422 H   0  0  0  0  0  0  0  0  0  0  0  0  # atno 11005 bound_to 11000
  145.9935  140.8582  143.0054 LP  0  0  0  0  0  0  0  0  0  0  0  0  # atno 17320 bound_to 7965
  144.6776  140.2250  143.7362 LP  0  0  0  0  0  0  0  0  0  0  0  0  # atno 17321 bound_to 7965
  140.6565  143.8589  150.6840 LP  0  0  0  0  0  0  0  0  0  0  0  0  # atno 17342 bound_to 10162
  140.1970  143.3990  152.1820 LP  0  0  0  0  0  0  0  0  0  0  0  0  # atno 17343 bound_to 10162
  156.0233  130.5327  150.8336 LP  0  0  0  0  0  0  0  0  0  0  0  0  # atno 17370 bound_to 10713
  157.5505  131.0943  150.9702 LP  0  0  0  0  0  0  0  0  0  0  0  0  # atno 17371 bound_to 10713
  140.1314  134.9353  157.2342 LP  0  0  0  0  0  0  0  0  0  0  0  0  # atno 17394 bound_to 11000
  140.2949  134.3198  155.7305 LP  0  0  0  0  0  0  0  0  0  0  0  0  # atno 17395 bound_to 11000

$$$$
