#       Name:                AV-unprocessed.smi:765
#       Creating user name   scv26
#       Creation time:       Fri Mar 27 01:05:01 2020


#       File generated by GOLD software.
#

@<TRIPOS>MOLECULE
AV-unprocessed.smi:765
    43    44     1
SMALL
NO_CHARGES


@<TRIPOS>ATOM
      1 ****        -1.8569  -2.5492   2.4200 C.3            1 S1                 0.0000
      2 ****        -1.4488  -1.5443   1.3334 C.3            1 S1                 0.0000
      3 ****        -1.9766  -1.9679  -0.0494 C.3            1 S1                 0.0000
      4 ****        -1.5997  -0.9518  -1.1368 C.3            1 S1                 0.0000
      5 ****        -2.0907   0.4584  -0.7665 C.3            1 S1                 0.0000
      6 ****        -1.5526   0.9302   0.6073 C.3            1 S1                 0.0000
      7 ****        -2.1716   2.2183   0.9730 C.1            1 S1                 0.0000
      8 ****        -2.6580   3.2279   1.2610 N.1            1 S1                 0.0000
      9 ****        -0.0925   1.0502   0.5773 N.am           1 S1                 0.0000
     10 ****         0.6398   1.9256  -0.1311 C.2            1 S1                 0.0000
     11 ****         0.1490   2.8338  -0.8019 O.2            1 S1                 0.0000
     12 ****         2.1596   1.7057  -0.0886 C.3            1 S1                 0.0000
     13 ****         2.9604   2.8851  -0.6725 C.3            1 S1                 0.0000
     14 ****         2.4945   0.4570  -0.7625 N.pl3          1 S1                 0.0000
     15 ****         2.3556   0.1292  -2.0976 C.2            1 S1                 0.0000
     16 ****         2.7704  -1.1627  -2.2475 C.2            1 S1                 0.0000
     17 ****         3.1499  -1.5495  -0.9323 C.2            1 S1                 0.0000
     18 ****         2.9807  -0.5811  -0.0465 N.2            1 S1                 0.0000
     19 ****        -1.9270  -0.1171   1.6807 C.3            1 S1                 0.0000
     20 ****        -2.9413  -2.6057   2.5215 H              1 S1                 0.0000
     21 ****        -1.4465  -2.2669   3.3899 H              1 S1                 0.0000
     22 ****        -1.4922  -3.5499   2.1872 H              1 S1                 0.0000
     23 ****        -0.3588  -1.5420   1.2898 H              1 S1                 0.0000
     24 ****        -1.5815  -2.9492  -0.3152 H              1 S1                 0.0000
     25 ****        -3.0617  -2.0726  -0.0132 H              1 S1                 0.0000
     26 ****        -0.5184  -0.9466  -1.2782 H              1 S1                 0.0000
     27 ****        -2.0308  -1.2549  -2.0912 H              1 S1                 0.0000
     28 ****        -1.8166   1.1616  -1.5533 H              1 S1                 0.0000
     29 ****        -3.1813   0.4560  -0.7421 H              1 S1                 0.0000
     30 ****         0.4154   0.3503   1.0988 H              1 S1                 0.0000
     31 ****         2.4388   1.6102   0.9626 H              1 S1                 0.0000
     32 ****         2.7435   3.8116  -0.1396 H              1 S1                 0.0000
     33 ****         2.7355   3.0469  -1.7274 H              1 S1                 0.0000
     34 ****         4.0324   2.7046  -0.5885 H              1 S1                 0.0000
     35 ****         1.9708   0.8339  -2.8203 H              1 S1                 0.0000
     36 ****         2.7965  -1.7434  -3.1575 H              1 S1                 0.0000
     37 ****         3.5378  -2.5000  -0.5967 H              1 S1                 0.0000
     38 ****        -3.0109  -0.1267   1.8063 H              1 S1                 0.0000
     39 ****        -1.5173   0.1838   2.6462 H              1 S1                 0.0000
     40 ****        -3.0783   4.1005   1.5099 LP             1 S1                 0.0000
     41 ****        -0.8438   2.9481  -0.8385 LP             1 S1                 0.0000
     42 ****         0.7431   3.4573  -1.3101 LP             1 S1                 0.0000
     43 ****         3.1705  -0.6107   0.9349 LP             1 S1                 0.0000
@<TRIPOS>BOND
    1    1    2 1     
    2    1   20 1     
    3    1   21 1     
    4    1   22 1     
    5    2   19 1     
    6    2    3 1     
    7    2   23 1     
    8    3    4 1     
    9    3   24 1     
   10    3   25 1     
   11    4    5 1     
   12    4   26 1     
   13    4   27 1     
   14    5    6 1     
   15    5   28 1     
   16    5   29 1     
   17    6    7 1     
   18    6    9 1     
   19    6   19 1     
   20    7    8 3     
   21    9   10 am    
   22    9   30 1     
   23   10   11 2     
   24   10   12 1     
   25   12   13 1     
   26   12   14 1     
   27   12   31 1     
   28   13   32 1     
   29   13   33 1     
   30   13   34 1     
   31   14   18 1     
   32   14   15 1     
   33   15   16 2     
   34   15   35 1     
   35   16   17 1     
   36   16   36 1     
   37   17   18 2     
   38   17   37 1     
   39   19   38 1     
   40   19   39 1     
   41    8   40 1     
   42   11   41 1     
   43   11   42 1     
   44   18   43 1     
@<TRIPOS>SUBSTRUCTURE
      1 S1             1
@<TRIPOS>SET
LONE_PAIRS      STATIC     ATOMS    <user>   **** ""
4 40 41 42 43
DONOR_HYDROGENS      STATIC     ATOMS    <user>   **** ""
1 30
ATOM$BLUE        STATIC     ATOMS    COLORGROUP SYSTEM
4 40 41 42 43
ATOM$RED        STATIC     ATOMS    COLORGROUP SYSTEM
1 30
