#       Name:                AV-unprocessed.smi:2074
#       Creating user name   scv26
#       Creation time:       Fri Mar 27 11:14:59 2020


#       File generated by GOLD software.
#

@<TRIPOS>MOLECULE
AV-unprocessed.smi:2074
    51    52     1
SMALL
NO_CHARGES


@<TRIPOS>ATOM
      1 ****        -3.0695   2.3566  -3.8861 C.3            1 S1                 0.0000
      2 ****        -3.3941   2.6111  -2.4423 C.2            1 S1                 0.0000
      3 ****        -3.8689   3.7894  -2.0740 N.2            1 S1                 0.0000
      4 ****        -4.0591   3.7098  -0.6909 O.3            1 S1                 0.0000
      5 ****        -3.6867   2.4722  -0.2765 C.2            1 S1                 0.0000
      6 ****        -3.8095   2.1914   1.1826 C.3            1 S1                 0.0000
      7 ****        -3.2592   1.7224  -1.3376 C.2            1 S1                 0.0000
      8 ****        -2.7586   0.2986  -1.3485 C.3            1 S1                 0.0000
      9 ****        -1.2514   0.2189  -1.0749 C.2            1 S1                 0.0000
     10 ****        -0.5742   1.2351  -0.9114 O.2            1 S1                 0.0000
     11 ****        -0.7363  -1.0186  -1.0234 N.am           1 S1                 0.0000
     12 ****         0.6640  -1.3367  -0.7564 C.3            1 S1                 0.0000
     13 ****         1.0600  -1.1920   0.7425 C.3            1 S1                 0.0000
     14 ****         0.1017  -2.0571   1.6005 C.3            1 S1                 0.0000
     15 ****         2.4881  -1.4910   1.0010 N.3            1 S1                 0.0000
     16 ****         2.8455  -1.3494   2.4175 C.3            1 S1                 0.0000
     17 ****         4.3331  -1.6309   2.6908 C.3            1 S1                 0.0000
     18 ****         5.1361  -0.7673   1.8988 O.3            1 S1                 0.0000
     19 ****         4.8797  -0.9266   0.5106 C.3            1 S1                 0.0000
     20 ****         3.3959  -0.6425   0.2196 C.3            1 S1                 0.0000
     21 ****        -2.0219   2.0787  -4.0047 H              1 S1                 0.0000
     22 ****        -3.2509   3.2366  -4.5042 H              1 S1                 0.0000
     23 ****        -3.6756   1.5424  -4.2831 H              1 S1                 0.0000
     24 ****        -3.1544   1.3717   1.4783 H              1 S1                 0.0000
     25 ****        -4.8330   1.9168   1.4376 H              1 S1                 0.0000
     26 ****        -3.5364   3.0676   1.7708 H              1 S1                 0.0000
     27 ****        -3.2767  -0.3003  -0.5987 H              1 S1                 0.0000
     28 ****        -2.9599  -0.1787  -2.3080 H              1 S1                 0.0000
     29 ****        -1.3603  -1.7986  -1.1704 H              1 S1                 0.0000
     30 ****         0.8479  -2.3583  -1.0904 H              1 S1                 0.0000
     31 ****         1.2592  -0.6915  -1.4011 H              1 S1                 0.0000
     32 ****         0.8829  -0.1524   1.0224 H              1 S1                 0.0000
     33 ****        -0.9470  -1.8702   1.3719 H              1 S1                 0.0000
     34 ****         0.1986  -1.8480   2.6650 H              1 S1                 0.0000
     35 ****         0.2861  -3.1207   1.4463 H              1 S1                 0.0000
     36 ****         2.5981  -0.3444   2.7627 H              1 S1                 0.0000
     37 ****         2.2734  -2.0443   3.0296 H              1 S1                 0.0000
     38 ****         4.5624  -1.4637   3.7432 H              1 S1                 0.0000
     39 ****         4.5769  -2.6716   2.4717 H              1 S1                 0.0000
     40 ****         5.5131  -0.2381  -0.0488 H              1 S1                 0.0000
     41 ****         5.1490  -1.9361   0.1958 H              1 S1                 0.0000
     42 ****         3.2502  -0.8002  -0.8469 H              1 S1                 0.0000
     43 ****         3.1826   0.4089   0.4179 H              1 S1                 0.0000
     44 ****        -4.0539   4.5757  -2.6635 LP             1 S1                 0.0000
     45 ****        -5.0231   3.8627  -0.4734 LP             1 S1                 0.0000
     46 ****        -3.5004   4.4014  -0.2330 LP             1 S1                 0.0000
     47 ****        -1.0058   2.1361  -0.9559 LP             1 S1                 0.0000
     48 ****         0.4070   1.1589  -0.7342 LP             1 S1                 0.0000
     49 ****         2.5988  -2.4443   0.7200 LP             1 S1                 0.0000
     50 ****         6.0993  -0.9706   2.0747 LP             1 S1                 0.0000
     51 ****         4.9429   0.1795   2.1563 LP             1 S1                 0.0000
@<TRIPOS>BOND
    1    1    2 1     
    2    1   21 1     
    3    1   22 1     
    4    1   23 1     
    5    2    7 1     
    6    2    3 2     
    7    3    4 1     
    8    4    5 1     
    9    5    6 1     
   10    5    7 2     
   11    6   24 1     
   12    6   25 1     
   13    6   26 1     
   14    7    8 1     
   15    8    9 1     
   16    8   27 1     
   17    8   28 1     
   18    9   10 2     
   19    9   11 am    
   20   11   12 1     
   21   11   29 1     
   22   12   13 1     
   23   12   30 1     
   24   12   31 1     
   25   13   14 1     
   26   13   15 1     
   27   13   32 1     
   28   14   33 1     
   29   14   34 1     
   30   14   35 1     
   31   15   20 1     
   32   15   16 1     
   33   16   17 1     
   34   16   36 1     
   35   16   37 1     
   36   17   18 1     
   37   17   38 1     
   38   17   39 1     
   39   18   19 1     
   40   19   20 1     
   41   19   40 1     
   42   19   41 1     
   43   20   42 1     
   44   20   43 1     
   45    3   44 1     
   46    4   45 1     
   47    4   46 1     
   48   10   47 1     
   49   10   48 1     
   50   15   49 1     
   51   18   50 1     
   52   18   51 1     
@<TRIPOS>SUBSTRUCTURE
      1 S1             1
@<TRIPOS>SET
LONE_PAIRS      STATIC     ATOMS    <user>   **** ""
8 44 45 46 47 48 49 50 51
DONOR_HYDROGENS      STATIC     ATOMS    <user>   **** ""
1 29
ATOM$BLUE        STATIC     ATOMS    COLORGROUP SYSTEM
8 44 45 46 47 48 49 50 51
ATOM$RED        STATIC     ATOMS    COLORGROUP SYSTEM
1 29
