AV-unprocessed.smi:2515|AV-procd|sdf|9897|dock1
  -GOLD-   2272013533D 1   1.00000     0.00000
 Structure written by MMmdl.
 36 37  0  0  0  0  0  0  0  0  1 V2000
  151.7367  141.4455  158.1019 N   0  0  0  0  0  0  0  0  0  0  0  0
  151.3924  140.5906  157.4026 C   0  0  0  0  0  0  0  0  0  0  0  0
  150.9695  139.5352  156.5452 C   0  0  0  0  0  0  0  0  0  0  0  0
  150.6843  139.7484  155.1975 N   0  0  0  0  0  0  0  0  0  0  0  0
  150.3319  138.5554  154.7256 C   0  0  0  0  0  0  0  0  0  0  0  0
  149.9733  138.3033  153.4097 N   0  0  0  0  0  0  0  0  0  0  0  0
  150.3514  137.5669  155.6416 N   0  0  0  0  0  0  0  0  0  0  0  0
  150.0293  136.1569  155.4590 C   0  0  0  0  0  0  0  0  0  0  0  0
  148.5634  135.9664  155.0351 C   0  0  0  0  0  0  0  0  0  0  0  0
  148.4440  135.0026  153.9485 N   0  0  0  0  0  0  0  0  0  0  0  0
  148.1536  133.7019  154.1081 C   0  0  0  0  0  0  0  0  0  0  0  0
  147.9606  133.1894  155.2114 O   0  0  0  0  0  0  0  0  0  0  0  0
  148.0620  132.8596  152.8236 C   0  0  0  0  0  0  0  0  0  0  0  0
  146.9899  133.3861  151.8570 C   0  0  0  0  0  0  0  0  0  0  0  0
  145.6829  132.6651  152.2178 C   0  0  0  0  0  0  0  0  0  0  0  0
  146.0750  131.4368  153.0514 C   0  0  0  0  0  0  0  0  0  0  0  0
  147.6076  131.4190  153.1007 C   0  0  0  0  0  0  0  0  0  0  0  0
  150.7680  138.1976  156.8107 C   0  0  0  0  0  0  0  0  0  0  0  0
  150.9534  137.5502  158.0510 C   0  0  0  0  0  0  0  0  0  0  0  0
  151.1062  137.0208  159.0679 N   0  0  0  0  0  0  0  0  0  0  0  0
  149.9615  139.0400  152.7189 H   0  0  0  0  0  0  0  0  0  0  0  0
  149.7023  137.3807  153.1014 H   0  0  0  0  0  0  0  0  0  0  0  0
  150.7052  135.7400  154.7115 H   0  0  0  0  0  0  0  0  0  0  0  0
  150.2339  135.6154  156.3831 H   0  0  0  0  0  0  0  0  0  0  0  0
  147.9748  135.6075  155.8798 H   0  0  0  0  0  0  0  0  0  0  0  0
  148.1232  136.9190  154.7342 H   0  0  0  0  0  0  0  0  0  0  0  0
  148.5899  135.3468  153.0105 H   0  0  0  0  0  0  0  0  0  0  0  0
  149.0387  132.8585  152.3367 H   0  0  0  0  0  0  0  0  0  0  0  0
  146.8776  134.4710  151.8935 H   0  0  0  0  0  0  0  0  0  0  0  0
  147.2744  133.1320  150.8351 H   0  0  0  0  0  0  0  0  0  0  0  0
  145.0368  133.3199  152.8043 H   0  0  0  0  0  0  0  0  0  0  0  0
  145.1305  132.3836  151.3207 H   0  0  0  0  0  0  0  0  0  0  0  0
  145.6699  131.5334  154.0596 H   0  0  0  0  0  0  0  0  0  0  0  0
  145.6777  130.5126  152.6303 H   0  0  0  0  0  0  0  0  0  0  0  0
  147.9886  130.7664  152.3141 H   0  0  0  0  0  0  0  0  0  0  0  0
  147.9802  131.0269  154.0484 H   0  0  0  0  0  0  0  0  0  0  0  0
  1  2  3  0  0  0  0
  2  3  1  0  0  0  0
  3 18  2  0  0  0  0
  3  4  1  0  0  0  0
  4  5  2  0  0  0  0
  5  6  1  0  0  0  0
  5  7  1  0  0  0  0
  6 21  1  0  0  0  0
  6 22  1  0  0  0  0
  7  8  1  0  0  0  0
  7 18  1  0  0  0  0
  8  9  1  0  0  0  0
  8 23  1  0  0  0  0
  8 24  1  0  0  0  0
  9 10  1  0  0  0  0
  9 25  1  0  0  0  0
  9 26  1  0  0  0  0
 10 11  1  0  0  0  0
 10 27  1  0  0  0  0
 11 12  2  0  0  0  0
 11 13  1  0  0  0  0
 13 17  1  0  0  0  0
 13 14  1  0  0  0  0
 13 28  1  0  0  0  0
 14 15  1  0  0  0  0
 14 29  1  0  0  0  0
 14 30  1  0  0  0  0
 15 16  1  0  0  0  0
 15 31  1  0  0  0  0
 15 32  1  0  0  0  0
 16 17  1  0  0  0  0
 16 33  1  0  0  0  0
 16 34  1  0  0  0  0
 17 35  1  0  0  0  0
 17 36  1  0  0  0  0
 18 19  1  0  0  0  0
 19 20  3  0  0  0  0
M  END
> <s_m_source_file>
AV-unprocessed.smi

> <i_m_source_file_index>
2515

> <i_lp_mmshare_version>
43012

> <i_f3d_flags>
0

> <s_epik_input>
TiNDYzFuYyhbTkgyXSluKGMxQyNOKVtDSDJdW0NIMl1bTkhdQyg9TylbQ0hdMltDSDJdW0NIMl1bQ0gyXVtDSDJdMg==

> <s_epik_cmdline>
J2VwaWtfcHl0aG9uJywgJy1waCcsICc3LjAnLCAnLXRuJywgJzgnLCAnLW1hJywgJzIwMCcsICctbWV0YWxfYmluZGluZycsICctaW1hZScsICc8aW5maWxlLm1hZT4nLCAnLW9tYWUnLCAnPG91dGZpbGUubWFlPic=

> <r_lp_tautomer_probability>
1

> <r_epik_Ionization_Penalty>
0.000275801

> <r_epik_Ionization_Penalty_Charging>
2.18328e-09

> <r_epik_Ionization_Penalty_Neutral>
0.000275798

> <r_epik_State_Penalty>
-0

> <r_epik_Charging_Adjusted_Penalty>
2.18328e-09

> <i_epik_Tot_Q>
0

> <i_epik_Tot_abs_Q>
0

> <r_epik_Metal_State_Penalty>
-0

> <b_epik_Metal_Only>
0

> <s_lp_Force_Field>
OPLS_2005

> <r_lp_Energy>
23.1048

> <b_lp_Chiralities_Consistent>
1

> <s_lp_Variant>
AV-unprocessed.smi:2515-1

> <Gold.Version>
5.8.1

> <Gold.Id.Protein>
6NUR|6NUR_protein|mol2

> <Gold.PLP.Fitness>
39.9029

> <Gold.PLP.PLP>
-26.9043

> <Gold.PLP.part.hbond>
-4.9788

> <Gold.PLP.part.metal>
0.0000

> <Gold.PLP.part.buried>
-3.6617

> <Gold.PLP.part.nonpolar>
-18.8340

> <Gold.PLP.part.repulsive>
0.1378

> <Gold.PLP.ligand.clash>
0.0000

> <Gold.PLP.ligand.torsion>
0.5114

> <Gold.PLP.Chemscore.Hbond>
4.6495

> <Gold.PLP.Chemscore.CHOScore>
0.0000

> <Gold.PLP.Chemscore.Metal>
0.0000

> <Gold.Chemscore.Hbonds>
donor molecule, donor type, donor heavy atom, donor atom, acceptor molecule, acceptor atom, score
      L1  H     6    21       P1  7957  1.00
      L1  H     6    22       P1  7948  1.00
      L1  H    10    27       P1  7948  0.84
      P1  H  6896  6907       L1    20  0.88
      P1  H  7989  7998       L1     4  0.46

> <Gold.PLP.Chemscore.Internal.Correction>
0.0728

> <Gold.Rescore>
     Score         DG    S(hbond)    S(metal)    S(lipo)     H(rot)  DE(clash)    DE(int)     intcor
     17.09     -17.60       3.89        0.00      41.28       2.23       0.01       0.50       ----

> <Gold.Chemscore.Fitness>
17.0866

> <Gold.Chemscore.DG>
-17.6037

> <Gold.Chemscore.ZeroCoef>
-5.4800

> <Gold.Chemscore.Hbond>
3.8904

> <Gold.Chemscore.Metal>
0.0000

> <Gold.Chemscore.Lipo>
41.2835

> <Gold.Chemscore.Internal_Hbond>
0.0000

> <Gold.Chemscore.DEClash>
0.0126

> <Gold.Chemscore.DEInternal>
0.5045

> <Gold.Chemscore.Rot>
2.2267

> <Gold.Chemscore.Internal.Correction>
   9.000000E+99

> <Gold.Chemscore.Hbonds>
donor molecule, donor type, donor heavy atom, donor atom, acceptor molecule, acceptor atom, score
      L1  H     6    21       P1  7957  0.78
      L1  H     6    22       P1  7948  0.58
      L1  H    10    27       P1  7948  0.72
      P1  H  6896  6907       L1    20  0.83
      P1  H  7989  7998       L1     4  0.28

> <Gold.Chemscore.Hbond.Weighted>
-12.9939

> <Gold.Chemscore.Metal.Weighted>
-0.0000

> <Gold.Chemscore.Lipo.Weighted>
-4.8302

> <Gold.Chemscore.Internal_Hbond.Weighted>
0.0000

> <Gold.Chemscore.DEClash.Weighted>
0.0126

> <Gold.Chemscore.DEInternal.Weighted>
0.5045

> <Gold.Chemscore.Rot.Weighted>
5.7004

> <Gold.Chemscore.Internal.Correction.Weighted>
   9.000000E+99

> <Gold.Protein.RotatedTorsions>
[ 6907 6896 6895 6894 ] final   -5.99 input  -60.11 | X-H torsion
[ 7974 7965 7964 7962 ] final -172.11 input  175.53 | X-H torsion
[ 8008 7997 7996 7995 ] final -126.56 input   59.86 | X-H torsion
[ 10167 10162 10161 10158 ] final   78.61 input  -65.29 | X-H torsion
[ 10718 10713 10712 10709 ] final   72.88 input   66.30 | X-H torsion
[ 10763 10752 10751 10750 ] final   -3.64 input  -60.55 | X-H torsion
[ 11005 11000 10999 10996 ] final -154.99 input  -57.11 | X-H torsion

> <Gold.Protein.ActiveResidues>
 VAL166  LYS551  ARG553  GLY616  TRP617  ASP618  TYR619  PRO620  LYS621  CYS622 
 ASP623  PHE694  ASN695  SER759  ASP760  ASP761  ALA762  ILE779  LEU786  VAL792 
 PHE793  MET794  SER795  GLU796  ALA797  LYS798  CYS799  TRP800  GLU811  SER814 

> <Gold.Protein.RotatedAtoms>
  151.4727  135.1047  159.9755 H   0  0  0  0  0  0  0  0  0  0  0  0  # atno 6907 bound_to 6896
  152.4810  133.8251  159.7084 H   0  0  0  0  0  0  0  0  0  0  0  0  # atno 6908 bound_to 6896
  150.8882  133.7218  159.2939 H   0  0  0  0  0  0  0  0  0  0  0  0  # atno 6909 bound_to 6896
  144.7149  140.1821  143.6357 H   0  0  0  0  0  0  0  0  0  0  0  0  # atno 7974 bound_to 7965
  155.2317  140.0425  157.2963 H   0  0  0  0  0  0  0  0  0  0  0  0  # atno 8008 bound_to 7997
  154.5884  140.2420  155.7925 H   0  0  0  0  0  0  0  0  0  0  0  0  # atno 8009 bound_to 7997
  156.2242  140.2960  156.0035 H   0  0  0  0  0  0  0  0  0  0  0  0  # atno 8010 bound_to 7997
  139.9691  144.5907  150.8002 H   0  0  0  0  0  0  0  0  0  0  0  0  # atno 10167 bound_to 10162
  157.6522  130.9600  150.0990 H   0  0  0  0  0  0  0  0  0  0  0  0  # atno 10718 bound_to 10713
  153.3741  135.6996  153.6615 H   0  0  0  0  0  0  0  0  0  0  0  0  # atno 10763 bound_to 10752
  153.5254  135.3603  155.2651 H   0  0  0  0  0  0  0  0  0  0  0  0  # atno 10764 bound_to 10752
  154.8685  135.4168  154.3025 H   0  0  0  0  0  0  0  0  0  0  0  0  # atno 10765 bound_to 10752
  140.6913  134.4038  157.5219 H   0  0  0  0  0  0  0  0  0  0  0  0  # atno 11005 bound_to 11000
  145.8846  139.2342  143.1585 LP  0  0  0  0  0  0  0  0  0  0  0  0  # atno 17320 bound_to 7965
  145.9962  140.8560  143.0041 LP  0  0  0  0  0  0  0  0  0  0  0  0  # atno 17321 bound_to 7965
  140.7528  143.2996  151.3114 LP  0  0  0  0  0  0  0  0  0  0  0  0  # atno 17342 bound_to 10162
  139.6495  144.0389  152.2615 LP  0  0  0  0  0  0  0  0  0  0  0  0  # atno 17343 bound_to 10162
  156.1918  130.3655  149.8900 LP  0  0  0  0  0  0  0  0  0  0  0  0  # atno 17370 bound_to 10713
  156.6826  130.8864  151.3578 LP  0  0  0  0  0  0  0  0  0  0  0  0  # atno 17371 bound_to 10713
  139.8923  134.8759  156.2279 LP  0  0  0  0  0  0  0  0  0  0  0  0  # atno 17394 bound_to 11000
  141.0239  133.7026  156.1315 LP  0  0  0  0  0  0  0  0  0  0  0  0  # atno 17395 bound_to 11000

$$$$
