#       Name:                AV-unprocessed.smi:767
#       Creating user name   scv26
#       Creation time:       Fri Mar 27 01:07:11 2020


#       File generated by GOLD software.
#

@<TRIPOS>MOLECULE
AV-unprocessed.smi:767
    52    54     1
SMALL
NO_CHARGES


@<TRIPOS>ATOM
      1 ****        -8.1122   0.7118   0.8843 C.3            1 S1                 0.0000
      2 ****        -6.6007   0.6785   0.9735 C.ar           1 S1                 0.0000
      3 ****        -5.9484   0.6847   2.2246 C.ar           1 S1                 0.0000
      4 ****        -4.5406   0.6540   2.2466 C.ar           1 S1                 0.0000
      5 ****        -3.8419   0.6189   1.0226 C.ar           1 S1                 0.0000
      6 ****        -2.3270   0.5775   0.9920 C.3            1 S1                 0.0000
      7 ****        -1.7897  -0.8613   1.0501 C.3            1 S1                 0.0000
      8 ****        -0.3323  -0.8894   1.0431 N.am           1 S1                 0.0000
      9 ****         0.4312  -0.7893  -0.0537 C.2            1 S1                 0.0000
     10 ****        -0.0124  -0.6598  -1.1949 O.2            1 S1                 0.0000
     11 ****         1.7363  -0.8425   0.2423 N.am           1 S1                 0.0000
     12 ****         2.8071  -0.7660  -0.7462 C.3            1 S1                 0.0000
     13 ****         4.1978  -0.9637  -0.1233 C.3            1 S1                 0.0000
     14 ****         5.0174  -2.1711  -0.4891 C.3            1 S1                 0.0000
     15 ****         5.9150  -1.6464  -1.6136 C.3            1 S1                 0.0000
     16 ****         5.2277  -0.5045  -2.1205 O.3            1 S1                 0.0000
     17 ****         4.6612   0.1837  -1.0079 C.3            1 S1                 0.0000
     18 ****         3.2056   0.6730  -1.1631 C.3            1 S1                 0.0000
     19 ****         2.7914   1.1068  -2.5699 C.3            1 S1                 0.0000
     20 ****         2.8225   1.8189  -0.2155 C.3            1 S1                 0.0000
     21 ****        -4.5897   0.6146  -0.1738 C.ar           1 S1                 0.0000
     22 ****        -5.9395   0.6437  -0.2046 N.ar           1 S1                 0.0000
     23 ****        -8.5673   0.7245   1.8751 H              1 S1                 0.0000
     24 ****        -8.4807  -0.1656   0.3523 H              1 S1                 0.0000
     25 ****        -8.4402   1.6027   0.3482 H              1 S1                 0.0000
     26 ****        -6.5102   0.7116   3.1468 H              1 S1                 0.0000
     27 ****        -4.0089   0.6552   3.1868 H              1 S1                 0.0000
     28 ****        -1.9789   1.0762   0.0863 H              1 S1                 0.0000
     29 ****        -1.9391   1.1572   1.8309 H              1 S1                 0.0000
     30 ****        -2.1316  -1.3492   1.9632 H              1 S1                 0.0000
     31 ****        -2.1794  -1.4498   0.2177 H              1 S1                 0.0000
     32 ****         0.1260  -0.9936   1.9364 H              1 S1                 0.0000
     33 ****         2.0078  -0.9512   1.2083 H              1 S1                 0.0000
     34 ****         2.6549  -1.4184  -1.6092 H              1 S1                 0.0000
     35 ****         4.2301  -0.6927   0.9337 H              1 S1                 0.0000
     36 ****         5.6034  -2.5508   0.3483 H              1 S1                 0.0000
     37 ****         4.3799  -2.9804  -0.8461 H              1 S1                 0.0000
     38 ****         6.8811  -1.3308  -1.2170 H              1 S1                 0.0000
     39 ****         6.0914  -2.3880  -2.3930 H              1 S1                 0.0000
     40 ****         5.3534   0.8717  -0.5202 H              1 S1                 0.0000
     41 ****         3.3264   2.0027  -2.8861 H              1 S1                 0.0000
     42 ****         1.7237   1.3213  -2.6242 H              1 S1                 0.0000
     43 ****         2.9983   0.3309  -3.3074 H              1 S1                 0.0000
     44 ****         3.3350   2.7436  -0.4827 H              1 S1                 0.0000
     45 ****         3.0877   1.5955   0.8183 H              1 S1                 0.0000
     46 ****         1.7511   2.0214  -0.2394 H              1 S1                 0.0000
     47 ****        -4.0926   0.5847  -1.1322 H              1 S1                 0.0000
     48 ****        -1.0002  -0.6236  -1.3462 LP             1 S1                 0.0000
     49 ****         0.6151  -0.5908  -1.9704 LP             1 S1                 0.0000
     50 ****         4.5044  -0.7922  -2.7482 LP             1 S1                 0.0000
     51 ****         5.8683   0.0937  -2.6018 LP             1 S1                 0.0000
     52 ****        -6.4350   0.6396  -1.0732 LP             1 S1                 0.0000
@<TRIPOS>BOND
    1    1    2 1     
    2    1   23 1     
    3    1   24 1     
    4    1   25 1     
    5    2   22 ar    
    6    2    3 ar    
    7    3    4 ar    
    8    3   26 1     
    9    4    5 ar    
   10    4   27 1     
   11    5    6 1     
   12    5   21 ar    
   13    6    7 1     
   14    6   28 1     
   15    6   29 1     
   16    7    8 1     
   17    7   30 1     
   18    7   31 1     
   19    8    9 am    
   20    8   32 1     
   21    9   10 2     
   22    9   11 am    
   23   11   12 1     
   24   11   33 1     
   25   12   18 1     
   26   12   13 1     
   27   12   34 1     
   28   13   17 1     
   29   13   14 1     
   30   13   35 1     
   31   14   15 1     
   32   14   36 1     
   33   14   37 1     
   34   15   16 1     
   35   15   38 1     
   36   15   39 1     
   37   16   17 1     
   38   17   18 1     
   39   17   40 1     
   40   18   19 1     
   41   18   20 1     
   42   19   41 1     
   43   19   42 1     
   44   19   43 1     
   45   20   44 1     
   46   20   45 1     
   47   20   46 1     
   48   21   22 ar    
   49   21   47 1     
   50   10   48 1     
   51   10   49 1     
   52   16   50 1     
   53   16   51 1     
   54   22   52 1     
@<TRIPOS>SUBSTRUCTURE
      1 S1             1
@<TRIPOS>SET
LONE_PAIRS      STATIC     ATOMS    <user>   **** ""
5 48 49 50 51 52
DONOR_HYDROGENS      STATIC     ATOMS    <user>   **** ""
2 32 33
ATOM$BLUE        STATIC     ATOMS    COLORGROUP SYSTEM
5 48 49 50 51 52
ATOM$RED        STATIC     ATOMS    COLORGROUP SYSTEM
2 32 33
