AV-unprocessed.smi:270|AV-procd|sdf|2045|dock9
  -GOLD-   2262021273D 1   1.00000     0.00000
 Structure written by MMmdl.
 54 57  0  0  0  0  0  0  0  0  1 V2000
  143.2455  132.6794  151.5517 C   0  0  0  0  0  0  0  0  0  0  0  0
  144.5421  133.1207  150.8550 C   0  0  2  0  0  0  0  0  0  0  0  0
  145.3813  131.9740  150.7415 O   0  0  0  0  0  0  0  0  0  0  0  0
  146.7349  132.3874  150.8013 C   0  0  0  0  0  0  0  0  0  0  0  0
  146.7005  133.4642  151.8746 C   0  0  0  0  0  0  0  0  0  0  0  0
  145.3957  134.1993  151.5811 C   0  0  1  0  0  0  0  0  0  0  0  0
  145.6783  135.2249  150.6429 O   0  0  0  0  0  0  0  0  0  0  0  0
  144.7580  134.8591  152.8323 C   0  0  0  0  0  0  0  0  0  0  0  0
  145.6855  135.6929  153.5827 N   0  0  0  0  0  0  0  0  0  0  0  0
  146.1938  135.4386  154.8361 C   0  0  0  0  0  0  0  0  0  0  0  0
  147.0127  136.3432  155.2982 N   0  0  0  0  0  0  0  0  0  0  0  0
  147.0792  137.2952  154.2871 C   0  0  0  0  0  0  0  0  0  0  0  0
  147.7799  138.5281  154.1386 C   0  0  0  0  0  0  0  0  0  0  0  0
  148.6613  139.0750  155.1156 N   0  0  0  0  0  0  0  0  0  0  0  0
  148.5708  140.5108  155.3374 C   0  0  0  0  0  0  0  0  0  0  0  0
  150.1022  140.5200  155.3827 C   0  0  0  0  0  0  0  0  0  0  0  0
  150.6401  140.5371  156.6958 O   0  0  0  0  0  0  0  0  0  0  0  0
  150.6613  141.8356  157.2664 C   0  0  0  0  0  0  0  0  0  0  0  0
  151.3857  141.7696  158.6159 C   0  0  0  0  0  0  0  0  0  0  0  0
  151.3164  140.7241  159.2634 O   0  0  0  0  0  0  0  0  0  0  0  0
  152.0791  142.8492  159.0478 N   0  0  0  0  0  0  0  0  0  0  0  0
  152.1398  144.1130  158.3076 C   0  0  0  0  0  0  0  0  0  0  0  0
  152.8016  142.8156  160.3222 C   0  0  0  0  0  0  0  0  0  0  0  0
  150.0826  139.1096  154.7915 C   0  0  0  0  0  0  0  0  0  0  0  0
  147.6105  139.1759  152.9544 N   0  0  0  0  0  0  0  0  0  0  0  0
  146.8069  138.6863  152.0062 C   0  0  0  0  0  0  0  0  0  0  0  0
  146.0859  137.5655  152.0231 N   0  0  0  0  0  0  0  0  0  0  0  0
  146.2571  136.8926  153.1954 C   0  0  0  0  0  0  0  0  0  0  0  0
  142.5496  133.5109  151.6639 H   0  0  0  0  0  0  0  0  0  0  0  0
  143.4434  132.2627  152.5395 H   0  0  0  0  0  0  0  0  0  0  0  0
  142.7405  131.9090  150.9688 H   0  0  0  0  0  0  0  0  0  0  0  0
  144.2934  133.4492  149.8440 H   0  0  0  0  0  0  0  0  0  0  0  0
  147.3988  131.5601  151.0528 H   0  0  0  0  0  0  0  0  0  0  0  0
  147.0400  132.7987  149.8378 H   0  0  0  0  0  0  0  0  0  0  0  0
  146.6473  132.9805  152.8505 H   0  0  0  0  0  0  0  0  0  0  0  0
  147.5821  134.1069  151.8694 H   0  0  0  0  0  0  0  0  0  0  0  0
  146.0066  134.8248  149.8522 H   0  0  0  0  0  0  0  0  0  0  0  0
  143.9037  135.4743  152.5466 H   0  0  0  0  0  0  0  0  0  0  0  0
  144.3751  134.0980  153.5125 H   0  0  0  0  0  0  0  0  0  0  0  0
  145.9328  134.5567  155.4027 H   0  0  0  0  0  0  0  0  0  0  0  0
  148.1680  141.0580  154.4837 H   0  0  0  0  0  0  0  0  0  0  0  0
  148.0802  140.7739  156.2748 H   0  0  0  0  0  0  0  0  0  0  0  0
  150.5610  141.2492  154.7127 H   0  0  0  0  0  0  0  0  0  0  0  0
  151.1918  142.5200  156.6020 H   0  0  0  0  0  0  0  0  0  0  0  0
  149.6549  142.2348  157.3959 H   0  0  0  0  0  0  0  0  0  0  0  0
  152.6767  143.9824  157.3674 H   0  0  0  0  0  0  0  0  0  0  0  0
  152.6497  144.8983  158.8663 H   0  0  0  0  0  0  0  0  0  0  0  0
  151.1408  144.4888  158.0843 H   0  0  0  0  0  0  0  0  0  0  0  0
  152.1046  142.9382  161.1521 H   0  0  0  0  0  0  0  0  0  0  0  0
  153.5512  143.6040  160.3948 H   0  0  0  0  0  0  0  0  0  0  0  0
  153.3292  141.8702  160.4587 H   0  0  0  0  0  0  0  0  0  0  0  0
  150.6746  138.3784  155.3423 H   0  0  0  0  0  0  0  0  0  0  0  0
  150.2962  139.1026  153.7215 H   0  0  0  0  0  0  0  0  0  0  0  0
  146.7334  139.2766  151.1047 H   0  0  0  0  0  0  0  0  0  0  0  0
  1  2  1  0  0  0  0
  1 29  1  0  0  0  0
  1 30  1  0  0  0  0
  1 31  1  0  0  0  0
  2  6  1  0  0  0  0
  2  3  1  0  0  0  0
  2 32  1  0  0  0  0
  3  4  1  0  0  0  0
  4  5  1  0  0  0  0
  4 33  1  0  0  0  0
  4 34  1  0  0  0  0
  5  6  1  0  0  0  0
  5 35  1  0  0  0  0
  5 36  1  0  0  0  0
  6  7  1  0  0  0  0
  6  8  1  0  0  0  0
  7 37  1  0  0  0  0
  8  9  1  0  0  0  0
  8 38  1  0  0  0  0
  8 39  1  0  0  0  0
  9 28  1  0  0  0  0
  9 10  1  0  0  0  0
 10 11  2  0  0  0  0
 10 40  1  0  0  0  0
 11 12  1  0  0  0  0
 12 28  2  0  0  0  0
 12 13  1  0  0  0  0
 13 14  1  0  0  0  0
 13 25  2  0  0  0  0
 14 24  1  0  0  0  0
 14 15  1  0  0  0  0
 15 16  1  0  0  0  0
 15 41  1  0  0  0  0
 15 42  1  0  0  0  0
 16 17  1  0  0  0  0
 16 24  1  0  0  0  0
 16 43  1  0  0  0  0
 17 18  1  0  0  0  0
 18 19  1  0  0  0  0
 18 44  1  0  0  0  0
 18 45  1  0  0  0  0
 19 20  2  0  0  0  0
 19 21  1  0  0  0  0
 21 22  1  0  0  0  0
 21 23  1  0  0  0  0
 22 46  1  0  0  0  0
 22 47  1  0  0  0  0
 22 48  1  0  0  0  0
 23 49  1  0  0  0  0
 23 50  1  0  0  0  0
 23 51  1  0  0  0  0
 24 52  1  0  0  0  0
 24 53  1  0  0  0  0
 25 26  1  0  0  0  0
 26 27  2  0  0  0  0
 26 54  1  0  0  0  0
 27 28  1  0  0  0  0
M  END
> <s_m_source_file>
AV-unprocessed.smi

> <i_m_source_file_index>
270

> <i_lp_mmshare_version>
43012

> <i_f3d_flags>
0

> <s_epik_input>
W0NIMl0xW0NIMl1PW0NAQEhdKFtDSDNdKVtDQEBdMShbT0hdKVtDSDJdbihbY0hdbjIpYyhjMjMpbltjSF1uYzNONFtDSDJdW0NIXShbQ0gyXTQpT1tDSDJdQyg9TylOKFtDSDNdKVtDSDNd

> <s_epik_cmdline>
J2VwaWtfcHl0aG9uJywgJy1waCcsICc3LjAnLCAnLXRuJywgJzgnLCAnLW1hJywgJzIwMCcsICctbWV0YWxfYmluZGluZycsICctaW1hZScsICc8aW5maWxlLm1hZT4nLCAnLW9tYWUnLCAnPG91dGZpbGUubWFlPic=

> <r_lp_tautomer_probability>
1

> <r_epik_Ionization_Penalty>
0.00375854

> <r_epik_Ionization_Penalty_Charging>
0

> <r_epik_Ionization_Penalty_Neutral>
0.00375854

> <r_epik_State_Penalty>
-0

> <r_epik_Charging_Adjusted_Penalty>
0

> <i_epik_Tot_Q>
0

> <i_epik_Tot_abs_Q>
0

> <r_epik_Metal_State_Penalty>
-0

> <b_epik_Metal_Only>
0

> <s_lp_Force_Field>
OPLS_2005

> <r_lp_Energy>
54.2687

> <b_lp_Chiralities_Consistent>
1

> <s_lp_Variant>
AV-unprocessed.smi:270-1

> <Gold.Version>
5.8.1

> <Gold.Id.Protein>
6NUR|6NUR_protein|mol2

> <Gold.PLP.Fitness>
43.4523

> <Gold.PLP.PLP>
-41.9178

> <Gold.PLP.part.hbond>
-1.0000

> <Gold.PLP.part.metal>
0.0000

> <Gold.PLP.part.buried>
-4.3065

> <Gold.PLP.part.nonpolar>
-39.8761

> <Gold.PLP.part.repulsive>
3.1157

> <Gold.PLP.ligand.clash>
0.0000

> <Gold.PLP.ligand.torsion>
0.9100

> <Gold.PLP.Chemscore.Hbond>
0.9913

> <Gold.PLP.Chemscore.CHOScore>
0.0000

> <Gold.PLP.Chemscore.Metal>
0.0000

> <Gold.Chemscore.Hbonds>
donor molecule, donor type, donor heavy atom, donor atom, acceptor molecule, acceptor atom, score
      L1  H     7    37       P1  7921  0.53
      L1  C    26    54       P1  7957  0.01

> <Gold.PLP.Chemscore.Internal.Correction>
0.3807

> <Gold.Rescore>
     Score         DG    S(hbond)    S(metal)    S(lipo)     H(rot)  DE(clash)    DE(int)     intcor
      8.77     -10.73       0.95        0.00      86.11       3.12       0.90       1.07       ----

> <Gold.Chemscore.Fitness>
8.7683

> <Gold.Chemscore.DG>
-10.7312

> <Gold.Chemscore.ZeroCoef>
-5.4800

> <Gold.Chemscore.Hbond>
0.9499

> <Gold.Chemscore.Metal>
0.0000

> <Gold.Chemscore.Lipo>
86.1055

> <Gold.Chemscore.Internal_Hbond>
0.0000

> <Gold.Chemscore.DEClash>
0.8971

> <Gold.Chemscore.DEInternal>
1.0657

> <Gold.Chemscore.Rot>
3.1234

> <Gold.Chemscore.Internal.Correction>
   9.000000E+99

> <Gold.Chemscore.Hbonds>
donor molecule, donor type, donor heavy atom, donor atom, acceptor molecule, acceptor atom, score
      L1  H     7    37       P1  7921  0.35

> <Gold.Chemscore.Hbond.Weighted>
-3.1727

> <Gold.Chemscore.Metal.Weighted>
-0.0000

> <Gold.Chemscore.Lipo.Weighted>
-10.0743

> <Gold.Chemscore.Internal_Hbond.Weighted>
0.0000

> <Gold.Chemscore.DEClash.Weighted>
0.8971

> <Gold.Chemscore.DEInternal.Weighted>
1.0657

> <Gold.Chemscore.Rot.Weighted>
7.9959

> <Gold.Chemscore.Internal.Correction.Weighted>
   9.000000E+99

> <Gold.Protein.RotatedTorsions>
[ 6907 6896 6895 6894 ] final  111.67 input  -60.11 | X-H torsion
[ 7974 7965 7964 7962 ] final  -92.97 input  175.53 | X-H torsion
[ 8008 7997 7996 7995 ] final  153.37 input   59.86 | X-H torsion
[ 10167 10162 10161 10158 ] final -128.82 input  -65.29 | X-H torsion
[ 10718 10713 10712 10709 ] final  142.74 input   66.30 | X-H torsion
[ 10763 10752 10751 10750 ] final  177.19 input  -60.55 | X-H torsion
[ 11005 11000 10999 10996 ] final   29.86 input  -57.11 | X-H torsion

> <Gold.Protein.ActiveResidues>
 VAL166  LYS551  ARG553  GLY616  TRP617  ASP618  TYR619  PRO620  LYS621  CYS622 
 ASP623  PHE694  ASN695  SER759  ASP760  ASP761  ALA762  ILE779  LEU786  VAL792 
 PHE793  MET794  SER795  GLU796  ALA797  LYS798  CYS799  TRP800  GLU811  SER814 

> <Gold.Protein.RotatedAtoms>
  152.4957  133.8625  159.7256 H   0  0  0  0  0  0  0  0  0  0  0  0  # atno 6907 bound_to 6896
  150.9133  133.6962  159.2856 H   0  0  0  0  0  0  0  0  0  0  0  0  # atno 6908 bound_to 6896
  151.4364  135.1019  159.9710 H   0  0  0  0  0  0  0  0  0  0  0  0  # atno 6909 bound_to 6896
  145.3928  140.9530  143.2331 H   0  0  0  0  0  0  0  0  0  0  0  0  # atno 7974 bound_to 7965
  156.2584  140.1995  156.6480 H   0  0  0  0  0  0  0  0  0  0  0  0  # atno 8008 bound_to 7997
  154.6558  140.0566  157.0032 H   0  0  0  0  0  0  0  0  0  0  0  0  # atno 8009 bound_to 7997
  155.1349  140.3237  155.4468 H   0  0  0  0  0  0  0  0  0  0  0  0  # atno 8010 bound_to 7997
  139.9463  143.6107  152.2489 H   0  0  0  0  0  0  0  0  0  0  0  0  # atno 10167 bound_to 10162
  157.3770  131.0987  151.0774 H   0  0  0  0  0  0  0  0  0  0  0  0  # atno 10718 bound_to 10713
  154.4912  135.2779  155.1495 H   0  0  0  0  0  0  0  0  0  0  0  0  # atno 10763 bound_to 10752
  154.3166  135.6218  153.5492 H   0  0  0  0  0  0  0  0  0  0  0  0  # atno 10764 bound_to 10752
  152.9888  135.5732  154.5334 H   0  0  0  0  0  0  0  0  0  0  0  0  # atno 10765 bound_to 10752
  140.3005  134.2762  155.7755 H   0  0  0  0  0  0  0  0  0  0  0  0  # atno 11005 bound_to 11000
  144.8428  139.5444  143.6892 LP  0  0  0  0  0  0  0  0  0  0  0  0  # atno 17320 bound_to 7965
  146.2789  139.6826  142.9243 LP  0  0  0  0  0  0  0  0  0  0  0  0  # atno 17321 bound_to 7965
  139.6664  144.7662  151.1865 LP  0  0  0  0  0  0  0  0  0  0  0  0  # atno 17342 bound_to 10162
  140.7596  143.5931  150.8776 LP  0  0  0  0  0  0  0  0  0  0  0  0  # atno 17343 bound_to 10162
  157.1857  130.6329  149.5687 LP  0  0  0  0  0  0  0  0  0  0  0  0  # atno 17370 bound_to 10713
  155.9767  130.4738  150.6548 LP  0  0  0  0  0  0  0  0  0  0  0  0  # atno 17371 bound_to 10713
  141.2129  133.7643  156.9759 LP  0  0  0  0  0  0  0  0  0  0  0  0  # atno 17394 bound_to 11000
  140.1114  134.9474  157.2070 LP  0  0  0  0  0  0  0  0  0  0  0  0  # atno 17395 bound_to 11000

$$$$
