#       Name:                AV-unprocessed.smi:925
#       Creating user name   scv26
#       Creation time:       Fri Mar 27 02:08:48 2020


#       File generated by GOLD software.
#

@<TRIPOS>MOLECULE
AV-unprocessed.smi:925
    33    34     1
SMALL
NO_CHARGES


@<TRIPOS>ATOM
      1 ****         2.0544   0.2915  -0.5210 O.2            1 S1                 0.0000
      2 ****         1.5209  -0.7808  -0.2271 C.2            1 S1                 0.0000
      3 ****         2.1528  -1.9581  -0.0162 N.pl3          1 S1                -1.0000
      4 ****         3.4904  -2.0297  -0.1177 C.2            1 S1                 0.0000
      5 ****         4.2957  -1.9838   0.9558 N.2            1 S1                 0.0000
      6 ****         5.6427  -2.0764   0.6323 N.2            1 S1                 0.0000
      7 ****         5.8189  -2.1990  -0.6831 C.2            1 S1                 0.0000
      8 ****         4.3561  -2.2165  -1.6454 S.3            1 S1                 0.0000
      9 ****         0.1888  -0.8512  -0.0888 N.am           1 S1                 0.0000
     10 ****        -0.7546   0.2514  -0.2567 C.3            1 S1                 0.0000
     11 ****        -0.8260   1.1079   1.0249 C.3            1 S1                 0.0000
     12 ****        -1.8731   2.2262   0.8972 C.3            1 S1                 0.0000
     13 ****        -3.2549   1.6592   0.5354 C.3            1 S1                 0.0000
     14 ****        -3.1880   0.8112  -0.7445 C.3            1 S1                 0.0000
     15 ****        -2.1436  -0.3096  -0.6163 C.3            1 S1                 0.0000
     16 ****         6.8158  -2.2830  -1.0889 H              1 S1                 0.0000
     17 ****        -0.2018  -1.7500   0.1534 H              1 S1                 0.0000
     18 ****        -0.4217   0.8806  -1.0846 H              1 S1                 0.0000
     19 ****        -1.0751   0.4750   1.8779 H              1 S1                 0.0000
     20 ****         0.1492   1.5458   1.2411 H              1 S1                 0.0000
     21 ****        -1.9334   2.7867   1.8305 H              1 S1                 0.0000
     22 ****        -1.5568   2.9349   0.1308 H              1 S1                 0.0000
     23 ****        -3.6267   1.0488   1.3593 H              1 S1                 0.0000
     24 ****        -3.9690   2.4730   0.4059 H              1 S1                 0.0000
     25 ****        -4.1677   0.3833  -0.9587 H              1 S1                 0.0000
     26 ****        -2.9366   1.4489  -1.5928 H              1 S1                 0.0000
     27 ****        -2.0897  -0.8692  -1.5511 H              1 S1                 0.0000
     28 ****        -2.4663  -1.0172   0.1491 H              1 S1                 0.0000
     29 ****         3.0476   0.3441  -0.6242 LP             1 S1                 0.0000
     30 ****         1.4937   1.1084  -0.6562 LP             1 S1                 0.0000
     31 ****         1.6243  -2.7749   0.2152 LP             1 S1                 0.0000
     32 ****         3.9594  -1.8922   1.8931 LP             1 S1                 0.0000
     33 ****         6.3859  -2.0540   1.3010 LP             1 S1                 0.0000
@<TRIPOS>BOND
    1    1    2 2     
    2    2    3 1     
    3    2    9 am    
    4    3    4 1     
    5    4    8 1     
    6    4    5 2     
    7    5    6 1     
    8    6    7 2     
    9    7    8 1     
   10    7   16 1     
   11    9   10 1     
   12    9   17 1     
   13   10   15 1     
   14   10   11 1     
   15   10   18 1     
   16   11   12 1     
   17   11   19 1     
   18   11   20 1     
   19   12   13 1     
   20   12   21 1     
   21   12   22 1     
   22   13   14 1     
   23   13   23 1     
   24   13   24 1     
   25   14   15 1     
   26   14   25 1     
   27   14   26 1     
   28   15   27 1     
   29   15   28 1     
   30    1   29 1     
   31    1   30 1     
   32    3   31 1     
   33    5   32 1     
   34    6   33 1     
@<TRIPOS>SUBSTRUCTURE
      1 S1             1
@<TRIPOS>SET
LONE_PAIRS      STATIC     ATOMS    <user>   **** ""
5 29 30 31 32 33
DONOR_HYDROGENS      STATIC     ATOMS    <user>   **** ""
1 17
ATOM$BLUE        STATIC     ATOMS    COLORGROUP SYSTEM
5 29 30 31 32 33
ATOM$RED        STATIC     ATOMS    COLORGROUP SYSTEM
1 17
