AV-unprocessed.smi:1961|AV-procd|sdf|7918|dock1
  -GOLD-   2272010 83D 1   1.00000     0.00000
 Structure written by MMmdl.
 36 37  0  0  0  0  0  0  0  0  1 V2000
  151.5581  143.7364  157.5125 C   0  0  0  0  0  0  0  0  0  0  0  0
  150.9261  142.4007  157.9306 C   0  0  0  0  0  0  0  0  0  0  0  0
  151.6737  141.7152  159.0841 C   0  0  0  0  0  0  0  0  0  0  0  0
  150.7224  141.4825  156.7654 C   0  0  0  0  0  0  0  0  0  0  0  0
  151.7353  140.9802  156.0462 N   0  0  0  0  0  0  0  0  0  0  0  0
  151.2970  140.1538  155.0211 N   0  0  0  0  0  0  0  0  0  0  0  0
  149.9610  140.0547  154.9958 C   0  0  0  0  0  0  0  0  0  0  0  0
  149.2451  139.2709  154.0524 N   0  0  0  0  0  0  0  0  0  0  0  0
  147.9718  139.4142  153.6447 C   0  0  0  0  0  0  0  0  0  0  0  0
  147.1863  140.2721  154.0484 O   0  0  0  0  0  0  0  0  0  0  0  0
  147.6501  138.4923  152.7260 N   0  0  0  0  0  0  0  0  0  0  0  0
  146.3482  138.3768  152.0771 C   0  0  0  0  0  0  0  0  0  0  0  0
  145.6942  137.0072  152.3296 C   0  0  2  0  0  0  0  0  0  0  0  0
  145.6545  136.0797  151.1128 C   0  0  0  0  0  0  0  0  0  0  0  0
  144.4101  135.2316  151.3379 C   0  0  0  0  0  0  0  0  0  0  0  0
  143.7247  135.8799  152.5429 C   0  0  0  0  0  0  0  0  0  0  0  0
  144.3209  137.1639  152.6475 O   0  0  0  0  0  0  0  0  0  0  0  0
  149.1226  140.9758  156.2324 S   0  0  0  0  0  0  0  0  0  0  0  0
  150.9563  144.2339  156.7513 H   0  0  0  0  0  0  0  0  0  0  0  0
  152.5591  143.5918  157.1046 H   0  0  0  0  0  0  0  0  0  0  0  0
  151.6411  144.4141  158.3627 H   0  0  0  0  0  0  0  0  0  0  0  0
  149.9319  142.6395  158.3103 H   0  0  0  0  0  0  0  0  0  0  0  0
  151.1502  140.8163  159.4114 H   0  0  0  0  0  0  0  0  0  0  0  0
  151.7607  142.3782  159.9454 H   0  0  0  0  0  0  0  0  0  0  0  0
  152.6818  141.4245  158.7863 H   0  0  0  0  0  0  0  0  0  0  0  0
  149.7682  138.5181  153.6301 H   0  0  0  0  0  0  0  0  0  0  0  0
  148.3552  137.8241  152.4518 H   0  0  0  0  0  0  0  0  0  0  0  0
  145.6893  139.1775  152.4169 H   0  0  0  0  0  0  0  0  0  0  0  0
  146.4896  138.5294  151.0068 H   0  0  0  0  0  0  0  0  0  0  0  0
  146.1832  136.5014  153.1645 H   0  0  0  0  0  0  0  0  0  0  0  0
  145.5391  136.6583  150.1952 H   0  0  0  0  0  0  0  0  0  0  0  0
  146.5623  135.4827  151.0199 H   0  0  0  0  0  0  0  0  0  0  0  0
  143.7670  135.2609  150.4577 H   0  0  0  0  0  0  0  0  0  0  0  0
  144.6555  134.1884  151.5397 H   0  0  0  0  0  0  0  0  0  0  0  0
  142.6432  135.9504  152.4248 H   0  0  0  0  0  0  0  0  0  0  0  0
  143.9322  135.3144  153.4528 H   0  0  0  0  0  0  0  0  0  0  0  0
  1  2  1  0  0  0  0
  1 19  1  0  0  0  0
  1 20  1  0  0  0  0
  1 21  1  0  0  0  0
  2  3  1  0  0  0  0
  2  4  1  0  0  0  0
  2 22  1  0  0  0  0
  3 23  1  0  0  0  0
  3 24  1  0  0  0  0
  3 25  1  0  0  0  0
  4 18  1  0  0  0  0
  4  5  2  0  0  0  0
  5  6  1  0  0  0  0
  6  7  2  0  0  0  0
  7  8  1  0  0  0  0
  7 18  1  0  0  0  0
  8  9  1  0  0  0  0
  8 26  1  0  0  0  0
  9 10  2  0  0  0  0
  9 11  1  0  0  0  0
 11 12  1  0  0  0  0
 11 27  1  0  0  0  0
 12 13  1  0  0  0  0
 12 28  1  0  0  0  0
 12 29  1  0  0  0  0
 13 17  1  0  0  0  0
 13 14  1  0  0  0  0
 13 30  1  0  0  0  0
 14 15  1  0  0  0  0
 14 31  1  0  0  0  0
 14 32  1  0  0  0  0
 15 16  1  0  0  0  0
 15 33  1  0  0  0  0
 15 34  1  0  0  0  0
 16 17  1  0  0  0  0
 16 35  1  0  0  0  0
 16 36  1  0  0  0  0
M  END
> <s_m_source_file>
AV-unprocessed.smi

> <i_m_source_file_index>
1961

> <i_lp_mmshare_version>
43012

> <i_f3d_flags>
0

> <s_epik_input>
W0NIM11bQ0hdKFtDSDNdKWMxbm5jKHMxKVtOSF1DKD1PKVtOSF1bQ0gyXVtDQEBIXTJbQ0gyXVtDSDJdW0NIMl1PMg==

> <s_epik_cmdline>
J2VwaWtfcHl0aG9uJywgJy1waCcsICc3LjAnLCAnLXRuJywgJzgnLCAnLW1hJywgJzIwMCcsICctbWV0YWxfYmluZGluZycsICctaW1hZScsICc8aW5maWxlLm1hZT4nLCAnLW9tYWUnLCAnPG91dGZpbGUubWFlPic=

> <r_lp_tautomer_probability>
1

> <r_epik_Ionization_Penalty>
0.000505257

> <r_epik_Ionization_Penalty_Charging>
0

> <r_epik_Ionization_Penalty_Neutral>
0.000505257

> <r_epik_State_Penalty>
-0

> <r_epik_Charging_Adjusted_Penalty>
0

> <i_epik_Tot_Q>
0

> <i_epik_Tot_abs_Q>
0

> <r_epik_Metal_State_Penalty>
0.219912

> <b_epik_Metal_Only>
0

> <s_lp_Force_Field>
OPLS_2005

> <r_lp_Energy>
10.186

> <b_lp_Chiralities_Consistent>
1

> <s_lp_Variant>
AV-unprocessed.smi:1961-1

> <Gold.Version>
5.8.1

> <Gold.Id.Protein>
6NUR|6NUR_protein|mol2

> <Gold.PLP.Fitness>
35.7385

> <Gold.PLP.PLP>
-31.2677

> <Gold.PLP.part.hbond>
-4.3735

> <Gold.PLP.part.metal>
0.0000

> <Gold.PLP.part.buried>
-2.7455

> <Gold.PLP.part.nonpolar>
-26.9372

> <Gold.PLP.part.repulsive>
1.2438

> <Gold.PLP.ligand.clash>
0.0000

> <Gold.PLP.ligand.torsion>
0.8142

> <Gold.PLP.Chemscore.Hbond>
2.0000

> <Gold.PLP.Chemscore.CHOScore>
0.0000

> <Gold.PLP.Chemscore.Metal>
0.0000

> <Gold.Chemscore.Hbonds>
donor molecule, donor type, donor heavy atom, donor atom, acceptor molecule, acceptor atom, score
      L1  H    11    27       P1  7948  1.00
      P1  H  7989  7998       L1     6  1.00

> <Gold.PLP.Chemscore.Internal.Correction>
0.0992

> <Gold.Rescore>
     Score         DG    S(hbond)    S(metal)    S(lipo)     H(rot)  DE(clash)    DE(int)     intcor
     14.11     -15.20       1.82        0.00      62.80       1.45       0.22       0.88       ----

> <Gold.Chemscore.Fitness>
14.1050

> <Gold.Chemscore.DG>
-15.1977

> <Gold.Chemscore.ZeroCoef>
-5.4800

> <Gold.Chemscore.Hbond>
1.8180

> <Gold.Chemscore.Metal>
0.0000

> <Gold.Chemscore.Lipo>
62.8003

> <Gold.Chemscore.Internal_Hbond>
0.0000

> <Gold.Chemscore.DEClash>
0.2163

> <Gold.Chemscore.DEInternal>
0.8763

> <Gold.Chemscore.Rot>
1.4461

> <Gold.Chemscore.Internal.Correction>
   9.000000E+99

> <Gold.Chemscore.Hbonds>
donor molecule, donor type, donor heavy atom, donor atom, acceptor molecule, acceptor atom, score
      L1  H    11    27       P1  7948  0.99
      P1  H  7989  7998       L1     6  0.29

> <Gold.Chemscore.Hbond.Weighted>
-6.0720

> <Gold.Chemscore.Metal.Weighted>
-0.0000

> <Gold.Chemscore.Lipo.Weighted>
-7.3476

> <Gold.Chemscore.Internal_Hbond.Weighted>
0.0000

> <Gold.Chemscore.DEClash.Weighted>
0.2163

> <Gold.Chemscore.DEInternal.Weighted>
0.8763

> <Gold.Chemscore.Rot.Weighted>
3.7019

> <Gold.Chemscore.Internal.Correction.Weighted>
   9.000000E+99

> <Gold.Protein.RotatedTorsions>
[ 6907 6896 6895 6894 ] final  129.35 input  -60.11 | X-H torsion
[ 7974 7965 7964 7962 ] final  -50.79 input  175.53 | X-H torsion
[ 8008 7997 7996 7995 ] final   87.68 input   59.86 | X-H torsion
[ 10167 10162 10161 10158 ] final  145.48 input  -65.29 | X-H torsion
[ 10718 10713 10712 10709 ] final   79.09 input   66.30 | X-H torsion
[ 10763 10752 10751 10750 ] final -126.52 input  -60.55 | X-H torsion
[ 11005 11000 10999 10996 ] final  -22.54 input  -57.11 | X-H torsion

> <Gold.Protein.ActiveResidues>
 VAL166  LYS551  ARG553  GLY616  TRP617  ASP618  TYR619  PRO620  LYS621  CYS622 
 ASP623  PHE694  ASN695  SER759  ASP760  ASP761  ALA762  ILE779  LEU786  VAL792 
 PHE793  MET794  SER795  GLU796  ALA797  LYS798  CYS799  TRP800  GLU811  SER814 

> <Gold.Protein.RotatedAtoms>
  152.3632  133.6323  159.6030 H   0  0  0  0  0  0  0  0  0  0  0  0  # atno 6907 bound_to 6896
  150.7615  133.9390  159.3459 H   0  0  0  0  0  0  0  0  0  0  0  0  # atno 6908 bound_to 6896
  151.7225  135.0892  160.0337 H   0  0  0  0  0  0  0  0  0  0  0  0  # atno 6909 bound_to 6896
  145.9260  140.7792  142.9623 H   0  0  0  0  0  0  0  0  0  0  0  0  # atno 7974 bound_to 7965
  155.9783  140.3379  155.6639 H   0  0  0  0  0  0  0  0  0  0  0  0  # atno 8008 bound_to 7997
  155.6582  140.0713  157.2581 H   0  0  0  0  0  0  0  0  0  0  0  0  # atno 8009 bound_to 7997
  154.4185  140.1713  156.1736 H   0  0  0  0  0  0  0  0  0  0  0  0  # atno 8010 bound_to 7997
  139.4925  144.5899  151.6703 H   0  0  0  0  0  0  0  0  0  0  0  0  # atno 10167 bound_to 10162
  157.6766  130.9898  150.1881 H   0  0  0  0  0  0  0  0  0  0  0  0  # atno 10718 bound_to 10713
  154.8746  135.3992  154.3445 H   0  0  0  0  0  0  0  0  0  0  0  0  # atno 10763 bound_to 10752
  153.4239  135.7023  153.6281 H   0  0  0  0  0  0  0  0  0  0  0  0  # atno 10764 bound_to 10752
  153.4931  135.3744  155.2472 H   0  0  0  0  0  0  0  0  0  0  0  0  # atno 10765 bound_to 10752
  140.8666  133.7750  156.0137 H   0  0  0  0  0  0  0  0  0  0  0  0  # atno 11005 bound_to 11000
  144.6758  140.2051  143.7383 LP  0  0  0  0  0  0  0  0  0  0  0  0  # atno 17320 bound_to 7965
  145.8488  139.2165  143.1784 LP  0  0  0  0  0  0  0  0  0  0  0  0  # atno 17321 bound_to 7965
  140.5523  144.0405  150.6132 LP  0  0  0  0  0  0  0  0  0  0  0  0  # atno 17342 bound_to 10162
  140.3463  143.2989  152.0535 LP  0  0  0  0  0  0  0  0  0  0  0  0  # atno 17343 bound_to 10162
  156.2599  130.3709  149.8142 LP  0  0  0  0  0  0  0  0  0  0  0  0  # atno 17370 bound_to 10713
  156.5890  130.8498  151.3403 LP  0  0  0  0  0  0  0  0  0  0  0  0  # atno 17371 bound_to 10713
  140.8621  134.2828  157.5229 LP  0  0  0  0  0  0  0  0  0  0  0  0  # atno 17394 bound_to 11000
  139.8709  134.9523  156.4112 LP  0  0  0  0  0  0  0  0  0  0  0  0  # atno 17395 bound_to 11000

$$$$
