AV-unprocessed.smi:1396|AV-procd|sdf|5678|dock4
  -GOLD-   22720 5303D 1   1.00000     0.00000
 Structure written by MMmdl.
 46 47  0  0  0  0  0  0  0  0  3 V2000
  144.6646  141.4862  159.6031 C   0  0  0  0  0  0  0  0  0  0  0  0
  144.1938  141.2174  158.2497 N   0  5  0  0  0  0  0  0  0  0  0  0
  144.4385  142.0372  157.1924 C   0  0  0  0  0  0  0  0  0  0  0  0
  144.9219  143.1734  157.1478 O   0  0  0  0  0  0  0  0  0  0  0  0
  143.9943  141.3879  155.8765 C   0  0  0  0  0  0  0  0  0  0  0  0
  145.1495  141.2483  154.9545 N   0  3  2  0  0  0  0  0  0  0  0  0
  146.2428  140.4025  155.5068 C   0  0  0  0  0  0  0  0  0  0  0  0
  147.3612  140.1897  154.4718 C   0  0  0  0  0  0  0  0  0  0  0  0
  147.9222  141.5250  153.9443 C   0  0  2  0  0  0  0  0  0  0  0  0
  148.6921  142.2346  154.9657 N   0  0  0  0  0  0  0  0  0  0  0  0
  149.6909  141.7092  155.6897 C   0  0  0  0  0  0  0  0  0  0  0  0
  150.0799  140.5482  155.5668 O   0  0  0  0  0  0  0  0  0  0  0  0
  150.2080  142.6174  156.5347 N   0  0  0  0  0  0  0  0  0  0  0  0
  151.2297  142.4361  157.5056 C   0  0  0  0  0  0  0  0  0  0  0  0
  151.8032  143.5838  158.0892 C   0  0  0  0  0  0  0  0  0  0  0  0
  152.7978  143.4302  159.0734 C   0  0  0  0  0  0  0  0  0  0  0  0
  153.1823  142.1288  159.4524 C   0  0  0  0  0  0  0  0  0  0  0  0
  154.1543  141.9829  160.4207 O   0  0  0  0  0  0  0  0  0  0  0  0
  154.5726  140.6666  160.7651 C   0  0  0  0  0  0  0  0  0  0  0  0
  152.6285  141.0182  158.9063 N   0  0  0  0  0  0  0  0  0  0  0  0
  151.6773  141.1718  157.9607 C   0  0  0  0  0  0  0  0  0  0  0  0
  146.7658  142.4026  153.4364 C   0  0  0  0  0  0  0  0  0  0  0  0
  145.6568  142.5653  154.4921 C   0  0  0  0  0  0  0  0  0  0  0  0
  144.2911  140.7505  160.3151 H   0  0  0  0  0  0  0  0  0  0  0  0
  144.3425  142.4609  159.9704 H   0  0  0  0  0  0  0  0  0  0  0  0
  145.7521  141.4643  159.6768 H   0  0  0  0  0  0  0  0  0  0  0  0
  143.5988  140.4028  156.1289 H   0  0  0  0  0  0  0  0  0  0  0  0
  143.1801  141.9298  155.3898 H   0  0  0  0  0  0  0  0  0  0  0  0
  146.6452  140.8670  156.4084 H   0  0  0  0  0  0  0  0  0  0  0  0
  145.8541  139.4287  155.8052 H   0  0  0  0  0  0  0  0  0  0  0  0
  148.1566  139.5797  154.9014 H   0  0  0  0  0  0  0  0  0  0  0  0
  146.9634  139.6146  153.6346 H   0  0  0  0  0  0  0  0  0  0  0  0
  148.5875  141.3207  153.1033 H   0  0  0  0  0  0  0  0  0  0  0  0
  148.4481  143.2002  155.1306 H   0  0  0  0  0  0  0  0  0  0  0  0
  149.8520  143.5583  156.4515 H   0  0  0  0  0  0  0  0  0  0  0  0
  151.4894  144.5723  157.7871 H   0  0  0  0  0  0  0  0  0  0  0  0
  153.2554  144.2945  159.5320 H   0  0  0  0  0  0  0  0  0  0  0  0
  155.3376  140.7224  161.5393 H   0  0  0  0  0  0  0  0  0  0  0  0
  155.0061  140.1482  159.9085 H   0  0  0  0  0  0  0  0  0  0  0  0
  153.7450  140.0758  161.1603 H   0  0  0  0  0  0  0  0  0  0  0  0
  151.2586  140.2497  157.5893 H   0  0  0  0  0  0  0  0  0  0  0  0
  147.1389  143.3807  153.1303 H   0  0  0  0  0  0  0  0  0  0  0  0
  146.3391  141.9482  152.5409 H   0  0  0  0  0  0  0  0  0  0  0  0
  144.8385  143.1424  154.0601 H   0  0  0  0  0  0  0  0  0  0  0  0
  146.0258  143.1329  155.3477 H   0  0  0  0  0  0  0  0  0  0  0  0
  144.7936  140.7741  154.1367 H   0  0  0  0  0  0  0  0  0  0  0  0
  1  2  1  0  0  0  0
  1 24  1  0  0  0  0
  1 25  1  0  0  0  0
  1 26  1  0  0  0  0
  2  3  1  0  0  0  0
  3  4  2  0  0  0  0
  3  5  1  0  0  0  0
  5  6  1  0  0  0  0
  5 27  1  0  0  0  0
  5 28  1  0  0  0  0
  6 23  1  0  0  0  0
  6  7  1  0  0  0  0
  6 46  1  0  0  0  0
  7  8  1  0  0  0  0
  7 29  1  0  0  0  0
  7 30  1  0  0  0  0
  8  9  1  0  0  0  0
  8 31  1  0  0  0  0
  8 32  1  0  0  0  0
  9 10  1  0  0  0  0
  9 22  1  0  0  0  0
  9 33  1  0  0  0  0
 10 11  1  0  0  0  0
 10 34  1  0  0  0  0
 11 12  2  0  0  0  0
 11 13  1  0  0  0  0
 13 14  1  0  0  0  0
 13 35  1  0  0  0  0
 14 21  1  0  0  0  0
 14 15  2  0  0  0  0
 15 16  1  0  0  0  0
 15 36  1  0  0  0  0
 16 17  2  0  0  0  0
 16 37  1  0  0  0  0
 17 18  1  0  0  0  0
 17 20  1  0  0  0  0
 18 19  1  0  0  0  0
 19 38  1  0  0  0  0
 19 39  1  0  0  0  0
 19 40  1  0  0  0  0
 20 21  2  0  0  0  0
 21 41  1  0  0  0  0
 22 23  1  0  0  0  0
 22 42  1  0  0  0  0
 22 43  1  0  0  0  0
 23 44  1  0  0  0  0
 23 45  1  0  0  0  0
M  CHG  1   2  -1
M  CHG  1   6   1
M  END
> <s_m_source_file>
AV-unprocessed.smi

> <i_m_source_file_index>
1396

> <i_lp_mmshare_version>
43012

> <i_f3d_flags>
0

> <s_epik_input>
W0NIM11bTkhdQyg9TylbQ0gyXU4xW0NIMl1bQ0gyXVtDSF0oW0NIMl1bQ0gyXTEpW05IXUMoPU8pW05IXWMyW2NIXVtjSF1jKE9bQ0gzXSluW2NIXTI=

> <s_epik_cmdline>
J2VwaWtfcHl0aG9uJywgJy1waCcsICc3LjAnLCAnLXRuJywgJzgnLCAnLW1hJywgJzIwMCcsICctbWV0YWxfYmluZGluZycsICctaW1hZScsICc8aW5maWxlLm1hZT4nLCAnLW9tYWUnLCAnPG91dGZpbGUubWFlPic=

> <r_lp_tautomer_probability>
1

> <r_epik_Ionization_Penalty>
6.13954

> <r_epik_Ionization_Penalty_Charging>
6.13946

> <r_epik_Ionization_Penalty_Neutral>
7.8452e-05

> <r_epik_State_Penalty>
6.9595

> <r_epik_Charging_Adjusted_Penalty>
13.099

> <i_epik_Tot_Q>
0

> <i_epik_Tot_abs_Q>
2

> <r_epik_Metal_State_Penalty>
2.89145

> <b_epik_Metal_Only>
1

> <s_lp_Force_Field>
OPLS_2005

> <r_lp_Energy>
12.8202

> <b_lp_Chiralities_Consistent>
1

> <s_lp_Variant>
AV-unprocessed.smi:1396-5

> <Gold.Version>
5.8.1

> <Gold.Id.Protein>
6NUR|6NUR_protein|mol2

> <Gold.PLP.Fitness>
47.4335

> <Gold.PLP.PLP>
-35.6566

> <Gold.PLP.part.hbond>
-3.0154

> <Gold.PLP.part.metal>
0.0000

> <Gold.PLP.part.buried>
-6.1832

> <Gold.PLP.part.nonpolar>
-26.8434

> <Gold.PLP.part.repulsive>
0.4050

> <Gold.PLP.ligand.clash>
0.0000

> <Gold.PLP.ligand.torsion>
0.1330

> <Gold.PLP.Chemscore.Hbond>
4.0000

> <Gold.PLP.Chemscore.CHOScore>
0.0000

> <Gold.PLP.Chemscore.Metal>
0.0000

> <Gold.Chemscore.Hbonds>
donor molecule, donor type, donor heavy atom, donor atom, acceptor molecule, acceptor atom, score
      L1  H     6    46       P1 10175  2.00
      L1  H    10    34       P1  8028  1.00
      L1  H    13    35       P1  8028  1.00

> <Gold.PLP.Chemscore.Internal.Correction>
0.0429

> <Gold.Rescore>
     Score         DG    S(hbond)    S(metal)    S(lipo)     H(rot)  DE(clash)    DE(int)     intcor
     15.46     -19.46       2.89        0.00      79.20       1.93       1.37       2.63       ----

> <Gold.Chemscore.Fitness>
15.4555

> <Gold.Chemscore.DG>
-19.4553

> <Gold.Chemscore.ZeroCoef>
-5.4800

> <Gold.Chemscore.Hbond>
2.8879

> <Gold.Chemscore.Metal>
0.0000

> <Gold.Chemscore.Lipo>
79.1995

> <Gold.Chemscore.Internal_Hbond>
0.0000

> <Gold.Chemscore.DEClash>
1.3737

> <Gold.Chemscore.DEInternal>
2.6261

> <Gold.Chemscore.Rot>
1.9283

> <Gold.Chemscore.Internal.Correction>
   9.000000E+99

> <Gold.Chemscore.Hbonds>
donor molecule, donor type, donor heavy atom, donor atom, acceptor molecule, acceptor atom, score
      L1  H     6    46       P1 10175  0.92
      L1  H    10    34       P1  8028  0.95
      L1  H    13    35       P1  8028  0.96

> <Gold.Chemscore.Hbond.Weighted>
-9.6455

> <Gold.Chemscore.Metal.Weighted>
-0.0000

> <Gold.Chemscore.Lipo.Weighted>
-9.2663

> <Gold.Chemscore.Internal_Hbond.Weighted>
0.0000

> <Gold.Chemscore.DEClash.Weighted>
1.3737

> <Gold.Chemscore.DEInternal.Weighted>
2.6261

> <Gold.Chemscore.Rot.Weighted>
4.9365

> <Gold.Chemscore.Internal.Correction.Weighted>
   9.000000E+99

> <Gold.Protein.RotatedTorsions>
[ 6907 6896 6895 6894 ] final   97.01 input  -60.11 | X-H torsion
[ 7974 7965 7964 7962 ] final -139.64 input  175.53 | X-H torsion
[ 8008 7997 7996 7995 ] final  149.18 input   59.86 | X-H torsion
[ 10167 10162 10161 10158 ] final   89.73 input  -65.29 | X-H torsion
[ 10718 10713 10712 10709 ] final -117.30 input   66.30 | X-H torsion
[ 10763 10752 10751 10750 ] final   72.80 input  -60.55 | X-H torsion
[ 11005 11000 10999 10996 ] final   -4.78 input  -57.11 | X-H torsion

> <Gold.Protein.ActiveResidues>
 VAL166  LYS551  ARG553  GLY616  TRP617  ASP618  TYR619  PRO620  LYS621  CYS622 
 ASP623  PHE694  ASN695  SER759  ASP760  ASP761  ALA762  ILE779  LEU786  VAL792 
 PHE793  MET794  SER795  GLU796  ALA797  LYS798  CYS799  TRP800  GLU811  SER814 

> <Gold.Protein.RotatedAtoms>
  152.5428  134.0798  159.8230 H   0  0  0  0  0  0  0  0  0  0  0  0  # atno 6907 bound_to 6896
  151.0901  133.5315  159.2623 H   0  0  0  0  0  0  0  0  0  0  0  0  # atno 6908 bound_to 6896
  151.2109  135.0489  159.8965 H   0  0  0  0  0  0  0  0  0  0  0  0  # atno 6909 bound_to 6896
  144.8660  140.6294  143.5297 H   0  0  0  0  0  0  0  0  0  0  0  0  # atno 7974 bound_to 7965
  156.2764  140.2109  156.5817 H   0  0  0  0  0  0  0  0  0  0  0  0  # atno 8008 bound_to 7997
  154.7054  140.0517  157.0521 H   0  0  0  0  0  0  0  0  0  0  0  0  # atno 8009 bound_to 7997
  155.0678  140.3173  155.4643 H   0  0  0  0  0  0  0  0  0  0  0  0  # atno 8010 bound_to 7997
  139.8544  144.6577  150.9132 H   0  0  0  0  0  0  0  0  0  0  0  0  # atno 10167 bound_to 10162
  156.1024  130.6183  150.9147 H   0  0  0  0  0  0  0  0  0  0  0  0  # atno 10718 bound_to 10713
  153.0481  135.5086  154.7798 H   0  0  0  0  0  0  0  0  0  0  0  0  # atno 10763 bound_to 10752
  154.6682  135.2949  154.9780 H   0  0  0  0  0  0  0  0  0  0  0  0  # atno 10764 bound_to 10752
  154.0607  135.6691  153.4864 H   0  0  0  0  0  0  0  0  0  0  0  0  # atno 10765 bound_to 10752
  140.6840  133.9129  155.8574 H   0  0  0  0  0  0  0  0  0  0  0  0  # atno 11005 bound_to 11000
  145.4220  139.1562  143.4069 LP  0  0  0  0  0  0  0  0  0  0  0  0  # atno 17320 bound_to 7965
  146.2896  140.4331  142.8744 LP  0  0  0  0  0  0  0  0  0  0  0  0  # atno 17321 bound_to 7965
  140.7783  143.3799  151.1495 LP  0  0  0  0  0  0  0  0  0  0  0  0  # atno 17342 bound_to 10162
  139.7434  143.8889  152.3056 LP  0  0  0  0  0  0  0  0  0  0  0  0  # atno 17343 bound_to 10162
  157.6196  131.0930  150.8646 LP  0  0  0  0  0  0  0  0  0  0  0  0  # atno 17370 bound_to 10713
  156.8771  130.5166  149.5293 LP  0  0  0  0  0  0  0  0  0  0  0  0  # atno 17371 bound_to 10713
  141.0295  134.0777  157.4031 LP  0  0  0  0  0  0  0  0  0  0  0  0  # atno 17394 bound_to 11000
  139.8943  135.0135  156.6944 LP  0  0  0  0  0  0  0  0  0  0  0  0  # atno 17395 bound_to 11000

$$$$
