AV-unprocessed.smi:3218|AV-procd|sdf|12294|dock1
  -GOLD-   2272018133D 1   1.00000     0.00000
 Structure written by MMmdl.
 37 38  0  0  0  0  0  0  0  0  1 V2000
  147.3191  142.0228  153.6633 C   0  0  0  0  0  0  0  0  0  0  0  0
  148.5985  141.4928  154.2438 C   0  0  0  0  0  0  0  0  0  0  0  0
  149.3414  140.3528  153.8235 C   0  0  0  0  0  0  0  0  0  0  0  0
  150.4284  140.1504  154.5501 N   0  0  0  0  0  0  0  0  0  0  0  0
  150.4196  141.1520  155.4548 N   0  0  0  0  0  0  0  0  0  0  0  0
  151.4798  141.2429  156.4392 C   0  0  0  0  0  0  0  0  0  0  0  0
  151.6496  139.9215  157.2004 C   0  0  0  0  0  0  0  0  0  0  0  0
  152.6549  140.0789  158.2382 N   0  0  0  0  0  0  0  0  0  0  0  0
  152.0792  140.7655  159.3820 C   0  0  0  0  0  0  0  0  0  0  0  0
  153.1167  141.7250  159.9841 C   0  0  0  0  0  0  0  0  0  0  0  0
  152.7300  143.1167  159.7754 N   0  0  0  0  0  0  0  0  0  0  0  0
  152.5686  143.6507  158.4335 C   0  0  0  0  0  0  0  0  0  0  0  0
  152.3975  145.1641  158.6279 C   0  0  0  0  0  0  0  0  0  0  0  0
  152.0908  145.3586  160.1168 C   0  0  0  0  0  0  0  0  0  0  0  0
  152.4605  144.0175  160.7277 C   0  0  0  0  0  0  0  0  0  0  0  0
  152.4970  143.8236  161.9420 O   0  0  0  0  0  0  0  0  0  0  0  0
  149.3263  141.9762  155.2943 C   0  0  0  0  0  0  0  0  0  0  0  0
  147.2890  141.9059  152.5798 H   0  0  0  0  0  0  0  0  0  0  0  0
  147.1868  143.0840  153.8752 H   0  0  0  0  0  0  0  0  0  0  0  0
  146.4504  141.5027  154.0671 H   0  0  0  0  0  0  0  0  0  0  0  0
  149.1228  139.6687  153.0168 H   0  0  0  0  0  0  0  0  0  0  0  0
  152.4063  141.5180  155.9323 H   0  0  0  0  0  0  0  0  0  0  0  0
  151.2416  142.0542  157.1287 H   0  0  0  0  0  0  0  0  0  0  0  0
  150.7005  139.6242  157.6489 H   0  0  0  0  0  0  0  0  0  0  0  0
  151.9521  139.1287  156.5148 H   0  0  0  0  0  0  0  0  0  0  0  0
  153.4355  140.6110  157.8804 H   0  0  0  0  0  0  0  0  0  0  0  0
  151.1905  141.3148  159.0679 H   0  0  0  0  0  0  0  0  0  0  0  0
  151.7675  140.0357  160.1308 H   0  0  0  0  0  0  0  0  0  0  0  0
  153.2246  141.5381  161.0536 H   0  0  0  0  0  0  0  0  0  0  0  0
  154.0985  141.5522  159.5395 H   0  0  0  0  0  0  0  0  0  0  0  0
  153.4295  143.4176  157.8055 H   0  0  0  0  0  0  0  0  0  0  0  0
  151.6811  143.2119  157.9757 H   0  0  0  0  0  0  0  0  0  0  0  0
  153.3238  145.6803  158.3719 H   0  0  0  0  0  0  0  0  0  0  0  0
  151.6102  145.5677  157.9904 H   0  0  0  0  0  0  0  0  0  0  0  0
  152.6694  146.1720  160.5558 H   0  0  0  0  0  0  0  0  0  0  0  0
  151.0304  145.5519  160.2828 H   0  0  0  0  0  0  0  0  0  0  0  0
  149.1572  142.8284  155.9363 H   0  0  0  0  0  0  0  0  0  0  0  0
  1  2  1  0  0  0  0
  1 18  1  0  0  0  0
  1 19  1  0  0  0  0
  1 20  1  0  0  0  0
  2 17  2  0  0  0  0
  2  3  1  0  0  0  0
  3  4  2  0  0  0  0
  3 21  1  0  0  0  0
  4  5  1  0  0  0  0
  5  6  1  0  0  0  0
  5 17  1  0  0  0  0
  6  7  1  0  0  0  0
  6 22  1  0  0  0  0
  6 23  1  0  0  0  0
  7  8  1  0  0  0  0
  7 24  1  0  0  0  0
  7 25  1  0  0  0  0
  8  9  1  0  0  0  0
  8 26  1  0  0  0  0
  9 10  1  0  0  0  0
  9 27  1  0  0  0  0
  9 28  1  0  0  0  0
 10 11  1  0  0  0  0
 10 29  1  0  0  0  0
 10 30  1  0  0  0  0
 11 15  1  0  0  0  0
 11 12  1  0  0  0  0
 12 13  1  0  0  0  0
 12 31  1  0  0  0  0
 12 32  1  0  0  0  0
 13 14  1  0  0  0  0
 13 33  1  0  0  0  0
 13 34  1  0  0  0  0
 14 15  1  0  0  0  0
 14 35  1  0  0  0  0
 14 36  1  0  0  0  0
 15 16  2  0  0  0  0
 17 37  1  0  0  0  0
M  END
> <s_m_source_file>
AV-unprocessed.smi

> <i_m_source_file_index>
3218

> <i_lp_mmshare_version>
43012

> <i_f3d_flags>
0

> <s_epik_input>
W0NIM11jMVtjSF1ubihbY0hdMSlbQ0gyXVtDSDJdW05IXVtDSDJdW0NIMl1OMltDSDJdW0NIMl1bQ0gyXUMyPU8=

> <s_epik_cmdline>
J2VwaWtfcHl0aG9uJywgJy1waCcsICc3LjAnLCAnLXRuJywgJzgnLCAnLW1hJywgJzIwMCcsICctbWV0YWxfYmluZGluZycsICctaW1hZScsICc8aW5maWxlLm1hZT4nLCAnLW9tYWUnLCAnPG91dGZpbGUubWFlPic=

> <r_lp_tautomer_probability>
1

> <r_epik_Ionization_Penalty>
2.53806

> <r_epik_Ionization_Penalty_Charging>
0

> <r_epik_Ionization_Penalty_Neutral>
2.53806

> <r_epik_State_Penalty>
2.70334

> <r_epik_Charging_Adjusted_Penalty>
2.70334

> <i_epik_Tot_Q>
0

> <i_epik_Tot_abs_Q>
0

> <r_epik_Metal_State_Penalty>
2.70114

> <b_epik_Metal_Only>
0

> <s_lp_Force_Field>
OPLS_2005

> <r_lp_Energy>
17.5506

> <b_lp_Chiralities_Consistent>
1

> <s_lp_Variant>
AV-unprocessed.smi:3218-2

> <Gold.Version>
5.8.1

> <Gold.Id.Protein>
6NUR|6NUR_protein|mol2

> <Gold.PLP.Fitness>
51.1019

> <Gold.PLP.PLP>
-44.0307

> <Gold.PLP.part.hbond>
-1.8609

> <Gold.PLP.part.metal>
0.0000

> <Gold.PLP.part.buried>
-0.3080

> <Gold.PLP.part.nonpolar>
-39.8314

> <Gold.PLP.part.repulsive>
0.2420

> <Gold.PLP.ligand.clash>
0.0000

> <Gold.PLP.ligand.torsion>
0.7538

> <Gold.PLP.Chemscore.Hbond>
1.0000

> <Gold.PLP.Chemscore.CHOScore>
1.7984

> <Gold.PLP.Chemscore.Metal>
0.0000

> <Gold.Chemscore.Hbonds>
donor molecule, donor type, donor heavy atom, donor atom, acceptor molecule, acceptor atom, score
      P1  H  7989  7998       L1     4  0.76
      L1  C     3    21       P1  7957  0.69
      L1  C    17    37       P1  8028  0.75

> <Gold.PLP.Chemscore.Internal.Correction>
0.1838

> <Gold.Rescore>
     Score         DG    S(hbond)    S(metal)    S(lipo)     H(rot)  DE(clash)    DE(int)     intcor
     14.98     -15.93       1.59        0.00      86.48       1.95       0.06       0.89       ----

> <Gold.Chemscore.Fitness>
14.9838

> <Gold.Chemscore.DG>
-15.9258

> <Gold.Chemscore.ZeroCoef>
-5.4800

> <Gold.Chemscore.Hbond>
1.5898

> <Gold.Chemscore.Metal>
0.0000

> <Gold.Chemscore.Lipo>
86.4801

> <Gold.Chemscore.Internal_Hbond>
0.0000

> <Gold.Chemscore.DEClash>
0.0558

> <Gold.Chemscore.DEInternal>
0.8861

> <Gold.Chemscore.Rot>
1.9463

> <Gold.Chemscore.Internal.Correction>
   9.000000E+99

> <Gold.Chemscore.Hbonds>
donor molecule, donor type, donor heavy atom, donor atom, acceptor molecule, acceptor atom, score
      P1  H  7989  7998       L1     4  0.03

> <Gold.Chemscore.Hbond.Weighted>
-5.3100

> <Gold.Chemscore.Metal.Weighted>
-0.0000

> <Gold.Chemscore.Lipo.Weighted>
-10.1182

> <Gold.Chemscore.Internal_Hbond.Weighted>
0.0000

> <Gold.Chemscore.DEClash.Weighted>
0.0558

> <Gold.Chemscore.DEInternal.Weighted>
0.8861

> <Gold.Chemscore.Rot.Weighted>
4.9824

> <Gold.Chemscore.Internal.Correction.Weighted>
   9.000000E+99

> <Gold.Protein.RotatedTorsions>
[ 6907 6896 6895 6894 ] final   89.21 input  -60.11 | X-H torsion
[ 7974 7965 7964 7962 ] final  164.45 input  175.53 | X-H torsion
[ 8008 7997 7996 7995 ] final   20.37 input   59.86 | X-H torsion
[ 10167 10162 10161 10158 ] final -110.38 input  -65.29 | X-H torsion
[ 10718 10713 10712 10709 ] final   68.72 input   66.30 | X-H torsion
[ 10763 10752 10751 10750 ] final    2.53 input  -60.55 | X-H torsion
[ 11005 11000 10999 10996 ] final  -10.22 input  -57.11 | X-H torsion

> <Gold.Protein.ActiveResidues>
 VAL166  LYS551  ARG553  GLY616  TRP617  ASP618  TYR619  PRO620  LYS621  CYS622 
 ASP623  PHE694  ASN695  SER759  ASP760  ASP761  ALA762  ILE779  LEU786  VAL792 
 PHE793  MET794  SER795  GLU796  ALA797  LYS798  CYS799  TRP800  GLU811  SER814 

> <Gold.Protein.RotatedAtoms>
  152.5434  134.2001  159.8708 H   0  0  0  0  0  0  0  0  0  0  0  0  # atno 6907 bound_to 6896
  151.1991  133.4615  159.2603 H   0  0  0  0  0  0  0  0  0  0  0  0  # atno 6908 bound_to 6896
  151.1007  134.9983  159.8503 H   0  0  0  0  0  0  0  0  0  0  0  0  # atno 6909 bound_to 6896
  144.7545  139.8327  143.6355 H   0  0  0  0  0  0  0  0  0  0  0  0  # atno 7974 bound_to 7965
  154.9346  140.3045  155.5151 H   0  0  0  0  0  0  0  0  0  0  0  0  # atno 8008 bound_to 7997
  156.3001  140.2347  156.4346 H   0  0  0  0  0  0  0  0  0  0  0  0  # atno 8009 bound_to 7997
  154.8205  140.0423  157.1395 H   0  0  0  0  0  0  0  0  0  0  0  0  # atno 8010 bound_to 7997
  140.1450  143.4247  152.1535 H   0  0  0  0  0  0  0  0  0  0  0  0  # atno 10167 bound_to 10162
  157.6305  130.9388  150.0416 H   0  0  0  0  0  0  0  0  0  0  0  0  # atno 10718 bound_to 10713
  153.2944  135.6951  153.7262 H   0  0  0  0  0  0  0  0  0  0  0  0  # atno 10763 bound_to 10752
  153.6201  135.3429  155.3008 H   0  0  0  0  0  0  0  0  0  0  0  0  # atno 10764 bound_to 10752
  154.8533  135.4384  154.2036 H   0  0  0  0  0  0  0  0  0  0  0  0  # atno 10765 bound_to 10752
  140.7425  133.8659  155.8979 H   0  0  0  0  0  0  0  0  0  0  0  0  # atno 11005 bound_to 11000
  146.1537  139.4629  143.0032 LP  0  0  0  0  0  0  0  0  0  0  0  0  # atno 17320 bound_to 7965
  145.6828  141.0186  143.1597 LP  0  0  0  0  0  0  0  0  0  0  0  0  # atno 17321 bound_to 7965
  139.5453  144.7293  151.4603 LP  0  0  0  0  0  0  0  0  0  0  0  0  # atno 17342 bound_to 10162
  140.6737  143.8237  150.7031 LP  0  0  0  0  0  0  0  0  0  0  0  0  # atno 17343 bound_to 10162
  156.1506  130.3642  149.9444 LP  0  0  0  0  0  0  0  0  0  0  0  0  # atno 17370 bound_to 10713
  156.7464  130.9099  151.3635 LP  0  0  0  0  0  0  0  0  0  0  0  0  # atno 17371 bound_to 10713
  140.9824  134.1388  157.4482 LP  0  0  0  0  0  0  0  0  0  0  0  0  # atno 17394 bound_to 11000
  139.8803  135.0015  156.6069 LP  0  0  0  0  0  0  0  0  0  0  0  0  # atno 17395 bound_to 11000

$$$$
