#       Name:                AV-unprocessed.smi:2114
#       Creating user name   scv26
#       Creation time:       Fri Mar 27 11:36:39 2020


#       File generated by GOLD software.
#

@<TRIPOS>MOLECULE
AV-unprocessed.smi:2114
    55    56     1
SMALL
NO_CHARGES


@<TRIPOS>ATOM
      1 ****        -5.5605  -0.5382   3.4876 C.3            1 S1                 0.0000
      2 ****        -5.1592   0.0619   2.2688 O.3            1 S1                 0.0000
      3 ****        -5.5628  -0.6879   1.1341 C.3            1 S1                 0.0000
      4 ****        -5.0693   0.0092  -0.1440 C.3            1 S1                 0.0000
      5 ****        -5.6233  -0.6635  -1.4074 C.3            1 S1                 0.0000
      6 ****        -3.6090  -0.0144  -0.1885 N.am           1 S1                 0.0000
      7 ****        -2.7989   1.0366   0.0209 C.2            1 S1                 0.0000
      8 ****        -3.2004   2.1816   0.2290 O.2            1 S1                 0.0000
      9 ****        -1.3296   0.7448  -0.0719 C.ar           1 S1                 0.0000
     10 ****        -0.7898  -0.4858   0.3648 C.ar           1 S1                 0.0000
     11 ****         0.6007  -0.6907   0.2813 C.ar           1 S1                 0.0000
     12 ****         1.4097   0.3436  -0.2325 C.ar           1 S1                 0.0000
     13 ****         2.7958   0.1483  -0.3075 N.3            1 S1                 0.0000
     14 ****         3.3330   0.2318  -1.6586 C.3            1 S1                 0.0000
     15 ****         4.8199  -0.1672  -1.6584 C.3            1 S1                 0.0000
     16 ****         5.4613   0.0086  -3.0389 C.3            1 S1                 0.0000
     17 ****         5.5321   0.6531  -0.7310 O.3            1 S1                 0.0000
     18 ****         5.0388   0.6121   0.6112 C.3            1 S1                 0.0000
     19 ****         5.3591  -0.7226   1.3076 C.3            1 S1                 0.0000
     20 ****         3.5401   0.9718   0.6365 C.3            1 S1                 0.0000
     21 ****         0.9022   1.5294  -0.6448 N.ar           1 S1                 0.0000
     22 ****        -0.4318   1.7207  -0.5580 C.ar           1 S1                 0.0000
     23 ****        -5.2259   0.0739   4.3250 H              1 S1                 0.0000
     24 ****        -5.1223  -1.5307   3.6006 H              1 S1                 0.0000
     25 ****        -6.6461  -0.6253   3.5464 H              1 S1                 0.0000
     26 ****        -5.1686  -1.7042   1.1898 H              1 S1                 0.0000
     27 ****        -6.6514  -0.7609   1.1206 H              1 S1                 0.0000
     28 ****        -5.4341   1.0378  -0.1356 H              1 S1                 0.0000
     29 ****        -6.7136  -0.6526  -1.4113 H              1 S1                 0.0000
     30 ****        -5.3007  -1.7027  -1.4797 H              1 S1                 0.0000
     31 ****        -5.2866  -0.1461  -2.3063 H              1 S1                 0.0000
     32 ****        -3.1787  -0.9082  -0.3761 H              1 S1                 0.0000
     33 ****        -1.4218  -1.2649   0.7658 H              1 S1                 0.0000
     34 ****         1.0361  -1.6232   0.6101 H              1 S1                 0.0000
     35 ****         2.7674  -0.4259  -2.3201 H              1 S1                 0.0000
     36 ****         3.2187   1.2483  -2.0384 H              1 S1                 0.0000
     37 ****         4.9181  -1.2145  -1.3719 H              1 S1                 0.0000
     38 ****         4.9635  -0.6110  -3.7853 H              1 S1                 0.0000
     39 ****         6.5131  -0.2778  -3.0183 H              1 S1                 0.0000
     40 ****         5.4048   1.0454  -3.3718 H              1 S1                 0.0000
     41 ****         5.5754   1.3890   1.1565 H              1 S1                 0.0000
     42 ****         5.0819  -0.6837   2.3613 H              1 S1                 0.0000
     43 ****         6.4255  -0.9421   1.2557 H              1 S1                 0.0000
     44 ****         4.8220  -1.5606   0.8641 H              1 S1                 0.0000
     45 ****         3.4146   2.0225   0.3701 H              1 S1                 0.0000
     46 ****         3.1368   0.8489   1.6427 H              1 S1                 0.0000
     47 ****        -0.7882   2.6836  -0.8942 H              1 S1                 0.0000
     48 ****        -4.1623   0.1403   2.2631 LP             1 S1                 0.0000
     49 ****        -5.5655   0.9738   2.2115 LP             1 S1                 0.0000
     50 ****        -4.1820   2.3713   0.2492 LP             1 S1                 0.0000
     51 ****        -2.5449   2.9220   0.3778 LP             1 S1                 0.0000
     52 ****         2.9319  -0.8013  -0.0253 LP             1 S1                 0.0000
     53 ****         5.4829   1.5991  -1.0514 LP             1 S1                 0.0000
     54 ****         6.4863   0.3540  -0.7206 LP             1 S1                 0.0000
     55 ****         1.5003   2.2456  -1.0046 LP             1 S1                 0.0000
@<TRIPOS>BOND
    1    1    2 1     
    2    1   23 1     
    3    1   24 1     
    4    1   25 1     
    5    2    3 1     
    6    3    4 1     
    7    3   26 1     
    8    3   27 1     
    9    4    5 1     
   10    4    6 1     
   11    4   28 1     
   12    5   29 1     
   13    5   30 1     
   14    5   31 1     
   15    6    7 am    
   16    6   32 1     
   17    7    8 2     
   18    7    9 1     
   19    9   22 ar    
   20    9   10 ar    
   21   10   11 ar    
   22   10   33 1     
   23   11   12 ar    
   24   11   34 1     
   25   12   13 1     
   26   12   21 ar    
   27   13   20 1     
   28   13   14 1     
   29   14   15 1     
   30   14   35 1     
   31   14   36 1     
   32   15   16 1     
   33   15   17 1     
   34   15   37 1     
   35   16   38 1     
   36   16   39 1     
   37   16   40 1     
   38   17   18 1     
   39   18   19 1     
   40   18   20 1     
   41   18   41 1     
   42   19   42 1     
   43   19   43 1     
   44   19   44 1     
   45   20   45 1     
   46   20   46 1     
   47   21   22 ar    
   48   22   47 1     
   49    2   48 1     
   50    2   49 1     
   51    8   50 1     
   52    8   51 1     
   53   13   52 1     
   54   17   53 1     
   55   17   54 1     
   56   21   55 1     
@<TRIPOS>SUBSTRUCTURE
      1 S1             1
@<TRIPOS>SET
LONE_PAIRS      STATIC     ATOMS    <user>   **** ""
8 48 49 50 51 52 53 54 55
DONOR_HYDROGENS      STATIC     ATOMS    <user>   **** ""
1 32
ATOM$BLUE        STATIC     ATOMS    COLORGROUP SYSTEM
8 48 49 50 51 52 53 54 55
ATOM$RED        STATIC     ATOMS    COLORGROUP SYSTEM
1 32
