#       Name:                AV-unprocessed.smi:1932
#       Creating user name   scv26
#       Creation time:       Fri Mar 27 09:55:44 2020


#       File generated by GOLD software.
#

@<TRIPOS>MOLECULE
AV-unprocessed.smi:1932
    52    53     1
SMALL
NO_CHARGES


@<TRIPOS>ATOM
      1 ****        -1.6680  -0.1082  -3.8484 C.3            1 S1                 0.0000
      2 ****        -2.2524   0.4320  -2.5397 C.2            1 S1                 0.0000
      3 ****        -2.5226   1.6317  -2.4780 O.2            1 S1                 0.0000
      4 ****        -2.4526  -0.4167  -1.5013 N.am           1 S1                 0.0000
      5 ****        -3.0316   0.0716  -0.2466 C.3            1 S1                 0.0000
      6 ****        -2.1583  -1.8602  -1.5451 C.3            1 S1                 0.0000
      7 ****        -0.7268  -2.2466  -1.1359 C.2            1 S1                 0.0000
      8 ****        -0.4566  -3.4343  -0.9627 O.2            1 S1                 0.0000
      9 ****         0.1732  -1.2645  -0.9653 N.am           1 S1                 0.0000
     10 ****         1.5428  -1.4466  -0.5016 C.3            1 S1                 0.0000
     11 ****         1.6439  -1.3924   1.0171 C.ar           1 S1                 0.0000
     12 ****         1.9977  -2.5564   1.7314 C.ar           1 S1                 0.0000
     13 ****         2.0517  -2.5094   3.1362 C.ar           1 S1                 0.0000
     14 ****         1.7440  -1.2942   3.7750 C.ar           1 S1                 0.0000
     15 ****         1.4070  -0.1718   3.1062 N.ar           1 S1                 0.0000
     16 ****         1.3568  -0.2117   1.7525 C.ar           1 S1                 0.0000
     17 ****         1.0340   0.9798   1.0801 N.3            1 S1                 0.0000
     18 ****         2.2029   1.7808   0.7421 C.3            1 S1                 0.0000
     19 ****         1.7940   2.9327  -0.1920 C.3            1 S1                 0.0000
     20 ****         0.7630   3.7022   0.4211 O.3            1 S1                 0.0000
     21 ****        -0.4020   2.9243   0.6823 C.3            1 S1                 0.0000
     22 ****        -0.0495   1.7759   1.6441 C.3            1 S1                 0.0000
     23 ****        -2.3672  -0.7923  -4.3291 H              1 S1                 0.0000
     24 ****        -0.7261  -0.6289  -3.6771 H              1 S1                 0.0000
     25 ****        -1.4720   0.7078  -4.5446 H              1 S1                 0.0000
     26 ****        -2.6895   1.0750   0.0074 H              1 S1                 0.0000
     27 ****        -2.7632  -0.5725   0.5918 H              1 S1                 0.0000
     28 ****        -4.1192   0.0929  -0.3196 H              1 S1                 0.0000
     29 ****        -2.8461  -2.3822  -0.8781 H              1 S1                 0.0000
     30 ****        -2.3646  -2.2764  -2.5312 H              1 S1                 0.0000
     31 ****        -0.1281  -0.3139  -1.1249 H              1 S1                 0.0000
     32 ****         1.9541  -2.3852  -0.8769 H              1 S1                 0.0000
     33 ****         2.1598  -0.6598  -0.9343 H              1 S1                 0.0000
     34 ****         2.2171  -3.4776   1.2119 H              1 S1                 0.0000
     35 ****         2.3169  -3.3850   3.7101 H              1 S1                 0.0000
     36 ****         1.7703  -1.2209   4.8521 H              1 S1                 0.0000
     37 ****         2.6425   2.1798   1.6573 H              1 S1                 0.0000
     38 ****         2.9647   1.1639   0.2650 H              1 S1                 0.0000
     39 ****         2.6498   3.5776  -0.3916 H              1 S1                 0.0000
     40 ****         1.4516   2.5489  -1.1547 H              1 S1                 0.0000
     41 ****        -1.1674   3.5632   1.1224 H              1 S1                 0.0000
     42 ****        -0.8064   2.5389  -0.2548 H              1 S1                 0.0000
     43 ****        -0.9221   1.1448   1.8160 H              1 S1                 0.0000
     44 ****         0.2529   2.1844   2.6093 H              1 S1                 0.0000
     45 ****        -2.3591   2.2223  -3.2682 LP             1 S1                 0.0000
     46 ****        -2.9054   2.0154  -1.6376 LP             1 S1                 0.0000
     47 ****        -1.1627  -4.1312  -1.0881 LP             1 S1                 0.0000
     48 ****         0.4692  -3.7028  -0.6964 LP             1 S1                 0.0000
     49 ****         1.1985   0.6726   3.5996 LP             1 S1                 0.0000
     50 ****         0.6430   0.6438   0.2233 LP             1 S1                 0.0000
     51 ****         0.5176   4.4562  -0.1881 LP             1 S1                 0.0000
     52 ****         1.1057   4.0701   1.2855 LP             1 S1                 0.0000
@<TRIPOS>BOND
    1    1    2 1     
    2    1   23 1     
    3    1   24 1     
    4    1   25 1     
    5    2    3 2     
    6    2    4 am    
    7    4    5 1     
    8    4    6 1     
    9    5   26 1     
   10    5   27 1     
   11    5   28 1     
   12    6    7 1     
   13    6   29 1     
   14    6   30 1     
   15    7    8 2     
   16    7    9 am    
   17    9   10 1     
   18    9   31 1     
   19   10   11 1     
   20   10   32 1     
   21   10   33 1     
   22   11   16 ar    
   23   11   12 ar    
   24   12   13 ar    
   25   12   34 1     
   26   13   14 ar    
   27   13   35 1     
   28   14   15 ar    
   29   14   36 1     
   30   15   16 ar    
   31   16   17 1     
   32   17   22 1     
   33   17   18 1     
   34   18   19 1     
   35   18   37 1     
   36   18   38 1     
   37   19   20 1     
   38   19   39 1     
   39   19   40 1     
   40   20   21 1     
   41   21   22 1     
   42   21   41 1     
   43   21   42 1     
   44   22   43 1     
   45   22   44 1     
   46    3   45 1     
   47    3   46 1     
   48    8   47 1     
   49    8   48 1     
   50   15   49 1     
   51   17   50 1     
   52   20   51 1     
   53   20   52 1     
@<TRIPOS>SUBSTRUCTURE
      1 S1             1
@<TRIPOS>SET
LONE_PAIRS      STATIC     ATOMS    <user>   **** ""
8 45 46 47 48 49 50 51 52
DONOR_HYDROGENS      STATIC     ATOMS    <user>   **** ""
1 31
ATOM$BLUE        STATIC     ATOMS    COLORGROUP SYSTEM
8 45 46 47 48 49 50 51 52
ATOM$RED        STATIC     ATOMS    COLORGROUP SYSTEM
1 31
