#       Name:                AV-unprocessed.smi:226
#       Creating user name   scv26
#       Creation time:       Thu Mar 26 20:21:09 2020


#       File generated by GOLD software.
#

@<TRIPOS>MOLECULE
AV-unprocessed.smi:226
    63    67     1
SMALL
NO_CHARGES


@<TRIPOS>ATOM
      1 ****        -5.3639   2.4534  -0.0795 O.2            1 S1                 0.0000
      2 ****        -4.4573   1.6220  -0.0353 C.2            1 S1                 0.0000
      3 ****        -3.8047   1.1982  -1.1303 N.am           1 S1                 0.0000
      4 ****        -4.0462   1.6302  -2.4674 C.3            1 S1                 0.0000
      5 ****        -3.7953   0.6359  -3.5802 C.3            1 S1                 0.0000
      6 ****        -2.8475   1.7859  -3.3777 C.3            1 S1                 0.0000
      7 ****        -4.0308   1.0456   1.3326 C.3            1 S1                 0.0000
      8 ****        -5.1447   0.1967   1.9697 C.3            1 S1                 0.0000
      9 ****        -4.8542  -1.2241   1.4890 C.3            1 S1                 0.0000
     10 ****        -3.3265  -1.2724   1.4445 C.3            1 S1                 0.0000
     11 ****        -2.9025   0.1094   1.2629 N.pl3          1 S1                 0.0000
     12 ****        -1.5988   0.4941   1.1812 C.ar           1 S1                 0.0000
     13 ****        -1.3233   1.8239   1.1201 N.ar           1 S1                 0.0000
     14 ****        -0.0643   2.2580   1.0288 C.ar           1 S1                 0.0000
     15 ****         1.0600   1.5444   0.9782 N.ar           1 S1                 0.0000
     16 ****         0.7997   0.2074   1.0348 C.ar           1 S1                 0.0000
     17 ****        -0.4859  -0.3999   1.1439 C.ar           1 S1                 0.0000
     18 ****        -0.3391  -1.7826   1.1910 N.2            1 S1                 0.0000
     19 ****         0.9485  -1.9781   1.1198 C.2            1 S1                 0.0000
     20 ****         1.7063  -0.8379   0.9894 N.pl3          1 S1                 0.0000
     21 ****         3.1371  -0.7620   0.9263 C.3            1 S1                 0.0000
     22 ****         3.8356   0.2280  -0.0105 C.3            1 S1                 0.0000
     23 ****         4.9491  -0.8039  -0.2947 C.3            1 S1                 0.0000
     24 ****         5.3168  -0.9748  -1.7766 C.3            1 S1                 0.0000
     25 ****         5.8669   0.2119  -2.3117 O.3            1 S1                 0.0000
     26 ****         6.2731  -0.6457   0.4858 C.3            1 S1                 0.0000
     27 ****         6.0900  -0.5383   1.8827 O.3            1 S1                 0.0000
     28 ****         3.9587  -1.8608   0.2439 C.3            1 S1                 0.0000
     29 ****        -3.0710   0.5170  -1.0001 H              1 S1                 0.0000
     30 ****        -4.8656   2.3293  -2.6284 H              1 S1                 0.0000
     31 ****        -3.4466  -0.3581  -3.3056 H              1 S1                 0.0000
     32 ****        -4.4544   0.6749  -4.4453 H              1 S1                 0.0000
     33 ****        -2.8737   2.5935  -4.1064 H              1 S1                 0.0000
     34 ****        -1.8649   1.5629  -2.9657 H              1 S1                 0.0000
     35 ****        -3.8014   1.8810   1.9958 H              1 S1                 0.0000
     36 ****        -5.0585   0.2384   3.0564 H              1 S1                 0.0000
     37 ****        -6.1525   0.5258   1.7128 H              1 S1                 0.0000
     38 ****        -5.2847  -1.9905   2.1340 H              1 S1                 0.0000
     39 ****        -5.2596  -1.3617   0.4857 H              1 S1                 0.0000
     40 ****        -2.9274  -1.6525   2.3859 H              1 S1                 0.0000
     41 ****        -2.9818  -1.9139   0.6331 H              1 S1                 0.0000
     42 ****         0.0588   3.3302   0.9875 H              1 S1                 0.0000
     43 ****         1.3813  -2.9675   1.1522 H              1 S1                 0.0000
     44 ****         3.4695  -0.6152   1.9546 H              1 S1                 0.0000
     45 ****         3.2344   0.4558  -0.8925 H              1 S1                 0.0000
     46 ****         4.1731   1.1435   0.4765 H              1 S1                 0.0000
     47 ****         6.0290  -1.7889  -1.9156 H              1 S1                 0.0000
     48 ****         4.4381  -1.2294  -2.3701 H              1 S1                 0.0000
     49 ****         5.2234   0.9004  -2.2381 H              1 S1                 0.0000
     50 ****         6.9322  -1.4952   0.3040 H              1 S1                 0.0000
     51 ****         6.8142   0.2433   0.1606 H              1 S1                 0.0000
     52 ****         6.9369  -0.4357   2.2893 H              1 S1                 0.0000
     53 ****         4.3919  -2.5886   0.9308 H              1 S1                 0.0000
     54 ****         3.4019  -2.3620  -0.5497 H              1 S1                 0.0000
     55 ****        -5.6427   2.8430  -0.9573 LP             1 S1                 0.0000
     56 ****        -5.8217   2.7392   0.7623 LP             1 S1                 0.0000
     57 ****        -2.0731   2.4851   1.1438 LP             1 S1                 0.0000
     58 ****         1.9763   1.9387   0.9078 LP             1 S1                 0.0000
     59 ****        -1.0596  -2.4723   1.2632 LP             1 S1                 0.0000
     60 ****         6.1018   0.0711  -3.2735 LP             1 S1                 0.0000
     61 ****         6.6893   0.4627  -1.8010 LP             1 S1                 0.0000
     62 ****         5.6474  -1.3653   2.2294 LP             1 S1                 0.0000
     63 ****         5.5189   0.2565   2.0878 LP             1 S1                 0.0000
@<TRIPOS>BOND
    1    1    2 2     
    2    2    3 am    
    3    2    7 1     
    4    3    4 1     
    5    3   29 1     
    6    4    6 1     
    7    4    5 1     
    8    4   30 1     
    9    5    6 1     
   10    5   31 1     
   11    5   32 1     
   12    6   33 1     
   13    6   34 1     
   14    7   11 1     
   15    7    8 1     
   16    7   35 1     
   17    8    9 1     
   18    8   36 1     
   19    8   37 1     
   20    9   10 1     
   21    9   38 1     
   22    9   39 1     
   23   10   11 1     
   24   10   40 1     
   25   10   41 1     
   26   11   12 1     
   27   12   17 ar    
   28   12   13 ar    
   29   13   14 ar    
   30   14   15 ar    
   31   14   42 1     
   32   15   16 ar    
   33   16   20 1     
   34   16   17 ar    
   35   17   18 1     
   36   18   19 2     
   37   19   20 1     
   38   19   43 1     
   39   20   21 1     
   40   21   28 1     
   41   21   22 1     
   42   21   44 1     
   43   22   23 1     
   44   22   45 1     
   45   22   46 1     
   46   23   24 1     
   47   23   26 1     
   48   23   28 1     
   49   24   25 1     
   50   24   47 1     
   51   24   48 1     
   52   25   49 1     
   53   26   27 1     
   54   26   50 1     
   55   26   51 1     
   56   27   52 1     
   57   28   53 1     
   58   28   54 1     
   59    1   55 1     
   60    1   56 1     
   61   13   57 1     
   62   15   58 1     
   63   18   59 1     
   64   25   60 1     
   65   25   61 1     
   66   27   62 1     
   67   27   63 1     
@<TRIPOS>SUBSTRUCTURE
      1 S1             1
@<TRIPOS>SET
LONE_PAIRS      STATIC     ATOMS    <user>   **** ""
9 55 56 57 58 59 60 61 62 63
DONOR_HYDROGENS      STATIC     ATOMS    <user>   **** ""
3 29 49 52
ATOM$BLUE        STATIC     ATOMS    COLORGROUP SYSTEM
9 55 56 57 58 59 60 61 62 63
ATOM$RED        STATIC     ATOMS    COLORGROUP SYSTEM
3 29 49 52
