#       Name:                AV-unprocessed.smi:527
#       Creating user name   scv26
#       Creation time:       Thu Mar 26 23:31:21 2020


#       File generated by GOLD software.
#

@<TRIPOS>MOLECULE
AV-unprocessed.smi:527
    47    48     1
SMALL
NO_CHARGES


@<TRIPOS>ATOM
      1 ****        -4.5759  -0.1839  -1.9834 C.3            1 S1                 0.0000
      2 ****        -3.7583  -1.4706  -1.7477 C.3            1 S1                 0.0000
      3 ****        -4.2781  -2.2597  -0.5286 C.3            1 S1                 0.0000
      4 ****        -3.9153  -1.5810   0.8015 C.3            1 S1                 0.0000
      5 ****        -2.4022  -1.3482   0.9122 C.3            1 S1                 0.0000
      6 ****        -1.8526  -0.5527  -0.2902 C.3            1 S1                 0.0000
      7 ****        -0.4012  -0.4246  -0.1716 N.am           1 S1                 0.0000
      8 ****         0.2409   0.5222   0.5286 C.2            1 S1                 0.0000
      9 ****        -0.3384   1.3991   1.1732 O.2            1 S1                 0.0000
     10 ****         1.5761   0.3764   0.4251 N.am           1 S1                 0.0000
     11 ****         2.5327   1.1396   0.9916 C.2            1 S1                 0.0000
     12 ****         2.3214   2.1164   1.7153 O.2            1 S1                 0.0000
     13 ****         3.9702   0.7107   0.6705 C.3            1 S1                 0.0000
     14 ****         4.9806   1.4934   1.3936 N.pl3          1 S1                 0.0000
     15 ****         5.5345   1.2095   2.6162 C.2            1 S1                 0.0000
     16 ****         6.4195   2.2208   2.8885 C.2            1 S1                 0.0000
     17 ****         6.3677   3.0792   1.8229 N.pl3          1 S1                 1.0000
     18 ****         5.4920   2.6357   0.9151 C.2            1 S1                 0.0000
     19 ****        -2.2281  -1.2383  -1.6297 C.3            1 S1                 0.0000
     20 ****        -1.6466  -0.5155  -2.8611 C.3            1 S1                 0.0000
     21 ****        -4.4370   0.5455  -1.1862 H              1 S1                 0.0000
     22 ****        -5.6415  -0.4067  -2.0404 H              1 S1                 0.0000
     23 ****        -4.3034   0.2973  -2.9224 H              1 S1                 0.0000
     24 ****        -3.9252  -2.1006  -2.6224 H              1 S1                 0.0000
     25 ****        -5.3584  -2.3934  -0.5958 H              1 S1                 0.0000
     26 ****        -3.8500  -3.2630  -0.5425 H              1 S1                 0.0000
     27 ****        -4.4415  -0.6305   0.8932 H              1 S1                 0.0000
     28 ****        -4.2543  -2.1982   1.6338 H              1 S1                 0.0000
     29 ****        -2.1836  -0.8241   1.8434 H              1 S1                 0.0000
     30 ****        -1.8957  -2.3123   0.9771 H              1 S1                 0.0000
     31 ****        -2.2920   0.4462  -0.2808 H              1 S1                 0.0000
     32 ****         0.1521  -1.1056  -0.6706 H              1 S1                 0.0000
     33 ****         1.8973  -0.3928  -0.1439 H              1 S1                 0.0000
     34 ****         4.1095  -0.3395   0.9311 H              1 S1                 0.0000
     35 ****         4.1567   0.8111  -0.3996 H              1 S1                 0.0000
     36 ****         5.2633   0.3335   3.1877 H              1 S1                 0.0000
     37 ****         7.0641   2.3899   3.7387 H              1 S1                 0.0000
     38 ****         5.2437   3.1098  -0.0179 H              1 S1                 0.0000
     39 ****        -1.7697  -2.2288  -1.6189 H              1 S1                 0.0000
     40 ****        -1.9451   0.5325  -2.8905 H              1 S1                 0.0000
     41 ****        -1.9808  -0.9858  -3.7863 H              1 S1                 0.0000
     42 ****        -0.5568  -0.5438  -2.8638 H              1 S1                 0.0000
     43 ****         6.9100   3.9295   1.7339 H              1 S1                 0.0000
     44 ****        -1.3378   1.4284   1.1915 LP             1 S1                 0.0000
     45 ****         0.1911   2.0811   1.6778 LP             1 S1                 0.0000
     46 ****         1.3825   2.3935   1.9198 LP             1 S1                 0.0000
     47 ****         3.0890   2.6310   2.0974 LP             1 S1                 0.0000
@<TRIPOS>BOND
    1    1    2 1     
    2    1   21 1     
    3    1   22 1     
    4    1   23 1     
    5    2   19 1     
    6    2    3 1     
    7    2   24 1     
    8    3    4 1     
    9    3   25 1     
   10    3   26 1     
   11    4    5 1     
   12    4   27 1     
   13    4   28 1     
   14    5    6 1     
   15    5   29 1     
   16    5   30 1     
   17    6    7 1     
   18    6   19 1     
   19    6   31 1     
   20    7    8 1     
   21    7   32 1     
   22    8    9 2     
   23    8   10 1     
   24   10   11 1     
   25   10   33 1     
   26   11   12 2     
   27   11   13 1     
   28   13   14 1     
   29   13   34 1     
   30   13   35 1     
   31   14   18 1     
   32   14   15 1     
   33   15   16 2     
   34   15   36 1     
   35   16   17 1     
   36   16   37 1     
   37   17   18 2     
   38   17   43 1     
   39   18   38 1     
   40   19   20 1     
   41   19   39 1     
   42   20   40 1     
   43   20   41 1     
   44   20   42 1     
   45    9   44 1     
   46    9   45 1     
   47   12   46 1     
   48   12   47 1     
@<TRIPOS>SUBSTRUCTURE
      1 S1             1
@<TRIPOS>SET
LONE_PAIRS      STATIC     ATOMS    <user>   **** ""
4 44 45 46 47
DONOR_HYDROGENS      STATIC     ATOMS    <user>   **** ""
3 32 33 43
ATOM$BLUE        STATIC     ATOMS    COLORGROUP SYSTEM
4 44 45 46 47
ATOM$RED        STATIC     ATOMS    COLORGROUP SYSTEM
3 32 33 43
