AV-unprocessed.smi:1601|AV-procd|sdf|6435|dock1
  -GOLD-   22720 7 83D 1   1.00000     0.00000
 Structure written by MMmdl.
 42 43  0  0  0  0  0  0  0  0  2 V2000
  149.4923  132.0998  154.4774 C   0  0  0  0  0  0  0  0  0  0  0  0
  149.3799  133.5377  153.9133 C   0  0  2  0  0  0  0  0  0  0  0  0
  149.7669  134.5845  154.9961 C   0  0  0  0  0  0  0  0  0  0  0  0
  150.3136  135.8198  154.4393 N   0  0  0  0  0  0  0  0  0  0  0  0
  150.4550  136.9802  155.1016 C   0  0  0  0  0  0  0  0  0  0  0  0
  150.1628  137.1144  156.2904 O   0  0  0  0  0  0  0  0  0  0  0  0
  151.0230  138.1581  154.2924 C   0  0  2  0  0  0  0  0  0  0  0  0
  152.4183  138.6030  154.7761 C   0  0  0  0  0  0  0  0  0  0  0  0
  150.0750  139.2661  154.2683 N   0  0  0  0  0  0  0  0  0  0  0  0
  148.7404  139.2343  153.9175 C   0  0  0  0  0  0  0  0  0  0  0  0
  148.2440  140.4966  154.0734 C   0  0  0  0  0  0  0  0  0  0  0  0
  149.3614  141.2439  154.5389 C   0  0  0  0  0  0  0  0  0  0  0  0
  150.4522  140.5057  154.6604 N   0  0  0  0  0  0  0  0  0  0  0  0
  148.0160  133.7931  153.3367 N   0  3  0  0  0  0  0  0  0  0  0  0
  147.5836  132.7933  152.3188 C   0  0  0  0  0  0  0  0  0  0  0  0
  146.1847  133.1151  151.7657 C   0  0  0  0  0  0  0  0  0  0  0  0
  145.2503  133.1835  152.8303 O   0  0  0  0  0  0  0  0  0  0  0  0
  145.5809  134.2247  153.7346 C   0  0  0  0  0  0  0  0  0  0  0  0
  146.9523  133.9422  154.3703 C   0  0  0  0  0  0  0  0  0  0  0  0
  150.4644  131.9113  154.9312 H   0  0  0  0  0  0  0  0  0  0  0  0
  149.3957  131.3382  153.7058 H   0  0  0  0  0  0  0  0  0  0  0  0
  148.7336  131.9131  155.2379 H   0  0  0  0  0  0  0  0  0  0  0  0
  150.1006  133.6310  153.0992 H   0  0  0  0  0  0  0  0  0  0  0  0
  148.8885  134.9057  155.5538 H   0  0  0  0  0  0  0  0  0  0  0  0
  150.4496  134.1416  155.7234 H   0  0  0  0  0  0  0  0  0  0  0  0
  150.5828  135.7991  153.4661 H   0  0  0  0  0  0  0  0  0  0  0  0
  151.1379  137.8114  153.2640 H   0  0  0  0  0  0  0  0  0  0  0  0
  153.1302  137.7778  154.7378 H   0  0  0  0  0  0  0  0  0  0  0  0
  152.3983  138.9749  155.8014 H   0  0  0  0  0  0  0  0  0  0  0  0
  152.8103  139.4008  154.1446 H   0  0  0  0  0  0  0  0  0  0  0  0
  148.2589  138.3251  153.5886 H   0  0  0  0  0  0  0  0  0  0  0  0
  147.2355  140.8339  153.8862 H   0  0  0  0  0  0  0  0  0  0  0  0
  149.4115  142.2922  154.7938 H   0  0  0  0  0  0  0  0  0  0  0  0
  148.2624  132.7810  151.4678 H   0  0  0  0  0  0  0  0  0  0  0  0
  147.5915  131.7951  152.7594 H   0  0  0  0  0  0  0  0  0  0  0  0
  146.1918  134.0529  151.2075 H   0  0  0  0  0  0  0  0  0  0  0  0
  145.8694  132.3362  151.0713 H   0  0  0  0  0  0  0  0  0  0  0  0
  145.5783  135.1880  153.2214 H   0  0  0  0  0  0  0  0  0  0  0  0
  144.8135  134.2757  154.5072 H   0  0  0  0  0  0  0  0  0  0  0  0
  146.9017  133.0360  154.9760 H   0  0  0  0  0  0  0  0  0  0  0  0
  147.1680  134.7689  155.0438 H   0  0  0  0  0  0  0  0  0  0  0  0
  148.0730  134.6787  152.8539 H   0  0  0  0  0  0  0  0  0  0  0  0
  1  2  1  0  0  0  0
  1 20  1  0  0  0  0
  1 21  1  0  0  0  0
  1 22  1  0  0  0  0
  2  3  1  0  0  0  0
  2 14  1  0  0  0  0
  2 23  1  0  0  0  0
  3  4  1  0  0  0  0
  3 24  1  0  0  0  0
  3 25  1  0  0  0  0
  4  5  1  0  0  0  0
  4 26  1  0  0  0  0
  5  6  2  0  0  0  0
  5  7  1  0  0  0  0
  7  8  1  0  0  0  0
  7  9  1  0  0  0  0
  7 27  1  0  0  0  0
  8 28  1  0  0  0  0
  8 29  1  0  0  0  0
  8 30  1  0  0  0  0
  9 13  1  0  0  0  0
  9 10  1  0  0  0  0
 10 11  2  0  0  0  0
 10 31  1  0  0  0  0
 11 12  1  0  0  0  0
 11 32  1  0  0  0  0
 12 13  2  0  0  0  0
 12 33  1  0  0  0  0
 14 19  1  0  0  0  0
 14 15  1  0  0  0  0
 14 42  1  0  0  0  0
 15 16  1  0  0  0  0
 15 34  1  0  0  0  0
 15 35  1  0  0  0  0
 16 17  1  0  0  0  0
 16 36  1  0  0  0  0
 16 37  1  0  0  0  0
 17 18  1  0  0  0  0
 18 19  1  0  0  0  0
 18 38  1  0  0  0  0
 18 39  1  0  0  0  0
 19 40  1  0  0  0  0
 19 41  1  0  0  0  0
M  CHG  1  14   1
M  END
> <s_m_source_file>
AV-unprocessed.smi

> <i_m_source_file_index>
1601

> <i_lp_mmshare_version>
43012

> <i_f3d_flags>
0

> <s_epik_input>
W0NIMl0xW0NIMl1PW0NIMl1bQ0gyXU4xW0NASF0oW0NIM10pW0NIMl1bTkhdQyg9TylbQ0BIXShbQ0gzXSluMltjSF1bY0hdW2NIXW4y

> <s_epik_cmdline>
J2VwaWtfcHl0aG9uJywgJy1waCcsICc3LjAnLCAnLXRuJywgJzgnLCAnLW1hJywgJzIwMCcsICctbWV0YWxfYmluZGluZycsICctaW1hZScsICc8aW5maWxlLm1hZT4nLCAnLW9tYWUnLCAnPG91dGZpbGUubWFlPic=

> <r_lp_tautomer_probability>
1

> <r_epik_Ionization_Penalty>
0.732551

> <r_epik_Ionization_Penalty_Charging>
0.732531

> <r_epik_Ionization_Penalty_Neutral>
2.04647e-05

> <r_epik_State_Penalty>
0.757939

> <r_epik_Charging_Adjusted_Penalty>
1.49047

> <i_epik_Tot_Q>
1

> <i_epik_Tot_abs_Q>
1

> <r_epik_Metal_State_Penalty>
0.757952

> <b_epik_Metal_Only>
0

> <s_lp_Force_Field>
OPLS_2005

> <r_lp_Energy>
26.1921

> <b_lp_Chiralities_Consistent>
1

> <s_lp_Variant>
AV-unprocessed.smi:1601-5

> <Gold.Version>
5.8.1

> <Gold.Id.Protein>
6NUR|6NUR_protein|mol2

> <Gold.PLP.Fitness>
48.1856

> <Gold.PLP.PLP>
-35.6973

> <Gold.PLP.part.hbond>
-4.0000

> <Gold.PLP.part.metal>
0.0000

> <Gold.PLP.part.buried>
0.3048

> <Gold.PLP.part.nonpolar>
-30.6105

> <Gold.PLP.part.repulsive>
0.2608

> <Gold.PLP.ligand.clash>
0.0000

> <Gold.PLP.ligand.torsion>
0.5463

> <Gold.PLP.Chemscore.Hbond>
3.2500

> <Gold.PLP.Chemscore.CHOScore>
1.1575

> <Gold.PLP.Chemscore.Metal>
0.0000

> <Gold.Chemscore.Hbonds>
donor molecule, donor type, donor heavy atom, donor atom, acceptor molecule, acceptor atom, score
      L1  H     4    26       P1  7949  0.28
      L1  H    14    42       P1  7948  2.00
      P1  H  7989  7998       L1    13  0.99
      L1  C    10    31       P1  7948  0.36
      L1  C    12    33       P1  8028  0.78

> <Gold.PLP.Chemscore.Internal.Correction>
0.3585

> <Gold.Rescore>
     Score         DG    S(hbond)    S(metal)    S(lipo)     H(rot)  DE(clash)    DE(int)     intcor
     12.61     -13.90       1.41        0.00      72.49       1.86       0.25       1.04       ----

> <Gold.Chemscore.Fitness>
12.6113

> <Gold.Chemscore.DG>
-13.8988

> <Gold.Chemscore.ZeroCoef>
-5.4800

> <Gold.Chemscore.Hbond>
1.4094

> <Gold.Chemscore.Metal>
0.0000

> <Gold.Chemscore.Lipo>
72.4882

> <Gold.Chemscore.Internal_Hbond>
0.0000

> <Gold.Chemscore.DEClash>
0.2473

> <Gold.Chemscore.DEInternal>
1.0402

> <Gold.Chemscore.Rot>
1.8631

> <Gold.Chemscore.Internal.Correction>
   9.000000E+99

> <Gold.Chemscore.Hbonds>
donor molecule, donor type, donor heavy atom, donor atom, acceptor molecule, acceptor atom, score
      L1  H    14    42       P1  7948  0.70
      P1  H  7989  7998       L1    13  0.23

> <Gold.Chemscore.Hbond.Weighted>
-4.7073

> <Gold.Chemscore.Metal.Weighted>
-0.0000

> <Gold.Chemscore.Lipo.Weighted>
-8.4811

> <Gold.Chemscore.Internal_Hbond.Weighted>
0.0000

> <Gold.Chemscore.DEClash.Weighted>
0.2473

> <Gold.Chemscore.DEInternal.Weighted>
1.0402

> <Gold.Chemscore.Rot.Weighted>
4.7697

> <Gold.Chemscore.Internal.Correction.Weighted>
   9.000000E+99

> <Gold.Protein.RotatedTorsions>
[ 6907 6896 6895 6894 ] final   50.39 input  -60.11 | X-H torsion
[ 7974 7965 7964 7962 ] final   81.47 input  175.53 | X-H torsion
[ 8008 7997 7996 7995 ] final   54.88 input   59.86 | X-H torsion
[ 10167 10162 10161 10158 ] final   29.44 input  -65.29 | X-H torsion
[ 10718 10713 10712 10709 ] final  163.84 input   66.30 | X-H torsion
[ 10763 10752 10751 10750 ] final -146.69 input  -60.55 | X-H torsion
[ 11005 11000 10999 10996 ] final  143.94 input  -57.11 | X-H torsion

> <Gold.Protein.ActiveResidues>
 VAL166  LYS551  ARG553  GLY616  TRP617  ASP618  TYR619  PRO620  LYS621  CYS622 
 ASP623  PHE694  ASN695  SER759  ASP760  ASP761  ALA762  ILE779  LEU786  VAL792 
 PHE793  MET794  SER795  GLU796  ALA797  LYS798  CYS799  TRP800  GLU811  SER814 

> <Gold.Protein.RotatedAtoms>
  152.3013  134.7607  160.0356 H   0  0  0  0  0  0  0  0  0  0  0  0  # atno 6907 bound_to 6896
  151.8119  133.3377  159.3566 H   0  0  0  0  0  0  0  0  0  0  0  0  # atno 6908 bound_to 6896
  150.7275  134.5585  159.5875 H   0  0  0  0  0  0  0  0  0  0  0  0  # atno 6909 bound_to 6896
  145.6378  139.2418  143.2048 H   0  0  0  0  0  0  0  0  0  0  0  0  # atno 7974 bound_to 7965
  155.4920  140.3472  155.4356 H   0  0  0  0  0  0  0  0  0  0  0  0  # atno 8008 bound_to 7997
  156.0971  140.1425  156.9545 H   0  0  0  0  0  0  0  0  0  0  0  0  # atno 8009 bound_to 7997
  154.4670  140.0914  156.7024 H   0  0  0  0  0  0  0  0  0  0  0  0  # atno 8010 bound_to 7997
  140.4766  144.0681  150.6252 H   0  0  0  0  0  0  0  0  0  0  0  0  # atno 10167 bound_to 10162
  157.1028  131.0447  151.2490 H   0  0  0  0  0  0  0  0  0  0  0  0  # atno 10718 bound_to 10713
  154.8323  135.3380  154.6701 H   0  0  0  0  0  0  0  0  0  0  0  0  # atno 10763 bound_to 10752
  153.7319  135.6951  153.4992 H   0  0  0  0  0  0  0  0  0  0  0  0  # atno 10764 bound_to 10752
  153.2306  135.4418  155.0543 H   0  0  0  0  0  0  0  0  0  0  0  0  # atno 10765 bound_to 10752
  140.0593  134.9213  157.1155 H   0  0  0  0  0  0  0  0  0  0  0  0  # atno 11005 bound_to 11000
  146.1305  140.7191  142.9414 LP  0  0  0  0  0  0  0  0  0  0  0  0  # atno 17320 bound_to 7965
  144.7169  140.4240  143.7037 LP  0  0  0  0  0  0  0  0  0  0  0  0  # atno 17321 bound_to 7965
  140.3911  143.2752  152.0059 LP  0  0  0  0  0  0  0  0  0  0  0  0  # atno 17342 bound_to 10162
  139.4826  144.6076  151.7492 LP  0  0  0  0  0  0  0  0  0  0  0  0  # atno 17343 bound_to 10162
  157.4626  130.7662  149.7250 LP  0  0  0  0  0  0  0  0  0  0  0  0  # atno 17370 bound_to 10713
  155.9869  130.3971  150.3189 LP  0  0  0  0  0  0  0  0  0  0  0  0  # atno 17371 bound_to 10713
  140.3795  134.2302  155.7172 LP  0  0  0  0  0  0  0  0  0  0  0  0  # atno 17394 bound_to 11000
  141.1966  133.8079  157.0665 LP  0  0  0  0  0  0  0  0  0  0  0  0  # atno 17395 bound_to 11000

$$$$
