AV-unprocessed.smi:1944|AV-procd|sdf|7855|dock6
  -GOLD-   2272010 03D 1   1.00000     0.00000
 Structure written by MMmdl.
 46 47  0  0  0  0  0  0  0  0  2 V2000
  151.7882  138.1620  154.4706 C   0  0  0  0  0  0  0  0  0  0  0  0
  150.4198  138.1919  154.0787 O   0  0  0  0  0  0  0  0  0  0  0  0
  149.6862  139.3354  154.3315 C   0  0  0  0  0  0  0  0  0  0  0  0
  150.2814  140.3456  155.0145 N   0  0  0  0  0  0  0  0  0  0  0  0
  149.5687  141.4642  155.2589 C   0  0  0  0  0  0  0  0  0  0  0  0
  148.2390  141.6382  154.8340 C   0  0  0  0  0  0  0  0  0  0  0  0
  147.6192  140.5922  154.1257 C   0  0  0  0  0  0  0  0  0  0  0  0
  148.3491  139.4049  153.8744 C   0  0  0  0  0  0  0  0  0  0  0  0
  147.8262  138.2968  153.1518 N   0  0  0  0  0  0  0  0  0  0  0  0
  146.5414  137.9511  152.9641 C   0  0  0  0  0  0  0  0  0  0  0  0
  145.5671  138.5491  153.4205 O   0  0  0  0  0  0  0  0  0  0  0  0
  146.4399  136.8380  152.2238 N   0  0  0  0  0  0  0  0  0  0  0  0
  145.1837  136.1992  151.8485 C   0  0  0  0  0  0  0  0  0  0  0  0
  145.2230  135.6872  150.3948 C   0  0  0  0  0  0  0  0  0  0  0  0
  144.9764  134.2247  150.2742 N   0  3  2  0  0  0  0  0  0  0  0  0
  143.8320  133.7836  151.1176 C   0  0  0  0  0  0  0  0  0  0  0  0
  143.4446  132.3259  150.8233 C   0  0  0  0  0  0  0  0  0  0  0  0
  144.6452  131.3906  151.0013 C   0  0  0  0  0  0  0  0  0  0  0  0
  145.8148  131.8752  150.1340 C   0  0  0  0  0  0  0  0  0  0  0  0
  146.1817  133.3478  150.4176 C   0  0  2  0  0  0  0  0  0  0  0  0
  146.9135  133.5166  151.7665 C   0  0  0  0  0  0  0  0  0  0  0  0
  152.2162  137.1937  154.2120 H   0  0  0  0  0  0  0  0  0  0  0  0
  151.8982  138.2948  155.5480 H   0  0  0  0  0  0  0  0  0  0  0  0
  152.3676  138.9286  153.9540 H   0  0  0  0  0  0  0  0  0  0  0  0
  150.0759  142.2469  155.8034 H   0  0  0  0  0  0  0  0  0  0  0  0
  147.7079  142.5554  155.0415 H   0  0  0  0  0  0  0  0  0  0  0  0
  146.6068  140.7281  153.7786 H   0  0  0  0  0  0  0  0  0  0  0  0
  148.5180  137.6571  152.7888 H   0  0  0  0  0  0  0  0  0  0  0  0
  147.2906  136.4076  151.8907 H   0  0  0  0  0  0  0  0  0  0  0  0
  144.9573  135.3845  152.5387 H   0  0  0  0  0  0  0  0  0  0  0  0
  144.4009  136.9463  151.9756 H   0  0  0  0  0  0  0  0  0  0  0  0
  144.5226  136.2435  149.7715 H   0  0  0  0  0  0  0  0  0  0  0  0
  146.2130  135.8937  149.9857 H   0  0  0  0  0  0  0  0  0  0  0  0
  144.0751  133.9072  152.1734 H   0  0  0  0  0  0  0  0  0  0  0  0
  142.9679  134.4201  150.9231 H   0  0  0  0  0  0  0  0  0  0  0  0
  142.6306  132.0168  151.4799 H   0  0  0  0  0  0  0  0  0  0  0  0
  143.0663  132.2462  149.8031 H   0  0  0  0  0  0  0  0  0  0  0  0
  144.9411  131.3594  152.0503 H   0  0  0  0  0  0  0  0  0  0  0  0
  144.3712  130.3716  150.7263 H   0  0  0  0  0  0  0  0  0  0  0  0
  146.6827  131.2317  150.2833 H   0  0  0  0  0  0  0  0  0  0  0  0
  145.5413  131.7713  149.0829 H   0  0  0  0  0  0  0  0  0  0  0  0
  146.8891  133.6265  149.6374 H   0  0  0  0  0  0  0  0  0  0  0  0
  147.7668  132.8403  151.8278 H   0  0  0  0  0  0  0  0  0  0  0  0
  146.2694  133.3019  152.6185 H   0  0  0  0  0  0  0  0  0  0  0  0
  147.3061  134.5255  151.8909 H   0  0  0  0  0  0  0  0  0  0  0  0
  144.6634  134.0899  149.3231 H   0  0  0  0  0  0  0  0  0  0  0  0
  1  2  1  0  0  0  0
  1 22  1  0  0  0  0
  1 23  1  0  0  0  0
  1 24  1  0  0  0  0
  2  3  1  0  0  0  0
  3  8  1  0  0  0  0
  3  4  2  0  0  0  0
  4  5  1  0  0  0  0
  5  6  2  0  0  0  0
  5 25  1  0  0  0  0
  6  7  1  0  0  0  0
  6 26  1  0  0  0  0
  7  8  2  0  0  0  0
  7 27  1  0  0  0  0
  8  9  1  0  0  0  0
  9 10  1  0  0  0  0
  9 28  1  0  0  0  0
 10 11  2  0  0  0  0
 10 12  1  0  0  0  0
 12 13  1  0  0  0  0
 12 29  1  0  0  0  0
 13 14  1  0  0  0  0
 13 30  1  0  0  0  0
 13 31  1  0  0  0  0
 14 15  1  0  0  0  0
 14 32  1  0  0  0  0
 14 33  1  0  0  0  0
 15 20  1  0  0  0  0
 15 16  1  0  0  0  0
 15 46  1  0  0  0  0
 16 17  1  0  0  0  0
 16 34  1  0  0  0  0
 16 35  1  0  0  0  0
 17 18  1  0  0  0  0
 17 36  1  0  0  0  0
 17 37  1  0  0  0  0
 18 19  1  0  0  0  0
 18 38  1  0  0  0  0
 18 39  1  0  0  0  0
 19 20  1  0  0  0  0
 19 40  1  0  0  0  0
 19 41  1  0  0  0  0
 20 21  1  0  0  0  0
 20 42  1  0  0  0  0
 21 43  1  0  0  0  0
 21 44  1  0  0  0  0
 21 45  1  0  0  0  0
M  CHG  1  15   1
M  END
> <s_m_source_file>
AV-unprocessed.smi

> <i_m_source_file_index>
1944

> <i_lp_mmshare_version>
43012

> <i_f3d_flags>
0

> <s_epik_input>
W0NIM11PYzFuW2NIXVtjSF1bY0hdYzFbTkhdQyg9TylbTkhdW0NIMl1bQ0gyXU4yW0NIMl1bQ0gyXVtDSDJdW0NIMl1bQ0BIXTJbQ0gzXQ==

> <s_epik_cmdline>
J2VwaWtfcHl0aG9uJywgJy1waCcsICc3LjAnLCAnLXRuJywgJzgnLCAnLW1hJywgJzIwMCcsICctbWV0YWxfYmluZGluZycsICctaW1hZScsICc8aW5maWxlLm1hZT4nLCAnLW9tYWUnLCAnPG91dGZpbGUubWFlPic=

> <r_lp_tautomer_probability>
1

> <r_epik_Ionization_Penalty>
0.00219525

> <r_epik_Ionization_Penalty_Charging>
0.00211816

> <r_epik_Ionization_Penalty_Neutral>
7.7088e-05

> <r_epik_State_Penalty>
0.00145254

> <r_epik_Charging_Adjusted_Penalty>
0.0035707

> <i_epik_Tot_Q>
1

> <i_epik_Tot_abs_Q>
1

> <r_epik_Metal_State_Penalty>
-0

> <b_epik_Metal_Only>
0

> <s_lp_Force_Field>
OPLS_2005

> <r_lp_Energy>
23.2027

> <b_lp_Chiralities_Consistent>
1

> <s_lp_Variant>
AV-unprocessed.smi:1944-3

> <Gold.Version>
5.8.1

> <Gold.Id.Protein>
6NUR|6NUR_protein|mol2

> <Gold.PLP.Fitness>
48.9839

> <Gold.PLP.PLP>
-39.2681

> <Gold.PLP.part.hbond>
-4.9608

> <Gold.PLP.part.metal>
0.0000

> <Gold.PLP.part.buried>
1.4325

> <Gold.PLP.part.nonpolar>
-39.0066

> <Gold.PLP.part.repulsive>
3.4871

> <Gold.PLP.ligand.clash>
0.0000

> <Gold.PLP.ligand.torsion>
0.8518

> <Gold.PLP.Chemscore.Hbond>
3.0053

> <Gold.PLP.Chemscore.CHOScore>
0.7776

> <Gold.PLP.Chemscore.Metal>
0.0000

> <Gold.Chemscore.Hbonds>
donor molecule, donor type, donor heavy atom, donor atom, acceptor molecule, acceptor atom, score
      L1  H     9    28       P1  7948  1.00
      L1  H    12    29       P1  7948  1.00
      L1  H    15    46       P1  7921  0.07
      P1  H  7989  7998       L1     4  0.68
      L1  C     5    25       P1  8028  0.32

> <Gold.PLP.Chemscore.Internal.Correction>
0.0709

> <Gold.Rescore>
     Score         DG    S(hbond)    S(metal)    S(lipo)     H(rot)  DE(clash)    DE(int)     intcor
     17.27     -20.12       2.45        0.00      92.68       1.71       0.90       1.95       ----

> <Gold.Chemscore.Fitness>
17.2675

> <Gold.Chemscore.DG>
-20.1178

> <Gold.Chemscore.ZeroCoef>
-5.4800

> <Gold.Chemscore.Hbond>
2.4472

> <Gold.Chemscore.Metal>
0.0000

> <Gold.Chemscore.Lipo>
92.6809

> <Gold.Chemscore.Internal_Hbond>
0.0000

> <Gold.Chemscore.DEClash>
0.9026

> <Gold.Chemscore.DEInternal>
1.9476

> <Gold.Chemscore.Rot>
1.7107

> <Gold.Chemscore.Internal.Correction>
   9.000000E+99

> <Gold.Chemscore.Hbonds>
donor molecule, donor type, donor heavy atom, donor atom, acceptor molecule, acceptor atom, score
      L1  H     9    28       P1  7948  0.96
      L1  H    12    29       P1  7948  0.97
      L1  H    15    46       P1  7921  0.07
      P1  H  7989  7998       L1     4  0.05

> <Gold.Chemscore.Hbond.Weighted>
-8.1735

> <Gold.Chemscore.Metal.Weighted>
-0.0000

> <Gold.Chemscore.Lipo.Weighted>
-10.8437

> <Gold.Chemscore.Internal_Hbond.Weighted>
0.0000

> <Gold.Chemscore.DEClash.Weighted>
0.9026

> <Gold.Chemscore.DEInternal.Weighted>
1.9476

> <Gold.Chemscore.Rot.Weighted>
4.3794

> <Gold.Chemscore.Internal.Correction.Weighted>
   9.000000E+99

> <Gold.Protein.RotatedTorsions>
[ 6907 6896 6895 6894 ] final -116.90 input  -60.11 | X-H torsion
[ 7974 7965 7964 7962 ] final -178.94 input  175.53 | X-H torsion
[ 8008 7997 7996 7995 ] final   36.26 input   59.86 | X-H torsion
[ 10167 10162 10161 10158 ] final   66.84 input  -65.29 | X-H torsion
[ 10718 10713 10712 10709 ] final  108.71 input   66.30 | X-H torsion
[ 10763 10752 10751 10750 ] final -166.95 input  -60.55 | X-H torsion
[ 11005 11000 10999 10996 ] final  -88.29 input  -57.11 | X-H torsion

> <Gold.Protein.ActiveResidues>
 VAL166  LYS551  ARG553  GLY616  TRP617  ASP618  TYR619  PRO620  LYS621  CYS622 
 ASP623  PHE694  ASN695  SER759  ASP760  ASP761  ALA762  ILE779  LEU786  VAL792 
 PHE793  MET794  SER795  GLU796  ALA797  LYS798  CYS799  TRP800  GLU811  SER814 

> <Gold.Protein.RotatedAtoms>
  150.8093  133.8452  159.3189 H   0  0  0  0  0  0  0  0  0  0  0  0  # atno 6907 bound_to 6896
  151.6242  135.1027  160.0117 H   0  0  0  0  0  0  0  0  0  0  0  0  # atno 6908 bound_to 6896
  152.4184  133.7036  159.6495 H   0  0  0  0  0  0  0  0  0  0  0  0  # atno 6909 bound_to 6896
  144.7133  140.0793  143.6426 H   0  0  0  0  0  0  0  0  0  0  0  0  # atno 7974 bound_to 7965
  155.1845  140.3302  155.4369 H   0  0  0  0  0  0  0  0  0  0  0  0  # atno 8008 bound_to 7997
  156.2465  140.1921  156.6891 H   0  0  0  0  0  0  0  0  0  0  0  0  # atno 8009 bound_to 7997
  154.6248  140.0590  156.9646 H   0  0  0  0  0  0  0  0  0  0  0  0  # atno 8010 bound_to 7997
  140.0960  144.4946  150.7068 H   0  0  0  0  0  0  0  0  0  0  0  0  # atno 10167 bound_to 10162
  157.6574  131.0899  150.6345 H   0  0  0  0  0  0  0  0  0  0  0  0  # atno 10718 bound_to 10713
  154.6781  135.2950  154.9650 H   0  0  0  0  0  0  0  0  0  0  0  0  # atno 10763 bound_to 10752
  154.0654  135.6625  153.4821 H   0  0  0  0  0  0  0  0  0  0  0  0  # atno 10764 bound_to 10752
  153.0529  135.5162  154.7811 H   0  0  0  0  0  0  0  0  0  0  0  0  # atno 10765 bound_to 10752
  141.1604  133.7561  156.9430 H   0  0  0  0  0  0  0  0  0  0  0  0  # atno 11005 bound_to 11000
  145.9716  139.2874  143.1095 LP  0  0  0  0  0  0  0  0  0  0  0  0  # atno 17320 bound_to 7965
  145.9111  140.9179  143.0454 LP  0  0  0  0  0  0  0  0  0  0  0  0  # atno 17321 bound_to 7965
  140.7003  143.2430  151.4883 LP  0  0  0  0  0  0  0  0  0  0  0  0  # atno 17342 bound_to 10162
  139.5698  144.1956  152.1819 LP  0  0  0  0  0  0  0  0  0  0  0  0  # atno 17343 bound_to 10162
  156.6650  130.4523  149.5675 LP  0  0  0  0  0  0  0  0  0  0  0  0  # atno 17370 bound_to 10713
  156.2039  130.6637  151.1197 LP  0  0  0  0  0  0  0  0  0  0  0  0  # atno 17371 bound_to 10713
  140.1309  134.9357  157.2335 LP  0  0  0  0  0  0  0  0  0  0  0  0  # atno 17394 bound_to 11000
  140.2955  134.3192  155.7303 LP  0  0  0  0  0  0  0  0  0  0  0  0  # atno 17395 bound_to 11000

$$$$
