AV-unprocessed.smi:1218|AV-procd|sdf|5111|dock5
  -GOLD-   22720 4163D 1   1.00000     0.00000
 Structure written by MMmdl.
 44 45  0  0  0  0  0  0  0  0  1 V2000
  152.8601  142.6174  160.1719 C   0  0  0  0  0  0  0  0  0  0  0  0
  152.4895  143.5320  158.9934 C   0  0  0  0  0  0  0  0  0  0  0  0
  152.1609  144.9464  159.4931 C   0  0  0  0  0  0  0  0  0  0  0  0
  151.3102  142.9610  158.1766 C   0  0  0  0  0  0  0  0  0  0  0  0
  151.5748  141.7127  157.4586 N   0  0  0  0  0  0  0  0  0  0  0  0
  150.6226  141.4719  156.3764 C   0  0  0  0  0  0  0  0  0  0  0  0
  150.8910  140.1366  155.6627 C   0  0  0  0  0  0  0  0  0  0  0  0
  150.8689  139.0778  156.6129 O   0  0  0  0  0  0  0  0  0  0  0  0
  151.8337  139.2405  157.6500 C   0  0  2  0  0  0  0  0  0  0  0  0
  151.7475  138.0409  158.6085 C   0  0  0  0  0  0  0  0  0  0  0  0
  152.5801  138.2399  159.7902 N   0  0  0  0  0  0  0  0  0  0  0  0
  153.4735  137.3580  160.2661 C   0  0  0  0  0  0  0  0  0  0  0  0
  153.6792  136.2564  159.7573 O   0  0  0  0  0  0  0  0  0  0  0  0
  154.2675  137.7865  161.5013 C   0  0  0  0  0  0  0  0  0  0  0  0
  154.2048  136.7822  162.5490 N   0  0  0  0  0  0  0  0  0  0  0  0
  153.6786  136.8998  163.8190 C   0  0  0  0  0  0  0  0  0  0  0  0
  153.8434  135.6952  164.4402 C   0  0  0  0  0  0  0  0  0  0  0  0
  154.4853  134.8923  163.4562 C   0  0  0  0  0  0  0  0  0  0  0  0
  154.7009  135.5453  162.3258 N   0  0  0  0  0  0  0  0  0  0  0  0
  151.5511  140.5738  158.3711 C   0  0  0  0  0  0  0  0  0  0  0  0
  152.0195  142.4913  160.8550 H   0  0  0  0  0  0  0  0  0  0  0  0
  153.6932  143.0293  160.7422 H   0  0  0  0  0  0  0  0  0  0  0  0
  153.1601  141.6278  159.8265 H   0  0  0  0  0  0  0  0  0  0  0  0
  153.3635  143.6263  158.3500 H   0  0  0  0  0  0  0  0  0  0  0  0
  151.2939  144.9423  160.1545 H   0  0  0  0  0  0  0  0  0  0  0  0
  151.9423  145.6162  158.6610 H   0  0  0  0  0  0  0  0  0  0  0  0
  152.9989  145.3733  160.0451 H   0  0  0  0  0  0  0  0  0  0  0  0
  150.4773  142.8045  158.8639 H   0  0  0  0  0  0  0  0  0  0  0  0
  150.9663  143.7145  157.4661 H   0  0  0  0  0  0  0  0  0  0  0  0
  149.6056  141.4705  156.7713 H   0  0  0  0  0  0  0  0  0  0  0  0
  150.6722  142.2720  155.6391 H   0  0  0  0  0  0  0  0  0  0  0  0
  150.1296  139.9516  154.9049 H   0  0  0  0  0  0  0  0  0  0  0  0
  151.8545  140.1569  155.1512 H   0  0  0  0  0  0  0  0  0  0  0  0
  152.8319  139.2728  157.2087 H   0  0  0  0  0  0  0  0  0  0  0  0
  150.7193  137.9176  158.9494 H   0  0  0  0  0  0  0  0  0  0  0  0
  152.0114  137.1161  158.0925 H   0  0  0  0  0  0  0  0  0  0  0  0
  152.4791  139.1189  160.2771 H   0  0  0  0  0  0  0  0  0  0  0  0
  155.3133  137.9466  161.2358 H   0  0  0  0  0  0  0  0  0  0  0  0
  153.8833  138.7365  161.8767 H   0  0  0  0  0  0  0  0  0  0  0  0
  153.2372  137.8211  164.1698 H   0  0  0  0  0  0  0  0  0  0  0  0
  153.5490  135.4274  165.4439 H   0  0  0  0  0  0  0  0  0  0  0  0
  154.7982  133.8611  163.5291 H   0  0  0  0  0  0  0  0  0  0  0  0
  152.2924  140.7194  159.1578 H   0  0  0  0  0  0  0  0  0  0  0  0
  150.5799  140.5189  158.8655 H   0  0  0  0  0  0  0  0  0  0  0  0
  1  2  1  0  0  0  0
  1 21  1  0  0  0  0
  1 22  1  0  0  0  0
  1 23  1  0  0  0  0
  2  3  1  0  0  0  0
  2  4  1  0  0  0  0
  2 24  1  0  0  0  0
  3 25  1  0  0  0  0
  3 26  1  0  0  0  0
  3 27  1  0  0  0  0
  4  5  1  0  0  0  0
  4 28  1  0  0  0  0
  4 29  1  0  0  0  0
  5 20  1  0  0  0  0
  5  6  1  0  0  0  0
  6  7  1  0  0  0  0
  6 30  1  0  0  0  0
  6 31  1  0  0  0  0
  7  8  1  0  0  0  0
  7 32  1  0  0  0  0
  7 33  1  0  0  0  0
  8  9  1  0  0  0  0
  9 10  1  0  0  0  0
  9 20  1  0  0  0  0
  9 34  1  0  0  0  0
 10 11  1  0  0  0  0
 10 35  1  0  0  0  0
 10 36  1  0  0  0  0
 11 12  1  0  0  0  0
 11 37  1  0  0  0  0
 12 13  2  0  0  0  0
 12 14  1  0  0  0  0
 14 15  1  0  0  0  0
 14 38  1  0  0  0  0
 14 39  1  0  0  0  0
 15 19  1  0  0  0  0
 15 16  1  0  0  0  0
 16 17  2  0  0  0  0
 16 40  1  0  0  0  0
 17 18  1  0  0  0  0
 17 41  1  0  0  0  0
 18 19  2  0  0  0  0
 18 42  1  0  0  0  0
 20 43  1  0  0  0  0
 20 44  1  0  0  0  0
M  END
> <s_m_source_file>
AV-unprocessed.smi

> <i_m_source_file_index>
1218

> <i_lp_mmshare_version>
43012

> <i_f3d_flags>
0

> <s_epik_input>
W0NIM11bQ0hdKFtDSDNdKVtDSDJdTjFbQ0gyXVtDSDJdT1tDQEhdKFtDSDJdMSlbQ0gyXVtOSF1DKD1PKVtDSDJdbjJbY0hdW2NIXVtjSF1uMg==

> <s_epik_cmdline>
J2VwaWtfcHl0aG9uJywgJy1waCcsICc3LjAnLCAnLXRuJywgJzgnLCAnLW1hJywgJzIwMCcsICctbWV0YWxfYmluZGluZycsICctaW1hZScsICc8aW5maWxlLm1hZT4nLCAnLW9tYWUnLCAnPG91dGZpbGUubWFlPic=

> <r_lp_tautomer_probability>
1

> <r_epik_Ionization_Penalty>
1.10621

> <r_epik_Ionization_Penalty_Charging>
0

> <r_epik_Ionization_Penalty_Neutral>
1.10621

> <r_epik_State_Penalty>
1.16377

> <r_epik_Charging_Adjusted_Penalty>
1.16377

> <i_epik_Tot_Q>
0

> <i_epik_Tot_abs_Q>
0

> <r_epik_Metal_State_Penalty>
1.16377

> <b_epik_Metal_Only>
0

> <s_lp_Force_Field>
OPLS_2005

> <r_lp_Energy>
24.8608

> <b_lp_Chiralities_Consistent>
1

> <s_lp_Variant>
AV-unprocessed.smi:1218-6

> <Gold.Version>
5.8.1

> <Gold.Id.Protein>
6NUR|6NUR_protein|mol2

> <Gold.PLP.Fitness>
44.7844

> <Gold.PLP.PLP>
-42.5314

> <Gold.PLP.part.hbond>
-1.0000

> <Gold.PLP.part.metal>
0.0000

> <Gold.PLP.part.buried>
-4.5140

> <Gold.PLP.part.nonpolar>
-36.9604

> <Gold.PLP.part.repulsive>
0.1287

> <Gold.PLP.ligand.clash>
0.0000

> <Gold.PLP.ligand.torsion>
0.3379

> <Gold.PLP.Chemscore.Hbond>
0.9588

> <Gold.PLP.Chemscore.CHOScore>
0.0000

> <Gold.PLP.Chemscore.Metal>
0.0000

> <Gold.Chemscore.Hbonds>
donor molecule, donor type, donor heavy atom, donor atom, acceptor molecule, acceptor atom, score
      P1  H  6896  6907       L1    13  1.00

> <Gold.PLP.Chemscore.Internal.Correction>
0.0526

> <Gold.Rescore>
     Score         DG    S(hbond)    S(metal)    S(lipo)     H(rot)  DE(clash)    DE(int)     intcor
     14.99     -16.71       0.99        0.00     109.07       1.90       0.04       1.68       ----

> <Gold.Chemscore.Fitness>
14.9855

> <Gold.Chemscore.DG>
-16.7062

> <Gold.Chemscore.ZeroCoef>
-5.4800

> <Gold.Chemscore.Hbond>
0.9945

> <Gold.Chemscore.Metal>
0.0000

> <Gold.Chemscore.Lipo>
109.0681

> <Gold.Chemscore.Internal_Hbond>
0.0000

> <Gold.Chemscore.DEClash>
0.0442

> <Gold.Chemscore.DEInternal>
1.6765

> <Gold.Chemscore.Rot>
1.8970

> <Gold.Chemscore.Internal.Correction>
   9.000000E+99

> <Gold.Chemscore.Hbonds>
donor molecule, donor type, donor heavy atom, donor atom, acceptor molecule, acceptor atom, score
      P1  H  6896  6907       L1    13  0.91

> <Gold.Chemscore.Hbond.Weighted>
-3.3217

> <Gold.Chemscore.Metal.Weighted>
-0.0000

> <Gold.Chemscore.Lipo.Weighted>
-12.7610

> <Gold.Chemscore.Internal_Hbond.Weighted>
0.0000

> <Gold.Chemscore.DEClash.Weighted>
0.0442

> <Gold.Chemscore.DEInternal.Weighted>
1.6765

> <Gold.Chemscore.Rot.Weighted>
4.8564

> <Gold.Chemscore.Internal.Correction.Weighted>
   9.000000E+99

> <Gold.Protein.RotatedTorsions>
[ 6907 6896 6895 6894 ] final   62.78 input  -60.11 | X-H torsion
[ 7974 7965 7964 7962 ] final  108.63 input  175.53 | X-H torsion
[ 8008 7997 7996 7995 ] final  -17.51 input   59.86 | X-H torsion
[ 10167 10162 10161 10158 ] final  -39.11 input  -65.29 | X-H torsion
[ 10718 10713 10712 10709 ] final   53.25 input   66.30 | X-H torsion
[ 10763 10752 10751 10750 ] final  -47.28 input  -60.55 | X-H torsion
[ 11005 11000 10999 10996 ] final  107.26 input  -57.11 | X-H torsion

> <Gold.Protein.ActiveResidues>
 VAL166  LYS551  ARG553  GLY616  TRP617  ASP618  TYR619  PRO620  LYS621  CYS622 
 ASP623  PHE694  ASN695  SER759  ASP760  ASP761  ALA762  ILE779  LEU786  VAL792 
 PHE793  MET794  SER795  GLU796  ALA797  LYS798  CYS799  TRP800  GLU811  SER814 

> <Gold.Protein.RotatedAtoms>
  152.4200  134.5973  159.9990 H   0  0  0  0  0  0  0  0  0  0  0  0  # atno 6907 bound_to 6896
  151.6126  133.3340  159.3078 H   0  0  0  0  0  0  0  0  0  0  0  0  # atno 6908 bound_to 6896
  150.8088  134.7268  159.6734 H   0  0  0  0  0  0  0  0  0  0  0  0  # atno 6909 bound_to 6896
  145.2783  139.2642  143.3929 H   0  0  0  0  0  0  0  0  0  0  0  0  # atno 7974 bound_to 7965
  154.4973  140.2140  155.9421 H   0  0  0  0  0  0  0  0  0  0  0  0  # atno 8008 bound_to 7997
  156.1387  140.3183  155.8429 H   0  0  0  0  0  0  0  0  0  0  0  0  # atno 8009 bound_to 7997
  155.4161  140.0494  157.3019 H   0  0  0  0  0  0  0  0  0  0  0  0  # atno 8010 bound_to 7997
  140.7073  143.3235  151.2736 H   0  0  0  0  0  0  0  0  0  0  0  0  # atno 10167 bound_to 10162
  157.5149  130.8526  149.8483 H   0  0  0  0  0  0  0  0  0  0  0  0  # atno 10718 bound_to 10713
  154.0588  135.6621  153.4809 H   0  0  0  0  0  0  0  0  0  0  0  0  # atno 10763 bound_to 10752
  153.0435  135.5130  154.7679 H   0  0  0  0  0  0  0  0  0  0  0  0  # atno 10764 bound_to 10752
  154.6709  135.3029  154.9710 H   0  0  0  0  0  0  0  0  0  0  0  0  # atno 10765 bound_to 10752
  139.8825  134.9395  156.5792 H   0  0  0  0  0  0  0  0  0  0  0  0  # atno 11005 bound_to 11000
  146.3225  140.3243  142.8635 LP  0  0  0  0  0  0  0  0  0  0  0  0  # atno 17320 bound_to 7965
  144.9275  140.7938  143.5709 LP  0  0  0  0  0  0  0  0  0  0  0  0  # atno 17321 bound_to 7965
  139.6696  144.0044  152.2744 LP  0  0  0  0  0  0  0  0  0  0  0  0  # atno 17342 bound_to 10162
  139.9638  144.6540  150.8054 LP  0  0  0  0  0  0  0  0  0  0  0  0  # atno 17343 bound_to 10162
  156.0314  130.3763  150.1678 LP  0  0  0  0  0  0  0  0  0  0  0  0  # atno 17370 bound_to 10713
  156.9867  130.9881  151.3424 LP  0  0  0  0  0  0  0  0  0  0  0  0  # atno 17371 bound_to 10713
  140.8039  133.8483  155.8751 LP  0  0  0  0  0  0  0  0  0  0  0  0  # atno 17394 bound_to 11000
  140.9567  134.1708  157.4686 LP  0  0  0  0  0  0  0  0  0  0  0  0  # atno 17395 bound_to 11000

$$$$
