#       Name:                AV-unprocessed.smi:590
#       Creating user name   scv26
#       Creation time:       Thu Mar 26 23:51:33 2020


#       File generated by GOLD software.
#

@<TRIPOS>MOLECULE
AV-unprocessed.smi:590
    46    47     1
SMALL
NO_CHARGES


@<TRIPOS>ATOM
      1 ****        -1.5209   3.3705  -2.7027 C.3            1 S1                 0.0000
      2 ****        -1.9700   3.4591  -1.2724 C.2            1 S1                 0.0000
      3 ****        -2.3253   4.6296  -0.7694 N.2            1 S1                 0.0000
      4 ****        -2.6760   4.3835   0.5616 O.3            1 S1                 0.0000
      5 ****        -2.5134   3.0591   0.8108 C.2            1 S1                 0.0000
      6 ****        -2.8309   2.5917   2.1908 C.3            1 S1                 0.0000
      7 ****        -2.0710   2.4134  -0.3106 C.2            1 S1                 0.0000
      8 ****        -1.7572   0.9510  -0.4908 C.3            1 S1                 0.0000
      9 ****        -0.2525   0.7263  -0.3424 C.2            1 S1                 0.0000
     10 ****         0.2750   0.8176   0.7660 O.2            1 S1                 0.0000
     11 ****         0.4234   0.4369  -1.4658 N.am           1 S1                 0.0000
     12 ****         1.8601   0.1903  -1.5549 C.3            1 S1                 0.0000
     13 ****         2.1966  -1.3142  -1.5542 C.3            1 S1                 0.0000
     14 ****         1.7613  -2.0494  -0.2950 C.2            1 S1                 0.0000
     15 ****         0.7532  -2.9436  -0.3059 C.2            1 S1                 0.0000
     16 ****         0.2908  -3.7243   0.9116 C.3            1 S1                 0.0000
     17 ****         1.3044  -3.6633   2.0663 C.3            1 S1                 0.0000
     18 ****         1.8500  -2.2420   2.2487 C.3            1 S1                 0.0000
     19 ****         2.5506  -1.7419   0.9730 C.3            1 S1                 0.0000
     20 ****        -2.0027   2.5360  -3.2123 H              1 S1                 0.0000
     21 ****        -0.4433   3.2177  -2.7620 H              1 S1                 0.0000
     22 ****        -1.7588   4.2780  -3.2585 H              1 S1                 0.0000
     23 ****        -2.1191   1.8324   2.5151 H              1 S1                 0.0000
     24 ****        -3.8299   2.1580   2.2300 H              1 S1                 0.0000
     25 ****        -2.7904   3.4156   2.9035 H              1 S1                 0.0000
     26 ****        -2.2714   0.3389   0.2509 H              1 S1                 0.0000
     27 ****        -2.0945   0.5905  -1.4635 H              1 S1                 0.0000
     28 ****        -0.0990   0.3844  -2.3284 H              1 S1                 0.0000
     29 ****         2.2108   0.6326  -2.4875 H              1 S1                 0.0000
     30 ****         2.3967   0.7116  -0.7612 H              1 S1                 0.0000
     31 ****         1.7324  -1.7830  -2.4230 H              1 S1                 0.0000
     32 ****         3.2714  -1.4508  -1.6773 H              1 S1                 0.0000
     33 ****         0.2093  -3.1280  -1.2207 H              1 S1                 0.0000
     34 ****        -0.6676  -3.3127   1.2297 H              1 S1                 0.0000
     35 ****         0.1130  -4.7620   0.6282 H              1 S1                 0.0000
     36 ****         0.8409  -4.0145   2.9887 H              1 S1                 0.0000
     37 ****         2.1339  -4.3408   1.8594 H              1 S1                 0.0000
     38 ****         1.0256  -1.5714   2.4962 H              1 S1                 0.0000
     39 ****         2.5409  -2.2052   3.0914 H              1 S1                 0.0000
     40 ****         3.5312  -2.2091   0.8790 H              1 S1                 0.0000
     41 ****         2.7226  -0.6696   1.0596 H              1 S1                 0.0000
     42 ****        -2.3401   5.5099  -1.2437 LP             1 S1                 0.0000
     43 ****        -3.6306   4.6406   0.7122 LP             1 S1                 0.0000
     44 ****        -2.0874   4.9162   1.1697 LP             1 S1                 0.0000
     45 ****        -0.2807   1.0385   1.5675 LP             1 S1                 0.0000
     46 ****         1.2592   0.6710   0.8649 LP             1 S1                 0.0000
@<TRIPOS>BOND
    1    1    2 1     
    2    1   20 1     
    3    1   21 1     
    4    1   22 1     
    5    2    7 1     
    6    2    3 2     
    7    3    4 1     
    8    4    5 1     
    9    5    6 1     
   10    5    7 2     
   11    6   23 1     
   12    6   24 1     
   13    6   25 1     
   14    7    8 1     
   15    8    9 1     
   16    8   26 1     
   17    8   27 1     
   18    9   10 2     
   19    9   11 am    
   20   11   12 1     
   21   11   28 1     
   22   12   13 1     
   23   12   29 1     
   24   12   30 1     
   25   13   14 1     
   26   13   31 1     
   27   13   32 1     
   28   14   19 1     
   29   14   15 2     
   30   15   16 1     
   31   15   33 1     
   32   16   17 1     
   33   16   34 1     
   34   16   35 1     
   35   17   18 1     
   36   17   36 1     
   37   17   37 1     
   38   18   19 1     
   39   18   38 1     
   40   18   39 1     
   41   19   40 1     
   42   19   41 1     
   43    3   42 1     
   44    4   43 1     
   45    4   44 1     
   46   10   45 1     
   47   10   46 1     
@<TRIPOS>SUBSTRUCTURE
      1 S1             1
@<TRIPOS>SET
LONE_PAIRS      STATIC     ATOMS    <user>   **** ""
5 42 43 44 45 46
DONOR_HYDROGENS      STATIC     ATOMS    <user>   **** ""
1 28
ATOM$BLUE        STATIC     ATOMS    COLORGROUP SYSTEM
5 42 43 44 45 46
ATOM$RED        STATIC     ATOMS    COLORGROUP SYSTEM
1 28
