AV-unprocessed.smi:229|AV-procd|sdf|1758|dock3
  -GOLD-   2262020283D 1   1.00000     0.00000
 Structure written by MMmdl.
 58 62  0  0  0  0  0  0  0  0  1 V2000
  147.2010  131.9501  154.1611 C   0  0  0  0  0  0  0  0  0  0  0  0
  147.8111  133.3165  153.8245 C   0  0  0  0  0  0  0  0  0  0  0  0
  148.2865  134.0821  155.0682 C   0  0  1  0  0  0  0  0  0  0  0  0
  148.9176  135.4345  154.6996 C   0  0  0  0  0  0  0  0  0  0  0  0
  149.2556  136.1713  155.9092 N   0  0  0  0  0  0  0  0  0  0  0  0
  150.1457  137.1951  155.8428 C   0  0  0  0  0  0  0  0  0  0  0  0
  151.1788  137.0608  154.9705 N   0  0  0  0  0  0  0  0  0  0  0  0
  152.0870  138.0310  154.8366 C   0  0  0  0  0  0  0  0  0  0  0  0
  152.1538  139.2035  155.4682 N   0  0  0  0  0  0  0  0  0  0  0  0
  151.1245  139.3469  156.3505 C   0  0  0  0  0  0  0  0  0  0  0  0
  150.0853  138.4040  156.6017 C   0  0  0  0  0  0  0  0  0  0  0  0
  149.2308  138.9083  157.5778 N   0  0  0  0  0  0  0  0  0  0  0  0
  149.7271  140.0777  157.8749 C   0  0  0  0  0  0  0  0  0  0  0  0
  150.8639  140.4212  157.1819 N   0  0  0  0  0  0  0  0  0  0  0  0
  151.6226  141.6534  157.3068 C   0  0  0  0  0  0  0  0  0  0  0  0
  152.2365  141.8271  158.7106 C   0  0  1  0  0  0  0  0  0  0  0  0
  153.3948  141.0201  158.8141 O   0  0  0  0  0  0  0  0  0  0  0  0
  152.6225  143.2890  159.0039 C   0  0  2  0  0  0  0  0  0  0  0  0
  153.0656  143.5494  160.4440 C   0  0  0  0  0  0  0  0  0  0  0  0
  152.8327  145.0375  160.5690 C   0  0  0  0  0  0  0  0  0  0  0  0
  151.5506  145.2285  159.7624 C   0  0  0  0  0  0  0  0  0  0  0  0
  151.4995  144.1495  158.8315 O   0  0  0  0  0  0  0  0  0  0  0  0
  148.1272  136.3508  156.8171 C   0  0  0  0  0  0  0  0  0  0  0  0
  147.4539  134.9957  157.1374 C   0  0  2  0  0  0  0  0  0  0  0  0
  146.1363  135.2001  157.8790 C   0  0  0  0  0  0  0  0  0  0  0  0
  146.5264  135.0395  159.3403 C   0  0  0  0  0  0  0  0  0  0  0  0
  147.4463  133.9655  159.2894 O   0  0  0  0  0  0  0  0  0  0  0  0
  148.2648  134.1380  158.1379 C   0  0  0  0  0  0  0  0  0  0  0  0
  147.1606  134.3050  155.9191 O   0  0  0  0  0  0  0  0  0  0  0  0
  146.8914  131.4303  153.2545 H   0  0  0  0  0  0  0  0  0  0  0  0
  146.3234  132.0543  154.7997 H   0  0  0  0  0  0  0  0  0  0  0  0
  147.9199  131.3153  154.6799 H   0  0  0  0  0  0  0  0  0  0  0  0
  148.6542  133.1656  153.1497 H   0  0  0  0  0  0  0  0  0  0  0  0
  147.0838  133.9170  153.2769 H   0  0  0  0  0  0  0  0  0  0  0  0
  149.0317  133.4746  155.5826 H   0  0  0  0  0  0  0  0  0  0  0  0
  149.8123  135.2639  154.0999 H   0  0  0  0  0  0  0  0  0  0  0  0
  148.2227  136.0238  154.0999 H   0  0  0  0  0  0  0  0  0  0  0  0
  152.8710  137.8413  154.1183 H   0  0  0  0  0  0  0  0  0  0  0  0
  149.2731  140.7261  158.6101 H   0  0  0  0  0  0  0  0  0  0  0  0
  152.4024  141.6625  156.5439 H   0  0  0  0  0  0  0  0  0  0  0  0
  150.9549  142.4851  157.0788 H   0  0  0  0  0  0  0  0  0  0  0  0
  151.5213  141.4867  159.4606 H   0  0  0  0  0  0  0  0  0  0  0  0
  153.9981  141.2733  158.1324 H   0  0  0  0  0  0  0  0  0  0  0  0
  153.4063  143.6201  158.3202 H   0  0  0  0  0  0  0  0  0  0  0  0
  152.4285  143.0108  161.1473 H   0  0  0  0  0  0  0  0  0  0  0  0
  154.1011  143.2631  160.6303 H   0  0  0  0  0  0  0  0  0  0  0  0
  152.7419  145.3743  161.6021 H   0  0  0  0  0  0  0  0  0  0  0  0
  153.6546  145.5826  160.1026 H   0  0  0  0  0  0  0  0  0  0  0  0
  150.6754  145.1684  160.4100 H   0  0  0  0  0  0  0  0  0  0  0  0
  151.5278  146.1918  159.2521 H   0  0  0  0  0  0  0  0  0  0  0  0
  148.4246  136.8424  157.7441 H   0  0  0  0  0  0  0  0  0  0  0  0
  147.4122  137.0151  156.3295 H   0  0  0  0  0  0  0  0  0  0  0  0
  145.6560  136.1562  157.6689 H   0  0  0  0  0  0  0  0  0  0  0  0
  145.4296  134.4120  157.6139 H   0  0  0  0  0  0  0  0  0  0  0  0
  147.0211  135.9355  159.7188 H   0  0  0  0  0  0  0  0  0  0  0  0
  145.6757  134.8123  159.9830 H   0  0  0  0  0  0  0  0  0  0  0  0
  148.5261  133.1556  157.7460 H   0  0  0  0  0  0  0  0  0  0  0  0
  149.1914  134.6348  158.4284 H   0  0  0  0  0  0  0  0  0  0  0  0
  1  2  1  0  0  0  0
  1 30  1  0  0  0  0
  1 31  1  0  0  0  0
  1 32  1  0  0  0  0
  2  3  1  0  0  0  0
  2 33  1  0  0  0  0
  2 34  1  0  0  0  0
  3 29  1  0  0  0  0
  3  4  1  0  0  0  0
  3 35  1  0  0  0  0
  4  5  1  0  0  0  0
  4 36  1  0  0  0  0
  4 37  1  0  0  0  0
  5  6  1  0  0  0  0
  5 23  1  0  0  0  0
  6 11  1  0  0  0  0
  6  7  2  0  0  0  0
  7  8  1  0  0  0  0
  8  9  2  0  0  0  0
  8 38  1  0  0  0  0
  9 10  1  0  0  0  0
 10 14  1  0  0  0  0
 10 11  2  0  0  0  0
 11 12  1  0  0  0  0
 12 13  2  0  0  0  0
 13 14  1  0  0  0  0
 13 39  1  0  0  0  0
 14 15  1  0  0  0  0
 15 16  1  0  0  0  0
 15 40  1  0  0  0  0
 15 41  1  0  0  0  0
 16 17  1  0  0  0  0
 16 18  1  0  0  0  0
 16 42  1  0  0  0  0
 17 43  1  0  0  0  0
 18 22  1  0  0  0  0
 18 19  1  0  0  0  0
 18 44  1  0  0  0  0
 19 20  1  0  0  0  0
 19 45  1  0  0  0  0
 19 46  1  0  0  0  0
 20 21  1  0  0  0  0
 20 47  1  0  0  0  0
 20 48  1  0  0  0  0
 21 22  1  0  0  0  0
 21 49  1  0  0  0  0
 21 50  1  0  0  0  0
 23 24  1  0  0  0  0
 23 51  1  0  0  0  0
 23 52  1  0  0  0  0
 24 28  1  0  0  0  0
 24 25  1  0  0  0  0
 24 29  1  0  0  0  0
 25 26  1  0  0  0  0
 25 53  1  0  0  0  0
 25 54  1  0  0  0  0
 26 27  1  0  0  0  0
 26 55  1  0  0  0  0
 26 56  1  0  0  0  0
 27 28  1  0  0  0  0
 28 57  1  0  0  0  0
 28 58  1  0  0  0  0
M  END
> <s_m_source_file>
AV-unprocessed.smi

> <i_m_source_file_index>
229

> <i_lp_mmshare_version>
43012

> <i_f3d_flags>
0

> <s_epik_input>
W0NIMl0xT1tDSDJdW0NIMl1bQ0BdMTJbQ0gyXU4oW0NIMl1bQ0BIXShPMilbQ0gyXVtDSDNdKWMobltjSF1uMyljKGMzNCluW2NIXW40W0NIMl1bQ0BIXShbT0hdKVtDQEBIXTVbQ0gyXVtDSDJdW0NIMl1PNQ==

> <s_epik_cmdline>
J2VwaWtfcHl0aG9uJywgJy1waCcsICc3LjAnLCAnLXRuJywgJzgnLCAnLW1hJywgJzIwMCcsICctbWV0YWxfYmluZGluZycsICctaW1hZScsICc8aW5maWxlLm1hZT4nLCAnLW9tYWUnLCAnPG91dGZpbGUubWFlPic=

> <r_lp_tautomer_probability>
1

> <r_epik_Ionization_Penalty>
0.00318402

> <r_epik_Ionization_Penalty_Charging>
0

> <r_epik_Ionization_Penalty_Neutral>
0.00318402

> <r_epik_State_Penalty>
0.00215642

> <r_epik_Charging_Adjusted_Penalty>
0.00215642

> <i_epik_Tot_Q>
0

> <i_epik_Tot_abs_Q>
0

> <r_epik_Metal_State_Penalty>
-0

> <b_epik_Metal_Only>
0

> <s_lp_Force_Field>
OPLS_2005

> <r_lp_Energy>
55.1094

> <b_lp_Chiralities_Consistent>
1

> <s_lp_Variant>
AV-unprocessed.smi:229-12

> <Gold.Version>
5.8.1

> <Gold.Id.Protein>
6NUR|6NUR_protein|mol2

> <Gold.PLP.Fitness>
42.8660

> <Gold.PLP.PLP>
-37.5732

> <Gold.PLP.part.hbond>
-2.0000

> <Gold.PLP.part.metal>
0.0000

> <Gold.PLP.part.buried>
-4.2687

> <Gold.PLP.part.nonpolar>
-31.9473

> <Gold.PLP.part.repulsive>
0.3014

> <Gold.PLP.ligand.clash>
0.0000

> <Gold.PLP.ligand.torsion>
0.5590

> <Gold.PLP.Chemscore.Hbond>
1.9600

> <Gold.PLP.Chemscore.CHOScore>
0.0000

> <Gold.PLP.Chemscore.Metal>
0.0000

> <Gold.Chemscore.Hbonds>
donor molecule, donor type, donor heavy atom, donor atom, acceptor molecule, acceptor atom, score
      P1  H 10752 10763       L1     7  0.07

> <Gold.PLP.Chemscore.Internal.Correction>
0.5307

> <Gold.Rescore>
     Score         DG    S(hbond)    S(metal)    S(lipo)     H(rot)  DE(clash)    DE(int)     intcor
     12.45     -15.26       1.43        0.00      96.61       2.46       0.75       2.07       ----

> <Gold.Chemscore.Fitness>
12.4456

> <Gold.Chemscore.DG>
-15.2595

> <Gold.Chemscore.ZeroCoef>
-5.4800

> <Gold.Chemscore.Hbond>
1.4287

> <Gold.Chemscore.Metal>
0.0000

> <Gold.Chemscore.Lipo>
96.6072

> <Gold.Chemscore.Internal_Hbond>
0.0000

> <Gold.Chemscore.DEClash>
0.7476

> <Gold.Chemscore.DEInternal>
2.0663

> <Gold.Chemscore.Rot>
2.4591

> <Gold.Chemscore.Internal.Correction>
   9.000000E+99

> <Gold.Chemscore.Hbonds>
donor molecule, donor type, donor heavy atom, donor atom, acceptor molecule, acceptor atom, score
      P1  H  7997  8010       L1     9  0.02

> <Gold.Chemscore.Hbond.Weighted>
-4.7718

> <Gold.Chemscore.Metal.Weighted>
-0.0000

> <Gold.Chemscore.Lipo.Weighted>
-11.3030

> <Gold.Chemscore.Internal_Hbond.Weighted>
0.0000

> <Gold.Chemscore.DEClash.Weighted>
0.7476

> <Gold.Chemscore.DEInternal.Weighted>
2.0663

> <Gold.Chemscore.Rot.Weighted>
6.2953

> <Gold.Chemscore.Internal.Correction.Weighted>
   9.000000E+99

> <Gold.Protein.RotatedTorsions>
[ 6907 6896 6895 6894 ] final  -71.37 input  -60.11 | X-H torsion
[ 7974 7965 7964 7962 ] final   67.32 input  175.53 | X-H torsion
[ 8008 7997 7996 7995 ] final   83.94 input   59.86 | X-H torsion
[ 10167 10162 10161 10158 ] final -166.54 input  -65.29 | X-H torsion
[ 10718 10713 10712 10709 ] final   44.22 input   66.30 | X-H torsion
[ 10763 10752 10751 10750 ] final   53.08 input  -60.55 | X-H torsion
[ 11005 11000 10999 10996 ] final   80.26 input  -57.11 | X-H torsion

> <Gold.Protein.ActiveResidues>
 VAL166  LYS551  ARG553  GLY616  TRP617  ASP618  TYR619  PRO620  LYS621  CYS622 
 ASP623  PHE694  ASN695  SER759  ASP760  ASP761  ALA762  ILE779  LEU786  VAL792 
 PHE793  MET794  SER795  GLU796  ALA797  LYS798  CYS799  TRP800  GLU811  SER814 

> <Gold.Protein.RotatedAtoms>
  150.7215  134.5319  159.5703 H   0  0  0  0  0  0  0  0  0  0  0  0  # atno 6907 bound_to 6896
  152.2850  134.7783  160.0398 H   0  0  0  0  0  0  0  0  0  0  0  0  # atno 6908 bound_to 6896
  151.8417  133.3389  159.3682 H   0  0  0  0  0  0  0  0  0  0  0  0  # atno 6909 bound_to 6896
  145.8161  139.3059  143.1071 H   0  0  0  0  0  0  0  0  0  0  0  0  # atno 7974 bound_to 7965
  155.9306  140.3415  155.6246 H   0  0  0  0  0  0  0  0  0  0  0  0  # atno 8008 bound_to 7997
  155.7162  140.0778  157.2368 H   0  0  0  0  0  0  0  0  0  0  0  0  # atno 8009 bound_to 7997
  154.4084  140.1613  156.2339 H   0  0  0  0  0  0  0  0  0  0  0  0  # atno 8010 bound_to 7997
  139.6108  144.0819  152.1840 H   0  0  0  0  0  0  0  0  0  0  0  0  # atno 10167 bound_to 10162
  157.4245  130.7988  149.7546 H   0  0  0  0  0  0  0  0  0  0  0  0  # atno 10718 bound_to 10713
  152.9793  135.5791  154.4683 H   0  0  0  0  0  0  0  0  0  0  0  0  # atno 10763 bound_to 10752
  154.4250  135.2772  155.1952 H   0  0  0  0  0  0  0  0  0  0  0  0  # atno 10764 bound_to 10752
  154.3685  135.6173  153.5781 H   0  0  0  0  0  0  0  0  0  0  0  0  # atno 10765 bound_to 10752
  139.9141  134.7907  156.1886 H   0  0  0  0  0  0  0  0  0  0  0  0  # atno 11005 bound_to 11000
  145.9725  140.8748  143.0155 LP  0  0  0  0  0  0  0  0  0  0  0  0  # atno 17320 bound_to 7965
  144.6752  140.1966  143.7391 LP  0  0  0  0  0  0  0  0  0  0  0  0  # atno 17321 bound_to 7965
  140.0437  144.5987  150.7391 LP  0  0  0  0  0  0  0  0  0  0  0  0  # atno 17342 bound_to 10162
  140.7317  143.2698  151.3926 LP  0  0  0  0  0  0  0  0  0  0  0  0  # atno 17343 bound_to 10162
  155.9892  130.3954  150.3085 LP  0  0  0  0  0  0  0  0  0  0  0  0  # atno 17370 bound_to 10713
  157.1236  131.0253  151.2999 LP  0  0  0  0  0  0  0  0  0  0  0  0  # atno 17371 bound_to 10713
  141.0597  133.6847  156.1929 LP  0  0  0  0  0  0  0  0  0  0  0  0  # atno 17394 bound_to 11000
  140.6680  134.4898  157.5586 LP  0  0  0  0  0  0  0  0  0  0  0  0  # atno 17395 bound_to 11000

$$$$
