AV-unprocessed.smi:1737|AV-procd|sdf|6996|dock1
  -GOLD-   22720 8213D 1   1.00000     0.00000
 Structure written by MMmdl.
 43 44  0  0  0  0  0  0  0  0  2 V2000
  151.0376  145.2983  158.5793 C   0  0  0  0  0  0  0  0  0  0  0  0
  151.5934  144.0449  159.2361 C   0  0  0  0  0  0  0  0  0  0  0  0
  152.3675  144.1663  160.4099 C   0  0  0  0  0  0  0  0  0  0  0  0
  152.8810  143.0066  161.0153 C   0  0  0  0  0  0  0  0  0  0  0  0
  152.5973  141.7666  160.4177 C   0  0  0  0  0  0  0  0  0  0  0  0
  151.8582  141.6418  159.2965 N   0  0  0  0  0  0  0  0  0  0  0  0
  151.3561  142.7513  158.6986 C   0  0  0  0  0  0  0  0  0  0  0  0
  150.5655  142.6938  157.5162 N   0  0  0  0  0  0  0  0  0  0  0  0
  150.2085  141.6125  156.8010 C   0  0  0  0  0  0  0  0  0  0  0  0
  150.5496  140.4541  157.0393 O   0  0  0  0  0  0  0  0  0  0  0  0
  149.4165  141.9516  155.7737 N   0  0  0  0  0  0  0  0  0  0  0  0
  148.8508  141.0224  154.7962 C   0  0  0  0  0  0  0  0  0  0  0  0
  147.9598  141.7129  153.7285 C   0  0  1  0  0  0  0  0  0  0  0  0
  147.1752  140.6503  152.9280 C   0  0  0  0  0  0  0  0  0  0  0  0
  147.0710  142.7673  154.3168 N   0  3  0  0  0  0  0  0  0  0  0  0
  146.0699  143.2918  153.3482 C   0  0  0  0  0  0  0  0  0  0  0  0
  145.2186  144.4059  153.9785 C   0  0  0  0  0  0  0  0  0  0  0  0
  144.5724  143.9101  155.1411 O   0  0  0  0  0  0  0  0  0  0  0  0
  145.5127  143.5041  156.1243 C   0  0  0  0  0  0  0  0  0  0  0  0
  146.3849  142.3626  155.5746 C   0  0  0  0  0  0  0  0  0  0  0  0
  151.3254  146.1958  159.1280 H   0  0  0  0  0  0  0  0  0  0  0  0
  149.9483  145.2612  158.5456 H   0  0  0  0  0  0  0  0  0  0  0  0
  151.4144  145.3941  157.5605 H   0  0  0  0  0  0  0  0  0  0  0  0
  152.5670  145.1349  160.8441 H   0  0  0  0  0  0  0  0  0  0  0  0
  153.4767  143.0656  161.9143 H   0  0  0  0  0  0  0  0  0  0  0  0
  152.9723  140.8510  160.8503 H   0  0  0  0  0  0  0  0  0  0  0  0
  150.2253  143.5837  157.1836 H   0  0  0  0  0  0  0  0  0  0  0  0
  149.2025  142.9297  155.6460 H   0  0  0  0  0  0  0  0  0  0  0  0
  149.6853  140.5172  154.3105 H   0  0  0  0  0  0  0  0  0  0  0  0
  148.3019  140.2243  155.2992 H   0  0  0  0  0  0  0  0  0  0  0  0
  148.6273  142.2038  153.0183 H   0  0  0  0  0  0  0  0  0  0  0  0
  147.8223  139.8254  152.6287 H   0  0  0  0  0  0  0  0  0  0  0  0
  146.7598  141.0589  152.0070 H   0  0  0  0  0  0  0  0  0  0  0  0
  146.3553  140.2300  153.5108 H   0  0  0  0  0  0  0  0  0  0  0  0
  146.5577  143.6982  152.4635 H   0  0  0  0  0  0  0  0  0  0  0  0
  145.4258  142.4777  153.0121 H   0  0  0  0  0  0  0  0  0  0  0  0
  145.8322  145.2739  154.2256 H   0  0  0  0  0  0  0  0  0  0  0  0
  144.4603  144.7435  153.2717 H   0  0  0  0  0  0  0  0  0  0  0  0
  146.1281  144.3520  156.4301 H   0  0  0  0  0  0  0  0  0  0  0  0
  144.9724  143.1693  157.0100 H   0  0  0  0  0  0  0  0  0  0  0  0
  145.7731  141.4784  155.3892 H   0  0  0  0  0  0  0  0  0  0  0  0
  147.1068  142.1019  156.3475 H   0  0  0  0  0  0  0  0  0  0  0  0
  147.6731  143.5406  154.5617 H   0  0  0  0  0  0  0  0  0  0  0  0
  1  2  1  0  0  0  0
  1 21  1  0  0  0  0
  1 22  1  0  0  0  0
  1 23  1  0  0  0  0
  2  7  1  0  0  0  0
  2  3  2  0  0  0  0
  3  4  1  0  0  0  0
  3 24  1  0  0  0  0
  4  5  2  0  0  0  0
  4 25  1  0  0  0  0
  5  6  1  0  0  0  0
  5 26  1  0  0  0  0
  6  7  2  0  0  0  0
  7  8  1  0  0  0  0
  8  9  1  0  0  0  0
  8 27  1  0  0  0  0
  9 10  2  0  0  0  0
  9 11  1  0  0  0  0
 11 12  1  0  0  0  0
 11 28  1  0  0  0  0
 12 13  1  0  0  0  0
 12 29  1  0  0  0  0
 12 30  1  0  0  0  0
 13 14  1  0  0  0  0
 13 15  1  0  0  0  0
 13 31  1  0  0  0  0
 14 32  1  0  0  0  0
 14 33  1  0  0  0  0
 14 34  1  0  0  0  0
 15 20  1  0  0  0  0
 15 16  1  0  0  0  0
 15 43  1  0  0  0  0
 16 17  1  0  0  0  0
 16 35  1  0  0  0  0
 16 36  1  0  0  0  0
 17 18  1  0  0  0  0
 17 37  1  0  0  0  0
 17 38  1  0  0  0  0
 18 19  1  0  0  0  0
 19 20  1  0  0  0  0
 19 39  1  0  0  0  0
 19 40  1  0  0  0  0
 20 41  1  0  0  0  0
 20 42  1  0  0  0  0
M  CHG  1  15   1
M  END
> <s_m_source_file>
AV-unprocessed.smi

> <i_m_source_file_index>
1737

> <i_lp_mmshare_version>
43012

> <i_f3d_flags>
0

> <s_epik_input>
W0NIM11jMVtjSF1bY0hdW2NIXW5jMVtOSF1DKD1PKVtOSF1bQ0gyXVtDQEhdKFtDSDNdKU4yW0NIMl1bQ0gyXU9bQ0gyXVtDSDJdMg==

> <s_epik_cmdline>
J2VwaWtfcHl0aG9uJywgJy1waCcsICc3LjAnLCAnLXRuJywgJzgnLCAnLW1hJywgJzIwMCcsICctbWV0YWxfYmluZGluZycsICctaW1hZScsICc8aW5maWxlLm1hZT4nLCAnLW9tYWUnLCAnPG91dGZpbGUubWFlPic=

> <r_epik_Ionization_Penalty>
0.602573

> <r_epik_Ionization_Penalty_Charging>
0.602531

> <r_epik_Ionization_Penalty_Neutral>
4.25912e-05

> <r_epik_State_Penalty>
0.617039

> <r_epik_Charging_Adjusted_Penalty>
1.21957

> <i_epik_Tot_Q>
1

> <i_epik_Tot_abs_Q>
1

> <r_epik_Metal_State_Penalty>
0.617042

> <b_epik_Metal_Only>
0

> <s_lp_Force_Field>
OPLS_2005

> <r_lp_Energy>
29.9094

> <b_lp_Chiralities_Consistent>
1

> <s_lp_Variant>
AV-unprocessed.smi:1737-4

> <Gold.Version>
5.8.1

> <Gold.Id.Protein>
6NUR|6NUR_protein|mol2

> <Gold.PLP.Fitness>
51.0604

> <Gold.PLP.PLP>
-41.7807

> <Gold.PLP.part.hbond>
-2.4055

> <Gold.PLP.part.metal>
0.0000

> <Gold.PLP.part.buried>
-6.6625

> <Gold.PLP.part.nonpolar>
-30.1084

> <Gold.PLP.part.repulsive>
0.4244

> <Gold.PLP.ligand.clash>
0.0000

> <Gold.PLP.ligand.torsion>
0.3294

> <Gold.PLP.Chemscore.Hbond>
3.2964

> <Gold.PLP.Chemscore.CHOScore>
0.0000

> <Gold.PLP.Chemscore.Metal>
0.0000

> <Gold.Chemscore.Hbonds>
donor molecule, donor type, donor heavy atom, donor atom, acceptor molecule, acceptor atom, score
      L1  H     8    27       P1  8028  0.28
      L1  H    11    28       P1  8028  1.00
      L1  H    15    43       P1  8028  2.00

> <Gold.PLP.Chemscore.Internal.Correction>
0.0493

> <Gold.Rescore>
     Score         DG    S(hbond)    S(metal)    S(lipo)     H(rot)  DE(clash)    DE(int)     intcor
     17.40     -19.19       1.84        0.00      97.74       1.51       0.26       1.53       ----

> <Gold.Chemscore.Fitness>
17.4023

> <Gold.Chemscore.DG>
-19.1870

> <Gold.Chemscore.ZeroCoef>
-5.4800

> <Gold.Chemscore.Hbond>
1.8395

> <Gold.Chemscore.Metal>
0.0000

> <Gold.Chemscore.Lipo>
97.7420

> <Gold.Chemscore.Internal_Hbond>
0.0000

> <Gold.Chemscore.DEClash>
0.2585

> <Gold.Chemscore.DEInternal>
1.5262

> <Gold.Chemscore.Rot>
1.5128

> <Gold.Chemscore.Internal.Correction>
   9.000000E+99

> <Gold.Chemscore.Hbonds>
donor molecule, donor type, donor heavy atom, donor atom, acceptor molecule, acceptor atom, score
      L1  H     8    27       P1  8028  0.28
      L1  H    11    28       P1  8028  1.00
      L1  H    15    43       P1  8028  0.39

> <Gold.Chemscore.Hbond.Weighted>
-6.1438

> <Gold.Chemscore.Metal.Weighted>
-0.0000

> <Gold.Chemscore.Lipo.Weighted>
-11.4358

> <Gold.Chemscore.Internal_Hbond.Weighted>
0.0000

> <Gold.Chemscore.DEClash.Weighted>
0.2585

> <Gold.Chemscore.DEInternal.Weighted>
1.5262

> <Gold.Chemscore.Rot.Weighted>
3.8726

> <Gold.Chemscore.Internal.Correction.Weighted>
   9.000000E+99

> <Gold.Protein.RotatedTorsions>
[ 6907 6896 6895 6894 ] final  -52.48 input  -60.11 | X-H torsion
[ 7974 7965 7964 7962 ] final  158.40 input  175.53 | X-H torsion
[ 8008 7997 7996 7995 ] final -118.62 input   59.86 | X-H torsion
[ 10167 10162 10161 10158 ] final  135.85 input  -65.29 | X-H torsion
[ 10718 10713 10712 10709 ] final -134.81 input   66.30 | X-H torsion
[ 10763 10752 10751 10750 ] final  -50.87 input  -60.55 | X-H torsion
[ 11005 11000 10999 10996 ] final  120.30 input  -57.11 | X-H torsion

> <Gold.Protein.ActiveResidues>
 VAL166  LYS551  ARG553  GLY616  TRP617  ASP618  TYR619  PRO620  LYS621  CYS622 
 ASP623  PHE694  ASN695  SER759  ASP760  ASP761  ALA762  ILE779  LEU786  VAL792 
 PHE793  MET794  SER795  GLU796  ALA797  LYS798  CYS799  TRP800  GLU811  SER814 

> <Gold.Protein.RotatedAtoms>
  150.8514  134.7839  159.7011 H   0  0  0  0  0  0  0  0  0  0  0  0  # atno 6907 bound_to 6896
  152.4577  134.5250  159.9804 H   0  0  0  0  0  0  0  0  0  0  0  0  # atno 6908 bound_to 6896
  151.5371  133.3401  159.2964 H   0  0  0  0  0  0  0  0  0  0  0  0  # atno 6909 bound_to 6896
  144.7848  139.7474  143.6245 H   0  0  0  0  0  0  0  0  0  0  0  0  # atno 7974 bound_to 7965
  155.1026  140.0396  157.2701 H   0  0  0  0  0  0  0  0  0  0  0  0  # atno 8008 bound_to 7997
  154.6747  140.2620  155.6945 H   0  0  0  0  0  0  0  0  0  0  0  0  # atno 8009 bound_to 7997
  156.2672  140.2790  156.1269 H   0  0  0  0  0  0  0  0  0  0  0  0  # atno 8010 bound_to 7997
  139.5201  144.6495  151.5342 H   0  0  0  0  0  0  0  0  0  0  0  0  # atno 10167 bound_to 10162
  156.2594  130.7201  151.1129 H   0  0  0  0  0  0  0  0  0  0  0  0  # atno 10718 bound_to 10713
  154.1174  135.6540  153.4896 H   0  0  0  0  0  0  0  0  0  0  0  0  # atno 10763 bound_to 10752
  153.0236  135.5262  154.7131 H   0  0  0  0  0  0  0  0  0  0  0  0  # atno 10764 bound_to 10752
  154.6329  135.2978  155.0165 H   0  0  0  0  0  0  0  0  0  0  0  0  # atno 10765 bound_to 10752
  139.9180  134.9634  156.7786 H   0  0  0  0  0  0  0  0  0  0  0  0  # atno 11005 bound_to 11000
  146.2074  139.5407  142.9704 LP  0  0  0  0  0  0  0  0  0  0  0  0  # atno 17320 bound_to 7965
  145.5953  141.0363  143.2048 LP  0  0  0  0  0  0  0  0  0  0  0  0  # atno 17321 bound_to 7965
  140.6294  143.9105  150.6592 LP  0  0  0  0  0  0  0  0  0  0  0  0  # atno 17342 bound_to 10162
  140.2404  143.3668  152.1491 LP  0  0  0  0  0  0  0  0  0  0  0  0  # atno 17343 bound_to 10162
  157.7245  131.0659  150.5993 LP  0  0  0  0  0  0  0  0  0  0  0  0  # atno 17370 bound_to 10713
  156.6080  130.4372  149.5870 LP  0  0  0  0  0  0  0  0  0  0  0  0  # atno 17371 bound_to 10713
  140.6562  133.9686  155.7781 LP  0  0  0  0  0  0  0  0  0  0  0  0  # atno 17394 bound_to 11000
  141.0674  134.0256  157.3574 LP  0  0  0  0  0  0  0  0  0  0  0  0  # atno 17395 bound_to 11000

$$$$
