AV-unprocessed.smi:1682|AV-procd|sdf|6744|dock1
  -GOLD-   22720 7493D 1   1.00000     0.00000
 Structure written by MMmdl.
 38 39  0  0  0  0  0  0  0  0  1 V2000
  151.2896  137.0982  159.6069 O   0  0  0  0  0  0  0  0  0  0  0  0
  150.3076  137.6759  159.1393 C   0  0  0  0  0  0  0  0  0  0  0  0
  150.3455  138.9362  158.6803 N   0  0  0  0  0  0  0  0  0  0  0  0
  151.5302  139.7863  158.6691 C   0  0  0  0  0  0  0  0  0  0  0  0
  151.2588  141.1269  157.9660 C   0  0  0  0  0  0  0  0  0  0  0  0
  151.7044  142.3129  158.8000 C   0  0  0  0  0  0  0  0  0  0  0  0
  151.5126  143.6322  158.3368 C   0  0  0  0  0  0  0  0  0  0  0  0
  151.9391  144.6984  159.1524 C   0  0  0  0  0  0  0  0  0  0  0  0
  152.5362  144.4055  160.3937 C   0  0  0  0  0  0  0  0  0  0  0  0
  152.6818  143.0540  160.7653 C   0  0  0  0  0  0  0  0  0  0  0  0
  152.2772  142.0244  159.9906 N   0  0  0  0  0  0  0  0  0  0  0  0
  148.9509  136.9583  159.0635 C   0  0  1  0  0  0  0  0  0  0  0  0
  148.9991  135.7586  158.0965 C   0  0  0  0  0  0  0  0  0  0  0  0
  148.8436  134.5487  159.0021 C   0  0  0  0  0  0  0  0  0  0  0  0
  148.9528  133.3936  158.5933 O   0  0  0  0  0  0  0  0  0  0  0  0
  148.5958  134.9196  160.2625 N   0  0  0  0  0  0  0  0  0  0  0  0
  148.4293  134.0310  161.4118 C   0  0  0  0  0  0  0  0  0  0  0  0
  147.1983  134.3919  162.2628 C   0  0  0  0  0  0  0  0  0  0  0  0
  146.1700  134.7554  161.4969 F   0  0  0  0  0  0  0  0  0  0  0  0
  146.8373  133.3256  162.9754 F   0  0  0  0  0  0  0  0  0  0  0  0
  147.4908  135.3843  163.1034 F   0  0  0  0  0  0  0  0  0  0  0  0
  148.5242  136.3631  160.4233 C   0  0  0  0  0  0  0  0  0  0  0  0
  149.4937  139.3353  158.3130 H   0  0  0  0  0  0  0  0  0  0  0  0
  151.8809  139.9537  159.6891 H   0  0  0  0  0  0  0  0  0  0  0  0
  152.3253  139.2485  158.1521 H   0  0  0  0  0  0  0  0  0  0  0  0
  151.7743  141.1570  157.0050 H   0  0  0  0  0  0  0  0  0  0  0  0
  150.1953  141.2286  157.7454 H   0  0  0  0  0  0  0  0  0  0  0  0
  151.0485  143.8249  157.3805 H   0  0  0  0  0  0  0  0  0  0  0  0
  151.8097  145.7215  158.8317 H   0  0  0  0  0  0  0  0  0  0  0  0
  152.8742  145.1971  161.0459 H   0  0  0  0  0  0  0  0  0  0  0  0
  153.1347  142.7928  161.7102 H   0  0  0  0  0  0  0  0  0  0  0  0
  148.1925  137.6676  158.7266 H   0  0  0  0  0  0  0  0  0  0  0  0
  148.1704  135.7910  157.3885 H   0  0  0  0  0  0  0  0  0  0  0  0
  149.9268  135.6907  157.5257 H   0  0  0  0  0  0  0  0  0  0  0  0
  148.3540  132.9988  161.0658 H   0  0  0  0  0  0  0  0  0  0  0  0
  149.3266  134.0764  162.0302 H   0  0  0  0  0  0  0  0  0  0  0  0
  149.1589  136.6895  161.2492 H   0  0  0  0  0  0  0  0  0  0  0  0
  147.5001  136.6496  160.6652 H   0  0  0  0  0  0  0  0  0  0  0  0
  1  2  2  0  0  0  0
  2  3  1  0  0  0  0
  2 12  1  0  0  0  0
  3  4  1  0  0  0  0
  3 23  1  0  0  0  0
  4  5  1  0  0  0  0
  4 24  1  0  0  0  0
  4 25  1  0  0  0  0
  5  6  1  0  0  0  0
  5 26  1  0  0  0  0
  5 27  1  0  0  0  0
  6 11  1  0  0  0  0
  6  7  2  0  0  0  0
  7  8  1  0  0  0  0
  7 28  1  0  0  0  0
  8  9  2  0  0  0  0
  8 29  1  0  0  0  0
  9 10  1  0  0  0  0
  9 30  1  0  0  0  0
 10 11  2  0  0  0  0
 10 31  1  0  0  0  0
 12 22  1  0  0  0  0
 12 13  1  0  0  0  0
 12 32  1  0  0  0  0
 13 14  1  0  0  0  0
 13 33  1  0  0  0  0
 13 34  1  0  0  0  0
 14 15  2  0  0  0  0
 14 16  1  0  0  0  0
 16 17  1  0  0  0  0
 16 22  1  0  0  0  0
 17 18  1  0  0  0  0
 17 35  1  0  0  0  0
 17 36  1  0  0  0  0
 18 19  1  0  0  0  0
 18 20  1  0  0  0  0
 18 21  1  0  0  0  0
 22 37  1  0  0  0  0
 22 38  1  0  0  0  0
M  END
> <s_m_source_file>
AV-unprocessed.smi

> <i_m_source_file_index>
1682

> <i_lp_mmshare_version>
43012

> <i_f3d_flags>
0

> <s_epik_input>
RkMoRikoRilbQ0gyXU4oW0NIMl0xKUMoPU8pW0NIMl1bQ0BIXTFDKD1PKVtOSF1bQ0gyXVtDSDJdYzJbY0hdW2NIXVtjSF1bY0hdbjI=

> <s_epik_cmdline>
J2VwaWtfcHl0aG9uJywgJy1waCcsICc3LjAnLCAnLXRuJywgJzgnLCAnLW1hJywgJzIwMCcsICctbWV0YWxfYmluZGluZycsICctaW1hZScsICc8aW5maWxlLm1hZT4nLCAnLW9tYWUnLCAnPG91dGZpbGUubWFlPic=

> <r_epik_Ionization_Penalty>
0.0252359

> <r_epik_Ionization_Penalty_Charging>
0

> <r_epik_Ionization_Penalty_Neutral>
0.0252359

> <r_epik_State_Penalty>
0.020532

> <r_epik_Charging_Adjusted_Penalty>
0.020532

> <i_epik_Tot_Q>
0

> <i_epik_Tot_abs_Q>
0

> <r_epik_Metal_State_Penalty>
0.0196899

> <b_epik_Metal_Only>
0

> <s_lp_Force_Field>
OPLS_2005

> <r_lp_Energy>
9.99714

> <b_lp_Chiralities_Consistent>
1

> <s_lp_Variant>
AV-unprocessed.smi:1682-2

> <Gold.Version>
5.8.1

> <Gold.Id.Protein>
6NUR|6NUR_protein|mol2

> <Gold.PLP.Fitness>
43.4875

> <Gold.PLP.PLP>
-41.7057

> <Gold.PLP.part.hbond>
-1.8933

> <Gold.PLP.part.metal>
0.0000

> <Gold.PLP.part.buried>
-4.4284

> <Gold.PLP.part.nonpolar>
-35.7111

> <Gold.PLP.part.repulsive>
0.1422

> <Gold.PLP.ligand.clash>
0.0000

> <Gold.PLP.ligand.torsion>
0.9095

> <Gold.PLP.Chemscore.Hbond>
1.1344

> <Gold.PLP.Chemscore.CHOScore>
0.0000

> <Gold.PLP.Chemscore.Metal>
0.0000

> <Gold.Chemscore.Hbonds>
donor molecule, donor type, donor heavy atom, donor atom, acceptor molecule, acceptor atom, score
      P1  H  6896  6907       L1    15  0.09
      P1  H  6896  6908       L1     1  1.00

> <Gold.PLP.Chemscore.Internal.Correction>
0.1977

> <Gold.Rescore>
     Score         DG    S(hbond)    S(metal)    S(lipo)     H(rot)  DE(clash)    DE(int)     intcor
     13.74     -14.49       0.99        0.00      94.37       2.09       0.06       0.69       ----

> <Gold.Chemscore.Fitness>
13.7427

> <Gold.Chemscore.DG>
-14.4942

> <Gold.Chemscore.ZeroCoef>
-5.4800

> <Gold.Chemscore.Hbond>
0.9937

> <Gold.Chemscore.Metal>
0.0000

> <Gold.Chemscore.Lipo>
94.3722

> <Gold.Chemscore.Internal_Hbond>
0.0000

> <Gold.Chemscore.DEClash>
0.0645

> <Gold.Chemscore.DEInternal>
0.6870

> <Gold.Chemscore.Rot>
2.0884

> <Gold.Chemscore.Internal.Correction>
   9.000000E+99

> <Gold.Chemscore.Hbonds>
donor molecule, donor type, donor heavy atom, donor atom, acceptor molecule, acceptor atom, score
      P1  H  6896  6908       L1     1  0.98

> <Gold.Chemscore.Hbond.Weighted>
-3.3191

> <Gold.Chemscore.Metal.Weighted>
-0.0000

> <Gold.Chemscore.Lipo.Weighted>
-11.0415

> <Gold.Chemscore.Internal_Hbond.Weighted>
0.0000

> <Gold.Chemscore.DEClash.Weighted>
0.0645

> <Gold.Chemscore.DEInternal.Weighted>
0.6870

> <Gold.Chemscore.Rot.Weighted>
5.3464

> <Gold.Chemscore.Internal.Correction.Weighted>
   9.000000E+99

> <Gold.Protein.RotatedTorsions>
[ 6907 6896 6895 6894 ] final -130.97 input  -60.11 | X-H torsion
[ 7974 7965 7964 7962 ] final  101.51 input  175.53 | X-H torsion
[ 8008 7997 7996 7995 ] final   68.28 input   59.86 | X-H torsion
[ 10167 10162 10161 10158 ] final  -86.37 input  -65.29 | X-H torsion
[ 10718 10713 10712 10709 ] final   -0.62 input   66.30 | X-H torsion
[ 10763 10752 10751 10750 ] final  158.96 input  -60.55 | X-H torsion
[ 11005 11000 10999 10996 ] final  141.94 input  -57.11 | X-H torsion

> <Gold.Protein.ActiveResidues>
 VAL166  LYS551  ARG553  GLY616  TRP617  ASP618  TYR619  PRO620  LYS621  CYS622 
 ASP623  PHE694  ASN695  SER759  ASP760  ASP761  ALA762  ILE779  LEU786  VAL792 
 PHE793  MET794  SER795  GLU796  ALA797  LYS798  CYS799  TRP800  GLU811  SER814 

> <Gold.Protein.RotatedAtoms>
  150.9457  133.6605  159.2781 H   0  0  0  0  0  0  0  0  0  0  0  0  # atno 6907 bound_to 6896
  151.3979  135.0965  159.9556 H   0  0  0  0  0  0  0  0  0  0  0  0  # atno 6908 bound_to 6896
  152.5089  133.8958  159.7471 H   0  0  0  0  0  0  0  0  0  0  0  0  # atno 6909 bound_to 6896
  145.3714  139.2397  143.3453 H   0  0  0  0  0  0  0  0  0  0  0  0  # atno 7974 bound_to 7965
  155.7060  140.3495  155.4953 H   0  0  0  0  0  0  0  0  0  0  0  0  # atno 8008 bound_to 7997
  155.9399  140.1099  157.1086 H   0  0  0  0  0  0  0  0  0  0  0  0  # atno 8009 bound_to 7997
  154.4100  140.1215  156.4899 H   0  0  0  0  0  0  0  0  0  0  0  0  # atno 8010 bound_to 7997
  140.3948  143.2689  151.9218 H   0  0  0  0  0  0  0  0  0  0  0  0  # atno 10167 bound_to 10162
  156.8177  130.5446  149.5701 H   0  0  0  0  0  0  0  0  0  0  0  0  # atno 10718 bound_to 10713
  154.2243  135.2781  155.2913 H   0  0  0  0  0  0  0  0  0  0  0  0  # atno 10763 bound_to 10752
  154.5676  135.5628  153.7068 H   0  0  0  0  0  0  0  0  0  0  0  0  # atno 10764 bound_to 10752
  153.0034  135.6313  154.2383 H   0  0  0  0  0  0  0  0  0  0  0  0  # atno 10765 bound_to 10752
  140.0439  134.9291  157.0893 H   0  0  0  0  0  0  0  0  0  0  0  0  # atno 11005 bound_to 11000
  146.2883  140.4366  142.8749 LP  0  0  0  0  0  0  0  0  0  0  0  0  # atno 17320 bound_to 7965
  144.8573  140.7089  143.6129 LP  0  0  0  0  0  0  0  0  0  0  0  0  # atno 17321 bound_to 7965
  139.4787  144.5692  151.8115 LP  0  0  0  0  0  0  0  0  0  0  0  0  # atno 17342 bound_to 10162
  140.4802  144.1461  150.5931 LP  0  0  0  0  0  0  0  0  0  0  0  0  # atno 17343 bound_to 10162
  156.1007  130.5966  150.9888 LP  0  0  0  0  0  0  0  0  0  0  0  0  # atno 17370 bound_to 10713
  157.6473  131.0902  150.8127 LP  0  0  0  0  0  0  0  0  0  0  0  0  # atno 17371 bound_to 10713
  140.4025  134.2067  155.7163 LP  0  0  0  0  0  0  0  0  0  0  0  0  # atno 17394 bound_to 11000
  141.1897  133.8233  157.0947 LP  0  0  0  0  0  0  0  0  0  0  0  0  # atno 17395 bound_to 11000

$$$$
