#       Name:                AV-unprocessed.smi:72
#       Creating user name   scv26
#       Creation time:       Thu Mar 26 17:00:11 2020


#       File generated by GOLD software.
#

@<TRIPOS>MOLECULE
AV-unprocessed.smi:72
    41    42     1
SMALL
NO_CHARGES


@<TRIPOS>ATOM
      1 ****        -2.2463   4.6070  -0.8392 N.2            1 S1                 0.0000
      2 ****        -1.7730   3.4506  -0.5408 C.2            1 S1                 0.0000
      3 ****        -0.4449   3.0420  -0.7359 N.2            1 S1                 0.0000
      4 ****        -0.1070   1.8412  -0.3790 C.2            1 S1                 0.0000
      5 ****        -1.0555   0.9140   0.2194 N.am           1 S1                 0.0000
      6 ****        -0.6223  -0.4776   0.6309 C.3            1 S1                 0.0000
      7 ****         0.6513  -0.3911   1.1915 O.3            1 S1                 0.0000
      8 ****         1.4157  -1.5203   0.7993 C.3            1 S1                 0.0000
      9 ****         2.9106  -1.1792   0.9066 C.3            1 S1                 0.0000
     10 ****         3.6984  -2.3393   0.7454 O.3            1 S1                 0.0000
     11 ****         0.9198  -1.8195  -0.6206 C.3            1 S1                 0.0000
     12 ****         1.0989  -3.1865  -0.9340 O.3            1 S1                 0.0000
     13 ****        -0.5647  -1.4793  -0.5461 C.3            1 S1                 0.0000
     14 ****        -1.0274  -0.9662  -1.7828 O.3            1 S1                 0.0000
     15 ****        -2.4041   1.3042   0.4050 C.2            1 S1                 0.0000
     16 ****        -3.2546   0.5490   0.8752 O.2            1 S1                 0.0000
     17 ****        -2.7020   2.5640   0.0199 N.am           1 S1                 0.0000
     18 ****        -1.3056  -0.8026   1.4168 H              1 S1                 0.0000
     19 ****         1.1566  -2.3363   1.4775 H              1 S1                 0.0000
     20 ****         1.4311  -1.1842  -1.3459 H              1 S1                 0.0000
     21 ****        -1.1574  -2.3517  -0.2663 H              1 S1                 0.0000
     22 ****        -3.2275   4.6513  -0.6032 H              1 S1                 0.0000
     23 ****         0.9022   1.4470  -0.5075 H              1 S1                 0.0000
     24 ****         3.1970  -0.4310   0.1668 H              1 S1                 0.0000
     25 ****         3.1271  -0.7587   1.8890 H              1 S1                 0.0000
     26 ****         4.6090  -2.0977   0.8199 H              1 S1                 0.0000
     27 ****         0.6676  -3.7054  -0.2728 H              1 S1                 0.0000
     28 ****        -1.9447  -0.7560  -1.6955 H              1 S1                 0.0000
     29 ****        -3.6540   2.8784   0.1397 H              1 S1                 0.0000
     30 ****        -1.7204   5.3540  -1.2457 LP             1 S1                 0.0000
     31 ****         0.2264   3.6626  -1.1411 LP             1 S1                 0.0000
     32 ****         0.5763  -0.3688   2.1885 LP             1 S1                 0.0000
     33 ****         1.1005   0.4433   0.8722 LP             1 S1                 0.0000
     34 ****         3.5285  -2.7396  -0.1551 LP             1 S1                 0.0000
     35 ****         3.4672  -3.0050   1.4550 LP             1 S1                 0.0000
     36 ****         2.0749  -3.4038  -0.9495 LP             1 S1                 0.0000
     37 ****         0.6995  -3.3822  -1.8297 LP             1 S1                 0.0000
     38 ****        -0.9053  -1.6526  -2.4997 LP             1 S1                 0.0000
     39 ****        -0.5134  -0.1418  -2.0195 LP             1 S1                 0.0000
     40 ****        -3.0040  -0.3813   1.1432 LP             1 S1                 0.0000
     41 ****        -4.1963   0.8656   0.9892 LP             1 S1                 0.0000
@<TRIPOS>BOND
    1    1    2 2     
    2    1   22 1     
    3    2   17 1     
    4    2    3 1     
    5    3    4 2     
    6    4    5 1     
    7    4   23 1     
    8    5    6 1     
    9    5   15 am    
   10    6   18 1     
   11    6   13 1     
   12    6    7 1     
   13    7    8 1     
   14    8   19 1     
   15    8    9 1     
   16    8   11 1     
   17    9   10 1     
   18    9   24 1     
   19    9   25 1     
   20   10   26 1     
   21   11   20 1     
   22   11   12 1     
   23   11   13 1     
   24   12   27 1     
   25   13   21 1     
   26   13   14 1     
   27   14   28 1     
   28   15   16 2     
   29   15   17 am    
   30   17   29 1     
   31    1   30 1     
   32    3   31 1     
   33    7   32 1     
   34    7   33 1     
   35   10   34 1     
   36   10   35 1     
   37   12   36 1     
   38   12   37 1     
   39   14   38 1     
   40   14   39 1     
   41   16   40 1     
   42   16   41 1     
@<TRIPOS>SUBSTRUCTURE
      1 S1             1
@<TRIPOS>SET
LONE_PAIRS      STATIC     ATOMS    <user>   **** ""
12 30 31 32 33 34 35 36 37 38 39 40 41
DONOR_HYDROGENS      STATIC     ATOMS    <user>   **** ""
5 22 26 27 28 29
ATOM$BLUE        STATIC     ATOMS    COLORGROUP SYSTEM
12 30 31 32 33 34 35 36 37 38 39 40 41
ATOM$RED        STATIC     ATOMS    COLORGROUP SYSTEM
5 22 26 27 28 29
