AV-unprocessed.smi:157|AV-procd|sdf|1318|dock10
  -GOLD-   2262019 13D 1   1.00000     0.00000
 Structure written by MMmdl.
 36 38  0  0  0  0  0  0  0  0  2 V2000
  150.6612  135.2458  157.6861 O   0  0  0  0  0  0  0  0  0  0  0  0
  150.1295  136.2079  156.8002 C   0  0  0  0  0  0  0  0  0  0  0  0
  151.2630  137.0125  156.1463 C   0  0  2  0  0  0  0  0  0  0  0  0
  151.4535  138.2139  156.8909 O   0  0  0  0  0  0  0  0  0  0  0  0
  151.8325  139.2074  156.0005 C   0  0  2  0  0  0  0  0  0  0  0  0
  151.5463  140.5409  156.6069 N   0  0  0  0  0  0  0  0  0  0  0  0
  150.7257  141.4899  156.1092 C   0  0  0  0  0  0  0  0  0  0  0  0
  150.6568  142.5888  156.8418 N   0  3  0  0  0  0  0  0  0  0  0  0
  151.4910  142.3914  157.9221 C   0  0  0  0  0  0  0  0  0  0  0  0
  152.0433  141.1193  157.7515 C   0  0  0  0  0  0  0  0  0  0  0  0
  152.9676  140.4255  158.5473 N   0  0  0  0  0  0  0  0  0  0  0  0
  153.6892  141.0033  159.4518 C   0  0  0  0  0  0  0  0  0  0  0  0
  153.6579  142.3182  159.8854 N   0  0  0  0  0  0  0  0  0  0  0  0
  152.4260  143.0183  160.2037 C   0  0  0  0  0  0  0  0  0  0  0  0
  151.6271  143.4537  158.9680 C   0  0  1  0  0  0  0  0  0  0  0  0
  152.1936  144.6445  158.4611 O   0  0  0  0  0  0  0  0  0  0  0  0
  150.9771  138.9781  154.7653 C   0  0  0  0  0  0  0  0  0  0  0  0
  150.9643  137.4597  154.6964 C   0  0  1  0  0  0  0  0  0  0  0  0
  151.9823  137.0087  153.8252 O   0  0  0  0  0  0  0  0  0  0  0  0
  152.1948  136.4454  156.1946 H   0  0  0  0  0  0  0  0  0  0  0  0
  152.9067  139.1778  155.8102 H   0  0  0  0  0  0  0  0  0  0  0  0
  150.6231  143.7183  159.3016 H   0  0  0  0  0  0  0  0  0  0  0  0
  150.0038  137.0935  154.3320 H   0  0  0  0  0  0  0  0  0  0  0  0
  150.7100  134.4159  157.2360 H   0  0  0  0  0  0  0  0  0  0  0  0
  149.5138  135.7155  156.0468 H   0  0  0  0  0  0  0  0  0  0  0  0
  149.4773  136.8719  157.3681 H   0  0  0  0  0  0  0  0  0  0  0  0
  150.1753  141.3582  155.1947 H   0  0  0  0  0  0  0  0  0  0  0  0
  154.4389  140.4153  159.9835 H   0  0  0  0  0  0  0  0  0  0  0  0
  154.4317  142.6636  160.4351 H   0  0  0  0  0  0  0  0  0  0  0  0
  151.8124  142.3415  160.8005 H   0  0  0  0  0  0  0  0  0  0  0  0
  152.6443  143.8728  160.8451 H   0  0  0  0  0  0  0  0  0  0  0  0
  151.5634  145.0651  157.8967 H   0  0  0  0  0  0  0  0  0  0  0  0
  149.9698  139.3556  154.9488 H   0  0  0  0  0  0  0  0  0  0  0  0
  151.3934  139.4764  153.8886 H   0  0  0  0  0  0  0  0  0  0  0  0
  151.6212  136.9366  152.9544 H   0  0  0  0  0  0  0  0  0  0  0  0
  150.0963  143.4082  156.6454 H   0  0  0  0  0  0  0  0  0  0  0  0
  1  2  1  0  0  0  0
  1 24  1  0  0  0  0
  2  3  1  0  0  0  0
  2 25  1  0  0  0  0
  2 26  1  0  0  0  0
  3 20  1  0  0  0  0
  3 18  1  0  0  0  0
  3  4  1  0  0  0  0
  4  5  1  0  0  0  0
  5 21  1  0  0  0  0
  5  6  1  0  0  0  0
  5 17  1  0  0  0  0
  6 10  1  0  0  0  0
  6  7  1  0  0  0  0
  7  8  2  0  0  0  0
  7 27  1  0  0  0  0
  8  9  1  0  0  0  0
  8 36  1  0  0  0  0
  9 15  1  0  0  0  0
  9 10  2  0  0  0  0
 10 11  1  0  0  0  0
 11 12  2  0  0  0  0
 12 13  1  0  0  0  0
 12 28  1  0  0  0  0
 13 14  1  0  0  0  0
 13 29  1  0  0  0  0
 14 15  1  0  0  0  0
 14 30  1  0  0  0  0
 14 31  1  0  0  0  0
 15 22  1  0  0  0  0
 15 16  1  0  0  0  0
 16 32  1  0  0  0  0
 17 18  1  0  0  0  0
 17 33  1  0  0  0  0
 17 34  1  0  0  0  0
 18 23  1  0  0  0  0
 18 19  1  0  0  0  0
 19 35  1  0  0  0  0
M  CHG  1   8   1
M  END
> <s_m_source_file>
AV-unprocessed.smi

> <i_m_source_file_index>
157

> <i_lp_mmshare_version>
43012

> <i_f3d_flags>
0

> <s_epik_input>
W09IXVtDSDJdW0NASF0xT1tDQEhdKFtDSDJdW0NAQEhdMVtPSF0pbihbY0hdbjIpYyhjMjMpTj1bQ0hdW05IXVtDSDJdW0NASF0zW09IXQ==

> <s_epik_cmdline>
J2VwaWtfcHl0aG9uJywgJy1waCcsICc3LjAnLCAnLXRuJywgJzgnLCAnLW1hJywgJzIwMCcsICctbWV0YWxfYmluZGluZycsICctaW1hZScsICc8aW5maWxlLm1hZT4nLCAnLW9tYWUnLCAnPG91dGZpbGUubWFlPic=

> <r_epik_Ionization_Penalty>
1.68594

> <r_epik_Ionization_Penalty_Charging>
0

> <r_epik_Ionization_Penalty_Neutral>
1.68594

> <r_epik_State_Penalty>
1.79006

> <r_epik_Charging_Adjusted_Penalty>
1.79006

> <i_epik_Tot_Q>
1

> <i_epik_Tot_abs_Q>
1

> <r_epik_Metal_State_Penalty>
5.85324

> <b_epik_Metal_Only>
0

> <s_epik_Chemistry_Notes>
This compound has an imine and may undergo hydrolysis. This compound contains an acetal/aminal-like group ( X-CH(R)-Y where X, Y are N, S, or O) that may be acid/base labile, releasing an aldehyde.

> <s_lp_Force_Field>
OPLS_2005

> <r_lp_Energy>
52.5204

> <b_lp_Chiralities_Consistent>
1

> <s_lp_Variant>
AV-unprocessed.smi:157-28

> <Gold.Version>
5.8.1

> <Gold.Id.Protein>
6NUR|6NUR_protein|mol2

> <Gold.PLP.Fitness>
48.3894

> <Gold.PLP.PLP>
-34.9885

> <Gold.PLP.part.hbond>
-4.9614

> <Gold.PLP.part.metal>
0.0000

> <Gold.PLP.part.buried>
-6.5034

> <Gold.PLP.part.nonpolar>
-23.4814

> <Gold.PLP.part.repulsive>
0.0832

> <Gold.PLP.ligand.clash>
0.0000

> <Gold.PLP.ligand.torsion>
0.4768

> <Gold.PLP.Chemscore.Hbond>
4.7758

> <Gold.PLP.Chemscore.CHOScore>
0.0000

> <Gold.PLP.Chemscore.Metal>
0.0000

> <Gold.Chemscore.Hbonds>
donor molecule, donor type, donor heavy atom, donor atom, acceptor molecule, acceptor atom, score
      L1  H     8    36       P1  8028  1.98
      L1  H    19    35       P1  7949  1.00
      P1  H  6896  6908       L1     1  0.35
      P1  H  7997  8009       L1    11  0.34
      P1  H 10752 10764       L1    19  0.94

> <Gold.PLP.Chemscore.Internal.Correction>
0.0270

> <Gold.Rescore>
     Score         DG    S(hbond)    S(metal)    S(lipo)     H(rot)  DE(clash)    DE(int)     intcor
     11.06     -11.66       2.78        0.00      53.55       3.67       0.07       0.53       ----

> <Gold.Chemscore.Fitness>
11.0551

> <Gold.Chemscore.DG>
-11.6570

> <Gold.Chemscore.ZeroCoef>
-5.4800

> <Gold.Chemscore.Hbond>
2.7834

> <Gold.Chemscore.Metal>
0.0000

> <Gold.Chemscore.Lipo>
53.5487

> <Gold.Chemscore.Internal_Hbond>
0.0000

> <Gold.Chemscore.DEClash>
0.0727

> <Gold.Chemscore.DEInternal>
0.5292

> <Gold.Chemscore.Rot>
3.6659

> <Gold.Chemscore.Internal.Correction>
   9.000000E+99

> <Gold.Chemscore.Hbonds>
donor molecule, donor type, donor heavy atom, donor atom, acceptor molecule, acceptor atom, score
      L1  H     8    36       P1  8028  0.92
      L1  H    19    35       P1  7949  0.93
      P1  H  6896  6908       L1     1  0.04
      P1  H  7997  8009       L1    11  0.01
      P1  H 10752 10764       L1    19  0.32

> <Gold.Chemscore.Hbond.Weighted>
-9.2967

> <Gold.Chemscore.Metal.Weighted>
-0.0000

> <Gold.Chemscore.Lipo.Weighted>
-6.2652

> <Gold.Chemscore.Internal_Hbond.Weighted>
0.0000

> <Gold.Chemscore.DEClash.Weighted>
0.0727

> <Gold.Chemscore.DEInternal.Weighted>
0.5292

> <Gold.Chemscore.Rot.Weighted>
9.3848

> <Gold.Chemscore.Internal.Correction.Weighted>
   9.000000E+99

> <Gold.Protein.RotatedTorsions>
[ 6907 6896 6895 6894 ] final  161.64 input  -60.11 | X-H torsion
[ 7974 7965 7964 7962 ] final  -36.73 input  175.53 | X-H torsion
[ 8008 7997 7996 7995 ] final  156.15 input   59.86 | X-H torsion
[ 10167 10162 10161 10158 ] final  -80.46 input  -65.29 | X-H torsion
[ 10718 10713 10712 10709 ] final   31.38 input   66.30 | X-H torsion
[ 10763 10752 10751 10750 ] final -108.59 input  -60.55 | X-H torsion
[ 11005 11000 10999 10996 ] final  -49.36 input  -57.11 | X-H torsion

> <Gold.Protein.ActiveResidues>
 VAL166  LYS551  ARG553  GLY616  TRP617  ASP618  TYR619  PRO620  LYS621  CYS622 
 ASP623  PHE694  ASN695  SER759  ASP760  ASP761  ALA762  ILE779  LEU786  VAL792 
 PHE793  MET794  SER795  GLU796  ALA797  LYS798  CYS799  TRP800  GLU811  SER814 

> <Gold.Protein.RotatedAtoms>
  151.9526  133.3670  159.4005 H   0  0  0  0  0  0  0  0  0  0  0  0  # atno 6907 bound_to 6896
  150.6978  134.4325  159.5264 H   0  0  0  0  0  0  0  0  0  0  0  0  # atno 6908 bound_to 6896
  152.2000  134.8596  160.0559 H   0  0  0  0  0  0  0  0  0  0  0  0  # atno 6909 bound_to 6896
  146.0636  140.6313  142.8985 H   0  0  0  0  0  0  0  0  0  0  0  0  # atno 7974 bound_to 7965
  156.2439  140.1920  156.6911 H   0  0  0  0  0  0  0  0  0  0  0  0  # atno 8008 bound_to 7997
  154.6251  140.0603  156.9690 H   0  0  0  0  0  0  0  0  0  0  0  0  # atno 8009 bound_to 7997
  155.1799  140.3275  155.4379 H   0  0  0  0  0  0  0  0  0  0  0  0  # atno 8010 bound_to 7997
  140.4501  143.2486  151.8501 H   0  0  0  0  0  0  0  0  0  0  0  0  # atno 10167 bound_to 10162
  157.2717  130.7211  149.6508 H   0  0  0  0  0  0  0  0  0  0  0  0  # atno 10718 bound_to 10713
  154.8144  135.4632  154.0604 H   0  0  0  0  0  0  0  0  0  0  0  0  # atno 10763 bound_to 10752
  153.2009  135.6868  153.8240 H   0  0  0  0  0  0  0  0  0  0  0  0  # atno 10764 bound_to 10752
  153.7725  135.3268  155.3331 H   0  0  0  0  0  0  0  0  0  0  0  0  # atno 10765 bound_to 10752
  141.0755  133.6667  156.3574 H   0  0  0  0  0  0  0  0  0  0  0  0  # atno 11005 bound_to 11000
  144.7189  140.4306  143.7023 LP  0  0  0  0  0  0  0  0  0  0  0  0  # atno 17320 bound_to 7965
  145.6517  139.1566  143.2858 LP  0  0  0  0  0  0  0  0  0  0  0  0  # atno 17321 bound_to 7965
  139.4796  144.5130  151.8907 LP  0  0  0  0  0  0  0  0  0  0  0  0  # atno 17342 bound_to 10162
  140.4217  144.2234  150.5887 LP  0  0  0  0  0  0  0  0  0  0  0  0  # atno 17343 bound_to 10162
  155.9663  130.4365  150.5139 LP  0  0  0  0  0  0  0  0  0  0  0  0  # atno 17370 bound_to 10713
  157.3064  131.0655  151.2032 LP  0  0  0  0  0  0  0  0  0  0  0  0  # atno 17371 bound_to 10713
  140.5583  134.5959  157.5427 LP  0  0  0  0  0  0  0  0  0  0  0  0  # atno 17394 bound_to 11000
  139.9567  134.7523  156.0326 LP  0  0  0  0  0  0  0  0  0  0  0  0  # atno 17395 bound_to 11000

$$$$
