AV-unprocessed.smi:6|AV-procd|sdf|40|dock6
  -GOLD-   2262015153D 1   1.00000     0.00000
 Structure written by MMmdl.
 38 39  0  0  0  0  0  0  0  0  2 V2000
  151.7998  140.6260  157.6268 C   0  0  0  0  0  0  0  0  0  0  0  0
  150.8727  141.6420  156.9420 C   0  0  0  0  0  0  0  0  0  0  0  0
  149.9780  142.4015  157.9333 C   0  0  0  0  0  0  0  0  0  0  0  0
  150.0656  141.0110  155.8163 C   0  0  0  0  0  0  0  0  0  0  0  0
  149.2313  141.7832  155.1012 N   0  3  0  0  0  0  0  0  0  0  0  0
  148.4986  141.2339  154.1018 C   0  0  0  0  0  0  0  0  0  0  0  0
  148.6078  139.8615  153.8094 C   0  0  0  0  0  0  0  0  0  0  0  0
  149.5002  139.1115  154.5946 C   0  0  0  0  0  0  0  0  0  0  0  0
  149.6508  137.7394  154.3515 N   0  0  0  0  0  0  0  0  0  0  0  0
  150.6661  136.9754  155.0672 C   0  0  0  0  0  0  0  0  0  0  0  0
  150.3221  135.4991  155.1922 C   0  0  0  0  0  0  0  0  0  0  0  0
  149.3703  134.9173  154.4184 C   0  0  0  0  0  0  0  0  0  0  0  0
  149.0464  133.5713  154.4862 N   0  0  0  0  0  0  0  0  0  0  0  0
  148.0352  132.9631  153.6654 C   0  0  0  0  0  0  0  0  0  0  0  0
  149.7274  132.7297  155.3901 C   0  0  0  0  0  0  0  0  0  0  0  0
  149.4872  131.5274  155.5024 O   0  0  0  0  0  0  0  0  0  0  0  0
  150.7150  133.3237  156.1746 N   0  0  0  0  0  0  0  0  0  0  0  0
  151.0774  134.6738  156.1426 C   0  0  0  0  0  0  0  0  0  0  0  0
  151.9724  135.0788  156.8826 O   0  0  0  0  0  0  0  0  0  0  0  0
  150.2105  139.6983  155.5833 N   0  0  0  0  0  0  0  0  0  0  0  0
  151.2117  132.7267  156.8202 H   0  0  0  0  0  0  0  0  0  0  0  0
  152.4761  140.1638  156.9073 H   0  0  0  0  0  0  0  0  0  0  0  0
  151.2320  139.8300  158.1097 H   0  0  0  0  0  0  0  0  0  0  0  0
  152.4101  141.1063  158.3921 H   0  0  0  0  0  0  0  0  0  0  0  0
  151.5243  142.3887  156.4847 H   0  0  0  0  0  0  0  0  0  0  0  0
  149.3921  143.1680  157.4250 H   0  0  0  0  0  0  0  0  0  0  0  0
  150.5745  142.8966  158.6999 H   0  0  0  0  0  0  0  0  0  0  0  0
  149.2824  141.7301  158.4378 H   0  0  0  0  0  0  0  0  0  0  0  0
  147.8473  141.9113  153.5693 H   0  0  0  0  0  0  0  0  0  0  0  0
  148.0289  139.4097  153.0170 H   0  0  0  0  0  0  0  0  0  0  0  0
  149.2742  137.3515  153.4984 H   0  0  0  0  0  0  0  0  0  0  0  0
  151.6197  137.0891  154.5506 H   0  0  0  0  0  0  0  0  0  0  0  0
  150.7999  137.3820  156.0707 H   0  0  0  0  0  0  0  0  0  0  0  0
  148.8362  135.5390  153.7140 H   0  0  0  0  0  0  0  0  0  0  0  0
  147.2695  132.5557  154.3285 H   0  0  0  0  0  0  0  0  0  0  0  0
  148.5155  132.1874  153.0656 H   0  0  0  0  0  0  0  0  0  0  0  0
  147.6078  133.7306  153.0193 H   0  0  0  0  0  0  0  0  0  0  0  0
  149.1410  142.7791  155.3038 H   0  0  0  0  0  0  0  0  0  0  0  0
  1  2  1  0  0  0  0
  1 22  1  0  0  0  0
  1 23  1  0  0  0  0
  1 24  1  0  0  0  0
  2  3  1  0  0  0  0
  2  4  1  0  0  0  0
  2 25  1  0  0  0  0
  3 26  1  0  0  0  0
  3 27  1  0  0  0  0
  3 28  1  0  0  0  0
  4 20  1  0  0  0  0
  4  5  2  0  0  0  0
  5  6  1  0  0  0  0
  5 38  1  0  0  0  0
  6  7  2  0  0  0  0
  6 29  1  0  0  0  0
  7  8  1  0  0  0  0
  7 30  1  0  0  0  0
  8  9  1  0  0  0  0
  8 20  2  0  0  0  0
  9 10  1  0  0  0  0
  9 31  1  0  0  0  0
 10 11  1  0  0  0  0
 10 32  1  0  0  0  0
 10 33  1  0  0  0  0
 11 18  1  0  0  0  0
 11 12  2  0  0  0  0
 12 13  1  0  0  0  0
 12 34  1  0  0  0  0
 13 14  1  0  0  0  0
 13 15  1  0  0  0  0
 14 35  1  0  0  0  0
 14 36  1  0  0  0  0
 14 37  1  0  0  0  0
 15 16  2  0  0  0  0
 15 17  1  0  0  0  0
 17 21  1  0  0  0  0
 17 18  1  0  0  0  0
 18 19  2  0  0  0  0
M  CHG  1   5   1
M  END
> <s_m_source_file>
AV-unprocessed.smi

> <i_m_source_file_index>
6

> <i_lp_mmshare_version>
43012

> <i_f3d_flags>
0

> <s_epik_input>
W0NIM11bQ0hdKFtDSDNdKWMxbltjSF1bY0hdYyhuMSlbTkhdW0NIMl1jMltjSF1uKFtDSDNdKWMoPU8pW25IXWMyPU8=

> <s_epik_cmdline>
J2VwaWtfcHl0aG9uJywgJy1waCcsICc3LjAnLCAnLXRuJywgJzgnLCAnLW1hJywgJzIwMCcsICctbWV0YWxfYmluZGluZycsICctaW1hZScsICc8aW5maWxlLm1hZT4nLCAnLW9tYWUnLCAnPG91dGZpbGUubWFlPic=

> <r_lp_tautomer_probability>
0.998874

> <r_epik_Ionization_Penalty>
0.537311

> <r_epik_Ionization_Penalty_Charging>
0.537291

> <r_epik_Ionization_Penalty_Neutral>
2.09214e-05

> <r_epik_State_Penalty>
0.545757

> <r_epik_Charging_Adjusted_Penalty>
1.08305

> <i_epik_Tot_Q>
1

> <i_epik_Tot_abs_Q>
1

> <r_epik_Metal_State_Penalty>
0.947272

> <b_epik_Metal_Only>
0

> <s_lp_Force_Field>
OPLS_2005

> <r_lp_Energy>
10.386

> <b_lp_Chiralities_Consistent>
1

> <s_lp_Variant>
AV-unprocessed.smi:6-2

> <Gold.Version>
5.8.1

> <Gold.Id.Protein>
6NUR|6NUR_protein|mol2

> <Gold.PLP.Fitness>
44.7038

> <Gold.PLP.PLP>
-30.7767

> <Gold.PLP.part.hbond>
-3.0000

> <Gold.PLP.part.metal>
0.0000

> <Gold.PLP.part.buried>
-0.1952

> <Gold.PLP.part.nonpolar>
-27.3629

> <Gold.PLP.part.repulsive>
0.3666

> <Gold.PLP.ligand.clash>
0.0000

> <Gold.PLP.ligand.torsion>
0.4224

> <Gold.PLP.Chemscore.Hbond>
3.9000

> <Gold.PLP.Chemscore.CHOScore>
1.0000

> <Gold.PLP.Chemscore.Metal>
0.0000

> <Gold.Chemscore.Hbonds>
donor molecule, donor type, donor heavy atom, donor atom, acceptor molecule, acceptor atom, score
      L1  H     5    38       P1  8028  2.00
      L1  H     9    31       P1  7948  1.00
      P1  H 10752 10764       L1    19  0.43
      L1  C    12    34       P1  7948  0.82

> <Gold.PLP.Chemscore.Internal.Correction>
0.0719

> <Gold.Rescore>
     Score         DG    S(hbond)    S(metal)    S(lipo)     H(rot)  DE(clash)    DE(int)     intcor
     15.64     -16.28       2.71        0.00      51.58       1.68       0.23       0.41       ----

> <Gold.Chemscore.Fitness>
15.6406

> <Gold.Chemscore.DG>
-16.2808

> <Gold.Chemscore.ZeroCoef>
-5.4800

> <Gold.Chemscore.Hbond>
2.7136

> <Gold.Chemscore.Metal>
0.0000

> <Gold.Chemscore.Lipo>
51.5845

> <Gold.Chemscore.Internal_Hbond>
0.0000

> <Gold.Chemscore.DEClash>
0.2330

> <Gold.Chemscore.DEInternal>
0.4072

> <Gold.Chemscore.Rot>
1.6789

> <Gold.Chemscore.Internal.Correction>
   9.000000E+99

> <Gold.Chemscore.Hbonds>
donor molecule, donor type, donor heavy atom, donor atom, acceptor molecule, acceptor atom, score
      L1  H     5    38       P1  8028  0.97
      L1  H     9    31       P1  7948  0.96
      P1  H 10752 10764       L1    19  0.08

> <Gold.Chemscore.Hbond.Weighted>
-9.0634

> <Gold.Chemscore.Metal.Weighted>
-0.0000

> <Gold.Chemscore.Lipo.Weighted>
-6.0354

> <Gold.Chemscore.Internal_Hbond.Weighted>
0.0000

> <Gold.Chemscore.DEClash.Weighted>
0.2330

> <Gold.Chemscore.DEInternal.Weighted>
0.4072

> <Gold.Chemscore.Rot.Weighted>
4.2980

> <Gold.Chemscore.Internal.Correction.Weighted>
   9.000000E+99

> <Gold.Protein.RotatedTorsions>
[ 6907 6896 6895 6894 ] final  -78.71 input  -60.11 | X-H torsion
[ 7974 7965 7964 7962 ] final  168.51 input  175.53 | X-H torsion
[ 8008 7997 7996 7995 ] final   60.45 input   59.86 | X-H torsion
[ 10167 10162 10161 10158 ] final  117.89 input  -65.29 | X-H torsion
[ 10718 10713 10712 10709 ] final  142.51 input   66.30 | X-H torsion
[ 10763 10752 10751 10750 ] final    1.66 input  -60.55 | X-H torsion
[ 11005 11000 10999 10996 ] final    3.09 input  -57.11 | X-H torsion

> <Gold.Protein.ActiveResidues>
 VAL166  LYS551  ARG553  GLY616  TRP617  ASP618  TYR619  PRO620  LYS621  CYS622 
 ASP623  PHE694  ASN695  SER759  ASP760  ASP761  ALA762  ILE779  LEU786  VAL792 
 PHE793  MET794  SER795  GLU796  ALA797  LYS798  CYS799  TRP800  GLU811  SER814 

> <Gold.Protein.RotatedAtoms>
  150.6966  134.4232  159.5213 H   0  0  0  0  0  0  0  0  0  0  0  0  # atno 6907 bound_to 6896
  152.1971  134.8618  160.0521 H   0  0  0  0  0  0  0  0  0  0  0  0  # atno 6908 bound_to 6896
  151.9552  133.3643  159.4051 H   0  0  0  0  0  0  0  0  0  0  0  0  # atno 6909 bound_to 6896
  144.7386  139.8918  143.6403 H   0  0  0  0  0  0  0  0  0  0  0  0  # atno 7974 bound_to 7965
  155.5826  140.3491  155.4544 H   0  0  0  0  0  0  0  0  0  0  0  0  # atno 8008 bound_to 7997
  156.0362  140.1285  157.0230 H   0  0  0  0  0  0  0  0  0  0  0  0  # atno 8009 bound_to 7997
  154.4372  140.1033  156.6156 H   0  0  0  0  0  0  0  0  0  0  0  0  # atno 8010 bound_to 7997
  139.6148  144.7089  151.2763 H   0  0  0  0  0  0  0  0  0  0  0  0  # atno 10167 bound_to 10162
  157.3797  131.0990  151.0750 H   0  0  0  0  0  0  0  0  0  0  0  0  # atno 10718 bound_to 10713
  153.3053  135.6959  153.7165 H   0  0  0  0  0  0  0  0  0  0  0  0  # atno 10763 bound_to 10752
  153.6063  135.3452  155.2964 H   0  0  0  0  0  0  0  0  0  0  0  0  # atno 10764 bound_to 10752
  154.8561  135.4353  154.2176 H   0  0  0  0  0  0  0  0  0  0  0  0  # atno 10765 bound_to 10752
  140.5970  133.9871  155.8114 H   0  0  0  0  0  0  0  0  0  0  0  0  # atno 11005 bound_to 11000
  146.1136  139.4144  143.0272 LP  0  0  0  0  0  0  0  0  0  0  0  0  # atno 17320 bound_to 7965
  145.7407  141.0009  143.1303 LP  0  0  0  0  0  0  0  0  0  0  0  0  # atno 17321 bound_to 7965
  140.7344  143.6768  150.8035 LP  0  0  0  0  0  0  0  0  0  0  0  0  # atno 17342 bound_to 10162
  140.0369  143.5386  152.2735 LP  0  0  0  0  0  0  0  0  0  0  0  0  # atno 17343 bound_to 10162
  157.1824  130.6315  149.5676 LP  0  0  0  0  0  0  0  0  0  0  0  0  # atno 17370 bound_to 10713
  155.9773  130.4749  150.6584 LP  0  0  0  0  0  0  0  0  0  0  0  0  # atno 17371 bound_to 10713
  141.0897  133.9935  157.3257 LP  0  0  0  0  0  0  0  0  0  0  0  0  # atno 17394 bound_to 11000
  139.9249  135.0201  156.8198 LP  0  0  0  0  0  0  0  0  0  0  0  0  # atno 17395 bound_to 11000

$$$$
