AV-unprocessed.smi:765|AV-procd|sdf|3644|dock7
  -GOLD-   22720 1 43D 1   1.00000     0.00000
 Structure written by MMmdl.
 39 40  0  0  0  0  0  0  0  0  1 V2000
  147.5237  141.8401  155.1939 C   0  0  0  0  0  0  0  0  0  0  0  0
  148.6634  140.9178  155.6496 C   0  0  1  0  0  0  0  0  0  0  0  0
  149.5455  140.4881  154.4638 C   0  0  0  0  0  0  0  0  0  0  0  0
  150.6974  139.5808  154.9178 C   0  0  0  0  0  0  0  0  0  0  0  0
  151.5359  140.2627  156.0108 C   0  0  0  0  0  0  0  0  0  0  0  0
  150.6838  140.6810  157.2296 C   0  0  1  0  0  0  0  0  0  0  0  0
  150.1596  139.4729  157.8987 C   0  0  0  0  0  0  0  0  0  0  0  0
  149.7482  138.5270  158.4233 N   0  0  0  0  0  0  0  0  0  0  0  0
  151.5571  141.4426  158.1246 N   0  0  0  0  0  0  0  0  0  0  0  0
  152.7396  141.0510  158.6288 C   0  0  0  0  0  0  0  0  0  0  0  0
  153.2687  139.9734  158.3557 O   0  0  0  0  0  0  0  0  0  0  0  0
  153.4084  142.0285  159.6071 C   0  0  2  0  0  0  0  0  0  0  0  0
  153.4218  141.5124  161.0579 C   0  0  0  0  0  0  0  0  0  0  0  0
  152.7697  143.3357  159.5234 N   0  0  0  0  0  0  0  0  0  0  0  0
  152.6990  144.1991  158.4469 C   0  0  0  0  0  0  0  0  0  0  0  0
  152.0023  145.3013  158.8515 C   0  0  0  0  0  0  0  0  0  0  0  0
  151.6793  145.0171  160.2075 C   0  0  0  0  0  0  0  0  0  0  0  0
  152.1391  143.8422  160.6061 N   0  0  0  0  0  0  0  0  0  0  0  0
  149.5226  141.5850  156.7430 C   0  0  0  0  0  0  0  0  0  0  0  0
  147.9097  142.7613  154.7559 H   0  0  0  0  0  0  0  0  0  0  0  0
  146.8810  142.1135  156.0314 H   0  0  0  0  0  0  0  0  0  0  0  0
  146.8990  141.3518  154.4455 H   0  0  0  0  0  0  0  0  0  0  0  0
  148.2075  140.0220  156.0729 H   0  0  0  0  0  0  0  0  0  0  0  0
  148.9431  139.9684  153.7181 H   0  0  0  0  0  0  0  0  0  0  0  0
  149.9536  141.3708  153.9692 H   0  0  0  0  0  0  0  0  0  0  0  0
  150.2987  138.6357  155.2880 H   0  0  0  0  0  0  0  0  0  0  0  0
  151.3309  139.3337  154.0655 H   0  0  0  0  0  0  0  0  0  0  0  0
  152.3359  139.5916  156.3265 H   0  0  0  0  0  0  0  0  0  0  0  0
  152.0257  141.1391  155.5830 H   0  0  0  0  0  0  0  0  0  0  0  0
  151.2140  142.3476  158.4122 H   0  0  0  0  0  0  0  0  0  0  0  0
  154.4481  142.1372  159.2913 H   0  0  0  0  0  0  0  0  0  0  0  0
  153.9134  140.5415  161.1270 H   0  0  0  0  0  0  0  0  0  0  0  0
  152.4137  141.4056  161.4606 H   0  0  0  0  0  0  0  0  0  0  0  0
  153.9643  142.1996  161.7077 H   0  0  0  0  0  0  0  0  0  0  0  0
  153.1481  143.9601  157.4938 H   0  0  0  0  0  0  0  0  0  0  0  0
  151.7597  146.1765  158.2674 H   0  0  0  0  0  0  0  0  0  0  0  0
  151.1283  145.6255  160.9095 H   0  0  0  0  0  0  0  0  0  0  0  0
  149.9271  142.5225  156.3577 H   0  0  0  0  0  0  0  0  0  0  0  0
  148.8818  141.8560  157.5830 H   0  0  0  0  0  0  0  0  0  0  0  0
  1  2  1  0  0  0  0
  1 20  1  0  0  0  0
  1 21  1  0  0  0  0
  1 22  1  0  0  0  0
  2 19  1  0  0  0  0
  2  3  1  0  0  0  0
  2 23  1  0  0  0  0
  3  4  1  0  0  0  0
  3 24  1  0  0  0  0
  3 25  1  0  0  0  0
  4  5  1  0  0  0  0
  4 26  1  0  0  0  0
  4 27  1  0  0  0  0
  5  6  1  0  0  0  0
  5 28  1  0  0  0  0
  5 29  1  0  0  0  0
  6  7  1  0  0  0  0
  6  9  1  0  0  0  0
  6 19  1  0  0  0  0
  7  8  3  0  0  0  0
  9 10  1  0  0  0  0
  9 30  1  0  0  0  0
 10 11  2  0  0  0  0
 10 12  1  0  0  0  0
 12 13  1  0  0  0  0
 12 14  1  0  0  0  0
 12 31  1  0  0  0  0
 13 32  1  0  0  0  0
 13 33  1  0  0  0  0
 13 34  1  0  0  0  0
 14 18  1  0  0  0  0
 14 15  1  0  0  0  0
 15 16  2  0  0  0  0
 15 35  1  0  0  0  0
 16 17  1  0  0  0  0
 16 36  1  0  0  0  0
 17 18  2  0  0  0  0
 17 37  1  0  0  0  0
 19 38  1  0  0  0  0
 19 39  1  0  0  0  0
M  END
> <s_m_source_file>
AV-unprocessed.smi

> <i_m_source_file_index>
765

> <i_lp_mmshare_version>
43012

> <i_f3d_flags>
0

> <s_epik_input>
W0NIM11bQ0BASF0oW0NIMl0xKVtDSDJdW0NIMl1bQ0gyXVtDQEBdMShDI04pW05IXUMoPU8pW0NASF0oW0NIM10pbjJbY0hdW2NIXVtjSF1uMg==

> <s_epik_cmdline>
J2VwaWtfcHl0aG9uJywgJy1waCcsICc3LjAnLCAnLXRuJywgJzgnLCAnLW1hJywgJzIwMCcsICctbWV0YWxfYmluZGluZycsICctaW1hZScsICc8aW5maWxlLm1hZT4nLCAnLW9tYWUnLCAnPG91dGZpbGUubWFlPic=

> <r_lp_tautomer_probability>
1

> <r_epik_Ionization_Penalty>
2.71142e-05

> <r_epik_Ionization_Penalty_Charging>
0

> <r_epik_Ionization_Penalty_Neutral>
2.71142e-05

> <r_epik_State_Penalty>
-0

> <r_epik_Charging_Adjusted_Penalty>
0

> <i_epik_Tot_Q>
0

> <i_epik_Tot_abs_Q>
0

> <r_epik_Metal_State_Penalty>
-0

> <b_epik_Metal_Only>
0

> <s_lp_Force_Field>
OPLS_2005

> <r_lp_Energy>
10.7607

> <b_lp_Chiralities_Consistent>
1

> <s_lp_Variant>
AV-unprocessed.smi:765-2

> <Gold.Version>
5.8.1

> <Gold.Id.Protein>
6NUR|6NUR_protein|mol2

> <Gold.PLP.Fitness>
45.9721

> <Gold.PLP.PLP>
-43.6774

> <Gold.PLP.part.hbond>
-1.0000

> <Gold.PLP.part.metal>
0.0000

> <Gold.PLP.part.buried>
-2.9031

> <Gold.PLP.part.nonpolar>
-38.8163

> <Gold.PLP.part.repulsive>
0.1591

> <Gold.PLP.ligand.clash>
0.0000

> <Gold.PLP.ligand.torsion>
0.3848

> <Gold.PLP.Chemscore.Hbond>
1.0000

> <Gold.PLP.Chemscore.CHOScore>
0.0000

> <Gold.PLP.Chemscore.Metal>
0.0000

> <Gold.Chemscore.Hbonds>
donor molecule, donor type, donor heavy atom, donor atom, acceptor molecule, acceptor atom, score
      P1  H  7997  8009       L1    11  1.00

> <Gold.PLP.Chemscore.Internal.Correction>
0.0644

> <Gold.Rescore>
     Score         DG    S(hbond)    S(metal)    S(lipo)     H(rot)  DE(clash)    DE(int)     intcor
     14.82     -16.70       0.92        0.00     100.59       1.42       0.07       1.81       ----

> <Gold.Chemscore.Fitness>
14.8194

> <Gold.Chemscore.DG>
-16.6963

> <Gold.Chemscore.ZeroCoef>
-5.4800

> <Gold.Chemscore.Hbond>
0.9216

> <Gold.Chemscore.Metal>
0.0000

> <Gold.Chemscore.Lipo>
100.5912

> <Gold.Chemscore.Internal_Hbond>
0.0000

> <Gold.Chemscore.DEClash>
0.0683

> <Gold.Chemscore.DEInternal>
1.8086

> <Gold.Chemscore.Rot>
1.4183

> <Gold.Chemscore.Internal.Correction>
   9.000000E+99

> <Gold.Chemscore.Hbonds>
donor molecule, donor type, donor heavy atom, donor atom, acceptor molecule, acceptor atom, score
      P1  H  7997  8009       L1    11  0.89

> <Gold.Chemscore.Hbond.Weighted>
-3.0780

> <Gold.Chemscore.Metal.Weighted>
-0.0000

> <Gold.Chemscore.Lipo.Weighted>
-11.7692

> <Gold.Chemscore.Internal_Hbond.Weighted>
0.0000

> <Gold.Chemscore.DEClash.Weighted>
0.0683

> <Gold.Chemscore.DEInternal.Weighted>
1.8086

> <Gold.Chemscore.Rot.Weighted>
3.6309

> <Gold.Chemscore.Internal.Correction.Weighted>
   9.000000E+99

> <Gold.Protein.RotatedTorsions>
[ 6907 6896 6895 6894 ] final   82.28 input  -60.11 | X-H torsion
[ 7974 7965 7964 7962 ] final  160.99 input  175.53 | X-H torsion
[ 8008 7997 7996 7995 ] final  154.19 input   59.86 | X-H torsion
[ 10167 10162 10161 10158 ] final  113.83 input  -65.29 | X-H torsion
[ 10718 10713 10712 10709 ] final   19.96 input   66.30 | X-H torsion
[ 10763 10752 10751 10750 ] final -103.68 input  -60.55 | X-H torsion
[ 11005 11000 10999 10996 ] final  -87.10 input  -57.11 | X-H torsion

> <Gold.Protein.ActiveResidues>
 VAL166  LYS551  ARG553  GLY616  TRP617  ASP618  TYR619  PRO620  LYS621  CYS622 
 ASP623  PHE694  ASN695  SER759  ASP760  ASP761  ALA762  ILE779  LEU786  VAL792 
 PHE793  MET794  SER795  GLU796  ALA797  LYS798  CYS799  TRP800  GLU811  SER814 

> <Gold.Protein.RotatedAtoms>
  152.5294  134.3074  159.9100 H   0  0  0  0  0  0  0  0  0  0  0  0  # atno 6907 bound_to 6896
  151.3023  133.4110  159.2648 H   0  0  0  0  0  0  0  0  0  0  0  0  # atno 6908 bound_to 6896
  151.0108  134.9411  159.8063 H   0  0  0  0  0  0  0  0  0  0  0  0  # atno 6909 bound_to 6896
  144.7708  139.7835  143.6297 H   0  0  0  0  0  0  0  0  0  0  0  0  # atno 7974 bound_to 7965
  156.2544  140.1973  156.6607 H   0  0  0  0  0  0  0  0  0  0  0  0  # atno 8008 bound_to 7997
  154.6466  140.0577  156.9933 H   0  0  0  0  0  0  0  0  0  0  0  0  # atno 8009 bound_to 7997
  155.1481  140.3249  155.4440 H   0  0  0  0  0  0  0  0  0  0  0  0  # atno 8010 bound_to 7997
  139.6432  144.7125  151.2194 H   0  0  0  0  0  0  0  0  0  0  0  0  # atno 10167 bound_to 10162
  157.1179  130.6537  149.5915 H   0  0  0  0  0  0  0  0  0  0  0  0  # atno 10718 bound_to 10713
  154.7824  135.4814  153.9873 H   0  0  0  0  0  0  0  0  0  0  0  0  # atno 10763 bound_to 10752
  153.1513  135.6791  153.8886 H   0  0  0  0  0  0  0  0  0  0  0  0  # atno 10764 bound_to 10752
  153.8529  135.3165  155.3412 H   0  0  0  0  0  0  0  0  0  0  0  0  # atno 10765 bound_to 10752
  141.1621  133.7492  156.9258 H   0  0  0  0  0  0  0  0  0  0  0  0  # atno 11005 bound_to 11000
  146.1853  139.5066  142.9840 LP  0  0  0  0  0  0  0  0  0  0  0  0  # atno 17320 bound_to 7965
  145.6329  141.0300  143.1853 LP  0  0  0  0  0  0  0  0  0  0  0  0  # atno 17321 bound_to 7965
  140.7501  143.6275  150.8454 LP  0  0  0  0  0  0  0  0  0  0  0  0  # atno 17342 bound_to 10162
  139.9915  143.5842  152.2908 LP  0  0  0  0  0  0  0  0  0  0  0  0  # atno 17343 bound_to 10162
  155.9835  130.4855  150.6937 LP  0  0  0  0  0  0  0  0  0  0  0  0  # atno 17370 bound_to 10713
  157.4503  131.0871  151.0853 LP  0  0  0  0  0  0  0  0  0  0  0  0  # atno 17371 bound_to 10713
  140.1420  134.9287  157.2479 LP  0  0  0  0  0  0  0  0  0  0  0  0  # atno 17394 bound_to 11000
  140.2825  134.3333  155.7339 LP  0  0  0  0  0  0  0  0  0  0  0  0  # atno 17395 bound_to 11000

$$$$
