AV-unprocessed.smi:2789|AV-procd|sdf|10764|dock2
  -GOLD-   2272015193D 1   1.00000     0.00000
 Structure written by MMmdl.
 35 36  0  0  0  0  0  0  0  0  1 V2000
  145.6616  133.8759  154.8588 C   0  0  0  0  0  0  0  0  0  0  0  0
  145.9921  134.8456  153.8780 O   0  0  0  0  0  0  0  0  0  0  0  0
  144.8589  135.4019  153.2164 C   0  0  2  0  0  0  0  0  0  0  0  0
  144.2141  134.2650  152.4201 C   0  0  0  0  0  0  0  0  0  0  0  0
  144.9959  134.2289  151.1109 C   0  0  0  0  0  0  0  0  0  0  0  0
  145.2718  135.6992  150.7948 C   0  0  0  0  0  0  0  0  0  0  0  0
  145.2798  136.4398  152.1466 C   0  0  2  0  0  0  0  0  0  0  0  0
  146.5928  137.0271  152.4063 N   0  0  0  0  0  0  0  0  0  0  0  0
  146.8159  138.1299  153.1344 C   0  0  0  0  0  0  0  0  0  0  0  0
  145.9190  138.7893  153.6602 O   0  0  0  0  0  0  0  0  0  0  0  0
  148.1312  138.3943  153.2179 N   0  0  0  0  0  0  0  0  0  0  0  0
  148.7542  139.4188  153.8588 C   0  0  0  0  0  0  0  0  0  0  0  0
  148.2880  140.6800  154.1134 C   0  0  0  0  0  0  0  0  0  0  0  0
  149.3830  141.2818  154.7967 C   0  0  0  0  0  0  0  0  0  0  0  0
  150.4178  140.4642  154.9421 N   0  0  0  0  0  0  0  0  0  0  0  0
  150.0347  139.3074  154.3594 N   0  0  0  0  0  0  0  0  0  0  0  0
  150.9501  138.1826  154.3447 C   0  0  0  0  0  0  0  0  0  0  0  0
  146.5700  133.5260  155.3488 H   0  0  0  0  0  0  0  0  0  0  0  0
  145.1706  133.0139  154.4055 H   0  0  0  0  0  0  0  0  0  0  0  0
  145.0038  134.2894  155.6234 H   0  0  0  0  0  0  0  0  0  0  0  0
  144.1440  135.8236  153.9260 H   0  0  0  0  0  0  0  0  0  0  0  0
  144.2310  133.3116  152.9493 H   0  0  0  0  0  0  0  0  0  0  0  0
  143.1713  134.5084  152.2122 H   0  0  0  0  0  0  0  0  0  0  0  0
  145.9385  133.7017  151.2623 H   0  0  0  0  0  0  0  0  0  0  0  0
  144.4549  133.7218  150.3115 H   0  0  0  0  0  0  0  0  0  0  0  0
  146.1982  135.8191  150.2315 H   0  0  0  0  0  0  0  0  0  0  0  0
  144.4679  136.0937  150.1721 H   0  0  0  0  0  0  0  0  0  0  0  0
  144.5249  137.2271  152.0963 H   0  0  0  0  0  0  0  0  0  0  0  0
  147.3887  136.5419  152.0194 H   0  0  0  0  0  0  0  0  0  0  0  0
  148.7449  137.7411  152.7540 H   0  0  0  0  0  0  0  0  0  0  0  0
  147.3338  141.1179  153.8622 H   0  0  0  0  0  0  0  0  0  0  0  0
  149.4579  142.2853  155.1895 H   0  0  0  0  0  0  0  0  0  0  0  0
  150.5721  137.3861  153.7038 H   0  0  0  0  0  0  0  0  0  0  0  0
  151.0692  137.7950  155.3568 H   0  0  0  0  0  0  0  0  0  0  0  0
  151.9224  138.5018  153.9682 H   0  0  0  0  0  0  0  0  0  0  0  0
  1  2  1  0  0  0  0
  1 18  1  0  0  0  0
  1 19  1  0  0  0  0
  1 20  1  0  0  0  0
  2  3  1  0  0  0  0
  3  7  1  0  0  0  0
  3  4  1  0  0  0  0
  3 21  1  0  0  0  0
  4  5  1  0  0  0  0
  4 22  1  0  0  0  0
  4 23  1  0  0  0  0
  5  6  1  0  0  0  0
  5 24  1  0  0  0  0
  5 25  1  0  0  0  0
  6  7  1  0  0  0  0
  6 26  1  0  0  0  0
  6 27  1  0  0  0  0
  7  8  1  0  0  0  0
  7 28  1  0  0  0  0
  8  9  1  0  0  0  0
  8 29  1  0  0  0  0
  9 10  2  0  0  0  0
  9 11  1  0  0  0  0
 11 12  1  0  0  0  0
 11 30  1  0  0  0  0
 12 16  1  0  0  0  0
 12 13  2  0  0  0  0
 13 14  1  0  0  0  0
 13 31  1  0  0  0  0
 14 15  2  0  0  0  0
 14 32  1  0  0  0  0
 15 16  1  0  0  0  0
 16 17  1  0  0  0  0
 17 33  1  0  0  0  0
 17 34  1  0  0  0  0
 17 35  1  0  0  0  0
M  END
> <s_m_source_file>
AV-unprocessed.smi

> <i_m_source_file_index>
2789

> <i_lp_mmshare_version>
43012

> <i_f3d_flags>
0

> <s_epik_input>
W0NIM11PW0NAQEhdMVtDSDJdW0NIMl1bQ0gyXVtDQEhdMVtOSF1DKD1PKVtOSF1jMltjSF1bY0hdbm4yW0NIM10=

> <s_epik_cmdline>
J2VwaWtfcHl0aG9uJywgJy1waCcsICc3LjAnLCAnLXRuJywgJzgnLCAnLW1hJywgJzIwMCcsICctbWV0YWxfYmluZGluZycsICctaW1hZScsICc8aW5maWxlLm1hZT4nLCAnLW9tYWUnLCAnPG91dGZpbGUubWFlPic=

> <r_lp_tautomer_probability>
1

> <r_epik_Ionization_Penalty>
4.40608e-05

> <r_epik_Ionization_Penalty_Charging>
0

> <r_epik_Ionization_Penalty_Neutral>
4.40608e-05

> <r_epik_State_Penalty>
-0

> <r_epik_Charging_Adjusted_Penalty>
0

> <i_epik_Tot_Q>
0

> <i_epik_Tot_abs_Q>
0

> <r_epik_Metal_State_Penalty>
-0

> <b_epik_Metal_Only>
0

> <s_lp_Force_Field>
OPLS_2005

> <r_lp_Energy>
23.3685

> <b_lp_Chiralities_Consistent>
1

> <s_lp_Variant>
AV-unprocessed.smi:2789-3

> <Gold.Version>
5.8.1

> <Gold.Id.Protein>
6NUR|6NUR_protein|mol2

> <Gold.PLP.Fitness>
37.2599

> <Gold.PLP.PLP>
-27.4168

> <Gold.PLP.part.hbond>
-4.0000

> <Gold.PLP.part.metal>
0.0000

> <Gold.PLP.part.buried>
-2.2755

> <Gold.PLP.part.nonpolar>
-23.2819

> <Gold.PLP.part.repulsive>
1.0565

> <Gold.PLP.ligand.clash>
0.0000

> <Gold.PLP.ligand.torsion>
0.5557

> <Gold.PLP.Chemscore.Hbond>
2.6500

> <Gold.PLP.Chemscore.CHOScore>
0.9918

> <Gold.PLP.Chemscore.Metal>
0.0000

> <Gold.Chemscore.Hbonds>
donor molecule, donor type, donor heavy atom, donor atom, acceptor molecule, acceptor atom, score
      L1  H     8    29       P1  7948  1.00
      L1  H    11    30       P1  7948  1.00
      P1  H  7989  7998       L1    15  0.60
      L1  C    14    32       P1  8028  0.98

> <Gold.PLP.Chemscore.Internal.Correction>
0.0293

> <Gold.Rescore>
     Score         DG    S(hbond)    S(metal)    S(lipo)     H(rot)  DE(clash)    DE(int)     intcor
     12.70     -14.06       1.87        0.00      47.78       1.27       0.05       1.31       ----

> <Gold.Chemscore.Fitness>
12.7018

> <Gold.Chemscore.DG>
-14.0609

> <Gold.Chemscore.ZeroCoef>
-5.4800

> <Gold.Chemscore.Hbond>
1.8698

> <Gold.Chemscore.Metal>
0.0000

> <Gold.Chemscore.Lipo>
47.7793

> <Gold.Chemscore.Internal_Hbond>
0.0000

> <Gold.Chemscore.DEClash>
0.0528

> <Gold.Chemscore.DEInternal>
1.3063

> <Gold.Chemscore.Rot>
1.2712

> <Gold.Chemscore.Internal.Correction>
   9.000000E+99

> <Gold.Chemscore.Hbonds>
donor molecule, donor type, donor heavy atom, donor atom, acceptor molecule, acceptor atom, score
      L1  H     8    29       P1  7948  0.96
      L1  H    11    30       P1  7948  0.94
      P1  H  7989  7998       L1    15  0.02

> <Gold.Chemscore.Hbond.Weighted>
-6.2451

> <Gold.Chemscore.Metal.Weighted>
-0.0000

> <Gold.Chemscore.Lipo.Weighted>
-5.5902

> <Gold.Chemscore.Internal_Hbond.Weighted>
0.0000

> <Gold.Chemscore.DEClash.Weighted>
0.0528

> <Gold.Chemscore.DEInternal.Weighted>
1.3063

> <Gold.Chemscore.Rot.Weighted>
3.2544

> <Gold.Chemscore.Internal.Correction.Weighted>
   9.000000E+99

> <Gold.Protein.RotatedTorsions>
[ 6907 6896 6895 6894 ] final -147.96 input  -60.11 | X-H torsion
[ 7974 7965 7964 7962 ] final   82.25 input  175.53 | X-H torsion
[ 8008 7997 7996 7995 ] final   73.24 input   59.86 | X-H torsion
[ 10167 10162 10161 10158 ] final   99.03 input  -65.29 | X-H torsion
[ 10718 10713 10712 10709 ] final  161.27 input   66.30 | X-H torsion
[ 10763 10752 10751 10750 ] final -113.85 input  -60.55 | X-H torsion
[ 11005 11000 10999 10996 ] final   52.88 input  -57.11 | X-H torsion

> <Gold.Protein.ActiveResidues>
 VAL166  LYS551  ARG553  GLY616  TRP617  ASP618  TYR619  PRO620  LYS621  CYS622 
 ASP623  PHE694  ASN695  SER759  ASP760  ASP761  ALA762  ILE779  LEU786  VAL792 
 PHE793  MET794  SER795  GLU796  ALA797  LYS798  CYS799  TRP800  GLU811  SER814 

> <Gold.Protein.RotatedAtoms>
  151.1631  133.4832  159.2593 H   0  0  0  0  0  0  0  0  0  0  0  0  # atno 6907 bound_to 6896
  151.1433  135.0190  159.8645 H   0  0  0  0  0  0  0  0  0  0  0  0  # atno 6908 bound_to 6896
  152.5463  134.1523  159.8576 H   0  0  0  0  0  0  0  0  0  0  0  0  # atno 6909 bound_to 6896
  145.6275  139.2398  143.2103 H   0  0  0  0  0  0  0  0  0  0  0  0  # atno 7974 bound_to 7965
  155.7808  140.3482  155.5296 H   0  0  0  0  0  0  0  0  0  0  0  0  # atno 8008 bound_to 7997
  155.8730  140.0989  157.1558 H   0  0  0  0  0  0  0  0  0  0  0  0  # atno 8009 bound_to 7997
  154.4019  140.1337  156.4089 H   0  0  0  0  0  0  0  0  0  0  0  0  # atno 8010 bound_to 7997
  139.7655  144.6940  151.0231 H   0  0  0  0  0  0  0  0  0  0  0  0  # atno 10167 bound_to 10162
  157.1388  131.0535  151.2336 H   0  0  0  0  0  0  0  0  0  0  0  0  # atno 10718 bound_to 10713
  154.8414  135.4439  154.1413 H   0  0  0  0  0  0  0  0  0  0  0  0  # atno 10763 bound_to 10752
  153.2598  135.6935  153.7597 H   0  0  0  0  0  0  0  0  0  0  0  0  # atno 10764 bound_to 10752
  153.6878  135.3392  155.3170 H   0  0  0  0  0  0  0  0  0  0  0  0  # atno 10765 bound_to 10752
  140.0813  134.5335  155.8944 H   0  0  0  0  0  0  0  0  0  0  0  0  # atno 11005 bound_to 11000
  146.1382  140.7093  142.9379 LP  0  0  0  0  0  0  0  0  0  0  0  0  # atno 17320 bound_to 7965
  144.7206  140.4361  143.7011 LP  0  0  0  0  0  0  0  0  0  0  0  0  # atno 17321 bound_to 7965
  140.7810  143.4648  151.0227 LP  0  0  0  0  0  0  0  0  0  0  0  0  # atno 17342 bound_to 10162
  139.8333  143.7661  152.3180 LP  0  0  0  0  0  0  0  0  0  0  0  0  # atno 17343 bound_to 10162
  157.4326  130.7499  149.7002 LP  0  0  0  0  0  0  0  0  0  0  0  0  # atno 17370 bound_to 10713
  155.9793  130.4042  150.3598 LP  0  0  0  0  0  0  0  0  0  0  0  0  # atno 17371 bound_to 10713
  141.2047  133.6641  156.6139 LP  0  0  0  0  0  0  0  0  0  0  0  0  # atno 17394 bound_to 11000
  140.3484  134.7789  157.4449 LP  0  0  0  0  0  0  0  0  0  0  0  0  # atno 17395 bound_to 11000

$$$$
