AV-unprocessed.smi:243|AV-procd|sdf|1861|dock3
  -GOLD-   2262020493D 1   1.00000     0.00000
 Structure written by MMmdl.
 58 61  0  0  0  0  0  0  0  0  2 V2000
  145.7903  143.1119  154.1412 C   0  0  0  0  0  0  0  0  0  0  0  0
  147.1004  142.3723  153.8346 C   0  0  0  0  0  0  0  0  0  0  0  0
  147.9041  142.1075  155.0576 N   0  3  1  0  0  0  0  0  0  0  0  0
  147.1072  141.5522  156.1808 C   0  0  0  0  0  0  0  0  0  0  0  0
  146.7616  140.0718  155.9539 C   0  0  0  0  0  0  0  0  0  0  0  0
  148.0358  139.2326  155.7394 C   0  0  1  0  0  0  0  0  0  0  0  0
  147.6991  137.8147  155.5458 N   0  0  0  0  0  0  0  0  0  0  0  0
  148.2597  136.7827  156.4136 C   0  0  0  0  0  0  0  0  0  0  0  0
  146.8901  137.4338  154.5191 C   0  0  0  0  0  0  0  0  0  0  0  0
  146.5404  138.3592  153.5861 N   0  0  0  0  0  0  0  0  0  0  0  0
  145.7423  138.0322  152.5664 C   0  0  0  0  0  0  0  0  0  0  0  0
  145.1888  136.8524  152.2874 N   0  0  0  0  0  0  0  0  0  0  0  0
  145.5311  135.9143  153.2154 C   0  0  0  0  0  0  0  0  0  0  0  0
  146.3695  136.1152  154.3505 C   0  0  0  0  0  0  0  0  0  0  0  0
  146.5030  134.9179  155.0459 N   0  0  0  0  0  0  0  0  0  0  0  0
  145.7848  134.0663  154.3678 C   0  0  0  0  0  0  0  0  0  0  0  0
  145.1547  134.5827  153.2591 N   0  0  0  0  0  0  0  0  0  0  0  0
  144.3023  133.8614  152.3252 C   0  0  0  0  0  0  0  0  0  0  0  0
  144.9499  133.5999  150.9409 C   0  0  2  0  0  0  0  0  0  0  0  0
  145.3383  134.8328  150.3642 O   0  0  0  0  0  0  0  0  0  0  0  0
  144.0488  132.8507  149.9573 C   0  0  0  0  0  0  0  0  0  0  0  0
  144.5100  131.4087  150.1055 C   0  0  0  0  0  0  0  0  0  0  0  0
  145.9144  131.5526  150.2193 O   0  0  0  0  0  0  0  0  0  0  0  0
  146.1763  132.6712  151.0590 C   0  0  0  0  0  0  0  0  0  0  0  0
  148.8857  139.8219  154.5845 C   0  0  2  0  0  0  0  0  0  0  0  0
  150.2191  139.0771  154.4015 C   0  0  0  0  0  0  0  0  0  0  0  0
  149.1507  141.3254  154.8336 C   0  0  0  0  0  0  0  0  0  0  0  0
  145.1804  143.1978  153.2417 H   0  0  0  0  0  0  0  0  0  0  0  0
  145.9655  144.1227  154.5084 H   0  0  0  0  0  0  0  0  0  0  0  0
  145.2017  142.5780  154.8878 H   0  0  0  0  0  0  0  0  0  0  0  0
  146.8387  141.4200  153.3713 H   0  0  0  0  0  0  0  0  0  0  0  0
  147.6824  142.9195  153.0932 H   0  0  0  0  0  0  0  0  0  0  0  0
  147.6873  141.6529  157.0992 H   0  0  0  0  0  0  0  0  0  0  0  0
  146.2005  142.1396  156.3304 H   0  0  0  0  0  0  0  0  0  0  0  0
  146.2111  139.6919  156.8153 H   0  0  0  0  0  0  0  0  0  0  0  0
  146.0917  139.9797  155.0985 H   0  0  0  0  0  0  0  0  0  0  0  0
  148.6173  139.3455  156.6548 H   0  0  0  0  0  0  0  0  0  0  0  0
  147.5376  135.9843  156.5886 H   0  0  0  0  0  0  0  0  0  0  0  0
  148.5424  137.1855  157.3851 H   0  0  0  0  0  0  0  0  0  0  0  0
  149.1531  136.3517  155.9616 H   0  0  0  0  0  0  0  0  0  0  0  0
  145.5137  138.8305  151.8755 H   0  0  0  0  0  0  0  0  0  0  0  0
  145.6921  133.0308  154.6618 H   0  0  0  0  0  0  0  0  0  0  0  0
  144.0169  132.9159  152.7888 H   0  0  0  0  0  0  0  0  0  0  0  0
  143.3787  134.4293  152.2050 H   0  0  0  0  0  0  0  0  0  0  0  0
  145.3302  134.7393  149.4240 H   0  0  0  0  0  0  0  0  0  0  0  0
  142.9816  132.9715  150.1344 H   0  0  0  0  0  0  0  0  0  0  0  0
  144.2446  133.1731  148.9333 H   0  0  0  0  0  0  0  0  0  0  0  0
  144.1064  130.9560  151.0129 H   0  0  0  0  0  0  0  0  0  0  0  0
  144.2355  130.7865  149.2533 H   0  0  0  0  0  0  0  0  0  0  0  0
  147.1095  133.1510  150.7608 H   0  0  0  0  0  0  0  0  0  0  0  0
  146.3076  132.3143  152.0814 H   0  0  0  0  0  0  0  0  0  0  0  0
  148.3356  139.7274  153.6490 H   0  0  0  0  0  0  0  0  0  0  0  0
  150.8198  139.1098  155.3108 H   0  0  0  0  0  0  0  0  0  0  0  0
  150.8085  139.5191  153.5979 H   0  0  0  0  0  0  0  0  0  0  0  0
  150.0601  138.0292  154.1461 H   0  0  0  0  0  0  0  0  0  0  0  0
  149.7266  141.7527  154.0134 H   0  0  0  0  0  0  0  0  0  0  0  0
  149.7757  141.4367  155.7208 H   0  0  0  0  0  0  0  0  0  0  0  0
  148.2018  143.0206  155.3710 H   0  0  0  0  0  0  0  0  0  0  0  0
  1  2  1  0  0  0  0
  1 28  1  0  0  0  0
  1 29  1  0  0  0  0
  1 30  1  0  0  0  0
  2  3  1  0  0  0  0
  2 31  1  0  0  0  0
  2 32  1  0  0  0  0
  3 27  1  0  0  0  0
  3  4  1  0  0  0  0
  3 58  1  0  0  0  0
  4  5  1  0  0  0  0
  4 33  1  0  0  0  0
  4 34  1  0  0  0  0
  5  6  1  0  0  0  0
  5 35  1  0  0  0  0
  5 36  1  0  0  0  0
  6  7  1  0  0  0  0
  6 25  1  0  0  0  0
  6 37  1  0  0  0  0
  7  8  1  0  0  0  0
  7  9  1  0  0  0  0
  8 38  1  0  0  0  0
  8 39  1  0  0  0  0
  8 40  1  0  0  0  0
  9 14  1  0  0  0  0
  9 10  2  0  0  0  0
 10 11  1  0  0  0  0
 11 12  2  0  0  0  0
 11 41  1  0  0  0  0
 12 13  1  0  0  0  0
 13 17  1  0  0  0  0
 13 14  2  0  0  0  0
 14 15  1  0  0  0  0
 15 16  2  0  0  0  0
 16 17  1  0  0  0  0
 16 42  1  0  0  0  0
 17 18  1  0  0  0  0
 18 19  1  0  0  0  0
 18 43  1  0  0  0  0
 18 44  1  0  0  0  0
 19 24  1  0  0  0  0
 19 20  1  0  0  0  0
 19 21  1  0  0  0  0
 20 45  1  0  0  0  0
 21 22  1  0  0  0  0
 21 46  1  0  0  0  0
 21 47  1  0  0  0  0
 22 23  1  0  0  0  0
 22 48  1  0  0  0  0
 22 49  1  0  0  0  0
 23 24  1  0  0  0  0
 24 50  1  0  0  0  0
 24 51  1  0  0  0  0
 25 26  1  0  0  0  0
 25 27  1  0  0  0  0
 25 52  1  0  0  0  0
 26 53  1  0  0  0  0
 26 54  1  0  0  0  0
 26 55  1  0  0  0  0
 27 56  1  0  0  0  0
 27 57  1  0  0  0  0
M  CHG  1   3   1
M  END
> <s_m_source_file>
AV-unprocessed.smi

> <i_m_source_file_index>
243

> <i_lp_mmshare_version>
43012

> <i_f3d_flags>
0

> <s_epik_input>
W0NIM11bQ0gyXU4xW0NIMl1bQ0gyXVtDQEhdKFtDQEBIXShbQ0gzXSlbQ0gyXTEpTihbQ0gzXSljKG5bY0hdbjIpYyhjMjMpbltjSF1uM1tDSDJdW0NAQF00KFtPSF0pW0NIMl1bQ0gyXU9bQ0gyXTQ=

> <s_epik_cmdline>
J2VwaWtfcHl0aG9uJywgJy1waCcsICc3LjAnLCAnLXRuJywgJzgnLCAnLW1hJywgJzIwMCcsICctbWV0YWxfYmluZGluZycsICctaW1hZScsICc8aW5maWxlLm1hZT4nLCAnLW9tYWUnLCAnPG91dGZpbGUubWFlPic=

> <r_lp_tautomer_probability>
1

> <r_epik_Ionization_Penalty>
0.00253099

> <r_epik_Ionization_Penalty_Charging>
0.00137877

> <r_epik_Ionization_Penalty_Neutral>
0.00115221

> <r_epik_State_Penalty>
-0

> <r_epik_Charging_Adjusted_Penalty>
0.00137877

> <i_epik_Tot_Q>
1

> <i_epik_Tot_abs_Q>
1

> <r_epik_Metal_State_Penalty>
-0

> <b_epik_Metal_Only>
0

> <s_lp_Force_Field>
OPLS_2005

> <r_lp_Energy>
46.8505

> <b_lp_Chiralities_Consistent>
1

> <s_lp_Variant>
AV-unprocessed.smi:243-14

> <Gold.Version>
5.8.1

> <Gold.Id.Protein>
6NUR|6NUR_protein|mol2

> <Gold.PLP.Fitness>
45.6324

> <Gold.PLP.PLP>
-32.8617

> <Gold.PLP.part.hbond>
-2.0000

> <Gold.PLP.part.metal>
0.0000

> <Gold.PLP.part.buried>
-5.2589

> <Gold.PLP.part.nonpolar>
-27.8330

> <Gold.PLP.part.repulsive>
0.7683

> <Gold.PLP.ligand.clash>
0.0000

> <Gold.PLP.ligand.torsion>
0.2692

> <Gold.PLP.Chemscore.Hbond>
3.0000

> <Gold.PLP.Chemscore.CHOScore>
1.3934

> <Gold.PLP.Chemscore.Metal>
0.0000

> <Gold.Chemscore.Hbonds>
donor molecule, donor type, donor heavy atom, donor atom, acceptor molecule, acceptor atom, score
      L1  H     3    58       P1  8028  2.00
      L1  H    20    45       P1  7921  1.00
      L1  C    11    41       P1 10171  0.66
      L1  C    11    41       P1 10175  0.79

> <Gold.PLP.Chemscore.Internal.Correction>
0.1290

> <Gold.Rescore>
     Score         DG    S(hbond)    S(metal)    S(lipo)     H(rot)  DE(clash)    DE(int)     intcor
     11.54     -15.95       1.95        0.00      82.67       2.24       0.31       4.10       ----

> <Gold.Chemscore.Fitness>
11.5362

> <Gold.Chemscore.DG>
-15.9462

> <Gold.Chemscore.ZeroCoef>
-5.4800

> <Gold.Chemscore.Hbond>
1.9531

> <Gold.Chemscore.Metal>
0.0000

> <Gold.Chemscore.Lipo>
82.6664

> <Gold.Chemscore.Internal_Hbond>
0.0000

> <Gold.Chemscore.DEClash>
0.3117

> <Gold.Chemscore.DEInternal>
4.0983

> <Gold.Chemscore.Rot>
2.2379

> <Gold.Chemscore.Internal.Correction>
   9.000000E+99

> <Gold.Chemscore.Hbonds>
donor molecule, donor type, donor heavy atom, donor atom, acceptor molecule, acceptor atom, score
      L1  H     3    58       P1  8028  0.96
      L1  H    20    45       P1  7921  0.96

> <Gold.Chemscore.Hbond.Weighted>
-6.5234

> <Gold.Chemscore.Metal.Weighted>
-0.0000

> <Gold.Chemscore.Lipo.Weighted>
-9.6720

> <Gold.Chemscore.Internal_Hbond.Weighted>
0.0000

> <Gold.Chemscore.DEClash.Weighted>
0.3117

> <Gold.Chemscore.DEInternal.Weighted>
4.0983

> <Gold.Chemscore.Rot.Weighted>
5.7291

> <Gold.Chemscore.Internal.Correction.Weighted>
   9.000000E+99

> <Gold.Protein.RotatedTorsions>
[ 6907 6896 6895 6894 ] final  -45.45 input  -60.11 | X-H torsion
[ 7974 7965 7964 7962 ] final  114.73 input  175.53 | X-H torsion
[ 8008 7997 7996 7995 ] final  -44.36 input   59.86 | X-H torsion
[ 10167 10162 10161 10158 ] final  116.58 input  -65.29 | X-H torsion
[ 10718 10713 10712 10709 ] final   60.50 input   66.30 | X-H torsion
[ 10763 10752 10751 10750 ] final  -16.39 input  -60.55 | X-H torsion
[ 11005 11000 10999 10996 ] final  -78.29 input  -57.11 | X-H torsion

> <Gold.Protein.ActiveResidues>
 VAL166  LYS551  ARG553  GLY616  TRP617  ASP618  TYR619  PRO620  LYS621  CYS622 
 ASP623  PHE694  ASN695  SER759  ASP760  ASP761  ALA762  ILE779  LEU786  VAL792 
 PHE793  MET794  SER795  GLU796  ALA797  LYS798  CYS799  TRP800  GLU811  SER814 

> <Gold.Protein.RotatedAtoms>
  150.9218  134.8636  159.7493 H   0  0  0  0  0  0  0  0  0  0  0  0  # atno 6907 bound_to 6896
  152.4996  134.4206  159.9489 H   0  0  0  0  0  0  0  0  0  0  0  0  # atno 6908 bound_to 6896
  151.4240  133.3650  159.2795 H   0  0  0  0  0  0  0  0  0  0  0  0  # atno 6909 bound_to 6896
  145.2008  139.2953  143.4319 H   0  0  0  0  0  0  0  0  0  0  0  0  # atno 7974 bound_to 7965
  154.3997  140.1424  156.3670 H   0  0  0  0  0  0  0  0  0  0  0  0  # atno 8008 bound_to 7997
  155.8128  140.3472  155.5447 H   0  0  0  0  0  0  0  0  0  0  0  0  # atno 8009 bound_to 7997
  155.8369  140.0920  157.1749 H   0  0  0  0  0  0  0  0  0  0  0  0  # atno 8010 bound_to 7997
  139.6237  144.7105  151.2579 H   0  0  0  0  0  0  0  0  0  0  0  0  # atno 10167 bound_to 10162
  157.5757  130.8942  149.9343 H   0  0  0  0  0  0  0  0  0  0  0  0  # atno 10718 bound_to 10713
  153.5579  135.7010  153.5561 H   0  0  0  0  0  0  0  0  0  0  0  0  # atno 10763 bound_to 10752
  153.3456  135.4009  155.1606 H   0  0  0  0  0  0  0  0  0  0  0  0  # atno 10764 bound_to 10752
  154.8652  135.3753  154.5094 H   0  0  0  0  0  0  0  0  0  0  0  0  # atno 10765 bound_to 10752
  141.1664  133.7057  156.7949 H   0  0  0  0  0  0  0  0  0  0  0  0  # atno 11005 bound_to 11000
  146.3418  140.2252  142.8592 LP  0  0  0  0  0  0  0  0  0  0  0  0  # atno 17320 bound_to 7965
  144.9949  140.8580  143.5317 LP  0  0  0  0  0  0  0  0  0  0  0  0  # atno 17321 bound_to 7965
  140.7398  143.6607  150.8166 LP  0  0  0  0  0  0  0  0  0  0  0  0  # atno 17342 bound_to 10162
  140.0222  143.5530  152.2796 LP  0  0  0  0  0  0  0  0  0  0  0  0  # atno 17343 bound_to 10162
  156.0802  130.3674  150.0596 LP  0  0  0  0  0  0  0  0  0  0  0  0  # atno 17370 bound_to 10713
  156.8742  130.9534  151.3606 LP  0  0  0  0  0  0  0  0  0  0  0  0  # atno 17371 bound_to 10713
  140.2298  134.8694  157.3465 LP  0  0  0  0  0  0  0  0  0  0  0  0  # atno 17394 bound_to 11000
  140.1902  134.4381  155.7720 LP  0  0  0  0  0  0  0  0  0  0  0  0  # atno 17395 bound_to 11000

$$$$
