AV-unprocessed.smi:2061|AV-procd|sdf|8389|dock2
  -GOLD-   2272011 73D 1   1.00000     0.00000
 Structure written by MMmdl.
 45 46  0  0  0  0  0  0  0  0  3 V2000
  146.4997  133.6343  161.5766 C   0  0  0  0  0  0  0  0  0  0  0  0
  147.1618  134.8939  161.1350 C   0  0  0  0  0  0  0  0  0  0  0  0
  147.8929  135.2218  160.0280 C   0  0  0  0  0  0  0  0  0  0  0  0
  148.2206  136.5857  160.2517 C   0  0  0  0  0  0  0  0  0  0  0  0
  148.9978  137.3078  159.3078 N   0  0  0  0  0  0  0  0  0  0  0  0
  148.8814  137.3368  157.9677 C   0  0  0  0  0  0  0  0  0  0  0  0
  148.0142  136.6613  157.4003 O   0  0  0  0  0  0  0  0  0  0  0  0
  149.7907  138.1687  157.3885 N   0  5  0  0  0  0  0  0  0  0  0  0
  150.0250  139.5580  157.7869 C   0  0  0  0  0  0  0  0  0  0  0  0
  151.1866  140.1862  156.9665 C   0  0  1  0  0  0  0  0  0  0  0  0
  150.7701  140.6830  155.5588 C   0  0  0  0  0  0  0  0  0  0  0  0
  151.8926  141.2342  157.7677 N   0  3  1  0  0  0  0  0  0  0  0  0
  151.1896  142.5411  157.7851 C   0  0  0  0  0  0  0  0  0  0  0  0
  152.0662  143.6130  158.4610 C   0  0  1  0  0  0  0  0  0  0  0  0
  151.3436  144.9594  158.5806 C   0  0  0  0  0  0  0  0  0  0  0  0
  152.4145  143.1804  159.7721 O   0  0  0  0  0  0  0  0  0  0  0  0
  153.1610  141.9682  159.7707 C   0  0  1  0  0  0  0  0  0  0  0  0
  153.5600  141.6508  161.2161 C   0  0  0  0  0  0  0  0  0  0  0  0
  152.2993  140.8549  159.1492 C   0  0  0  0  0  0  0  0  0  0  0  0
  147.7293  137.0486  161.3919 N   0  0  0  0  0  0  0  0  0  0  0  0
  147.0479  135.9673  161.9630 O   0  0  0  0  0  0  0  0  0  0  0  0
  146.7650  132.8042  160.9216 H   0  0  0  0  0  0  0  0  0  0  0  0
  145.4153  133.7436  161.5627 H   0  0  0  0  0  0  0  0  0  0  0  0
  146.8019  133.3736  162.5910 H   0  0  0  0  0  0  0  0  0  0  0  0
  148.1536  134.5862  159.1948 H   0  0  0  0  0  0  0  0  0  0  0  0
  149.7254  137.8896  159.6963 H   0  0  0  0  0  0  0  0  0  0  0  0
  149.1287  140.1640  157.6531 H   0  0  0  0  0  0  0  0  0  0  0  0
  150.2607  139.6350  158.8495 H   0  0  0  0  0  0  0  0  0  0  0  0
  151.9100  139.3841  156.8114 H   0  0  0  0  0  0  0  0  0  0  0  0
  150.4102  139.8658  154.9312 H   0  0  0  0  0  0  0  0  0  0  0  0
  151.6183  141.1232  155.0343 H   0  0  0  0  0  0  0  0  0  0  0  0
  149.9810  141.4362  155.5934 H   0  0  0  0  0  0  0  0  0  0  0  0
  150.9611  142.8552  156.7656 H   0  0  0  0  0  0  0  0  0  0  0  0
  150.2391  142.4389  158.3110 H   0  0  0  0  0  0  0  0  0  0  0  0
  152.9781  143.7600  157.8792 H   0  0  0  0  0  0  0  0  0  0  0  0
  151.0606  145.3420  157.5998 H   0  0  0  0  0  0  0  0  0  0  0  0
  151.9837  145.7035  159.0554 H   0  0  0  0  0  0  0  0  0  0  0  0
  150.4369  144.8697  159.1796 H   0  0  0  0  0  0  0  0  0  0  0  0
  154.0697  142.1039  159.1813 H   0  0  0  0  0  0  0  0  0  0  0  0
  154.1441  140.7316  161.2696 H   0  0  0  0  0  0  0  0  0  0  0  0
  152.6818  141.5262  161.8503 H   0  0  0  0  0  0  0  0  0  0  0  0
  154.1650  142.4534  161.6384 H   0  0  0  0  0  0  0  0  0  0  0  0
  151.4162  140.6923  159.7686 H   0  0  0  0  0  0  0  0  0  0  0  0
  152.8619  139.9209  159.1404 H   0  0  0  0  0  0  0  0  0  0  0  0
  152.7497  141.4035  157.2602 H   0  0  0  0  0  0  0  0  0  0  0  0
  1  2  1  0  0  0  0
  1 22  1  0  0  0  0
  1 23  1  0  0  0  0
  1 24  1  0  0  0  0
  2 21  1  0  0  0  0
  2  3  2  0  0  0  0
  3  4  1  0  0  0  0
  3 25  1  0  0  0  0
  4  5  1  0  0  0  0
  4 20  2  0  0  0  0
  5  6  1  0  0  0  0
  5 26  1  0  0  0  0
  6  7  2  0  0  0  0
  6  8  1  0  0  0  0
  8  9  1  0  0  0  0
  9 10  1  0  0  0  0
  9 27  1  0  0  0  0
  9 28  1  0  0  0  0
 10 11  1  0  0  0  0
 10 12  1  0  0  0  0
 10 29  1  0  0  0  0
 11 30  1  0  0  0  0
 11 31  1  0  0  0  0
 11 32  1  0  0  0  0
 12 19  1  0  0  0  0
 12 13  1  0  0  0  0
 12 45  1  0  0  0  0
 13 14  1  0  0  0  0
 13 33  1  0  0  0  0
 13 34  1  0  0  0  0
 14 15  1  0  0  0  0
 14 16  1  0  0  0  0
 14 35  1  0  0  0  0
 15 36  1  0  0  0  0
 15 37  1  0  0  0  0
 15 38  1  0  0  0  0
 16 17  1  0  0  0  0
 17 18  1  0  0  0  0
 17 19  1  0  0  0  0
 17 39  1  0  0  0  0
 18 40  1  0  0  0  0
 18 41  1  0  0  0  0
 18 42  1  0  0  0  0
 19 43  1  0  0  0  0
 19 44  1  0  0  0  0
 20 21  1  0  0  0  0
M  CHG  1   8  -1
M  CHG  1  12   1
M  END
> <s_m_source_file>
AV-unprocessed.smi

> <i_m_source_file_index>
2061

> <i_lp_mmshare_version>
43012

> <i_f3d_flags>
0

> <s_epik_input>
W0NIM11jMVtjSF1jKG5vMSlbTkhdQyg9TylbTkhdW0NIMl1bQ0BIXShbQ0gzXSlOMltDSDJdW0NAQEhdKFtDSDNdKU9bQ0BASF0oW0NIM10pW0NIMl0y

> <s_epik_cmdline>
J2VwaWtfcHl0aG9uJywgJy1waCcsICc3LjAnLCAnLXRuJywgJzgnLCAnLW1hJywgJzIwMCcsICctbWV0YWxfYmluZGluZycsICctaW1hZScsICc8aW5maWxlLm1hZT4nLCAnLW9tYWUnLCAnPG91dGZpbGUubWFlPic=

> <r_epik_Ionization_Penalty>
6.8073

> <r_epik_Ionization_Penalty_Charging>
6.80729

> <r_epik_Ionization_Penalty_Neutral>
5.65391e-06

> <r_epik_State_Penalty>
7.47323

> <r_epik_Charging_Adjusted_Penalty>
14.2805

> <i_epik_Tot_Q>
0

> <i_epik_Tot_abs_Q>
2

> <r_epik_Metal_State_Penalty>
3.40035

> <b_epik_Metal_Only>
1

> <s_lp_Force_Field>
OPLS_2005

> <r_lp_Energy>
16.6672

> <b_lp_Chiralities_Consistent>
1

> <s_lp_Variant>
AV-unprocessed.smi:2061-30

> <Gold.Version>
5.8.1

> <Gold.Id.Protein>
6NUR|6NUR_protein|mol2

> <Gold.PLP.Fitness>
41.4384

> <Gold.PLP.PLP>
-38.8229

> <Gold.PLP.part.hbond>
-2.0000

> <Gold.PLP.part.metal>
0.0000

> <Gold.PLP.part.buried>
-4.9130

> <Gold.PLP.part.nonpolar>
-31.4304

> <Gold.PLP.part.repulsive>
0.3150

> <Gold.PLP.ligand.clash>
0.0000

> <Gold.PLP.ligand.torsion>
1.2755

> <Gold.PLP.Chemscore.Hbond>
1.6100

> <Gold.PLP.Chemscore.CHOScore>
0.0000

> <Gold.PLP.Chemscore.Metal>
0.0000

> <Gold.Chemscore.Hbonds>
donor molecule, donor type, donor heavy atom, donor atom, acceptor molecule, acceptor atom, score
      P1  H  6931  6943       L1    20  1.00
      P1  H  6934  6947       L1    20  0.69

> <Gold.PLP.Chemscore.Internal.Correction>
0.3366

> <Gold.Rescore>
     Score         DG    S(hbond)    S(metal)    S(lipo)     H(rot)  DE(clash)    DE(int)     intcor
     13.58     -16.03       0.90        0.00      98.39       1.56       0.14       2.31       ----

> <Gold.Chemscore.Fitness>
13.5833

> <Gold.Chemscore.DG>
-16.0278

> <Gold.Chemscore.ZeroCoef>
-5.4800

> <Gold.Chemscore.Hbond>
0.9033

> <Gold.Chemscore.Metal>
0.0000

> <Gold.Chemscore.Lipo>
98.3911

> <Gold.Chemscore.Internal_Hbond>
0.0000

> <Gold.Chemscore.DEClash>
0.1355

> <Gold.Chemscore.DEInternal>
2.3090

> <Gold.Chemscore.Rot>
1.5550

> <Gold.Chemscore.Internal.Correction>
   9.000000E+99

> <Gold.Chemscore.Hbonds>
donor molecule, donor type, donor heavy atom, donor atom, acceptor molecule, acceptor atom, score
      P1  H  6931  6943       L1    20  0.34
      P1  H  6934  6947       L1    20  0.30

> <Gold.Chemscore.Hbond.Weighted>
-3.0169

> <Gold.Chemscore.Metal.Weighted>
-0.0000

> <Gold.Chemscore.Lipo.Weighted>
-11.5118

> <Gold.Chemscore.Internal_Hbond.Weighted>
0.0000

> <Gold.Chemscore.DEClash.Weighted>
0.1355

> <Gold.Chemscore.DEInternal.Weighted>
2.3090

> <Gold.Chemscore.Rot.Weighted>
3.9809

> <Gold.Chemscore.Internal.Correction.Weighted>
   9.000000E+99

> <Gold.Protein.RotatedTorsions>
[ 6907 6896 6895 6894 ] final   22.60 input  -60.11 | X-H torsion
[ 7974 7965 7964 7962 ] final -109.67 input  175.53 | X-H torsion
[ 8008 7997 7996 7995 ] final  -39.66 input   59.86 | X-H torsion
[ 10167 10162 10161 10158 ] final  -52.34 input  -65.29 | X-H torsion
[ 10718 10713 10712 10709 ] final -165.84 input   66.30 | X-H torsion
[ 10763 10752 10751 10750 ] final  -69.00 input  -60.55 | X-H torsion
[ 11005 11000 10999 10996 ] final  174.13 input  -57.11 | X-H torsion

> <Gold.Protein.ActiveResidues>
 VAL166  LYS551  ARG553  GLY616  TRP617  ASP618  TYR619  PRO620  LYS621  CYS622 
 ASP623  PHE694  ASN695  SER759  ASP760  ASP761  ALA762  ILE779  LEU786  VAL792 
 PHE793  MET794  SER795  GLU796  ALA797  LYS798  CYS799  TRP800  GLU811  SER814 

> <Gold.Protein.RotatedAtoms>
  151.9296  135.0262  160.0527 H   0  0  0  0  0  0  0  0  0  0  0  0  # atno 6907 bound_to 6896
  152.2130  133.4920  159.5128 H   0  0  0  0  0  0  0  0  0  0  0  0  # atno 6908 bound_to 6896
  150.6980  134.1359  159.4130 H   0  0  0  0  0  0  0  0  0  0  0  0  # atno 6909 bound_to 6896
  145.1777  140.8956  143.3498 H   0  0  0  0  0  0  0  0  0  0  0  0  # atno 7974 bound_to 7965
  154.4020  140.1546  156.2900 H   0  0  0  0  0  0  0  0  0  0  0  0  # atno 8008 bound_to 7997
  155.8794  140.3444  155.5855 H   0  0  0  0  0  0  0  0  0  0  0  0  # atno 8009 bound_to 7997
  155.7684  140.0827  157.2111 H   0  0  0  0  0  0  0  0  0  0  0  0  # atno 8010 bound_to 7997
  140.6542  143.2587  151.4634 H   0  0  0  0  0  0  0  0  0  0  0  0  # atno 10167 bound_to 10162
  156.6592  130.9039  151.3026 H   0  0  0  0  0  0  0  0  0  0  0  0  # atno 10718 bound_to 10713
  154.3972  135.6039  153.5876 H   0  0  0  0  0  0  0  0  0  0  0  0  # atno 10763 bound_to 10752
  152.9788  135.5898  154.4228 H   0  0  0  0  0  0  0  0  0  0  0  0  # atno 10764 bound_to 10752
  154.4021  135.2843  155.2068 H   0  0  0  0  0  0  0  0  0  0  0  0  # atno 10765 bound_to 10752
  140.3479  134.7220  157.4248 H   0  0  0  0  0  0  0  0  0  0  0  0  # atno 11005 bound_to 11000
  145.0168  139.3460  143.6092 LP  0  0  0  0  0  0  0  0  0  0  0  0  # atno 17320 bound_to 7965
  146.3458  139.9452  142.8736 LP  0  0  0  0  0  0  0  0  0  0  0  0  # atno 17321 bound_to 7965
  139.5762  144.1814  152.1906 LP  0  0  0  0  0  0  0  0  0  0  0  0  # atno 17342 bound_to 10162
  140.1125  144.5444  150.6915 LP  0  0  0  0  0  0  0  0  0  0  0  0  # atno 17343 bound_to 10162
  157.7115  130.9446  150.1106 LP  0  0  0  0  0  0  0  0  0  0  0  0  # atno 17370 bound_to 10713
  156.2024  130.3661  149.8772 LP  0  0  0  0  0  0  0  0  0  0  0  0  # atno 17371 bound_to 10713
  140.0727  134.5840  155.8625 LP  0  0  0  0  0  0  0  0  0  0  0  0  # atno 17394 bound_to 11000
  141.2020  133.6622  156.5983 LP  0  0  0  0  0  0  0  0  0  0  0  0  # atno 17395 bound_to 11000

$$$$
