AV-unprocessed.smi:302|AV-procd|sdf|2273|dock8
  -GOLD-   2262022163D 1   1.00000     0.00000
 Structure written by MMmdl.
 44 45  0  0  0  0  0  0  0  0  1 V2000
  144.1626  133.0398  149.5560 C   0  0  0  0  0  0  0  0  0  0  0  0
  145.0855  131.8797  149.9356 C   0  0  0  0  0  0  0  0  0  0  0  0
  146.1871  132.3958  150.6735 O   0  0  0  0  0  0  0  0  0  0  0  0
  145.9479  132.6089  152.0631 C   0  0  1  0  0  0  0  0  0  0  0  0
  147.3229  132.6271  152.7618 C   0  0  0  0  0  0  0  0  0  0  0  0
  147.2591  132.9244  154.2679 C   0  0  0  0  0  0  0  0  0  0  0  0
  145.1721  133.9223  152.2679 C   0  0  0  0  0  0  0  0  0  0  0  0
  145.6330  134.9754  151.8283 O   0  0  0  0  0  0  0  0  0  0  0  0
  144.0120  133.8170  152.9422 N   0  0  0  0  0  0  0  0  0  0  0  0
  143.0969  134.8446  153.2965 C   0  0  0  0  0  0  0  0  0  0  0  0
  143.4183  136.2225  153.3246 C   0  0  0  0  0  0  0  0  0  0  0  0
  142.4184  137.1473  153.6815 C   0  0  0  0  0  0  0  0  0  0  0  0
  141.1280  136.6699  153.9894 C   0  0  0  0  0  0  0  0  0  0  0  0
  140.1326  137.5878  154.3524 N   0  0  0  0  0  0  0  0  0  0  0  0
  138.9129  136.9571  154.8412 C   0  0  0  0  0  0  0  0  0  0  0  0
  137.9288  138.0301  155.3384 C   0  0  0  0  0  0  0  0  0  0  0  0
  137.6754  138.9673  154.2952 O   0  0  0  0  0  0  0  0  0  0  0  0
  138.8631  139.6316  153.8723 C   0  0  0  0  0  0  0  0  0  0  0  0
  139.8683  138.5981  153.3354 C   0  0  0  0  0  0  0  0  0  0  0  0
  140.8087  135.3547  153.9481 N   0  0  0  0  0  0  0  0  0  0  0  0
  141.7718  134.4736  153.6051 C   0  0  0  0  0  0  0  0  0  0  0  0
  143.3094  132.6857  148.9771 H   0  0  0  0  0  0  0  0  0  0  0  0
  144.6906  133.7805  148.9551 H   0  0  0  0  0  0  0  0  0  0  0  0
  143.7787  133.5409  150.4450 H   0  0  0  0  0  0  0  0  0  0  0  0
  144.5271  131.1479  150.5201 H   0  0  0  0  0  0  0  0  0  0  0  0
  145.4407  131.3803  149.0332 H   0  0  0  0  0  0  0  0  0  0  0  0
  145.3727  131.7688  152.4580 H   0  0  0  0  0  0  0  0  0  0  0  0
  147.7975  131.6552  152.6231 H   0  0  0  0  0  0  0  0  0  0  0  0
  147.9807  133.3500  152.2771 H   0  0  0  0  0  0  0  0  0  0  0  0
  148.2522  132.8689  154.7138 H   0  0  0  0  0  0  0  0  0  0  0  0
  146.6233  132.2046  154.7837 H   0  0  0  0  0  0  0  0  0  0  0  0
  146.8672  133.9222  154.4666 H   0  0  0  0  0  0  0  0  0  0  0  0
  143.7976  132.9007  153.3085 H   0  0  0  0  0  0  0  0  0  0  0  0
  144.4005  136.5887  153.0702 H   0  0  0  0  0  0  0  0  0  0  0  0
  142.6403  138.2040  153.7147 H   0  0  0  0  0  0  0  0  0  0  0  0
  138.4516  136.3746  154.0421 H   0  0  0  0  0  0  0  0  0  0  0  0
  139.1524  136.2650  155.6495 H   0  0  0  0  0  0  0  0  0  0  0  0
  136.9881  137.5681  155.6376 H   0  0  0  0  0  0  0  0  0  0  0  0
  138.3248  138.5445  156.2155 H   0  0  0  0  0  0  0  0  0  0  0  0
  138.6106  140.3510  153.0934 H   0  0  0  0  0  0  0  0  0  0  0  0
  139.2916  140.1969  154.7018 H   0  0  0  0  0  0  0  0  0  0  0  0
  140.7992  139.0915  153.0534 H   0  0  0  0  0  0  0  0  0  0  0  0
  139.4672  138.1249  152.4380 H   0  0  0  0  0  0  0  0  0  0  0  0
  141.4738  133.4355  153.5835 H   0  0  0  0  0  0  0  0  0  0  0  0
  1  2  1  0  0  0  0
  1 22  1  0  0  0  0
  1 23  1  0  0  0  0
  1 24  1  0  0  0  0
  2  3  1  0  0  0  0
  2 25  1  0  0  0  0
  2 26  1  0  0  0  0
  3  4  1  0  0  0  0
  4  5  1  0  0  0  0
  4  7  1  0  0  0  0
  4 27  1  0  0  0  0
  5  6  1  0  0  0  0
  5 28  1  0  0  0  0
  5 29  1  0  0  0  0
  6 30  1  0  0  0  0
  6 31  1  0  0  0  0
  6 32  1  0  0  0  0
  7  8  2  0  0  0  0
  7  9  1  0  0  0  0
  9 10  1  0  0  0  0
  9 33  1  0  0  0  0
 10 21  1  0  0  0  0
 10 11  2  0  0  0  0
 11 12  1  0  0  0  0
 11 34  1  0  0  0  0
 12 13  2  0  0  0  0
 12 35  1  0  0  0  0
 13 14  1  0  0  0  0
 13 20  1  0  0  0  0
 14 19  1  0  0  0  0
 14 15  1  0  0  0  0
 15 16  1  0  0  0  0
 15 36  1  0  0  0  0
 15 37  1  0  0  0  0
 16 17  1  0  0  0  0
 16 38  1  0  0  0  0
 16 39  1  0  0  0  0
 17 18  1  0  0  0  0
 18 19  1  0  0  0  0
 18 40  1  0  0  0  0
 18 41  1  0  0  0  0
 19 42  1  0  0  0  0
 19 43  1  0  0  0  0
 20 21  2  0  0  0  0
 21 44  1  0  0  0  0
M  END
> <s_m_source_file>
AV-unprocessed.smi

> <i_m_source_file_index>
302

> <i_lp_mmshare_version>
43012

> <i_f3d_flags>
0

> <s_epik_input>
W0NIM11bQ0gyXU9bQ0BIXShbQ0gyXVtDSDNdKUMoPU8pW05IXWMxW2NIXVtjSF1jKG5bY0hdMSlOMltDSDJdW0NIMl1PW0NIMl1bQ0gyXTI=

> <s_epik_cmdline>
J2VwaWtfcHl0aG9uJywgJy1waCcsICc3LjAnLCAnLXRuJywgJzgnLCAnLW1hJywgJzIwMCcsICctbWV0YWxfYmluZGluZycsICctaW1hZScsICc8aW5maWxlLm1hZT4nLCAnLW9tYWUnLCAnPG91dGZpbGUubWFlPic=

> <r_lp_tautomer_probability>
1

> <r_epik_Ionization_Penalty>
0.000497413

> <r_epik_Ionization_Penalty_Charging>
0

> <r_epik_Ionization_Penalty_Neutral>
0.000497413

> <r_epik_State_Penalty>
0.000308489

> <r_epik_Charging_Adjusted_Penalty>
0.000308489

> <i_epik_Tot_Q>
0

> <i_epik_Tot_abs_Q>
0

> <r_epik_Metal_State_Penalty>
-0

> <b_epik_Metal_Only>
0

> <s_lp_Force_Field>
OPLS_2005

> <r_lp_Energy>
26.1218

> <b_lp_Chiralities_Consistent>
1

> <s_lp_Variant>
AV-unprocessed.smi:302-2

> <Gold.Version>
5.8.1

> <Gold.Id.Protein>
6NUR|6NUR_protein|mol2

> <Gold.PLP.Fitness>
41.2975

> <Gold.PLP.PLP>
-35.6732

> <Gold.PLP.part.hbond>
-2.1027

> <Gold.PLP.part.metal>
0.0000

> <Gold.PLP.part.buried>
-6.5650

> <Gold.PLP.part.nonpolar>
-29.2083

> <Gold.PLP.part.repulsive>
0.5573

> <Gold.PLP.ligand.clash>
0.0000

> <Gold.PLP.ligand.torsion>
0.5000

> <Gold.PLP.Chemscore.Hbond>
1.3105

> <Gold.PLP.Chemscore.CHOScore>
0.8491

> <Gold.PLP.Chemscore.Metal>
0.0000

> <Gold.Chemscore.Hbonds>
donor molecule, donor type, donor heavy atom, donor atom, acceptor molecule, acceptor atom, score
      L1  H     9    33       P1 10957  0.61
      P1  H 11000 11005       L1    20  0.71
      L1  C    21    44       P1 10957  0.86

> <Gold.PLP.Chemscore.Internal.Correction>
0.1453

> <Gold.Rescore>
     Score         DG    S(hbond)    S(metal)    S(lipo)     H(rot)  DE(clash)    DE(int)     intcor
     10.82     -13.16       0.55        0.00      85.40       1.63       0.26       2.08       ----

> <Gold.Chemscore.Fitness>
10.8174

> <Gold.Chemscore.DG>
-13.1595

> <Gold.Chemscore.ZeroCoef>
-5.4800

> <Gold.Chemscore.Hbond>
0.5540

> <Gold.Chemscore.Metal>
0.0000

> <Gold.Chemscore.Lipo>
85.3997

> <Gold.Chemscore.Internal_Hbond>
0.0000

> <Gold.Chemscore.DEClash>
0.2584

> <Gold.Chemscore.DEInternal>
2.0837

> <Gold.Chemscore.Rot>
1.6260

> <Gold.Chemscore.Internal.Correction>
   9.000000E+99

> <Gold.Chemscore.Hbonds>
donor molecule, donor type, donor heavy atom, donor atom, acceptor molecule, acceptor atom, score
      L1  H     9    33       P1 10957  0.38
      P1  H 11000 11005       L1    20  0.18

> <Gold.Chemscore.Hbond.Weighted>
-1.8503

> <Gold.Chemscore.Metal.Weighted>
-0.0000

> <Gold.Chemscore.Lipo.Weighted>
-9.9918

> <Gold.Chemscore.Internal_Hbond.Weighted>
0.0000

> <Gold.Chemscore.DEClash.Weighted>
0.2584

> <Gold.Chemscore.DEInternal.Weighted>
2.0837

> <Gold.Chemscore.Rot.Weighted>
4.1626

> <Gold.Chemscore.Internal.Correction.Weighted>
   9.000000E+99

> <Gold.Protein.RotatedTorsions>
[ 6907 6896 6895 6894 ] final  -88.83 input  -60.11 | X-H torsion
[ 7974 7965 7964 7962 ] final -175.81 input  175.53 | X-H torsion
[ 8008 7997 7996 7995 ] final  130.80 input   59.86 | X-H torsion
[ 10167 10162 10161 10158 ] final  -57.59 input  -65.29 | X-H torsion
[ 10718 10713 10712 10709 ] final  -97.08 input   66.30 | X-H torsion
[ 10763 10752 10751 10750 ] final  176.35 input  -60.55 | X-H torsion
[ 11005 11000 10999 10996 ] final   48.58 input  -57.11 | X-H torsion

> <Gold.Protein.ActiveResidues>
 VAL166  LYS551  ARG553  GLY616  TRP617  ASP618  TYR619  PRO620  LYS621  CYS622 
 ASP623  PHE694  ASN695  SER759  ASP760  ASP761  ALA762  ILE779  LEU786  VAL792 
 PHE793  MET794  SER795  GLU796  ALA797  LYS798  CYS799  TRP800  GLU811  SER814 

> <Gold.Protein.RotatedAtoms>
  150.6870  134.2680  159.4576 H   0  0  0  0  0  0  0  0  0  0  0  0  # atno 6907 bound_to 6896
  152.0605  134.9595  160.0584 H   0  0  0  0  0  0  0  0  0  0  0  0  # atno 6908 bound_to 6896
  152.1024  133.4222  159.4630 H   0  0  0  0  0  0  0  0  0  0  0  0  # atno 6909 bound_to 6896
  144.7127  140.1265  143.6401 H   0  0  0  0  0  0  0  0  0  0  0  0  # atno 7974 bound_to 7965
  156.2960  140.2587  156.2821 H   0  0  0  0  0  0  0  0  0  0  0  0  # atno 8008 bound_to 7997
  154.9592  140.0393  157.2200 H   0  0  0  0  0  0  0  0  0  0  0  0  # atno 8009 bound_to 7997
  154.7963  140.2820  155.5959 H   0  0  0  0  0  0  0  0  0  0  0  0  # atno 8010 bound_to 7997
  140.6248  143.2434  151.5390 H   0  0  0  0  0  0  0  0  0  0  0  0  # atno 10167 bound_to 10162
  156.0076  130.5179  150.6322 H   0  0  0  0  0  0  0  0  0  0  0  0  # atno 10718 bound_to 10713
  154.4799  135.2774  155.1578 H   0  0  0  0  0  0  0  0  0  0  0  0  # atno 10763 bound_to 10752
  154.3293  135.6193  153.5547 H   0  0  0  0  0  0  0  0  0  0  0  0  # atno 10764 bound_to 10752
  152.9874  135.5761  154.5198 H   0  0  0  0  0  0  0  0  0  0  0  0  # atno 10765 bound_to 10752
  140.1178  134.4869  155.8623 H   0  0  0  0  0  0  0  0  0  0  0  0  # atno 11005 bound_to 11000
  145.9325  139.2615  143.1317 LP  0  0  0  0  0  0  0  0  0  0  0  0  # atno 17320 bound_to 7965
  145.9508  140.8910  143.0260 LP  0  0  0  0  0  0  0  0  0  0  0  0  # atno 17321 bound_to 7965
  139.5471  144.2493  152.1461 LP  0  0  0  0  0  0  0  0  0  0  0  0  # atno 17342 bound_to 10162
  140.1722  144.4924  150.6573 LP  0  0  0  0  0  0  0  0  0  0  0  0  # atno 17343 bound_to 10162
  157.4118  131.0824  151.1214 LP  0  0  0  0  0  0  0  0  0  0  0  0  # atno 17370 bound_to 10713
  157.1843  130.6323  149.5682 LP  0  0  0  0  0  0  0  0  0  0  0  0  # atno 17371 bound_to 10713
  141.2145  133.6750  156.6830 LP  0  0  0  0  0  0  0  0  0  0  0  0  # atno 17394 bound_to 11000
  140.3005  134.8167  157.4094 LP  0  0  0  0  0  0  0  0  0  0  0  0  # atno 17395 bound_to 11000

$$$$
