AV-unprocessed.smi:1642|AV-procd|sdf|6570|dock1
  -GOLD-   22720 7253D 1   1.00000     0.00000
 Structure written by MMmdl.
 35 36  0  0  0  0  0  0  0  0  2 V2000
  152.0596  140.0211  158.3912 C   0  0  0  0  0  0  0  0  0  0  0  0
  151.5904  139.8842  156.9830 C   0  0  0  0  0  0  0  0  0  0  0  0
  152.4295  139.8312  155.9414 N   0  0  0  0  0  0  0  0  0  0  0  0
  151.7601  139.7011  154.7328 N   0  0  0  0  0  0  0  0  0  0  0  0
  150.4311  139.6585  154.8993 C   0  0  0  0  0  0  0  0  0  0  0  0
  149.5057  139.5289  153.8295 N   0  0  0  0  0  0  0  0  0  0  0  0
  148.2415  139.0722  153.8738 C   0  0  0  0  0  0  0  0  0  0  0  0
  147.6599  138.6775  154.8847 O   0  0  0  0  0  0  0  0  0  0  0  0
  147.6704  139.0947  152.6618 N   0  0  0  0  0  0  0  0  0  0  0  0
  146.3063  138.6576  152.3977 C   0  0  0  0  0  0  0  0  0  0  0  0
  146.2577  137.7207  151.1813 C   0  0  0  0  0  0  0  0  0  0  0  0
  146.0672  136.3073  151.5823 N   0  3  0  0  0  0  0  0  0  0  0  0
  145.3481  136.1030  152.8636 C   0  0  0  0  0  0  0  0  0  0  0  0
  144.3769  134.9336  152.6493 C   0  0  0  0  0  0  0  0  0  0  0  0
  144.8271  134.2919  151.3407 C   0  0  0  0  0  0  0  0  0  0  0  0
  145.3998  135.4722  150.5638 C   0  0  0  0  0  0  0  0  0  0  0  0
  149.8851  139.7738  156.5637 S   0  0  0  0  0  0  0  0  0  0  0  0
  153.0889  140.3806  158.4196 H   0  0  0  0  0  0  0  0  0  0  0  0
  152.0114  139.0555  158.8944 H   0  0  0  0  0  0  0  0  0  0  0  0
  151.4290  140.7291  158.9290 H   0  0  0  0  0  0  0  0  0  0  0  0
  149.8488  139.8173  152.9253 H   0  0  0  0  0  0  0  0  0  0  0  0
  148.2109  139.4333  151.8790 H   0  0  0  0  0  0  0  0  0  0  0  0
  145.9148  138.1459  153.2787 H   0  0  0  0  0  0  0  0  0  0  0  0
  145.6808  139.5359  152.2309 H   0  0  0  0  0  0  0  0  0  0  0  0
  145.4651  138.0197  150.4934 H   0  0  0  0  0  0  0  0  0  0  0  0
  147.1975  137.8025  150.6328 H   0  0  0  0  0  0  0  0  0  0  0  0
  146.0759  135.8739  153.6428 H   0  0  0  0  0  0  0  0  0  0  0  0
  144.8019  136.9953  153.1740 H   0  0  0  0  0  0  0  0  0  0  0  0
  144.3749  134.2296  153.4820 H   0  0  0  0  0  0  0  0  0  0  0  0
  143.3617  135.3167  152.5374 H   0  0  0  0  0  0  0  0  0  0  0  0
  145.6116  133.5593  151.5360 H   0  0  0  0  0  0  0  0  0  0  0  0
  144.0170  133.7877  150.8129 H   0  0  0  0  0  0  0  0  0  0  0  0
  144.5873  136.0341  150.0992 H   0  0  0  0  0  0  0  0  0  0  0  0
  146.0910  135.1632  149.7791 H   0  0  0  0  0  0  0  0  0  0  0  0
  146.9855  135.9052  151.7071 H   0  0  0  0  0  0  0  0  0  0  0  0
  1  2  1  0  0  0  0
  1 18  1  0  0  0  0
  1 19  1  0  0  0  0
  1 20  1  0  0  0  0
  2 17  1  0  0  0  0
  2  3  2  0  0  0  0
  3  4  1  0  0  0  0
  4  5  2  0  0  0  0
  5  6  1  0  0  0  0
  5 17  1  0  0  0  0
  6  7  1  0  0  0  0
  6 21  1  0  0  0  0
  7  8  2  0  0  0  0
  7  9  1  0  0  0  0
  9 10  1  0  0  0  0
  9 22  1  0  0  0  0
 10 11  1  0  0  0  0
 10 23  1  0  0  0  0
 10 24  1  0  0  0  0
 11 12  1  0  0  0  0
 11 25  1  0  0  0  0
 11 26  1  0  0  0  0
 12 16  1  0  0  0  0
 12 13  1  0  0  0  0
 12 35  1  0  0  0  0
 13 14  1  0  0  0  0
 13 27  1  0  0  0  0
 13 28  1  0  0  0  0
 14 15  1  0  0  0  0
 14 29  1  0  0  0  0
 14 30  1  0  0  0  0
 15 16  1  0  0  0  0
 15 31  1  0  0  0  0
 15 32  1  0  0  0  0
 16 33  1  0  0  0  0
 16 34  1  0  0  0  0
M  CHG  1  12   1
M  END
> <s_m_source_file>
AV-unprocessed.smi

> <i_m_source_file_index>
1642

> <i_lp_mmshare_version>
43012

> <i_f3d_flags>
0

> <s_epik_input>
W0NIM11jMW5uYyhzMSlbTkhdQyg9TylbTkhdW0NIMl1bQ0gyXU4yW0NIMl1bQ0gyXVtDSDJdW0NIMl0y

> <s_epik_cmdline>
J2VwaWtfcHl0aG9uJywgJy1waCcsICc3LjAnLCAnLXRuJywgJzgnLCAnLW1hJywgJzIwMCcsICctbWV0YWxfYmluZGluZycsICctaW1hZScsICc8aW5maWxlLm1hZT4nLCAnLW9tYWUnLCAnPG91dGZpbGUubWFlPic=

> <r_lp_tautomer_probability>
1

> <r_epik_Ionization_Penalty>
0.00661496

> <r_epik_Ionization_Penalty_Charging>
0.0023443

> <r_epik_Ionization_Penalty_Neutral>
0.00427066

> <r_epik_State_Penalty>
0.00184107

> <r_epik_Charging_Adjusted_Penalty>
0.00418537

> <i_epik_Tot_Q>
1

> <i_epik_Tot_abs_Q>
1

> <r_epik_Metal_State_Penalty>
0.375387

> <b_epik_Metal_Only>
0

> <s_lp_Force_Field>
OPLS_2005

> <r_lp_Energy>
26.1101

> <b_lp_Chiralities_Consistent>
1

> <s_lp_Variant>
AV-unprocessed.smi:1642-1

> <Gold.Version>
5.8.1

> <Gold.Id.Protein>
6NUR|6NUR_protein|mol2

> <Gold.PLP.Fitness>
40.9361

> <Gold.PLP.PLP>
-25.4356

> <Gold.PLP.part.hbond>
-5.2661

> <Gold.PLP.part.metal>
0.0000

> <Gold.PLP.part.buried>
1.4594

> <Gold.PLP.part.nonpolar>
-21.7675

> <Gold.PLP.part.repulsive>
0.3914

> <Gold.PLP.ligand.clash>
0.0000

> <Gold.PLP.ligand.torsion>
0.8667

> <Gold.PLP.Chemscore.Hbond>
5.7340

> <Gold.PLP.Chemscore.CHOScore>
0.0000

> <Gold.PLP.Chemscore.Metal>
0.0000

> <Gold.Chemscore.Hbonds>
donor molecule, donor type, donor heavy atom, donor atom, acceptor molecule, acceptor atom, score
      L1  H     6    21       P1  7957  1.00
      L1  H     9    22       P1  7957  1.00
      L1  H    12    35       P1  7948  1.89
      P1  H  7989  7998       L1     4  0.65
      P1  H  7997  8010       L1     3  1.00

> <Gold.PLP.Chemscore.Internal.Correction>
0.0320

> <Gold.Rescore>
     Score         DG    S(hbond)    S(metal)    S(lipo)     H(rot)  DE(clash)    DE(int)     intcor
     18.67     -20.15       3.86        0.00      50.94       1.63       0.61       0.87       ----

> <Gold.Chemscore.Fitness>
18.6656

> <Gold.Chemscore.DG>
-20.1451

> <Gold.Chemscore.ZeroCoef>
-5.4800

> <Gold.Chemscore.Hbond>
3.8555

> <Gold.Chemscore.Metal>
0.0000

> <Gold.Chemscore.Lipo>
50.9383

> <Gold.Chemscore.Internal_Hbond>
0.0000

> <Gold.Chemscore.DEClash>
0.6143

> <Gold.Chemscore.DEInternal>
0.8652

> <Gold.Chemscore.Rot>
1.6297

> <Gold.Chemscore.Internal.Correction>
   9.000000E+99

> <Gold.Chemscore.Hbonds>
donor molecule, donor type, donor heavy atom, donor atom, acceptor molecule, acceptor atom, score
      L1  H     6    21       P1  7957  0.95
      L1  H     9    22       P1  7957  0.98
      L1  H    12    35       P1  7948  0.89
      P1  H  7989  7998       L1     4  0.05
      P1  H  7997  8010       L1     3  0.91

> <Gold.Chemscore.Hbond.Weighted>
-12.8773

> <Gold.Chemscore.Metal.Weighted>
-0.0000

> <Gold.Chemscore.Lipo.Weighted>
-5.9598

> <Gold.Chemscore.Internal_Hbond.Weighted>
0.0000

> <Gold.Chemscore.DEClash.Weighted>
0.6143

> <Gold.Chemscore.DEInternal.Weighted>
0.8652

> <Gold.Chemscore.Rot.Weighted>
4.1720

> <Gold.Chemscore.Internal.Correction.Weighted>
   9.000000E+99

> <Gold.Protein.RotatedTorsions>
[ 6907 6896 6895 6894 ] final -118.68 input  -60.11 | X-H torsion
[ 7974 7965 7964 7962 ] final  -69.93 input  175.53 | X-H torsion
[ 8008 7997 7996 7995 ] final   75.01 input   59.86 | X-H torsion
[ 10167 10162 10161 10158 ] final   93.26 input  -65.29 | X-H torsion
[ 10718 10713 10712 10709 ] final   91.25 input   66.30 | X-H torsion
[ 10763 10752 10751 10750 ] final   75.94 input  -60.55 | X-H torsion
[ 11005 11000 10999 10996 ] final  -31.85 input  -57.11 | X-H torsion

> <Gold.Protein.ActiveResidues>
 VAL166  LYS551  ARG553  GLY616  TRP617  ASP618  TYR619  PRO620  LYS621  CYS622 
 ASP623  PHE694  ASN695  SER759  ASP760  ASP761  ALA762  ILE779  LEU786  VAL792 
 PHE793  MET794  SER795  GLU796  ALA797  LYS798  CYS799  TRP800  GLU811  SER814 

> <Gold.Protein.RotatedAtoms>
  150.8240  133.8204  159.3126 H   0  0  0  0  0  0  0  0  0  0  0  0  # atno 6907 bound_to 6896
  151.5953  135.1049  160.0058 H   0  0  0  0  0  0  0  0  0  0  0  0  # atno 6908 bound_to 6896
  152.4327  133.7264  159.6619 H   0  0  0  0  0  0  0  0  0  0  0  0  # atno 6909 bound_to 6896
  145.6975  140.9129  143.0749 H   0  0  0  0  0  0  0  0  0  0  0  0  # atno 7974 bound_to 7965
  155.8067  140.3474  155.5433 H   0  0  0  0  0  0  0  0  0  0  0  0  # atno 8008 bound_to 7997
  155.8483  140.0952  157.1711 H   0  0  0  0  0  0  0  0  0  0  0  0  # atno 8009 bound_to 7997
  154.4007  140.1381  156.3800 H   0  0  0  0  0  0  0  0  0  0  0  0  # atno 8010 bound_to 7997
  139.8197  144.6737  150.9534 H   0  0  0  0  0  0  0  0  0  0  0  0  # atno 10167 bound_to 10162
  157.6960  131.0400  150.3701 H   0  0  0  0  0  0  0  0  0  0  0  0  # atno 10718 bound_to 10713
  153.0690  135.4970  154.8264 H   0  0  0  0  0  0  0  0  0  0  0  0  # atno 10763 bound_to 10752
  154.6995  135.2999  154.9364 H   0  0  0  0  0  0  0  0  0  0  0  0  # atno 10764 bound_to 10752
  154.0092  135.6756  153.4817 H   0  0  0  0  0  0  0  0  0  0  0  0  # atno 10765 bound_to 10752
  140.9503  133.7225  156.1209 H   0  0  0  0  0  0  0  0  0  0  0  0  # atno 11005 bound_to 11000
  144.6978  139.8903  143.7452 LP  0  0  0  0  0  0  0  0  0  0  0  0  # atno 17320 bound_to 7965
  146.0827  139.3815  143.0454 LP  0  0  0  0  0  0  0  0  0  0  0  0  # atno 17321 bound_to 7965
  140.7814  143.4104  151.1003 LP  0  0  0  0  0  0  0  0  0  0  0  0  # atno 17342 bound_to 10162
  139.7765  143.8418  152.3130 LP  0  0  0  0  0  0  0  0  0  0  0  0  # atno 17343 bound_to 10162
  156.4127  130.3937  149.6880 LP  0  0  0  0  0  0  0  0  0  0  0  0  # atno 17370 bound_to 10713
  156.4158  130.7744  151.2760 LP  0  0  0  0  0  0  0  0  0  0  0  0  # atno 17371 bound_to 10713
  140.7612  134.3937  157.5525 LP  0  0  0  0  0  0  0  0  0  0  0  0  # atno 17394 bound_to 11000
  139.8845  134.8962  156.2697 LP  0  0  0  0  0  0  0  0  0  0  0  0  # atno 17395 bound_to 11000

$$$$
