AV-unprocessed.smi:1225|AV-procd|sdf|5143|dock7
  -GOLD-   22720 4213D 1   1.00000     0.00000
 Structure written by MMmdl.
 49 51  0  0  0  0  0  0  0  0  2 V2000
  145.8890  132.2536  150.4110 C   0  0  0  0  0  0  0  0  0  0  0  0
  146.4719  132.9523  151.5916 C   0  0  0  0  0  0  0  0  0  0  0  0
  147.3706  132.3995  152.4093 N   0  0  0  0  0  0  0  0  0  0  0  0
  147.7540  133.2589  153.4408 C   0  0  0  0  0  0  0  0  0  0  0  0
  147.1362  134.4849  153.3999 C   0  0  0  0  0  0  0  0  0  0  0  0
  147.3169  135.6326  154.3404 C   0  0  0  0  0  0  0  0  0  0  0  0
  148.7087  136.1507  154.3561 N   0  3  2  0  0  0  0  0  0  0  0  0
  149.6942  135.1270  154.7859 C   0  0  0  0  0  0  0  0  0  0  0  0
  148.8285  137.4189  155.1216 C   0  0  0  0  0  0  0  0  0  0  0  0
  150.1419  138.1730  154.8158 C   0  0  1  0  0  0  0  0  0  0  0  0
  150.3078  138.2456  153.4144 O   0  0  0  0  0  0  0  0  0  0  0  0
  150.1672  139.6124  155.3682 C   0  0  0  0  0  0  0  0  0  0  0  0
  151.2059  139.8109  156.3627 N   0  0  0  0  0  0  0  0  0  0  0  0
  152.2750  139.0232  156.5902 C   0  0  0  0  0  0  0  0  0  0  0  0
  153.1146  139.3995  157.5498 N   0  0  0  0  0  0  0  0  0  0  0  0
  152.5136  140.5590  158.0087 C   0  0  0  0  0  0  0  0  0  0  0  0
  152.9035  141.4513  159.0311 C   0  0  0  0  0  0  0  0  0  0  0  0
  152.1243  142.5903  159.3350 C   0  0  0  0  0  0  0  0  0  0  0  0
  152.5805  143.5229  160.4433 C   0  0  0  0  0  0  0  0  0  0  0  0
  150.9331  142.8503  158.6106 C   0  0  0  0  0  0  0  0  0  0  0  0
  150.0772  144.0649  158.9234 C   0  0  0  0  0  0  0  0  0  0  0  0
  150.5299  141.9699  157.5849 C   0  0  0  0  0  0  0  0  0  0  0  0
  151.3148  140.8411  157.2905 C   0  0  0  0  0  0  0  0  0  0  0  0
  146.0395  134.5957  152.0468 S   0  0  0  0  0  0  0  0  0  0  0  0
  146.3368  131.2669  150.2881 H   0  0  0  0  0  0  0  0  0  0  0  0
  146.0705  132.8346  149.5068 H   0  0  0  0  0  0  0  0  0  0  0  0
  144.8133  132.1351  150.5421 H   0  0  0  0  0  0  0  0  0  0  0  0
  148.4793  132.9157  154.1637 H   0  0  0  0  0  0  0  0  0  0  0  0
  146.6333  136.4265  154.0372 H   0  0  0  0  0  0  0  0  0  0  0  0
  147.0229  135.3451  155.3510 H   0  0  0  0  0  0  0  0  0  0  0  0
  149.4944  134.7988  155.8066 H   0  0  0  0  0  0  0  0  0  0  0  0
  150.7134  135.5087  154.7488 H   0  0  0  0  0  0  0  0  0  0  0  0
  149.6627  134.2520  154.1369 H   0  0  0  0  0  0  0  0  0  0  0  0
  147.9963  138.0838  154.8859 H   0  0  0  0  0  0  0  0  0  0  0  0
  148.7399  137.1920  156.1849 H   0  0  0  0  0  0  0  0  0  0  0  0
  150.9946  137.6323  155.2247 H   0  0  0  0  0  0  0  0  0  0  0  0
  149.7341  137.6122  153.0092 H   0  0  0  0  0  0  0  0  0  0  0  0
  150.3294  140.3273  154.5603 H   0  0  0  0  0  0  0  0  0  0  0  0
  149.2053  139.8626  155.8189 H   0  0  0  0  0  0  0  0  0  0  0  0
  152.4524  138.1277  156.0123 H   0  0  0  0  0  0  0  0  0  0  0  0
  153.8100  141.2524  159.5838 H   0  0  0  0  0  0  0  0  0  0  0  0
  151.8172  143.6004  161.2174 H   0  0  0  0  0  0  0  0  0  0  0  0
  152.7750  144.5196  160.0472 H   0  0  0  0  0  0  0  0  0  0  0  0
  153.4969  143.1651  160.9132 H   0  0  0  0  0  0  0  0  0  0  0  0
  149.2157  144.1269  158.2581 H   0  0  0  0  0  0  0  0  0  0  0  0
  150.6555  144.9818  158.8074 H   0  0  0  0  0  0  0  0  0  0  0  0
  149.7064  144.0160  159.9474 H   0  0  0  0  0  0  0  0  0  0  0  0
  149.6234  142.1559  157.0285 H   0  0  0  0  0  0  0  0  0  0  0  0
  148.9247  136.3884  153.3981 H   0  0  0  0  0  0  0  0  0  0  0  0
  1  2  1  0  0  0  0
  1 25  1  0  0  0  0
  1 26  1  0  0  0  0
  1 27  1  0  0  0  0
  2 24  1  0  0  0  0
  2  3  2  0  0  0  0
  3  4  1  0  0  0  0
  4  5  2  0  0  0  0
  4 28  1  0  0  0  0
  5  6  1  0  0  0  0
  5 24  1  0  0  0  0
  6  7  1  0  0  0  0
  6 29  1  0  0  0  0
  6 30  1  0  0  0  0
  7  8  1  0  0  0  0
  7  9  1  0  0  0  0
  7 49  1  0  0  0  0
  8 31  1  0  0  0  0
  8 32  1  0  0  0  0
  8 33  1  0  0  0  0
  9 10  1  0  0  0  0
  9 34  1  0  0  0  0
  9 35  1  0  0  0  0
 10 11  1  0  0  0  0
 10 12  1  0  0  0  0
 10 36  1  0  0  0  0
 11 37  1  0  0  0  0
 12 13  1  0  0  0  0
 12 38  1  0  0  0  0
 12 39  1  0  0  0  0
 13 23  1  0  0  0  0
 13 14  1  0  0  0  0
 14 15  2  0  0  0  0
 14 40  1  0  0  0  0
 15 16  1  0  0  0  0
 16 23  2  0  0  0  0
 16 17  1  0  0  0  0
 17 18  2  0  0  0  0
 17 41  1  0  0  0  0
 18 19  1  0  0  0  0
 18 20  1  0  0  0  0
 19 42  1  0  0  0  0
 19 43  1  0  0  0  0
 19 44  1  0  0  0  0
 20 21  1  0  0  0  0
 20 22  2  0  0  0  0
 21 45  1  0  0  0  0
 21 46  1  0  0  0  0
 21 47  1  0  0  0  0
 22 23  1  0  0  0  0
 22 48  1  0  0  0  0
M  CHG  1   7   1
M  END
> <s_m_source_file>
AV-unprocessed.smi

> <i_m_source_file_index>
1225

> <i_lp_mmshare_version>
43012

> <i_f3d_flags>
0

> <s_epik_input>
W0NIM11jMW5bY0hdYyhzMSlbQ0gyXU4oW0NIM10pW0NIMl1bQ0BIXShbT0hdKVtDSDJdbihbY0hdbjIpYyhjMjMpW2NIXWMoW0NIM10pYyhbY0hdMylbQ0gzXQ==

> <s_epik_cmdline>
J2VwaWtfcHl0aG9uJywgJy1waCcsICc3LjAnLCAnLXRuJywgJzgnLCAnLW1hJywgJzIwMCcsICctbWV0YWxfYmluZGluZycsICctaW1hZScsICc8aW5maWxlLm1hZT4nLCAnLW9tYWUnLCAnPG91dGZpbGUubWFlPic=

> <r_epik_Ionization_Penalty>
1.62543

> <r_epik_Ionization_Penalty_Charging>
1.53932

> <r_epik_Ionization_Penalty_Neutral>
0.0861152

> <r_epik_State_Penalty>
1.73127

> <r_epik_Charging_Adjusted_Penalty>
3.27059

> <i_epik_Tot_Q>
1

> <i_epik_Tot_abs_Q>
1

> <r_epik_Metal_State_Penalty>
1.71387

> <b_epik_Metal_Only>
0

> <s_lp_Force_Field>
OPLS_2005

> <r_lp_Energy>
12.5396

> <b_lp_Chiralities_Consistent>
1

> <s_lp_Variant>
AV-unprocessed.smi:1225-8

> <Gold.Version>
5.8.1

> <Gold.Id.Protein>
6NUR|6NUR_protein|mol2

> <Gold.PLP.Fitness>
49.9648

> <Gold.PLP.PLP>
-40.1584

> <Gold.PLP.part.hbond>
-4.7569

> <Gold.PLP.part.metal>
0.0000

> <Gold.PLP.part.buried>
-2.8434

> <Gold.PLP.part.nonpolar>
-32.6253

> <Gold.PLP.part.repulsive>
0.1348

> <Gold.PLP.ligand.clash>
0.0000

> <Gold.PLP.ligand.torsion>
1.1459

> <Gold.PLP.Chemscore.Hbond>
4.0000

> <Gold.PLP.Chemscore.CHOScore>
0.0000

> <Gold.PLP.Chemscore.Metal>
0.0000

> <Gold.Chemscore.Hbonds>
donor molecule, donor type, donor heavy atom, donor atom, acceptor molecule, acceptor atom, score
      L1  H     7    49       P1  7948  2.00
      L1  H    11    37       P1  7948  1.00
      P1  H  7997  8009       L1    15  0.99

> <Gold.PLP.Chemscore.Internal.Correction>
0.0982

> <Gold.Rescore>
     Score         DG    S(hbond)    S(metal)    S(lipo)     H(rot)  DE(clash)    DE(int)     intcor
     19.32     -20.76       2.61        0.00     108.01       2.37       0.17       1.27       ----

> <Gold.Chemscore.Fitness>
19.3202

> <Gold.Chemscore.DG>
-20.7629

> <Gold.Chemscore.ZeroCoef>
-5.4800

> <Gold.Chemscore.Hbond>
2.6124

> <Gold.Chemscore.Metal>
0.0000

> <Gold.Chemscore.Lipo>
108.0118

> <Gold.Chemscore.Internal_Hbond>
0.0000

> <Gold.Chemscore.DEClash>
0.1748

> <Gold.Chemscore.DEInternal>
1.2679

> <Gold.Chemscore.Rot>
2.3750

> <Gold.Chemscore.Internal.Correction>
   9.000000E+99

> <Gold.Chemscore.Hbonds>
donor molecule, donor type, donor heavy atom, donor atom, acceptor molecule, acceptor atom, score
      L1  H     7    49       P1  7948  0.93
      L1  H    11    37       P1  7948  0.55
      P1  H  7997  8009       L1    15  0.23

> <Gold.Chemscore.Hbond.Weighted>
-8.7255

> <Gold.Chemscore.Metal.Weighted>
-0.0000

> <Gold.Chemscore.Lipo.Weighted>
-12.6374

> <Gold.Chemscore.Internal_Hbond.Weighted>
0.0000

> <Gold.Chemscore.DEClash.Weighted>
0.1748

> <Gold.Chemscore.DEInternal.Weighted>
1.2679

> <Gold.Chemscore.Rot.Weighted>
6.0800

> <Gold.Chemscore.Internal.Correction.Weighted>
   9.000000E+99

> <Gold.Protein.RotatedTorsions>
[ 6907 6896 6895 6894 ] final  138.90 input  -60.11 | X-H torsion
[ 7974 7965 7964 7962 ] final -119.37 input  175.53 | X-H torsion
[ 8008 7997 7996 7995 ] final  145.99 input   59.86 | X-H torsion
[ 10167 10162 10161 10158 ] final   48.74 input  -65.29 | X-H torsion
[ 10718 10713 10712 10709 ] final  134.76 input   66.30 | X-H torsion
[ 10763 10752 10751 10750 ] final -116.23 input  -60.55 | X-H torsion
[ 11005 11000 10999 10996 ] final   80.08 input  -57.11 | X-H torsion

> <Gold.Protein.ActiveResidues>
 VAL166  LYS551  ARG553  GLY616  TRP617  ASP618  TYR619  PRO620  LYS621  CYS622 
 ASP623  PHE694  ASN695  SER759  ASP760  ASP761  ALA762  ILE779  LEU786  VAL792 
 PHE793  MET794  SER795  GLU796  ALA797  LYS798  CYS799  TRP800  GLU811  SER814 

> <Gold.Protein.RotatedAtoms>
  152.2612  133.5299  159.5382 H   0  0  0  0  0  0  0  0  0  0  0  0  # atno 6907 bound_to 6896
  150.7126  134.0827  159.3912 H   0  0  0  0  0  0  0  0  0  0  0  0  # atno 6908 bound_to 6896
  151.8744  135.0477  160.0533 H   0  0  0  0  0  0  0  0  0  0  0  0  # atno 6909 bound_to 6896
  145.0633  140.8306  143.4139 H   0  0  0  0  0  0  0  0  0  0  0  0  # atno 7974 bound_to 7965
  156.2868  140.2194  156.5305 H   0  0  0  0  0  0  0  0  0  0  0  0  # atno 8008 bound_to 7997
  154.7453  140.0484  157.0868 H   0  0  0  0  0  0  0  0  0  0  0  0  # atno 8009 bound_to 7997
  155.0179  140.3120  155.4808 H   0  0  0  0  0  0  0  0  0  0  0  0  # atno 8010 bound_to 7997
  140.2901  144.3056  150.6242 H   0  0  0  0  0  0  0  0  0  0  0  0  # atno 10167 bound_to 10162
  157.4640  131.1075  150.9885 H   0  0  0  0  0  0  0  0  0  0  0  0  # atno 10718 bound_to 10713
  154.8511  135.4353  154.1788 H   0  0  0  0  0  0  0  0  0  0  0  0  # atno 10763 bound_to 10752
  153.2883  135.6959  153.7323 H   0  0  0  0  0  0  0  0  0  0  0  0  # atno 10764 bound_to 10752
  153.6500  135.3453  155.3072 H   0  0  0  0  0  0  0  0  0  0  0  0  # atno 10765 bound_to 10752
  139.9148  134.7892  156.1862 H   0  0  0  0  0  0  0  0  0  0  0  0  # atno 11005 bound_to 11000
  145.1382  139.2589  143.5504 LP  0  0  0  0  0  0  0  0  0  0  0  0  # atno 17320 bound_to 7965
  146.3525  140.1052  142.8606 LP  0  0  0  0  0  0  0  0  0  0  0  0  # atno 17321 bound_to 7965
  140.5739  143.2178  151.7550 LP  0  0  0  0  0  0  0  0  0  0  0  0  # atno 17342 bound_to 10162
  139.4940  144.4177  152.0012 LP  0  0  0  0  0  0  0  0  0  0  0  0  # atno 17343 bound_to 10162
  157.0672  130.5849  149.5396 LP  0  0  0  0  0  0  0  0  0  0  0  0  # atno 17370 bound_to 10713
  156.0042  130.5126  150.7770 LP  0  0  0  0  0  0  0  0  0  0  0  0  # atno 17371 bound_to 10713
  141.0612  133.6841  156.1956 LP  0  0  0  0  0  0  0  0  0  0  0  0  # atno 17394 bound_to 11000
  140.6658  134.4920  157.5585 LP  0  0  0  0  0  0  0  0  0  0  0  0  # atno 17395 bound_to 11000

$$$$
