#       Name:                AV-unprocessed.smi:212
#       Creating user name   scv26
#       Creation time:       Thu Mar 26 19:55:06 2020


#       File generated by GOLD software.
#

@<TRIPOS>MOLECULE
AV-unprocessed.smi:212
    74    77     1
SMALL
NO_CHARGES


@<TRIPOS>ATOM
      1 ****        -3.6087  -0.5216  -0.4578 C.3            1 S1                 0.0000
      2 ****        -2.2101   0.0293  -0.1324 C.3            1 S1                 0.0000
      3 ****        -2.1533   0.6869   1.2631 C.3            1 S1                 0.0000
      4 ****        -2.8742   1.9891   1.2885 N.4            1 S1                 1.0000
      5 ****        -2.9355   2.6212   2.6351 C.3            1 S1                 0.0000
      6 ****        -4.0628   2.0753   3.5506 C.3            1 S1                 0.0000
      7 ****        -4.2355   2.9968   4.7706 C.3            1 S1                 0.0000
      8 ****        -5.4067   1.9129   2.8153 C.3            1 S1                 0.0000
      9 ****        -3.6850   0.8184   4.0741 O.3            1 S1                 0.0000
     10 ****        -2.3585   2.9220   0.2528 C.3            1 S1                 0.0000
     11 ****        -2.3935   2.2834  -1.1478 C.3            1 S1                 0.0000
     12 ****        -1.7486   0.9707  -1.1543 N.pl3          1 S1                 0.0000
     13 ****        -0.4307   0.8911  -1.4710 C.ar           1 S1                 0.0000
     14 ****         0.3916   1.9481  -1.2383 N.ar           1 S1                 0.0000
     15 ****         1.6924   1.8664  -1.5323 C.ar           1 S1                 0.0000
     16 ****         2.3658   0.8407  -2.0560 N.ar           1 S1                 0.0000
     17 ****         1.5469  -0.2222  -2.2970 C.ar           1 S1                 0.0000
     18 ****         0.1480  -0.2773  -2.0405 C.ar           1 S1                 0.0000
     19 ****        -0.3580  -1.5098  -2.4328 N.2            1 S1                 0.0000
     20 ****         0.6828  -2.1475  -2.8935 C.2            1 S1                 0.0000
     21 ****         1.8741  -1.4581  -2.8309 N.pl3          1 S1                 0.0000
     22 ****         3.1806  -1.9343  -3.2678 C.3            1 S1                 0.0000
     23 ****         3.9255  -2.8056  -2.2214 C.3            1 S1                 0.0000
     24 ****         3.1084  -4.0778  -1.8903 C.3            1 S1                 0.0000
     25 ****         3.9249  -5.1171  -1.3928 O.3            1 S1                 0.0000
     26 ****         4.3098  -1.9890  -0.9560 C.3            1 S1                 0.0000
     27 ****         5.3113  -0.8734  -1.2098 C.3            1 S1                 0.0000
     28 ****         5.8190  -0.5575   0.1935 C.3            1 S1                 0.0000
     29 ****         5.7121  -1.7722   0.9277 O.3            1 S1                 0.0000
     30 ****         5.0614  -2.7584   0.1345 C.3            1 S1                 0.0000
     31 ****        -3.9156  -1.2631   0.2803 H              1 S1                 0.0000
     32 ****        -3.6163  -1.0087  -1.4334 H              1 S1                 0.0000
     33 ****        -4.3670   0.2613  -0.4700 H              1 S1                 0.0000
     34 ****        -1.5410  -0.8311  -0.1010 H              1 S1                 0.0000
     35 ****        -2.5663  -0.0052   1.9938 H              1 S1                 0.0000
     36 ****        -1.1132   0.8541   1.5478 H              1 S1                 0.0000
     37 ****        -1.9620   2.5625   3.1251 H              1 S1                 0.0000
     38 ****        -3.1279   3.6862   2.4959 H              1 S1                 0.0000
     39 ****        -4.5502   3.9966   4.4691 H              1 S1                 0.0000
     40 ****        -3.3032   3.1008   5.3272 H              1 S1                 0.0000
     41 ****        -4.9887   2.6126   5.4599 H              1 S1                 0.0000
     42 ****        -5.7305   2.8560   2.3738 H              1 S1                 0.0000
     43 ****        -6.1928   1.5824   3.4954 H              1 S1                 0.0000
     44 ****        -5.3457   1.1749   2.0146 H              1 S1                 0.0000
     45 ****        -4.3560   0.5262   4.6725 H              1 S1                 0.0000
     46 ****        -2.9565   3.8339   0.2405 H              1 S1                 0.0000
     47 ****        -1.3403   3.2160   0.5114 H              1 S1                 0.0000
     48 ****        -3.4279   2.1590  -1.4689 H              1 S1                 0.0000
     49 ****        -1.9341   2.9466  -1.8822 H              1 S1                 0.0000
     50 ****         2.2780   2.7474  -1.3146 H              1 S1                 0.0000
     51 ****         0.6073  -3.1495  -3.2902 H              1 S1                 0.0000
     52 ****         3.0365  -2.5066  -4.1849 H              1 S1                 0.0000
     53 ****         3.7868  -1.0747  -3.5537 H              1 S1                 0.0000
     54 ****         4.8493  -3.1322  -2.7021 H              1 S1                 0.0000
     55 ****         2.3162  -3.8613  -1.1729 H              1 S1                 0.0000
     56 ****         2.6295  -4.4645  -2.7902 H              1 S1                 0.0000
     57 ****         3.3821  -5.8720  -1.2229 H              1 S1                 0.0000
     58 ****         3.4121  -1.5630  -0.5058 H              1 S1                 0.0000
     59 ****         6.1340  -1.2366  -1.8272 H              1 S1                 0.0000
     60 ****         4.8867   0.0003  -1.7012 H              1 S1                 0.0000
     61 ****         6.8429  -0.1832   0.1891 H              1 S1                 0.0000
     62 ****         5.1856   0.1919   0.6699 H              1 S1                 0.0000
     63 ****         4.4018  -3.3752   0.7453 H              1 S1                 0.0000
     64 ****         5.8250  -3.4034  -0.3027 H              1 S1                 0.0000
     65 ****        -3.8299   1.7923   1.0283 H              1 S1                 0.0000
     66 ****        -2.8149   0.9035   4.5595 LP             1 S1                 0.0000
     67 ****        -3.5879   0.1586   3.3289 LP             1 S1                 0.0000
     68 ****         0.0216   2.7900  -0.8456 LP             1 S1                 0.0000
     69 ****         3.3472   0.8503  -2.2475 LP             1 S1                 0.0000
     70 ****        -1.3024  -1.8338  -2.3754 LP             1 S1                 0.0000
     71 ****         4.3666  -4.8222  -0.5455 LP             1 S1                 0.0000
     72 ****         4.6235  -5.3499  -2.0694 LP             1 S1                 0.0000
     73 ****         5.1810  -1.6118   1.7597 LP             1 S1                 0.0000
     74 ****         6.6267  -2.0937   1.1729 LP             1 S1                 0.0000
@<TRIPOS>BOND
    1    1    2 1     
    2    1   31 1     
    3    1   32 1     
    4    1   33 1     
    5    2   12 1     
    6    2    3 1     
    7    2   34 1     
    8    3    4 1     
    9    3   35 1     
   10    3   36 1     
   11    4    5 1     
   12    4   10 1     
   13    4   65 1     
   14    5    6 1     
   15    5   37 1     
   16    5   38 1     
   17    6    7 1     
   18    6    8 1     
   19    6    9 1     
   20    7   39 1     
   21    7   40 1     
   22    7   41 1     
   23    8   42 1     
   24    8   43 1     
   25    8   44 1     
   26    9   45 1     
   27   10   11 1     
   28   10   46 1     
   29   10   47 1     
   30   11   12 1     
   31   11   48 1     
   32   11   49 1     
   33   12   13 1     
   34   13   18 ar    
   35   13   14 ar    
   36   14   15 ar    
   37   15   16 ar    
   38   15   50 1     
   39   16   17 ar    
   40   17   21 1     
   41   17   18 ar    
   42   18   19 1     
   43   19   20 2     
   44   20   21 1     
   45   20   51 1     
   46   21   22 1     
   47   22   23 1     
   48   22   52 1     
   49   22   53 1     
   50   23   24 1     
   51   23   26 1     
   52   23   54 1     
   53   24   25 1     
   54   24   55 1     
   55   24   56 1     
   56   25   57 1     
   57   26   30 1     
   58   26   27 1     
   59   26   58 1     
   60   27   28 1     
   61   27   59 1     
   62   27   60 1     
   63   28   29 1     
   64   28   61 1     
   65   28   62 1     
   66   29   30 1     
   67   30   63 1     
   68   30   64 1     
   69    9   66 1     
   70    9   67 1     
   71   14   68 1     
   72   16   69 1     
   73   19   70 1     
   74   25   71 1     
   75   25   72 1     
   76   29   73 1     
   77   29   74 1     
@<TRIPOS>SUBSTRUCTURE
      1 S1             1
@<TRIPOS>SET
LONE_PAIRS      STATIC     ATOMS    <user>   **** ""
9 66 67 68 69 70 71 72 73 74
DONOR_HYDROGENS      STATIC     ATOMS    <user>   **** ""
3 65 45 57
ATOM$BLUE        STATIC     ATOMS    COLORGROUP SYSTEM
9 66 67 68 69 70 71 72 73 74
ATOM$RED        STATIC     ATOMS    COLORGROUP SYSTEM
3 65 45 57
