#       Name:                AV-unprocessed.smi:1116
#       Creating user name   scv26
#       Creation time:       Fri Mar 27 03:35:42 2020


#       File generated by GOLD software.
#

@<TRIPOS>MOLECULE
AV-unprocessed.smi:1116
    43    44     1
SMALL
NO_CHARGES


@<TRIPOS>ATOM
      1 ****        -6.7463  -0.5661  -1.5137 C.3            1 S1                 0.0000
      2 ****        -5.7568  -0.1440  -0.4823 C.2            1 S1                 0.0000
      3 ****        -4.4341  -0.1928  -0.6615 N.2            1 S1                 0.0000
      4 ****        -3.7222   0.2520   0.4572 C.2            1 S1                 0.0000
      5 ****        -2.2237   0.2569   0.4398 C.3            1 S1                 0.0000
      6 ****        -1.6384  -1.1561   0.6027 C.3            1 S1                 0.0000
      7 ****        -0.1820  -1.1374   0.6782 N.am           1 S1                 0.0000
      8 ****         0.6458  -0.9962  -0.3683 C.2            1 S1                 0.0000
      9 ****         0.2530  -0.8614  -1.5269 O.2            1 S1                 0.0000
     10 ****         2.1449  -1.0181  -0.0580 C.3            1 S1                 0.0000
     11 ****         2.9081   0.1293  -0.7469 C.3            1 S1                 0.0000
     12 ****         4.4217   0.1098  -0.4562 C.3            1 S1                 0.0000
     13 ****         4.7280   0.2994   0.9517 N.am           1 S1                 0.0000
     14 ****         5.4843   1.3833   1.1708 C.2            1 S1                 0.0000
     15 ****         5.8882   1.7724   2.2639 O.2            1 S1                 0.0000
     16 ****         5.7209   1.9666  -0.0090 N.am           1 S1                 0.0000
     17 ****         5.1454   1.3195  -1.0210 C.2            1 S1                 0.0000
     18 ****         5.1773   1.6280  -2.2107 O.2            1 S1                 0.0000
     19 ****        -4.5332   0.6486   1.4914 C.2            1 S1                 0.0000
     20 ****        -6.2212   0.4709   1.0991 S.3            1 S1                 0.0000
     21 ****        -6.2432  -1.0275  -2.3640 H              1 S1                 0.0000
     22 ****        -7.3081   0.2991  -1.8661 H              1 S1                 0.0000
     23 ****        -7.4438  -1.2874  -1.0874 H              1 S1                 0.0000
     24 ****        -1.8682   0.7000  -0.4912 H              1 S1                 0.0000
     25 ****        -1.8474   0.8984   1.2376 H              1 S1                 0.0000
     26 ****        -2.0135  -1.6067   1.5220 H              1 S1                 0.0000
     27 ****        -1.9617  -1.8030  -0.2148 H              1 S1                 0.0000
     28 ****         0.2273  -1.2463   1.5948 H              1 S1                 0.0000
     29 ****         2.2922  -0.9689   1.0219 H              1 S1                 0.0000
     30 ****         2.5465  -1.9782  -0.3834 H              1 S1                 0.0000
     31 ****         2.7587   0.0679  -1.8262 H              1 S1                 0.0000
     32 ****         2.4835   1.0859  -0.4362 H              1 S1                 0.0000
     33 ****         4.8862  -0.8077  -0.8197 H              1 S1                 0.0000
     34 ****         4.4075  -0.3294   1.6737 H              1 S1                 0.0000
     35 ****         6.2669   2.8087  -0.1187 H              1 S1                 0.0000
     36 ****        -4.2411   1.0313   2.4580 H              1 S1                 0.0000
     37 ****        -4.0001  -0.5126  -1.5038 LP             1 S1                 0.0000
     38 ****        -0.7272  -0.8534  -1.7248 LP             1 S1                 0.0000
     39 ****         0.9140  -0.7599  -2.2704 LP             1 S1                 0.0000
     40 ****         5.6551   1.2641   3.0929 LP             1 S1                 0.0000
     41 ****         6.4500   2.5974   2.3246 LP             1 S1                 0.0000
     42 ****         4.7027   1.0639  -2.8864 LP             1 S1                 0.0000
     43 ****         5.6778   2.4430  -2.5027 LP             1 S1                 0.0000
@<TRIPOS>BOND
    1    1    2 1     
    2    1   21 1     
    3    1   22 1     
    4    1   23 1     
    5    2   20 1     
    6    2    3 2     
    7    3    4 1     
    8    4    5 1     
    9    4   19 2     
   10    5    6 1     
   11    5   24 1     
   12    5   25 1     
   13    6    7 1     
   14    6   26 1     
   15    6   27 1     
   16    7    8 am    
   17    7   28 1     
   18    8    9 2     
   19    8   10 1     
   20   10   11 1     
   21   10   29 1     
   22   10   30 1     
   23   11   12 1     
   24   11   31 1     
   25   11   32 1     
   26   12   17 1     
   27   12   13 1     
   28   12   33 1     
   29   13   14 am    
   30   13   34 1     
   31   14   15 2     
   32   14   16 am    
   33   16   17 am    
   34   16   35 1     
   35   17   18 2     
   36   19   20 1     
   37   19   36 1     
   38    3   37 1     
   39    9   38 1     
   40    9   39 1     
   41   15   40 1     
   42   15   41 1     
   43   18   42 1     
   44   18   43 1     
@<TRIPOS>SUBSTRUCTURE
      1 S1             1
@<TRIPOS>SET
LONE_PAIRS      STATIC     ATOMS    <user>   **** ""
7 37 38 39 40 41 42 43
DONOR_HYDROGENS      STATIC     ATOMS    <user>   **** ""
3 28 34 35
ATOM$BLUE        STATIC     ATOMS    COLORGROUP SYSTEM
7 37 38 39 40 41 42 43
ATOM$RED        STATIC     ATOMS    COLORGROUP SYSTEM
3 28 34 35
