AV-unprocessed.smi:1715|AV-procd|sdf|6912|dock2
  -GOLD-   22720 8113D 1   1.00000     0.00000
 Structure written by MMmdl.
 41 42  0  0  0  0  0  0  0  0  2 V2000
  149.8770  135.1420  154.7070 C   0  0  0  0  0  0  0  0  0  0  0  0
  149.5194  136.3532  155.5870 C   0  0  2  0  0  0  0  0  0  0  0  0
  148.2350  137.0807  155.1429 C   0  0  0  0  0  0  0  0  0  0  0  0
  148.4627  137.8696  153.9086 N   0  3  1  0  0  0  0  0  0  0  0  0
  147.2255  138.5327  153.4266 C   0  0  0  0  0  0  0  0  0  0  0  0
  146.3148  137.5745  152.6345 C   0  0  0  0  0  0  0  0  0  0  0  0
  144.9211  138.0017  152.6769 N   0  0  0  0  0  0  0  0  0  0  0  0
  143.9015  137.2474  153.1116 C   0  0  0  0  0  0  0  0  0  0  0  0
  144.0377  136.0939  153.5197 O   0  0  0  0  0  0  0  0  0  0  0  0
  142.7357  137.9104  153.0395 N   0  0  0  0  0  0  0  0  0  0  0  0
  141.4499  137.4338  153.4002 C   0  0  0  0  0  0  0  0  0  0  0  0
  141.2042  136.2246  154.1060 C   0  0  0  0  0  0  0  0  0  0  0  0
  139.9077  136.0359  154.3053 N   0  0  0  0  0  0  0  0  0  0  0  0
  139.3233  137.1126  153.7329 N   0  0  0  0  0  0  0  0  0  0  0  0
  140.2231  137.9909  153.1705 C   0  0  0  0  0  0  0  0  0  0  0  0
  149.5992  138.8030  154.0994 C   0  0  0  0  0  0  0  0  0  0  0  0
  150.8653  138.0313  154.5133 C   0  0  1  0  0  0  0  0  0  0  0  0
  152.0411  138.9700  154.8061 C   0  0  0  0  0  0  0  0  0  0  0  0
  150.5989  137.2810  155.6952 O   0  0  0  0  0  0  0  0  0  0  0  0
  138.3202  137.2327  153.7345 H   0  0  0  0  0  0  0  0  0  0  0  0
  149.0902  134.3882  154.7499 H   0  0  0  0  0  0  0  0  0  0  0  0
  150.7996  134.6726  155.0490 H   0  0  0  0  0  0  0  0  0  0  0  0
  150.0078  135.4137  153.6601 H   0  0  0  0  0  0  0  0  0  0  0  0
  149.3506  135.9698  156.5937 H   0  0  0  0  0  0  0  0  0  0  0  0
  147.4340  136.3571  154.9867 H   0  0  0  0  0  0  0  0  0  0  0  0
  147.9025  137.7523  155.9363 H   0  0  0  0  0  0  0  0  0  0  0  0
  146.6608  138.9022  154.2838 H   0  0  0  0  0  0  0  0  0  0  0  0
  147.4901  139.4085  152.8319 H   0  0  0  0  0  0  0  0  0  0  0  0
  146.6286  137.4914  151.5937 H   0  0  0  0  0  0  0  0  0  0  0  0
  146.3747  136.5712  153.0573 H   0  0  0  0  0  0  0  0  0  0  0  0
  144.7195  138.9394  152.3608 H   0  0  0  0  0  0  0  0  0  0  0  0
  142.7694  138.8568  152.6896 H   0  0  0  0  0  0  0  0  0  0  0  0
  141.9088  135.4924  154.4722 H   0  0  0  0  0  0  0  0  0  0  0  0
  139.9121  138.8994  152.6763 H   0  0  0  0  0  0  0  0  0  0  0  0
  149.8000  139.3518  153.1799 H   0  0  0  0  0  0  0  0  0  0  0  0
  149.3405  139.5413  154.8602 H   0  0  0  0  0  0  0  0  0  0  0  0
  151.1635  137.3590  153.7086 H   0  0  0  0  0  0  0  0  0  0  0  0
  152.2979  139.5645  153.9290 H   0  0  0  0  0  0  0  0  0  0  0  0
  152.9278  138.4049  155.0947 H   0  0  0  0  0  0  0  0  0  0  0  0
  151.8053  139.6572  155.6192 H   0  0  0  0  0  0  0  0  0  0  0  0
  148.7351  137.2088  153.1949 H   0  0  0  0  0  0  0  0  0  0  0  0
  1  2  1  0  0  0  0
  1 21  1  0  0  0  0
  1 22  1  0  0  0  0
  1 23  1  0  0  0  0
  2 19  1  0  0  0  0
  2  3  1  0  0  0  0
  2 24  1  0  0  0  0
  3  4  1  0  0  0  0
  3 25  1  0  0  0  0
  3 26  1  0  0  0  0
  4  5  1  0  0  0  0
  4 16  1  0  0  0  0
  4 41  1  0  0  0  0
  5  6  1  0  0  0  0
  5 27  1  0  0  0  0
  5 28  1  0  0  0  0
  6  7  1  0  0  0  0
  6 29  1  0  0  0  0
  6 30  1  0  0  0  0
  7  8  1  0  0  0  0
  7 31  1  0  0  0  0
  8  9  2  0  0  0  0
  8 10  1  0  0  0  0
 10 11  1  0  0  0  0
 10 32  1  0  0  0  0
 11 15  2  0  0  0  0
 11 12  1  0  0  0  0
 12 13  2  0  0  0  0
 12 33  1  0  0  0  0
 13 14  1  0  0  0  0
 14 20  1  0  0  0  0
 14 15  1  0  0  0  0
 15 34  1  0  0  0  0
 16 17  1  0  0  0  0
 16 35  1  0  0  0  0
 16 36  1  0  0  0  0
 17 18  1  0  0  0  0
 17 19  1  0  0  0  0
 17 37  1  0  0  0  0
 18 38  1  0  0  0  0
 18 39  1  0  0  0  0
 18 40  1  0  0  0  0
M  CHG  1   4   1
M  END
> <s_m_source_file>
AV-unprocessed.smi

> <i_m_source_file_index>
1715

> <i_lp_mmshare_version>
43012

> <i_f3d_flags>
0

> <s_epik_input>
W0NIM11bQ0BASF0xW0NIMl1OKFtDSDJdW0NASF0oTzEpW0NIM10pW0NIMl1bQ0gyXVtOSF1DKD1PKVtOSF1jMltjSF1uW25IXVtjSF0y

> <s_epik_cmdline>
J2VwaWtfcHl0aG9uJywgJy1waCcsICc3LjAnLCAnLXRuJywgJzgnLCAnLW1hJywgJzIwMCcsICctbWV0YWxfYmluZGluZycsICctaW1hZScsICc8aW5maWxlLm1hZT4nLCAnLW9tYWUnLCAnPG91dGZpbGUubWFlPic=

> <r_lp_tautomer_probability>
0.5

> <r_epik_Ionization_Penalty>
0.646007

> <r_epik_Ionization_Penalty_Charging>
0.645968

> <r_epik_Ionization_Penalty_Neutral>
3.91671e-05

> <r_epik_State_Penalty>
0.664063

> <r_epik_Charging_Adjusted_Penalty>
1.31003

> <i_epik_Tot_Q>
1

> <i_epik_Tot_abs_Q>
1

> <r_epik_Metal_State_Penalty>
0.664064

> <b_epik_Metal_Only>
0

> <s_lp_Force_Field>
OPLS_2005

> <r_lp_Energy>
20.2841

> <b_lp_Chiralities_Consistent>
1

> <s_lp_Variant>
AV-unprocessed.smi:1715-4

> <Gold.Version>
5.8.1

> <Gold.Id.Protein>
6NUR|6NUR_protein|mol2

> <Gold.PLP.Fitness>
45.5609

> <Gold.PLP.PLP>
-28.7060

> <Gold.PLP.part.hbond>
-4.7137

> <Gold.PLP.part.metal>
0.0000

> <Gold.PLP.part.buried>
-2.4965

> <Gold.PLP.part.nonpolar>
-21.9828

> <Gold.PLP.part.repulsive>
0.3280

> <Gold.PLP.ligand.clash>
0.0000

> <Gold.PLP.ligand.torsion>
0.4265

> <Gold.PLP.Chemscore.Hbond>
4.8938

> <Gold.PLP.Chemscore.CHOScore>
0.9995

> <Gold.PLP.Chemscore.Metal>
0.0000

> <Gold.Chemscore.Hbonds>
donor molecule, donor type, donor heavy atom, donor atom, acceptor molecule, acceptor atom, score
      L1  H     4    41       P1  7948  2.00
      L1  H     7    31       P1 10175  0.99
      L1  H    10    32       P1 10175  1.00
      P1  H 11000 11005       L1    13  0.74
      L1  C    15    34       P1 10160  1.00

> <Gold.PLP.Chemscore.Internal.Correction>
0.0281

> <Gold.Rescore>
     Score         DG    S(hbond)    S(metal)    S(lipo)     H(rot)  DE(clash)    DE(int)     intcor
     19.27     -21.13       3.83        0.00      60.86       1.67       0.19       1.66       ----

> <Gold.Chemscore.Fitness>
19.2731

> <Gold.Chemscore.DG>
-21.1274

> <Gold.Chemscore.ZeroCoef>
-5.4800

> <Gold.Chemscore.Hbond>
3.8307

> <Gold.Chemscore.Metal>
0.0000

> <Gold.Chemscore.Lipo>
60.8604

> <Gold.Chemscore.Internal_Hbond>
0.0000

> <Gold.Chemscore.DEClash>
0.1911

> <Gold.Chemscore.DEInternal>
1.6632

> <Gold.Chemscore.Rot>
1.6671

> <Gold.Chemscore.Internal.Correction>
   9.000000E+99

> <Gold.Chemscore.Hbonds>
donor molecule, donor type, donor heavy atom, donor atom, acceptor molecule, acceptor atom, score
      L1  H     4    41       P1  7948  1.00
      L1  H     7    31       P1 10175  0.93
      L1  H    10    32       P1 10175  0.96
      P1  H 11000 11005       L1    13  0.17

> <Gold.Chemscore.Hbond.Weighted>
-12.7945

> <Gold.Chemscore.Metal.Weighted>
-0.0000

> <Gold.Chemscore.Lipo.Weighted>
-7.1207

> <Gold.Chemscore.Internal_Hbond.Weighted>
0.0000

> <Gold.Chemscore.DEClash.Weighted>
0.1911

> <Gold.Chemscore.DEInternal.Weighted>
1.6632

> <Gold.Chemscore.Rot.Weighted>
4.2677

> <Gold.Chemscore.Internal.Correction.Weighted>
   9.000000E+99

> <Gold.Protein.RotatedTorsions>
[ 6907 6896 6895 6894 ] final  -24.45 input  -60.11 | X-H torsion
[ 7974 7965 7964 7962 ] final  116.37 input  175.53 | X-H torsion
[ 8008 7997 7996 7995 ] final  -31.17 input   59.86 | X-H torsion
[ 10167 10162 10161 10158 ] final -107.48 input  -65.29 | X-H torsion
[ 10718 10713 10712 10709 ] final    7.94 input   66.30 | X-H torsion
[ 10763 10752 10751 10750 ] final   20.10 input  -60.55 | X-H torsion
[ 11005 11000 10999 10996 ] final   62.49 input  -57.11 | X-H torsion

> <Gold.Protein.ActiveResidues>
 VAL166  LYS551  ARG553  GLY616  TRP617  ASP618  TYR619  PRO620  LYS621  CYS622 
 ASP623  PHE694  ASN695  SER759  ASP760  ASP761  ALA762  ILE779  LEU786  VAL792 
 PHE793  MET794  SER795  GLU796  ALA797  LYS798  CYS799  TRP800  GLU811  SER814 

> <Gold.Protein.RotatedAtoms>
  151.1893  135.0395  159.8825 H   0  0  0  0  0  0  0  0  0  0  0  0  # atno 6907 bound_to 6896
  152.5440  134.0974  159.8313 H   0  0  0  0  0  0  0  0  0  0  0  0  # atno 6908 bound_to 6896
  151.1100  133.5132  159.2638 H   0  0  0  0  0  0  0  0  0  0  0  0  # atno 6909 bound_to 6896
  145.1804  139.3053  143.4421 H   0  0  0  0  0  0  0  0  0  0  0  0  # atno 7974 bound_to 7965
  154.4223  140.1771  156.1524 H   0  0  0  0  0  0  0  0  0  0  0  0  # atno 8008 bound_to 7997
  155.9904  140.3369  155.6723 H   0  0  0  0  0  0  0  0  0  0  0  0  # atno 8009 bound_to 7997
  155.6379  140.0677  157.2618 H   0  0  0  0  0  0  0  0  0  0  0  0  # atno 8010 bound_to 7997
  140.1765  143.4001  152.1314 H   0  0  0  0  0  0  0  0  0  0  0  0  # atno 10167 bound_to 10162
  156.9442  130.5873  149.5654 H   0  0  0  0  0  0  0  0  0  0  0  0  # atno 10718 bound_to 10713
  153.1106  135.6695  153.9508 H   0  0  0  0  0  0  0  0  0  0  0  0  # atno 10763 bound_to 10752
  153.9052  135.3031  155.3450 H   0  0  0  0  0  0  0  0  0  0  0  0  # atno 10764 bound_to 10752
  154.7525  135.5027  153.9393 H   0  0  0  0  0  0  0  0  0  0  0  0  # atno 10765 bound_to 10752
  140.0088  134.6328  155.9813 H   0  0  0  0  0  0  0  0  0  0  0  0  # atno 11005 bound_to 11000
  146.3454  140.1981  142.8589 LP  0  0  0  0  0  0  0  0  0  0  0  0  # atno 17320 bound_to 7965
  145.0142  140.8740  143.5206 LP  0  0  0  0  0  0  0  0  0  0  0  0  # atno 17321 bound_to 7965
  139.5315  144.7164  151.5041 LP  0  0  0  0  0  0  0  0  0  0  0  0  # atno 17342 bound_to 10162
  140.6548  143.8623  150.6823 LP  0  0  0  0  0  0  0  0  0  0  0  0  # atno 17343 bound_to 10162
  156.0391  130.5475  150.8726 LP  0  0  0  0  0  0  0  0  0  0  0  0  # atno 17370 bound_to 10713
  157.5764  131.0946  150.9338 LP  0  0  0  0  0  0  0  0  0  0  0  0  # atno 17371 bound_to 10713
  141.1696  133.6537  156.4604 LP  0  0  0  0  0  0  0  0  0  0  0  0  # atno 17394 bound_to 11000
  140.4592  134.6857  157.5077 LP  0  0  0  0  0  0  0  0  0  0  0  0  # atno 17395 bound_to 11000

$$$$
