AV-unprocessed.smi:2524|AV-procd|sdf|9925|dock2
  -GOLD-   2272013563D 1   1.00000     0.00000
 Structure written by MMmdl.
 36 37  0  0  0  0  0  0  0  0  3 V2000
  153.9407  134.8575  164.7926 C   0  0  0  0  0  0  0  0  0  0  0  0
  154.0403  136.1315  164.3850 C   0  0  0  0  0  0  0  0  0  0  0  0
  154.2874  136.5566  162.9528 C   0  0  0  0  0  0  0  0  0  0  0  0
  153.1871  137.4915  162.4365 C   0  0  0  0  0  0  0  0  0  0  0  0
  153.1624  137.5305  160.5880 S   0  0  0  0  0  0  0  0  0  0  0  0
  154.1948  136.5799  160.1410 O   0  0  0  0  0  0  0  0  0  0  0  0
  151.7750  137.2151  160.2156 O   0  0  0  0  0  0  0  0  0  0  0  0
  153.5158  139.0856  160.2721 N   0  5  0  0  0  0  0  0  0  0  0  0
  152.5084  139.9966  159.7418 C   0  0  0  0  0  0  0  0  0  0  0  0
  152.9611  141.4713  159.7763 C   0  0  0  0  0  0  0  0  0  0  0  0
  152.1375  142.3022  158.8191 C   0  0  0  0  0  0  0  0  0  0  0  0
  152.3324  143.7015  158.7131 C   0  0  0  0  0  0  0  0  0  0  0  0
  151.5415  144.4536  157.8213 C   0  0  0  0  0  0  0  0  0  0  0  0
  150.5973  143.8385  157.0778 N   0  3  0  0  0  0  0  0  0  0  0  0
  150.3657  142.5103  157.1469 C   0  0  0  0  0  0  0  0  0  0  0  0
  151.1280  141.7096  158.0213 C   0  0  0  0  0  0  0  0  0  0  0  0
  153.4366  142.1362  161.0604 C   0  0  0  0  0  0  0  0  0  0  0  0
  154.4236  141.8526  159.9534 C   0  0  0  0  0  0  0  0  0  0  0  0
  154.0357  134.0368  164.0967 H   0  0  0  0  0  0  0  0  0  0  0  0
  153.7629  134.6192  165.8308 H   0  0  0  0  0  0  0  0  0  0  0  0
  153.9398  136.9268  165.1091 H   0  0  0  0  0  0  0  0  0  0  0  0
  155.2581  137.0484  162.8774 H   0  0  0  0  0  0  0  0  0  0  0  0
  154.3393  135.6608  162.3335 H   0  0  0  0  0  0  0  0  0  0  0  0
  152.2068  137.1606  162.7802 H   0  0  0  0  0  0  0  0  0  0  0  0
  153.3475  138.5043  162.8050 H   0  0  0  0  0  0  0  0  0  0  0  0
  152.2578  139.7564  158.7078 H   0  0  0  0  0  0  0  0  0  0  0  0
  151.5747  139.9161  160.2995 H   0  0  0  0  0  0  0  0  0  0  0  0
  153.0882  144.1922  159.3094 H   0  0  0  0  0  0  0  0  0  0  0  0
  151.6352  145.5207  157.6822 H   0  0  0  0  0  0  0  0  0  0  0  0
  149.5834  142.1305  156.5063 H   0  0  0  0  0  0  0  0  0  0  0  0
  150.9437  140.6465  158.0783 H   0  0  0  0  0  0  0  0  0  0  0  0
  153.1660  143.1772  161.2250 H   0  0  0  0  0  0  0  0  0  0  0  0
  153.5541  141.5489  161.9702 H   0  0  0  0  0  0  0  0  0  0  0  0
  155.1672  141.0828  160.1557 H   0  0  0  0  0  0  0  0  0  0  0  0
  154.7976  142.7094  159.3963 H   0  0  0  0  0  0  0  0  0  0  0  0
  150.0350  144.4006  156.4383 H   0  0  0  0  0  0  0  0  0  0  0  0
  1  2  2  0  0  0  0
  1 19  1  0  0  0  0
  1 20  1  0  0  0  0
  2  3  1  0  0  0  0
  2 21  1  0  0  0  0
  3  4  1  0  0  0  0
  3 22  1  0  0  0  0
  3 23  1  0  0  0  0
  4  5  1  0  0  0  0
  4 24  1  0  0  0  0
  4 25  1  0  0  0  0
  5  6  2  0  0  0  0
  5  7  2  0  0  0  0
  5  8  1  0  0  0  0
  8  9  1  0  0  0  0
  9 10  1  0  0  0  0
  9 26  1  0  0  0  0
  9 27  1  0  0  0  0
 10 18  1  0  0  0  0
 10 11  1  0  0  0  0
 10 17  1  0  0  0  0
 11 16  1  0  0  0  0
 11 12  2  0  0  0  0
 12 13  1  0  0  0  0
 12 28  1  0  0  0  0
 13 14  2  0  0  0  0
 13 29  1  0  0  0  0
 14 15  1  0  0  0  0
 14 36  1  0  0  0  0
 15 16  2  0  0  0  0
 15 30  1  0  0  0  0
 16 31  1  0  0  0  0
 17 18  1  0  0  0  0
 17 32  1  0  0  0  0
 17 33  1  0  0  0  0
 18 34  1  0  0  0  0
 18 35  1  0  0  0  0
M  CHG  1   8  -1
M  CHG  1  14   1
M  END
> <s_m_source_file>
AV-unprocessed.smi

> <i_m_source_file_index>
2524

> <i_lp_mmshare_version>
43012

> <i_f3d_flags>
0

> <s_epik_input>
W0NIMl09W0NIXVtDSDJdW0NIMl1TKD1PKSg9TylbTkhdW0NIMl1DMShbQ0gyXVtDSDJdMSljMltjSF1bY0hdbltjSF1bY0hdMg==

> <s_epik_cmdline>
J2VwaWtfcHl0aG9uJywgJy1waCcsICc3LjAnLCAnLXRuJywgJzgnLCAnLW1hJywgJzIwMCcsICctbWV0YWxfYmluZGluZycsICctaW1hZScsICc8aW5maWxlLm1hZT4nLCAnLW9tYWUnLCAnPG91dGZpbGUubWFlPic=

> <r_epik_Ionization_Penalty>
7.77019

> <r_epik_Ionization_Penalty_Charging>
7.77019

> <r_epik_Ionization_Penalty_Neutral>
0

> <r_epik_State_Penalty>
8.15763

> <r_epik_Charging_Adjusted_Penalty>
15.9278

> <i_epik_Tot_Q>
0

> <i_epik_Tot_abs_Q>
2

> <r_epik_Metal_State_Penalty>
4.11642

> <b_epik_Metal_Only>
1

> <s_lp_Force_Field>
OPLS_2005

> <r_lp_Energy>
17.0566

> <b_lp_Chiralities_Consistent>
1

> <s_lp_Variant>
AV-unprocessed.smi:2524-4

> <Gold.Version>
5.8.1

> <Gold.Id.Protein>
6NUR|6NUR_protein|mol2

> <Gold.PLP.Fitness>
49.1719

> <Gold.PLP.PLP>
-41.3185

> <Gold.PLP.part.hbond>
-2.0000

> <Gold.PLP.part.metal>
0.0000

> <Gold.PLP.part.buried>
-4.5893

> <Gold.PLP.part.nonpolar>
-35.2296

> <Gold.PLP.part.repulsive>
0.0218

> <Gold.PLP.ligand.clash>
0.0000

> <Gold.PLP.ligand.torsion>
1.8114

> <Gold.PLP.Chemscore.Hbond>
3.0000

> <Gold.PLP.Chemscore.CHOScore>
0.0000

> <Gold.PLP.Chemscore.Metal>
0.0000

> <Gold.Chemscore.Hbonds>
donor molecule, donor type, donor heavy atom, donor atom, acceptor molecule, acceptor atom, score
      L1  H    14    36       P1  8028  1.33
      P1  H  6896  6909       L1     7  0.47

> <Gold.PLP.Chemscore.Internal.Correction>
2.4761

> <Gold.Rescore>
     Score         DG    S(hbond)    S(metal)    S(lipo)     H(rot)  DE(clash)    DE(int)     intcor
     20.21     -21.90       1.98        0.00     120.92       1.70       0.09       1.60       ----

> <Gold.Chemscore.Fitness>
20.2083

> <Gold.Chemscore.DG>
-21.8966

> <Gold.Chemscore.ZeroCoef>
-5.4800

> <Gold.Chemscore.Hbond>
1.9839

> <Gold.Chemscore.Metal>
0.0000

> <Gold.Chemscore.Lipo>
120.9185

> <Gold.Chemscore.Internal_Hbond>
0.0000

> <Gold.Chemscore.DEClash>
0.0894

> <Gold.Chemscore.DEInternal>
1.5990

> <Gold.Chemscore.Rot>
1.7020

> <Gold.Chemscore.Internal.Correction>
   9.000000E+99

> <Gold.Chemscore.Hbonds>
donor molecule, donor type, donor heavy atom, donor atom, acceptor molecule, acceptor atom, score
      L1  H    14    36       P1  8028  0.65
      P1  H  6896  6909       L1     7  0.08

> <Gold.Chemscore.Hbond.Weighted>
-6.6264

> <Gold.Chemscore.Metal.Weighted>
-0.0000

> <Gold.Chemscore.Lipo.Weighted>
-14.1475

> <Gold.Chemscore.Internal_Hbond.Weighted>
0.0000

> <Gold.Chemscore.DEClash.Weighted>
0.0894

> <Gold.Chemscore.DEInternal.Weighted>
1.5990

> <Gold.Chemscore.Rot.Weighted>
4.3572

> <Gold.Chemscore.Internal.Correction.Weighted>
   9.000000E+99

> <Gold.Protein.RotatedTorsions>
[ 6907 6896 6895 6894 ] final  149.05 input  -60.11 | X-H torsion
[ 7974 7965 7964 7962 ] final -105.25 input  175.53 | X-H torsion
[ 8008 7997 7996 7995 ] final   98.63 input   59.86 | X-H torsion
[ 10167 10162 10161 10158 ] final   78.11 input  -65.29 | X-H torsion
[ 10718 10713 10712 10709 ] final  -64.16 input   66.30 | X-H torsion
[ 10763 10752 10751 10750 ] final   90.91 input  -60.55 | X-H torsion
[ 11005 11000 10999 10996 ] final -168.86 input  -57.11 | X-H torsion

> <Gold.Protein.ActiveResidues>
 VAL166  LYS551  ARG553  GLY616  TRP617  ASP618  TYR619  PRO620  LYS621  CYS622 
 ASP623  PHE694  ASN695  SER759  ASP760  ASP761  ALA762  ILE779  LEU786  VAL792 
 PHE793  MET794  SER795  GLU796  ALA797  LYS798  CYS799  TRP800  GLU811  SER814 

> <Gold.Protein.RotatedAtoms>
  152.1333  133.4420  159.4730 H   0  0  0  0  0  0  0  0  0  0  0  0  # atno 6907 bound_to 6896
  150.6880  134.2395  159.4476 H   0  0  0  0  0  0  0  0  0  0  0  0  # atno 6908 bound_to 6896
  152.0280  134.9784  160.0622 H   0  0  0  0  0  0  0  0  0  0  0  0  # atno 6909 bound_to 6896
  145.2329  140.9177  143.3194 H   0  0  0  0  0  0  0  0  0  0  0  0  # atno 7974 bound_to 7965
  156.1024  140.3241  155.7959 H   0  0  0  0  0  0  0  0  0  0  0  0  # atno 8008 bound_to 7997
  155.4815  140.0554  157.2984 H   0  0  0  0  0  0  0  0  0  0  0  0  # atno 8009 bound_to 7997
  154.4705  140.2009  156.0022 H   0  0  0  0  0  0  0  0  0  0  0  0  # atno 8010 bound_to 7997
  139.9744  144.5871  150.7956 H   0  0  0  0  0  0  0  0  0  0  0  0  # atno 10167 bound_to 10162
  156.0746  130.4230  150.1381 H   0  0  0  0  0  0  0  0  0  0  0  0  # atno 10718 bound_to 10713
  153.2026  135.4416  155.0285 H   0  0  0  0  0  0  0  0  0  0  0  0  # atno 10763 bound_to 10752
  154.8156  135.3313  154.7189 H   0  0  0  0  0  0  0  0  0  0  0  0  # atno 10764 bound_to 10752
  153.7633  135.6990  153.4976 H   0  0  0  0  0  0  0  0  0  0  0  0  # atno 10765 bound_to 10752
  140.5373  134.5557  157.5090 H   0  0  0  0  0  0  0  0  0  0  0  0  # atno 11005 bound_to 11000
  144.9660  139.3929  143.6332 LP  0  0  0  0  0  0  0  0  0  0  0  0  # atno 17320 bound_to 7965
  146.3348  139.8736  142.8836 LP  0  0  0  0  0  0  0  0  0  0  0  0  # atno 17321 bound_to 7965
  140.7511  143.2966  151.3188 LP  0  0  0  0  0  0  0  0  0  0  0  0  # atno 17342 bound_to 10162
  139.6456  144.0457  152.2588 LP  0  0  0  0  0  0  0  0  0  0  0  0  # atno 17343 bound_to 10162
  156.9424  130.9749  151.3513 LP  0  0  0  0  0  0  0  0  0  0  0  0  # atno 17370 bound_to 10713
  157.5835  130.8393  149.8556 LP  0  0  0  0  0  0  0  0  0  0  0  0  # atno 17371 bound_to 10713
  139.9522  134.7596  156.0421 LP  0  0  0  0  0  0  0  0  0  0  0  0  # atno 17394 bound_to 11000
  141.1247  133.6602  156.3307 LP  0  0  0  0  0  0  0  0  0  0  0  0  # atno 17395 bound_to 11000

$$$$
