AV-unprocessed.smi:2252|AV-procd|sdf|9103|dock6
  -GOLD-   2272012303D 1   1.00000     0.00000
 Structure written by MMmdl.
 46 48  0  0  0  0  0  0  0  0  3 V2000
  151.7191  144.7405  161.1399 C   0  0  0  0  0  0  0  0  0  0  0  0
  152.5009  143.5455  160.8164 N   0  0  0  0  0  0  0  0  0  0  0  0
  152.9343  142.5894  161.6988 C   0  0  0  0  0  0  0  0  0  0  0  0
  153.6183  141.6570  160.9635 C   0  0  0  0  0  0  0  0  0  0  0  0
  153.5747  142.0823  159.6636 N   0  3  0  0  0  0  0  0  0  0  0  0
  152.9005  143.2347  159.5722 C   0  0  0  0  0  0  0  0  0  0  0  0
  152.6392  143.9879  158.3052 C   0  0  0  0  0  0  0  0  0  0  0  0
  151.1529  143.9810  157.9108 C   0  0  0  0  0  0  0  0  0  0  0  0
  150.8937  143.0961  156.7813 N   0  0  0  0  0  0  0  0  0  0  0  0
  150.0419  142.0587  156.7954 C   0  0  0  0  0  0  0  0  0  0  0  0
  149.3871  141.7386  157.7881 O   0  0  0  0  0  0  0  0  0  0  0  0
  149.8932  141.2699  155.4853 C   0  0  2  0  0  0  0  0  0  0  0  0
  148.3980  141.2233  155.1041 C   0  0  0  0  0  0  0  0  0  0  0  0
  147.9552  140.8332  153.7105 C   0  0  0  0  0  0  0  0  0  0  0  0
  147.7994  142.2584  154.1749 C   0  0  0  0  0  0  0  0  0  0  0  0
  150.4704  139.8996  155.5967 N   0  3  0  0  0  0  0  0  0  0  0  0
  150.2408  139.0204  154.4302 C   0  0  0  0  0  0  0  0  0  0  0  0
  151.2933  137.9101  154.5170 C   0  0  0  0  0  0  0  0  0  0  0  0
  152.3561  138.4240  155.4931 C   0  0  0  0  0  0  0  0  0  0  0  0
  151.9287  139.8505  155.8403 C   0  0  0  0  0  0  0  0  0  0  0  0
  151.4285  144.7131  162.1905 H   0  0  0  0  0  0  0  0  0  0  0  0
  150.8227  144.7681  160.5197 H   0  0  0  0  0  0  0  0  0  0  0  0
  152.3254  145.6278  160.9557 H   0  0  0  0  0  0  0  0  0  0  0  0
  152.7279  142.6401  162.7583 H   0  0  0  0  0  0  0  0  0  0  0  0
  154.1178  140.7459  161.2598 H   0  0  0  0  0  0  0  0  0  0  0  0
  153.0082  145.0049  158.4385 H   0  0  0  0  0  0  0  0  0  0  0  0
  153.2538  143.5215  157.5342 H   0  0  0  0  0  0  0  0  0  0  0  0
  150.5328  143.6875  158.7596 H   0  0  0  0  0  0  0  0  0  0  0  0
  150.8379  144.9860  157.6294 H   0  0  0  0  0  0  0  0  0  0  0  0
  151.3856  143.2980  155.9223 H   0  0  0  0  0  0  0  0  0  0  0  0
  150.4384  141.7995  154.7013 H   0  0  0  0  0  0  0  0  0  0  0  0
  147.7496  140.9028  155.9182 H   0  0  0  0  0  0  0  0  0  0  0  0
  148.7245  140.6322  152.9677 H   0  0  0  0  0  0  0  0  0  0  0  0
  147.0534  140.2309  153.6221 H   0  0  0  0  0  0  0  0  0  0  0  0
  146.7927  142.6085  154.3940 H   0  0  0  0  0  0  0  0  0  0  0  0
  148.4653  143.0000  153.7382 H   0  0  0  0  0  0  0  0  0  0  0  0
  149.2258  138.6222  154.4168 H   0  0  0  0  0  0  0  0  0  0  0  0
  150.3919  139.5894  153.5113 H   0  0  0  0  0  0  0  0  0  0  0  0
  150.8509  136.9888  154.8982 H   0  0  0  0  0  0  0  0  0  0  0  0
  151.7147  137.6898  153.5355 H   0  0  0  0  0  0  0  0  0  0  0  0
  152.3588  137.8062  156.3921 H   0  0  0  0  0  0  0  0  0  0  0  0
  153.3605  138.3928  155.0692 H   0  0  0  0  0  0  0  0  0  0  0  0
  152.4329  140.5546  155.1763 H   0  0  0  0  0  0  0  0  0  0  0  0
  152.1853  140.1140  156.8669 H   0  0  0  0  0  0  0  0  0  0  0  0
  150.0302  139.4492  156.3866 H   0  0  0  0  0  0  0  0  0  0  0  0
  153.9912  141.5946  158.8803 H   0  0  0  0  0  0  0  0  0  0  0  0
  1  2  1  0  0  0  0
  1 21  1  0  0  0  0
  1 22  1  0  0  0  0
  1 23  1  0  0  0  0
  2  6  1  0  0  0  0
  2  3  1  0  0  0  0
  3  4  2  0  0  0  0
  3 24  1  0  0  0  0
  4  5  1  0  0  0  0
  4 25  1  0  0  0  0
  5  6  2  0  0  0  0
  5 46  1  0  0  0  0
  6  7  1  0  0  0  0
  7  8  1  0  0  0  0
  7 26  1  0  0  0  0
  7 27  1  0  0  0  0
  8  9  1  0  0  0  0
  8 28  1  0  0  0  0
  8 29  1  0  0  0  0
  9 10  1  0  0  0  0
  9 30  1  0  0  0  0
 10 11  2  0  0  0  0
 10 12  1  0  0  0  0
 12 13  1  0  0  0  0
 12 16  1  0  0  0  0
 12 31  1  0  0  0  0
 13 15  1  0  0  0  0
 13 14  1  0  0  0  0
 13 32  1  0  0  0  0
 14 15  1  0  0  0  0
 14 33  1  0  0  0  0
 14 34  1  0  0  0  0
 15 35  1  0  0  0  0
 15 36  1  0  0  0  0
 16 20  1  0  0  0  0
 16 17  1  0  0  0  0
 16 45  1  0  0  0  0
 17 18  1  0  0  0  0
 17 37  1  0  0  0  0
 17 38  1  0  0  0  0
 18 19  1  0  0  0  0
 18 39  1  0  0  0  0
 18 40  1  0  0  0  0
 19 20  1  0  0  0  0
 19 41  1  0  0  0  0
 19 42  1  0  0  0  0
 20 43  1  0  0  0  0
 20 44  1  0  0  0  0
M  CHG  1   5   1
M  CHG  1  16   1
M  END
> <s_m_source_file>
AV-unprocessed.smi

> <i_m_source_file_index>
2252

> <i_lp_mmshare_version>
43012

> <i_f3d_flags>
0

> <s_epik_input>
W0NIM11uMVtjSF1bY0hdbmMxW0NIMl1bQ0gyXVtOSF1DKD1PKVtDQEhdKFtDSF0yW0NIMl1bQ0gyXTIpTjNbQ0gyXVtDSDJdW0NIMl1bQ0gyXTM=

> <s_epik_cmdline>
J2VwaWtfcHl0aG9uJywgJy1waCcsICc3LjAnLCAnLXRuJywgJzgnLCAnLW1hJywgJzIwMCcsICctbWV0YWxfYmluZGluZycsICctaW1hZScsICc8aW5maWxlLm1hZT4nLCAnLW9tYWUnLCAnPG91dGZpbGUubWFlPic=

> <r_lp_tautomer_probability>
1

> <r_epik_Ionization_Penalty>
0.116886

> <r_epik_Ionization_Penalty_Charging>
0.00955009

> <r_epik_Ionization_Penalty_Neutral>
0.107336

> <r_epik_State_Penalty>
0.0956868

> <r_epik_Charging_Adjusted_Penalty>
0.105237

> <i_epik_Tot_Q>
2

> <i_epik_Tot_abs_Q>
2

> <r_epik_Metal_State_Penalty>
0.438836

> <b_epik_Metal_Only>
0

> <s_lp_Force_Field>
OPLS_2005

> <r_lp_Energy>
40.5803

> <b_lp_Chiralities_Consistent>
1

> <s_lp_Variant>
AV-unprocessed.smi:2252-1

> <Gold.Version>
5.8.1

> <Gold.Id.Protein>
6NUR|6NUR_protein|mol2

> <Gold.PLP.Fitness>
49.6503

> <Gold.PLP.PLP>
-50.6864

> <Gold.PLP.part.hbond>
-1.0000

> <Gold.PLP.part.metal>
0.0000

> <Gold.PLP.part.buried>
-1.7261

> <Gold.PLP.part.nonpolar>
-47.3993

> <Gold.PLP.part.repulsive>
0.2706

> <Gold.PLP.ligand.clash>
0.0000

> <Gold.PLP.ligand.torsion>
1.1073

> <Gold.PLP.Chemscore.Hbond>
0.0000

> <Gold.PLP.Chemscore.CHOScore>
0.0000

> <Gold.PLP.Chemscore.Metal>
0.0000

> <Gold.PLP.Chemscore.Internal.Correction>
1.1784

> <Gold.Rescore>
     Score         DG    S(hbond)    S(metal)    S(lipo)     H(rot)  DE(clash)    DE(int)     intcor
     12.80     -14.28       0.00        0.00     119.93       2.05       0.23       1.25       ----

> <Gold.Chemscore.Fitness>
12.7985

> <Gold.Chemscore.DG>
-14.2752

> <Gold.Chemscore.ZeroCoef>
-5.4800

> <Gold.Chemscore.Hbond>
0.0000

> <Gold.Chemscore.Metal>
0.0000

> <Gold.Chemscore.Lipo>
119.9313

> <Gold.Chemscore.Internal_Hbond>
0.0000

> <Gold.Chemscore.DEClash>
0.2280

> <Gold.Chemscore.DEInternal>
1.2487

> <Gold.Chemscore.Rot>
2.0456

> <Gold.Chemscore.Internal.Correction>
   9.000000E+99

> <Gold.Chemscore.Hbond.Weighted>
-0.0000

> <Gold.Chemscore.Metal.Weighted>
-0.0000

> <Gold.Chemscore.Lipo.Weighted>
-14.0320

> <Gold.Chemscore.Internal_Hbond.Weighted>
0.0000

> <Gold.Chemscore.DEClash.Weighted>
0.2280

> <Gold.Chemscore.DEInternal.Weighted>
1.2487

> <Gold.Chemscore.Rot.Weighted>
5.2368

> <Gold.Chemscore.Internal.Correction.Weighted>
   9.000000E+99

> <Gold.Protein.RotatedTorsions>
[ 6907 6896 6895 6894 ] final  -56.79 input  -60.11 | X-H torsion
[ 7974 7965 7964 7962 ] final   -3.47 input  175.53 | X-H torsion
[ 8008 7997 7996 7995 ] final   23.58 input   59.86 | X-H torsion
[ 10167 10162 10161 10158 ] final -140.25 input  -65.29 | X-H torsion
[ 10718 10713 10712 10709 ] final -167.45 input   66.30 | X-H torsion
[ 10763 10752 10751 10750 ] final  -52.43 input  -60.55 | X-H torsion
[ 11005 11000 10999 10996 ] final   32.52 input  -57.11 | X-H torsion

> <Gold.Protein.ActiveResidues>
 VAL166  LYS551  ARG553  GLY616  TRP617  ASP618  TYR619  PRO620  LYS621  CYS622 
 ASP623  PHE694  ASN695  SER759  ASP760  ASP761  ALA762  ILE779  LEU786  VAL792 
 PHE793  MET794  SER795  GLU796  ALA797  LYS798  CYS799  TRP800  GLU811  SER814 

> <Gold.Protein.RotatedAtoms>
  150.8138  134.7309  159.6711 H   0  0  0  0  0  0  0  0  0  0  0  0  # atno 6907 bound_to 6896
  152.4258  134.5868  159.9973 H   0  0  0  0  0  0  0  0  0  0  0  0  # atno 6908 bound_to 6896
  151.6070  133.3313  159.3095 H   0  0  0  0  0  0  0  0  0  0  0  0  # atno 6909 bound_to 6896
  146.2389  140.1725  142.8332 H   0  0  0  0  0  0  0  0  0  0  0  0  # atno 7974 bound_to 7965
  154.9832  140.3104  155.4937 H   0  0  0  0  0  0  0  0  0  0  0  0  # atno 8008 bound_to 7997
  156.2950  140.2263  156.4872 H   0  0  0  0  0  0  0  0  0  0  0  0  # atno 8009 bound_to 7997
  154.7770  140.0448  157.1085 H   0  0  0  0  0  0  0  0  0  0  0  0  # atno 8010 bound_to 7997
  139.8300  143.7460  152.2666 H   0  0  0  0  0  0  0  0  0  0  0  0  # atno 10167 bound_to 10162
  156.6825  130.9127  151.3059 H   0  0  0  0  0  0  0  0  0  0  0  0  # atno 10718 bound_to 10713
  154.1426  135.6503  153.4945 H   0  0  0  0  0  0  0  0  0  0  0  0  # atno 10763 bound_to 10752
  153.0161  135.5319  154.6890 H   0  0  0  0  0  0  0  0  0  0  0  0  # atno 10764 bound_to 10752
  154.6155  135.2958  155.0355 H   0  0  0  0  0  0  0  0  0  0  0  0  # atno 10765 bound_to 10752
  140.2726  134.3065  155.7823 H   0  0  0  0  0  0  0  0  0  0  0  0  # atno 11005 bound_to 11000
  145.0000  140.8623  143.5288 LP  0  0  0  0  0  0  0  0  0  0  0  0  # atno 17320 bound_to 7965
  145.1743  139.2387  143.5325 LP  0  0  0  0  0  0  0  0  0  0  0  0  # atno 17321 bound_to 7965
  139.7664  144.7490  151.0288 LP  0  0  0  0  0  0  0  0  0  0  0  0  # atno 17342 bound_to 10162
  140.7807  143.4693  151.0168 LP  0  0  0  0  0  0  0  0  0  0  0  0  # atno 17343 bound_to 10162
  157.7038  130.9362  150.0868 LP  0  0  0  0  0  0  0  0  0  0  0  0  # atno 17370 bound_to 10713
  156.1857  130.3652  149.8976 LP  0  0  0  0  0  0  0  0  0  0  0  0  # atno 17371 bound_to 10713
  141.2175  133.7476  156.9357 LP  0  0  0  0  0  0  0  0  0  0  0  0  # atno 17394 bound_to 11000
  140.1359  134.9325  157.2401 LP  0  0  0  0  0  0  0  0  0  0  0  0  # atno 17395 bound_to 11000

$$$$
