AV-unprocessed.smi:776|AV-procd|sdf|3699|dock4
  -GOLD-   22720 1123D 1   1.00000     0.00000
 Structure written by MMmdl.
 44 45  0  0  0  0  0  0  0  0  1 V2000
  148.2373  136.1619  162.0205 C   0  0  0  0  0  0  0  0  0  0  0  0
  147.8807  136.0378  160.5314 C   0  0  0  0  0  0  0  0  0  0  0  0
  147.9165  134.5885  160.0231 C   0  0  0  0  0  0  0  0  0  0  0  0
  148.7096  136.9496  159.6789 C   0  0  0  0  0  0  0  0  0  0  0  0
  149.9743  136.6683  159.3827 N   0  0  0  0  0  0  0  0  0  0  0  0
  150.3717  137.7529  158.5880 O   0  0  0  0  0  0  0  0  0  0  0  0
  149.2828  138.5516  158.4829 C   0  0  0  0  0  0  0  0  0  0  0  0
  149.3980  139.8306  157.7237 C   0  0  0  0  0  0  0  0  0  0  0  0
  150.7539  139.9700  157.0130 C   0  0  0  0  0  0  0  0  0  0  0  0
  151.4728  141.1601  157.4531 N   0  0  0  0  0  0  0  0  0  0  0  0
  151.7160  141.4917  158.7326 C   0  0  0  0  0  0  0  0  0  0  0  0
  151.3840  140.7683  159.6716 O   0  0  0  0  0  0  0  0  0  0  0  0
  152.4560  142.6217  158.8685 N   0  0  0  0  0  0  0  0  0  0  0  0
  152.1497  143.8288  158.0785 C   0  0  0  0  0  0  0  0  0  0  0  0
  151.1983  144.7318  158.8880 C   0  0  0  0  0  0  0  0  0  0  0  0
  151.8009  145.0850  160.2608 C   0  0  0  0  0  0  0  0  0  0  0  0
  152.3122  143.8349  161.0019 C   0  0  0  0  0  0  0  0  0  0  0  0
  153.2175  142.9873  160.0839 C   0  0  1  0  0  0  0  0  0  0  0  0
  153.8789  141.8097  160.8309 C   0  0  0  0  0  0  0  0  0  0  0  0
  148.2238  138.1094  159.1559 N   0  0  0  0  0  0  0  0  0  0  0  0
  148.1324  137.1915  162.3646 H   0  0  0  0  0  0  0  0  0  0  0  0
  149.2644  135.8497  162.2114 H   0  0  0  0  0  0  0  0  0  0  0  0
  147.5833  135.5408  162.6330 H   0  0  0  0  0  0  0  0  0  0  0  0
  146.8456  136.3697  160.4373 H   0  0  0  0  0  0  0  0  0  0  0  0
  147.5786  134.5280  158.9882 H   0  0  0  0  0  0  0  0  0  0  0  0
  147.2670  133.9477  160.6200 H   0  0  0  0  0  0  0  0  0  0  0  0
  148.9243  134.1748  160.0699 H   0  0  0  0  0  0  0  0  0  0  0  0
  148.5862  139.8776  156.9971 H   0  0  0  0  0  0  0  0  0  0  0  0
  149.2443  140.6580  158.4176 H   0  0  0  0  0  0  0  0  0  0  0  0
  151.3654  139.0810  157.1767 H   0  0  0  0  0  0  0  0  0  0  0  0
  150.6012  140.0485  155.9362 H   0  0  0  0  0  0  0  0  0  0  0  0
  151.8180  141.7773  156.7327 H   0  0  0  0  0  0  0  0  0  0  0  0
  153.0732  144.3638  157.8528 H   0  0  0  0  0  0  0  0  0  0  0  0
  151.7017  143.6090  157.1090 H   0  0  0  0  0  0  0  0  0  0  0  0
  150.9811  145.6437  158.3311 H   0  0  0  0  0  0  0  0  0  0  0  0
  150.2442  144.2220  159.0290 H   0  0  0  0  0  0  0  0  0  0  0  0
  152.6327  145.7751  160.1150 H   0  0  0  0  0  0  0  0  0  0  0  0
  151.0676  145.6126  160.8712 H   0  0  0  0  0  0  0  0  0  0  0  0
  152.8569  144.1380  161.8967 H   0  0  0  0  0  0  0  0  0  0  0  0
  151.4662  143.2365  161.3423 H   0  0  0  0  0  0  0  0  0  0  0  0
  154.0462  143.6189  159.7596 H   0  0  0  0  0  0  0  0  0  0  0  0
  154.5873  142.1802  161.5722 H   0  0  0  0  0  0  0  0  0  0  0  0
  154.4324  141.1663  160.1462 H   0  0  0  0  0  0  0  0  0  0  0  0
  153.1570  141.1961  161.3692 H   0  0  0  0  0  0  0  0  0  0  0  0
  1  2  1  0  0  0  0
  1 21  1  0  0  0  0
  1 22  1  0  0  0  0
  1 23  1  0  0  0  0
  2  3  1  0  0  0  0
  2  4  1  0  0  0  0
  2 24  1  0  0  0  0
  3 25  1  0  0  0  0
  3 26  1  0  0  0  0
  3 27  1  0  0  0  0
  4 20  1  0  0  0  0
  4  5  2  0  0  0  0
  5  6  1  0  0  0  0
  6  7  1  0  0  0  0
  7  8  1  0  0  0  0
  7 20  2  0  0  0  0
  8  9  1  0  0  0  0
  8 28  1  0  0  0  0
  8 29  1  0  0  0  0
  9 10  1  0  0  0  0
  9 30  1  0  0  0  0
  9 31  1  0  0  0  0
 10 11  1  0  0  0  0
 10 32  1  0  0  0  0
 11 12  2  0  0  0  0
 11 13  1  0  0  0  0
 13 18  1  0  0  0  0
 13 14  1  0  0  0  0
 14 15  1  0  0  0  0
 14 33  1  0  0  0  0
 14 34  1  0  0  0  0
 15 16  1  0  0  0  0
 15 35  1  0  0  0  0
 15 36  1  0  0  0  0
 16 17  1  0  0  0  0
 16 37  1  0  0  0  0
 16 38  1  0  0  0  0
 17 18  1  0  0  0  0
 17 39  1  0  0  0  0
 17 40  1  0  0  0  0
 18 19  1  0  0  0  0
 18 41  1  0  0  0  0
 19 42  1  0  0  0  0
 19 43  1  0  0  0  0
 19 44  1  0  0  0  0
M  END
> <s_m_source_file>
AV-unprocessed.smi

> <i_m_source_file_index>
776

> <i_lp_mmshare_version>
43012

> <i_f3d_flags>
0

> <s_epik_input>
W0NIM11bQ0hdKFtDSDNdKWMxbm9jKG4xKVtDSDJdW0NIMl1bTkhdQyg9TylOMltDSDJdW0NIMl1bQ0gyXVtDSDJdW0NASF0yW0NIM10=

> <s_epik_cmdline>
J2VwaWtfcHl0aG9uJywgJy1waCcsICc3LjAnLCAnLXRuJywgJzgnLCAnLW1hJywgJzIwMCcsICctbWV0YWxfYmluZGluZycsICctaW1hZScsICc8aW5maWxlLm1hZT4nLCAnLW9tYWUnLCAnPG91dGZpbGUubWFlPic=

> <r_lp_tautomer_probability>
1

> <r_epik_Ionization_Penalty>
6.23032e-05

> <r_epik_Ionization_Penalty_Charging>
0

> <r_epik_Ionization_Penalty_Neutral>
6.23032e-05

> <r_epik_State_Penalty>
-0

> <r_epik_Charging_Adjusted_Penalty>
0

> <i_epik_Tot_Q>
0

> <i_epik_Tot_abs_Q>
0

> <r_epik_Metal_State_Penalty>
-0

> <b_epik_Metal_Only>
0

> <s_lp_Force_Field>
OPLS_2005

> <r_lp_Energy>
26.0958

> <b_lp_Chiralities_Consistent>
1

> <s_lp_Variant>
AV-unprocessed.smi:776-1

> <Gold.Version>
5.8.1

> <Gold.Id.Protein>
6NUR|6NUR_protein|mol2

> <Gold.PLP.Fitness>
43.6582

> <Gold.PLP.PLP>
-42.4277

> <Gold.PLP.part.hbond>
-2.6756

> <Gold.PLP.part.metal>
0.0000

> <Gold.PLP.part.buried>
-5.4702

> <Gold.PLP.part.nonpolar>
-35.4773

> <Gold.PLP.part.repulsive>
0.0816

> <Gold.PLP.ligand.clash>
0.0000

> <Gold.PLP.ligand.torsion>
1.1334

> <Gold.PLP.Chemscore.Hbond>
0.9937

> <Gold.PLP.Chemscore.CHOScore>
0.0000

> <Gold.PLP.Chemscore.Metal>
0.0000

> <Gold.Chemscore.Hbonds>
donor molecule, donor type, donor heavy atom, donor atom, acceptor molecule, acceptor atom, score
      P1  H  6896  6907       L1     5  1.00
      P1  H  6934  6947       L1    20  0.12

> <Gold.PLP.Chemscore.Internal.Correction>
0.5160

> <Gold.Rescore>
     Score         DG    S(hbond)    S(metal)    S(lipo)     H(rot)  DE(clash)    DE(int)     intcor
     14.16     -16.29       1.03        0.00      99.00       1.65       0.06       2.07       ----

> <Gold.Chemscore.Fitness>
14.1584

> <Gold.Chemscore.DG>
-16.2868

> <Gold.Chemscore.ZeroCoef>
-5.4800

> <Gold.Chemscore.Hbond>
1.0299

> <Gold.Chemscore.Metal>
0.0000

> <Gold.Chemscore.Lipo>
99.0025

> <Gold.Chemscore.Internal_Hbond>
0.0000

> <Gold.Chemscore.DEClash>
0.0614

> <Gold.Chemscore.DEInternal>
2.0669

> <Gold.Chemscore.Rot>
1.6470

> <Gold.Chemscore.Internal.Correction>
   9.000000E+99

> <Gold.Chemscore.Hbonds>
donor molecule, donor type, donor heavy atom, donor atom, acceptor molecule, acceptor atom, score
      P1  H  6896  6907       L1     5  0.97
      P1  H  6934  6947       L1    20  0.05

> <Gold.Chemscore.Hbond.Weighted>
-3.4399

> <Gold.Chemscore.Metal.Weighted>
-0.0000

> <Gold.Chemscore.Lipo.Weighted>
-11.5833

> <Gold.Chemscore.Internal_Hbond.Weighted>
0.0000

> <Gold.Chemscore.DEClash.Weighted>
0.0614

> <Gold.Chemscore.DEInternal.Weighted>
2.0669

> <Gold.Chemscore.Rot.Weighted>
4.2164

> <Gold.Chemscore.Internal.Correction.Weighted>
   9.000000E+99

> <Gold.Protein.RotatedTorsions>
[ 6907 6896 6895 6894 ] final  -39.29 input  -60.11 | X-H torsion
[ 7974 7965 7964 7962 ] final  102.94 input  175.53 | X-H torsion
[ 8008 7997 7996 7995 ] final  174.66 input   59.86 | X-H torsion
[ 10167 10162 10161 10158 ] final   79.26 input  -65.29 | X-H torsion
[ 10718 10713 10712 10709 ] final  -54.93 input   66.30 | X-H torsion
[ 10763 10752 10751 10750 ] final  115.11 input  -60.55 | X-H torsion
[ 11005 11000 10999 10996 ] final   72.07 input  -57.11 | X-H torsion

> <Gold.Protein.ActiveResidues>
 VAL166  LYS551  ARG553  GLY616  TRP617  ASP618  TYR619  PRO620  LYS621  CYS622 
 ASP623  PHE694  ASN695  SER759  ASP760  ASP761  ALA762  ILE779  LEU786  VAL792 
 PHE793  MET794  SER795  GLU796  ALA797  LYS798  CYS799  TRP800  GLU811  SER814 

> <Gold.Protein.RotatedAtoms>
  150.9922  134.9254  159.7905 H   0  0  0  0  0  0  0  0  0  0  0  0  # atno 6907 bound_to 6896
  152.5254  134.3267  159.9178 H   0  0  0  0  0  0  0  0  0  0  0  0  # atno 6908 bound_to 6896
  151.3273  133.3974  159.2694 H   0  0  0  0  0  0  0  0  0  0  0  0  # atno 6909 bound_to 6896
  145.3524  139.2436  143.3551 H   0  0  0  0  0  0  0  0  0  0  0  0  # atno 7974 bound_to 7965
  156.0951  140.1429  156.9541 H   0  0  0  0  0  0  0  0  0  0  0  0  # atno 8008 bound_to 7997
  154.4666  140.0924  156.7083 H   0  0  0  0  0  0  0  0  0  0  0  0  # atno 8009 bound_to 7997
  155.4854  140.3446  155.4348 H   0  0  0  0  0  0  0  0  0  0  0  0  # atno 8010 bound_to 7997
  139.9622  144.5953  150.8062 H   0  0  0  0  0  0  0  0  0  0  0  0  # atno 10167 bound_to 10162
  156.1410  130.4154  150.0104 H   0  0  0  0  0  0  0  0  0  0  0  0  # atno 10718 bound_to 10713
  153.5173  135.3605  155.2615 H   0  0  0  0  0  0  0  0  0  0  0  0  # atno 10763 bound_to 10752
  154.8738  135.4037  154.3300 H   0  0  0  0  0  0  0  0  0  0  0  0  # atno 10764 bound_to 10752
  153.3964  135.7073  153.6524 H   0  0  0  0  0  0  0  0  0  0  0  0  # atno 10765 bound_to 10752
  139.9510  134.7227  156.0863 H   0  0  0  0  0  0  0  0  0  0  0  0  # atno 11005 bound_to 11000
  146.2962  140.4143  142.8721 LP  0  0  0  0  0  0  0  0  0  0  0  0  # atno 17320 bound_to 7965
  144.8707  140.7269  143.6048 LP  0  0  0  0  0  0  0  0  0  0  0  0  # atno 17321 bound_to 7965
  140.7549  143.3037  151.3016 LP  0  0  0  0  0  0  0  0  0  0  0  0  # atno 17342 bound_to 10162
  139.6545  144.0301  152.2650 LP  0  0  0  0  0  0  0  0  0  0  0  0  # atno 17343 bound_to 10162
  156.7989  130.9283  151.3646 LP  0  0  0  0  0  0  0  0  0  0  0  0  # atno 17370 bound_to 10713
  157.6575  130.8937  149.9760 LP  0  0  0  0  0  0  0  0  0  0  0  0  # atno 17371 bound_to 10713
  141.1172  133.6624  156.3124 LP  0  0  0  0  0  0  0  0  0  0  0  0  # atno 17394 bound_to 11000
  140.5720  134.5831  157.5460 LP  0  0  0  0  0  0  0  0  0  0  0  0  # atno 17395 bound_to 11000

$$$$
