AV-unprocessed.smi:746|AV-procd|sdf|3576|dock6
  -GOLD-   22720 0573D 1   1.00000     0.00000
 Structure written by MMmdl.
 48 50  0  0  0  0  0  0  0  0  1 V2000
  159.8485  146.0538  168.4755 C   0  0  0  0  0  0  0  0  0  0  0  0
  158.7804  146.3488  169.3585 O   0  0  0  0  0  0  0  0  0  0  0  0
  158.0145  145.2017  169.6869 C   0  0  0  0  0  0  0  0  0  0  0  0
  156.7856  145.1442  168.7756 C   0  0  0  0  0  0  0  0  0  0  0  0
  156.4365  143.7797  168.5624 O   0  0  0  0  0  0  0  0  0  0  0  0
  155.9245  143.4149  167.3340 C   0  0  0  0  0  0  0  0  0  0  0  0
  155.6997  142.0479  167.0765 C   0  0  0  0  0  0  0  0  0  0  0  0
  155.1797  141.6664  165.8248 C   0  0  0  0  0  0  0  0  0  0  0  0
  154.9084  142.6688  164.8633 C   0  0  0  0  0  0  0  0  0  0  0  0
  154.3654  142.4174  163.5748 N   0  0  0  0  0  0  0  0  0  0  0  0
  153.4617  143.1403  162.8833 C   0  0  0  0  0  0  0  0  0  0  0  0
  153.0551  144.2422  163.2499 O   0  0  0  0  0  0  0  0  0  0  0  0
  153.1343  142.5825  161.6900 N   0  0  0  0  0  0  0  0  0  0  0  0
  153.2342  141.1293  161.4244 C   0  0  0  0  0  0  0  0  0  0  0  0
  153.9414  140.8611  160.0788 C   0  0  0  0  0  0  0  0  0  0  0  0
  153.2455  141.5981  158.9194 C   0  0  0  0  0  0  0  0  0  0  0  0
  153.0824  143.0778  159.2873 C   0  0  1  0  0  0  0  0  0  0  0  0
  152.2746  143.9524  158.3269 C   0  0  0  0  0  0  0  0  0  0  0  0
  151.7642  145.1161  159.1976 C   0  0  0  0  0  0  0  0  0  0  0  0
  152.1204  144.7585  160.6519 C   0  0  0  0  0  0  0  0  0  0  0  0
  152.3521  143.2385  160.6215 C   0  0  2  0  0  0  0  0  0  0  0  0
  155.1518  144.0093  165.2259 C   0  0  0  0  0  0  0  0  0  0  0  0
  155.6514  144.3816  166.4231 N   0  0  0  0  0  0  0  0  0  0  0  0
  160.4044  146.9651  168.2554 H   0  0  0  0  0  0  0  0  0  0  0  0
  159.4796  145.6486  167.5323 H   0  0  0  0  0  0  0  0  0  0  0  0
  160.5404  145.3364  168.9188 H   0  0  0  0  0  0  0  0  0  0  0  0
  158.6151  144.2996  169.5603 H   0  0  0  0  0  0  0  0  0  0  0  0
  157.7019  145.2472  170.7313 H   0  0  0  0  0  0  0  0  0  0  0  0
  155.9577  145.6798  169.2433 H   0  0  0  0  0  0  0  0  0  0  0  0
  157.0103  145.6312  167.8251 H   0  0  0  0  0  0  0  0  0  0  0  0
  155.9180  141.3039  167.8283 H   0  0  0  0  0  0  0  0  0  0  0  0
  154.9871  140.6219  165.6356 H   0  0  0  0  0  0  0  0  0  0  0  0
  154.6064  141.5235  163.1721 H   0  0  0  0  0  0  0  0  0  0  0  0
  153.7451  140.5742  162.2117 H   0  0  0  0  0  0  0  0  0  0  0  0
  152.2262  140.7128  161.3946 H   0  0  0  0  0  0  0  0  0  0  0  0
  154.9803  141.1869  160.1467 H   0  0  0  0  0  0  0  0  0  0  0  0
  153.9665  139.7901  159.8759 H   0  0  0  0  0  0  0  0  0  0  0  0
  153.8210  141.4927  157.9993 H   0  0  0  0  0  0  0  0  0  0  0  0
  152.2683  141.1501  158.7348 H   0  0  0  0  0  0  0  0  0  0  0  0
  154.0780  143.5171  159.3829 H   0  0  0  0  0  0  0  0  0  0  0  0
  152.8739  144.2955  157.4828 H   0  0  0  0  0  0  0  0  0  0  0  0
  151.4276  143.3936  157.9266 H   0  0  0  0  0  0  0  0  0  0  0  0
  152.2209  146.0635  158.9095 H   0  0  0  0  0  0  0  0  0  0  0  0
  150.6854  145.2251  159.0800 H   0  0  0  0  0  0  0  0  0  0  0  0
  153.0353  145.2822  160.9332 H   0  0  0  0  0  0  0  0  0  0  0  0
  151.3352  145.0513  161.3497 H   0  0  0  0  0  0  0  0  0  0  0  0
  151.3758  142.7520  160.5658 H   0  0  0  0  0  0  0  0  0  0  0  0
  154.9456  144.8107  164.5316 H   0  0  0  0  0  0  0  0  0  0  0  0
  1  2  1  0  0  0  0
  1 24  1  0  0  0  0
  1 25  1  0  0  0  0
  1 26  1  0  0  0  0
  2  3  1  0  0  0  0
  3  4  1  0  0  0  0
  3 27  1  0  0  0  0
  3 28  1  0  0  0  0
  4  5  1  0  0  0  0
  4 29  1  0  0  0  0
  4 30  1  0  0  0  0
  5  6  1  0  0  0  0
  6 23  1  0  0  0  0
  6  7  2  0  0  0  0
  7  8  1  0  0  0  0
  7 31  1  0  0  0  0
  8  9  2  0  0  0  0
  8 32  1  0  0  0  0
  9 10  1  0  0  0  0
  9 22  1  0  0  0  0
 10 11  1  0  0  0  0
 10 33  1  0  0  0  0
 11 12  2  0  0  0  0
 11 13  1  0  0  0  0
 13 21  1  0  0  0  0
 13 14  1  0  0  0  0
 14 15  1  0  0  0  0
 14 34  1  0  0  0  0
 14 35  1  0  0  0  0
 15 16  1  0  0  0  0
 15 36  1  0  0  0  0
 15 37  1  0  0  0  0
 16 17  1  0  0  0  0
 16 38  1  0  0  0  0
 16 39  1  0  0  0  0
 17 21  1  0  0  0  0
 17 18  1  0  0  0  0
 17 40  1  0  0  0  0
 18 19  1  0  0  0  0
 18 41  1  0  0  0  0
 18 42  1  0  0  0  0
 19 20  1  0  0  0  0
 19 43  1  0  0  0  0
 19 44  1  0  0  0  0
 20 21  1  0  0  0  0
 20 45  1  0  0  0  0
 20 46  1  0  0  0  0
 21 47  1  0  0  0  0
 22 23  2  0  0  0  0
 22 48  1  0  0  0  0
M  END
> <s_m_source_file>
AV-unprocessed.smi

> <i_m_source_file_index>
746

> <i_lp_mmshare_version>
43012

> <i_f3d_flags>
0

> <s_epik_input>
W0NIM11PW0NIMl1bQ0gyXU9jMVtjSF1bY0hdYyhbY0hdbjEpW05IXUMoPU8pTihbQ0gyXVtDSDJdW0NIMl0yKVtDQEhdKFtDQEBIXTIzKVtDSDJdW0NIMl1bQ0gyXTM=

> <s_epik_cmdline>
J2VwaWtfcHl0aG9uJywgJy1waCcsICc3LjAnLCAnLXRuJywgJzgnLCAnLW1hJywgJzIwMCcsICctbWV0YWxfYmluZGluZycsICctaW1hZScsICc8aW5maWxlLm1hZT4nLCAnLW9tYWUnLCAnPG91dGZpbGUubWFlPic=

> <r_lp_tautomer_probability>
1

> <r_epik_Ionization_Penalty>
8.29966e-05

> <r_epik_Ionization_Penalty_Charging>
0

> <r_epik_Ionization_Penalty_Neutral>
8.29966e-05

> <r_epik_State_Penalty>
-0

> <r_epik_Charging_Adjusted_Penalty>
0

> <i_epik_Tot_Q>
0

> <i_epik_Tot_abs_Q>
0

> <r_epik_Metal_State_Penalty>
-0

> <b_epik_Metal_Only>
0

> <s_lp_Force_Field>
OPLS_2005

> <r_lp_Energy>
59.0162

> <b_lp_Chiralities_Consistent>
1

> <s_lp_Variant>
AV-unprocessed.smi:746-1

> <Gold.Version>
5.8.1

> <Gold.Id.Protein>
6NUR|6NUR_protein|mol2

> <Gold.PLP.Fitness>
54.8542

> <Gold.PLP.PLP>
-56.7646

> <Gold.PLP.part.hbond>
-3.0000

> <Gold.PLP.part.metal>
0.0000

> <Gold.PLP.part.buried>
-7.3100

> <Gold.PLP.part.nonpolar>
-45.6655

> <Gold.PLP.part.repulsive>
0.5324

> <Gold.PLP.ligand.clash>
0.0000

> <Gold.PLP.ligand.torsion>
1.1281

> <Gold.PLP.Chemscore.Hbond>
0.0000

> <Gold.PLP.Chemscore.CHOScore>
0.0000

> <Gold.PLP.Chemscore.Metal>
0.0000

> <Gold.PLP.Chemscore.Internal.Correction>
0.3458

> <Gold.Rescore>
     Score         DG    S(hbond)    S(metal)    S(lipo)     H(rot)  DE(clash)    DE(int)     intcor
     10.56     -17.01       0.00        0.00     131.74       1.52       2.51       3.94       ----

> <Gold.Chemscore.Fitness>
10.5618

> <Gold.Chemscore.DG>
-17.0097

> <Gold.Chemscore.ZeroCoef>
-5.4800

> <Gold.Chemscore.Hbond>
0.0000

> <Gold.Chemscore.Metal>
0.0000

> <Gold.Chemscore.Lipo>
131.7420

> <Gold.Chemscore.Internal_Hbond>
0.0000

> <Gold.Chemscore.DEClash>
2.5102

> <Gold.Chemscore.DEInternal>
3.9377

> <Gold.Chemscore.Rot>
1.5172

> <Gold.Chemscore.Internal.Correction>
   9.000000E+99

> <Gold.Chemscore.Hbond.Weighted>
-0.0000

> <Gold.Chemscore.Metal.Weighted>
-0.0000

> <Gold.Chemscore.Lipo.Weighted>
-15.4138

> <Gold.Chemscore.Internal_Hbond.Weighted>
0.0000

> <Gold.Chemscore.DEClash.Weighted>
2.5102

> <Gold.Chemscore.DEInternal.Weighted>
3.9377

> <Gold.Chemscore.Rot.Weighted>
3.8841

> <Gold.Chemscore.Internal.Correction.Weighted>
   9.000000E+99

> <Gold.Protein.RotatedTorsions>
[ 6907 6896 6895 6894 ] final    1.58 input  -60.11 | X-H torsion
[ 7974 7965 7964 7962 ] final    7.92 input  175.53 | X-H torsion
[ 8008 7997 7996 7995 ] final   10.88 input   59.86 | X-H torsion
[ 10167 10162 10161 10158 ] final   29.02 input  -65.29 | X-H torsion
[ 10718 10713 10712 10709 ] final   48.65 input   66.30 | X-H torsion
[ 10763 10752 10751 10750 ] final  -17.60 input  -60.55 | X-H torsion
[ 11005 11000 10999 10996 ] final    6.47 input  -57.11 | X-H torsion

> <Gold.Protein.ActiveResidues>
 VAL166  LYS551  ARG553  GLY616  TRP617  ASP618  TYR619  PRO620  LYS621  CYS622 
 ASP623  PHE694  ASN695  SER759  ASP760  ASP761  ALA762  ILE779  LEU786  VAL792 
 PHE793  MET794  SER795  GLU796  ALA797  LYS798  CYS799  TRP800  GLU811  SER814 

> <Gold.Protein.RotatedAtoms>
  151.5950  135.1051  160.0047 H   0  0  0  0  0  0  0  0  0  0  0  0  # atno 6907 bound_to 6896
  152.4287  133.7236  159.6558 H   0  0  0  0  0  0  0  0  0  0  0  0  # atno 6908 bound_to 6896
  150.8178  133.8235  159.3175 H   0  0  0  0  0  0  0  0  0  0  0  0  # atno 6909 bound_to 6896
  146.2422  140.0011  142.8416 H   0  0  0  0  0  0  0  0  0  0  0  0  # atno 7974 bound_to 7965
  154.7994  140.2849  155.5933 H   0  0  0  0  0  0  0  0  0  0  0  0  # atno 8008 bound_to 7997
  156.2975  140.2589  156.2788 H   0  0  0  0  0  0  0  0  0  0  0  0  # atno 8009 bound_to 7997
  154.9576  140.0378  157.2164 H   0  0  0  0  0  0  0  0  0  0  0  0  # atno 8010 bound_to 7997
  140.4802  144.0628  150.6263 H   0  0  0  0  0  0  0  0  0  0  0  0  # atno 10167 bound_to 10162
  157.4708  130.8254  149.7985 H   0  0  0  0  0  0  0  0  0  0  0  0  # atno 10718 bound_to 10713
  153.5764  135.7006  153.5482 H   0  0  0  0  0  0  0  0  0  0  0  0  # atno 10763 bound_to 10752
  153.3299  135.4050  155.1487 H   0  0  0  0  0  0  0  0  0  0  0  0  # atno 10764 bound_to 10752
  154.8625  135.3716  154.5289 H   0  0  0  0  0  0  0  0  0  0  0  0  # atno 10765 bound_to 10752
  140.5591  134.0210  155.7965 H   0  0  0  0  0  0  0  0  0  0  0  0  # atno 11005 bound_to 11000
  145.1415  140.9573  143.4486 LP  0  0  0  0  0  0  0  0  0  0  0  0  # atno 17320 bound_to 7965
  145.0292  139.3356  143.6033 LP  0  0  0  0  0  0  0  0  0  0  0  0  # atno 17321 bound_to 7965
  140.3867  143.2773  152.0107 LP  0  0  0  0  0  0  0  0  0  0  0  0  # atno 17342 bound_to 10162
  139.4832  144.6110  151.7433 LP  0  0  0  0  0  0  0  0  0  0  0  0  # atno 17343 bound_to 10162
  156.0072  130.3850  150.2389 LP  0  0  0  0  0  0  0  0  0  0  0  0  # atno 17370 bound_to 10713
  157.0571  131.0079  151.3235 LP  0  0  0  0  0  0  0  0  0  0  0  0  # atno 17371 bound_to 10713
  141.1125  133.9593  157.2883 LP  0  0  0  0  0  0  0  0  0  0  0  0  # atno 17394 bound_to 11000
  139.9417  135.0190  156.8728 LP  0  0  0  0  0  0  0  0  0  0  0  0  # atno 17395 bound_to 11000

$$$$
