#       Name:                AV-unprocessed.smi:2954
#       Creating user name   scv26
#       Creation time:       Fri Mar 27 16:19:14 2020


#       File generated by GOLD software.
#

@<TRIPOS>MOLECULE
AV-unprocessed.smi:2954
    47    49     1
SMALL
NO_CHARGES


@<TRIPOS>ATOM
      1 ****         1.3645   1.3337  -5.2640 C.3            1 S1                 0.0000
      2 ****         1.4735   2.1067  -3.9363 C.3            1 S1                 0.0000
      3 ****         0.1762   2.4309  -3.3383 N.am           1 S1                 0.0000
      4 ****        -0.8680   3.0075  -3.9507 C.2            1 S1                 0.0000
      5 ****        -0.8522   3.3380  -5.1337 O.2            1 S1                 0.0000
      6 ****         2.3134   3.3574  -4.0508 C.2            1 S1                 0.0000
      7 ****         1.9758   4.3659  -4.8592 N.2            1 S1                 0.0000
      8 ****         3.0001   5.2714  -4.6736 C.ar           1 S1                 0.0000
      9 ****         3.2230   6.5382  -5.2588 C.ar           1 S1                 0.0000
     10 ****         4.3648   7.2915  -4.9164 C.ar           1 S1                 0.0000
     11 ****         5.2972   6.7898  -3.9856 C.ar           1 S1                 0.0000
     12 ****         5.0914   5.5313  -3.3886 C.ar           1 S1                 0.0000
     13 ****         3.9490   4.7835  -3.7331 C.ar           1 S1                 0.0000
     14 ****         3.4607   3.5392  -3.3436 N.pl3          1 S1                 0.0000
     15 ****         4.0962   2.6416  -2.3878 C.3            1 S1                 0.0000
     16 ****         4.9339   1.5631  -3.0890 C.3            1 S1                 0.0000
     17 ****         5.8779   2.2038  -3.9361 O.3            1 S1                 0.0000
     18 ****         6.6685   1.4264  -4.7541 C.ar           1 S1                 0.0000
     19 ****         6.6836   0.0088  -4.7238 C.ar           1 S1                 0.0000
     20 ****         7.5216  -0.7144  -5.5946 C.ar           1 S1                 0.0000
     21 ****         8.3531  -0.0340  -6.5027 C.ar           1 S1                 0.0000
     22 ****         8.3467   1.3724  -6.5389 C.ar           1 S1                 0.0000
     23 ****         7.5089   2.0983  -5.6695 C.ar           1 S1                 0.0000
     24 ****         7.5121   3.8249  -5.7372 Cl             1 S1                 0.0000
     25 ****         2.3506   1.0203  -5.6083 H              1 S1                 0.0000
     26 ****         0.9210   1.9378  -6.0561 H              1 S1                 0.0000
     27 ****         0.7565   0.4362  -5.1476 H              1 S1                 0.0000
     28 ****         1.9382   1.4216  -3.2312 H              1 S1                 0.0000
     29 ****         0.0620   2.1896  -2.3647 H              1 S1                 0.0000
     30 ****        -1.7252   3.1403  -3.2734 H              1 S1                 0.0000
     31 ****         2.5157   6.9293  -5.9752 H              1 S1                 0.0000
     32 ****         4.5268   8.2575  -5.3715 H              1 S1                 0.0000
     33 ****         6.1714   7.3711  -3.7309 H              1 S1                 0.0000
     34 ****         5.8079   5.1438  -2.6797 H              1 S1                 0.0000
     35 ****         4.7366   3.2311  -1.7311 H              1 S1                 0.0000
     36 ****         3.3400   2.1978  -1.7407 H              1 S1                 0.0000
     37 ****         5.4454   0.9510  -2.3447 H              1 S1                 0.0000
     38 ****         4.2823   0.9118  -3.6735 H              1 S1                 0.0000
     39 ****         6.0623  -0.5482  -4.0391 H              1 S1                 0.0000
     40 ****         7.5259  -1.7939  -5.5649 H              1 S1                 0.0000
     41 ****         8.9952  -0.5896  -7.1702 H              1 S1                 0.0000
     42 ****         8.9849   1.8952  -7.2361 H              1 S1                 0.0000
     43 ****        -0.0338   3.1798  -5.6861 LP             1 S1                 0.0000
     44 ****        -1.6577   3.7652  -5.5442 LP             1 S1                 0.0000
     45 ****         1.1757   4.4453  -5.4538 LP             1 S1                 0.0000
     46 ****         6.4916   2.7302  -3.3476 LP             1 S1                 0.0000
     47 ****         5.3668   2.8277  -4.5274 LP             1 S1                 0.0000
@<TRIPOS>BOND
    1    1    2 1     
    2    1   25 1     
    3    1   26 1     
    4    1   27 1     
    5    2    3 1     
    6    2    6 1     
    7    2   28 1     
    8    3    4 am    
    9    3   29 1     
   10    4    5 2     
   11    4   30 1     
   12    6   14 1     
   13    6    7 2     
   14    7    8 1     
   15    8   13 ar    
   16    8    9 ar    
   17    9   10 ar    
   18    9   31 1     
   19   10   11 ar    
   20   10   32 1     
   21   11   12 ar    
   22   11   33 1     
   23   12   13 ar    
   24   12   34 1     
   25   13   14 1     
   26   14   15 1     
   27   15   16 1     
   28   15   35 1     
   29   15   36 1     
   30   16   17 1     
   31   16   37 1     
   32   16   38 1     
   33   17   18 1     
   34   18   23 ar    
   35   18   19 ar    
   36   19   20 ar    
   37   19   39 1     
   38   20   21 ar    
   39   20   40 1     
   40   21   22 ar    
   41   21   41 1     
   42   22   23 ar    
   43   22   42 1     
   44   23   24 1     
   45    5   43 1     
   46    5   44 1     
   47    7   45 1     
   48   17   46 1     
   49   17   47 1     
@<TRIPOS>SUBSTRUCTURE
      1 S1             1
@<TRIPOS>SET
LONE_PAIRS      STATIC     ATOMS    <user>   **** ""
5 43 44 45 46 47
DONOR_HYDROGENS      STATIC     ATOMS    <user>   **** ""
1 29
ATOM$BLUE        STATIC     ATOMS    COLORGROUP SYSTEM
5 43 44 45 46 47
ATOM$RED        STATIC     ATOMS    COLORGROUP SYSTEM
1 29
