AV-unprocessed.smi:16|AV-procd|sdf|88|dock2
  -GOLD-   2262015223D 1   1.00000     0.00000
 Structure written by MMmdl.
 60 64  0  0  0  0  0  0  0  0  2 V2000
  147.9516  140.9631  153.7832 C   0  0  0  0  0  0  0  0  0  0  0  0
  146.8428  139.9035  153.7009 C   0  0  0  0  0  0  0  0  0  0  0  0
  146.4957  139.3444  155.0317 N   0  3  2  0  0  0  0  0  0  0  0  0
  146.2666  140.4016  156.0501 C   0  0  0  0  0  0  0  0  0  0  0  0
  145.7511  139.7965  157.3655 C   0  0  0  0  0  0  0  0  0  0  0  0
  146.7132  138.7111  157.8942 C   0  0  1  0  0  0  0  0  0  0  0  0
  146.2495  138.0963  159.0982 O   0  0  0  0  0  0  0  0  0  0  0  0
  145.1073  137.2563  158.9402 C   0  0  0  0  0  0  0  0  0  0  0  0
  145.3844  136.1770  157.8831 C   0  0  0  0  0  0  0  0  0  0  0  0
  145.8234  136.7923  156.6367 N   0  0  0  0  0  0  0  0  0  0  0  0
  145.8876  135.9084  155.6179 C   0  0  0  0  0  0  0  0  0  0  0  0
  146.9100  135.0169  155.5469 N   0  0  0  0  0  0  0  0  0  0  0  0
  146.9816  134.1712  154.5138 C   0  0  0  0  0  0  0  0  0  0  0  0
  146.1622  134.0634  153.4644 N   0  0  0  0  0  0  0  0  0  0  0  0
  145.1389  134.9628  153.5370 C   0  0  0  0  0  0  0  0  0  0  0  0
  144.9243  135.9068  154.5780 C   0  0  0  0  0  0  0  0  0  0  0  0
  143.7796  136.6505  154.3265 N   0  0  0  0  0  0  0  0  0  0  0  0
  143.3339  136.1651  153.1992 C   0  0  0  0  0  0  0  0  0  0  0  0
  144.1098  135.1755  152.6369 N   0  0  0  0  0  0  0  0  0  0  0  0
  143.8416  134.4614  151.4237 C   0  0  0  0  0  0  0  0  0  0  0  0
  143.9688  132.9377  151.3595 C   0  0  0  0  0  0  0  0  0  0  0  0
  144.4229  133.0450  149.8858 C   0  0  0  0  0  0  0  0  0  0  0  0
  145.5841  132.1234  149.4792 C   0  0  0  0  0  0  0  0  0  0  0  0
  146.6764  132.2613  150.3649 O   0  0  0  0  0  0  0  0  0  0  0  0
  143.2962  132.9317  148.8389 C   0  0  0  0  0  0  0  0  0  0  0  0
  143.4431  133.8941  147.8146 O   0  0  0  0  0  0  0  0  0  0  0  0
  144.8315  134.4875  150.2571 C   0  0  0  0  0  0  0  0  0  0  0  0
  147.0030  137.6447  156.8142 C   0  0  1  0  0  0  0  0  0  0  0  0
  147.4807  138.3405  155.5143 C   0  0  0  0  0  0  0  0  0  0  0  0
  147.6541  139.2015  158.1468 H   0  0  0  0  0  0  0  0  0  0  0  0
  147.8124  137.0077  157.1746 H   0  0  0  0  0  0  0  0  0  0  0  0
  148.1983  141.3367  152.7893 H   0  0  0  0  0  0  0  0  0  0  0  0
  148.8630  140.5436  154.2084 H   0  0  0  0  0  0  0  0  0  0  0  0
  147.6622  141.8209  154.3899 H   0  0  0  0  0  0  0  0  0  0  0  0
  145.9515  140.3128  153.2230 H   0  0  0  0  0  0  0  0  0  0  0  0
  147.1990  139.1034  153.0506 H   0  0  0  0  0  0  0  0  0  0  0  0
  147.1927  140.9523  156.2229 H   0  0  0  0  0  0  0  0  0  0  0  0
  145.5342  141.1196  155.6794 H   0  0  0  0  0  0  0  0  0  0  0  0
  145.6277  140.5801  158.1133 H   0  0  0  0  0  0  0  0  0  0  0  0
  144.7583  139.3857  157.1840 H   0  0  0  0  0  0  0  0  0  0  0  0
  144.8841  136.7880  159.8988 H   0  0  0  0  0  0  0  0  0  0  0  0
  144.2285  137.8437  158.6755 H   0  0  0  0  0  0  0  0  0  0  0  0
  146.1542  135.4941  158.2460 H   0  0  0  0  0  0  0  0  0  0  0  0
  144.4838  135.5852  157.7128 H   0  0  0  0  0  0  0  0  0  0  0  0
  147.8176  133.4873  154.5256 H   0  0  0  0  0  0  0  0  0  0  0  0
  142.4274  136.5288  152.7373 H   0  0  0  0  0  0  0  0  0  0  0  0
  142.8500  134.7803  151.0981 H   0  0  0  0  0  0  0  0  0  0  0  0
  144.7494  132.5582  152.0214 H   0  0  0  0  0  0  0  0  0  0  0  0
  143.0318  132.4034  151.5196 H   0  0  0  0  0  0  0  0  0  0  0  0
  145.2732  131.0784  149.4956 H   0  0  0  0  0  0  0  0  0  0  0  0
  145.9229  132.3244  148.4626 H   0  0  0  0  0  0  0  0  0  0  0  0
  147.3753  131.6977  150.0701 H   0  0  0  0  0  0  0  0  0  0  0  0
  143.2907  131.9477  148.3701 H   0  0  0  0  0  0  0  0  0  0  0  0
  142.3137  133.0533  149.2955 H   0  0  0  0  0  0  0  0  0  0  0  0
  144.3228  134.2377  147.8494 H   0  0  0  0  0  0  0  0  0  0  0  0
  144.6134  135.2364  149.4951 H   0  0  0  0  0  0  0  0  0  0  0  0
  145.8687  134.5601  150.5903 H   0  0  0  0  0  0  0  0  0  0  0  0
  147.6935  137.6034  154.7412 H   0  0  0  0  0  0  0  0  0  0  0  0
  148.4295  138.8451  155.7042 H   0  0  0  0  0  0  0  0  0  0  0  0
  145.6133  138.8654  154.9182 H   0  0  0  0  0  0  0  0  0  0  0  0
  1  2  1  0  0  0  0
  1 32  1  0  0  0  0
  1 33  1  0  0  0  0
  1 34  1  0  0  0  0
  2  3  1  0  0  0  0
  2 35  1  0  0  0  0
  2 36  1  0  0  0  0
  3 29  1  0  0  0  0
  3  4  1  0  0  0  0
  3 60  1  0  0  0  0
  4  5  1  0  0  0  0
  4 37  1  0  0  0  0
  4 38  1  0  0  0  0
  5  6  1  0  0  0  0
  5 39  1  0  0  0  0
  5 40  1  0  0  0  0
  6 30  1  0  0  0  0
  6 28  1  0  0  0  0
  6  7  1  0  0  0  0
  7  8  1  0  0  0  0
  8  9  1  0  0  0  0
  8 41  1  0  0  0  0
  8 42  1  0  0  0  0
  9 10  1  0  0  0  0
  9 43  1  0  0  0  0
  9 44  1  0  0  0  0
 10 11  1  0  0  0  0
 10 28  1  0  0  0  0
 11 16  1  0  0  0  0
 11 12  2  0  0  0  0
 12 13  1  0  0  0  0
 13 14  2  0  0  0  0
 13 45  1  0  0  0  0
 14 15  1  0  0  0  0
 15 19  1  0  0  0  0
 15 16  2  0  0  0  0
 16 17  1  0  0  0  0
 17 18  2  0  0  0  0
 18 19  1  0  0  0  0
 18 46  1  0  0  0  0
 19 20  1  0  0  0  0
 20 27  1  0  0  0  0
 20 21  1  0  0  0  0
 20 47  1  0  0  0  0
 21 22  1  0  0  0  0
 21 48  1  0  0  0  0
 21 49  1  0  0  0  0
 22 23  1  0  0  0  0
 22 25  1  0  0  0  0
 22 27  1  0  0  0  0
 23 24  1  0  0  0  0
 23 50  1  0  0  0  0
 23 51  1  0  0  0  0
 24 52  1  0  0  0  0
 25 26  1  0  0  0  0
 25 53  1  0  0  0  0
 25 54  1  0  0  0  0
 26 55  1  0  0  0  0
 27 56  1  0  0  0  0
 27 57  1  0  0  0  0
 28 31  1  0  0  0  0
 28 29  1  0  0  0  0
 29 58  1  0  0  0  0
 29 59  1  0  0  0  0
M  CHG  1   3   1
M  END
> <s_m_source_file>
AV-unprocessed.smi

> <i_m_source_file_index>
16

> <i_lp_mmshare_version>
43012

> <i_f3d_flags>
0

> <s_epik_input>
W0NIM11bQ0gyXU4oW0NIMl1bQ0gyXTEpW0NIMl1bQ0BASF0oW0NAQEhdMTIpTihbQ0gyXVtDSDJdTzIpYyhuW2NIXW4zKWMoYzM0KW5bY0hdbjRbQ0hdKFtDSDJdNSlbQ0gyXUM1KFtDSDJdW09IXSlbQ0gyXVtPSF0=

> <s_epik_cmdline>
J2VwaWtfcHl0aG9uJywgJy1waCcsICc3LjAnLCAnLXRuJywgJzgnLCAnLW1hJywgJzIwMCcsICctbWV0YWxfYmluZGluZycsICctaW1hZScsICc8aW5maWxlLm1hZT4nLCAnLW9tYWUnLCAnPG91dGZpbGUubWFlPic=

> <r_lp_tautomer_probability>
1

> <r_epik_Ionization_Penalty>
0.0135603

> <r_epik_Ionization_Penalty_Charging>
0.0131385

> <r_epik_Ionization_Penalty_Neutral>
0.000421734

> <r_epik_State_Penalty>
0.0102091

> <r_epik_Charging_Adjusted_Penalty>
0.0233476

> <i_epik_Tot_Q>
1

> <i_epik_Tot_abs_Q>
1

> <r_epik_Metal_State_Penalty>
0.0103746

> <b_epik_Metal_Only>
0

> <s_lp_Force_Field>
OPLS_2005

> <r_lp_Energy>
60.5416

> <b_lp_Chiralities_Consistent>
1

> <s_lp_Variant>
AV-unprocessed.smi:16-2

> <Gold.Version>
5.8.1

> <Gold.Id.Protein>
6NUR|6NUR_protein|mol2

> <Gold.PLP.Fitness>
40.8066

> <Gold.PLP.PLP>
-32.5367

> <Gold.PLP.part.hbond>
-5.9485

> <Gold.PLP.part.metal>
0.0000

> <Gold.PLP.part.buried>
-2.5190

> <Gold.PLP.part.nonpolar>
-24.5440

> <Gold.PLP.part.repulsive>
0.1619

> <Gold.PLP.ligand.clash>
0.0000

> <Gold.PLP.ligand.torsion>
1.1826

> <Gold.PLP.Chemscore.Hbond>
3.3162

> <Gold.PLP.Chemscore.CHOScore>
0.0000

> <Gold.PLP.Chemscore.Metal>
0.0000

> <Gold.Chemscore.Hbonds>
donor molecule, donor type, donor heavy atom, donor atom, acceptor molecule, acceptor atom, score
      L1  H    24    52       P1 10747  1.00
      L1  H    26    55       P1  7921  1.00
      P1  H  6934  6947       L1     7  0.33
      P1  H 10192 10197       L1    26  1.00

> <Gold.PLP.Chemscore.Internal.Correction>
0.6867

> <Gold.Rescore>
     Score         DG    S(hbond)    S(metal)    S(lipo)     H(rot)  DE(clash)    DE(int)     intcor
     13.55     -16.17       3.38        0.00      67.61       3.33       1.62       1.00       ----

> <Gold.Chemscore.Fitness>
13.5544

> <Gold.Chemscore.DG>
-16.1706

> <Gold.Chemscore.ZeroCoef>
-5.4800

> <Gold.Chemscore.Hbond>
3.3809

> <Gold.Chemscore.Metal>
0.0000

> <Gold.Chemscore.Lipo>
67.6112

> <Gold.Chemscore.Internal_Hbond>
0.0000

> <Gold.Chemscore.DEClash>
1.6178

> <Gold.Chemscore.DEInternal>
0.9985

> <Gold.Chemscore.Rot>
3.3251

> <Gold.Chemscore.Internal.Correction>
   9.000000E+99

> <Gold.Chemscore.Hbonds>
donor molecule, donor type, donor heavy atom, donor atom, acceptor molecule, acceptor atom, score
      L1  H    24    52       P1 10747  0.98
      L1  H    26    55       P1  7921  1.00
      P1  H  6934  6947       L1     7  0.25
      P1  H 10192 10197       L1    26  0.87

> <Gold.Chemscore.Hbond.Weighted>
-11.2923

> <Gold.Chemscore.Metal.Weighted>
-0.0000

> <Gold.Chemscore.Lipo.Weighted>
-7.9105

> <Gold.Chemscore.Internal_Hbond.Weighted>
0.0000

> <Gold.Chemscore.DEClash.Weighted>
1.6178

> <Gold.Chemscore.DEInternal.Weighted>
0.9985

> <Gold.Chemscore.Rot.Weighted>
8.5122

> <Gold.Chemscore.Internal.Correction.Weighted>
   9.000000E+99

> <Gold.Protein.RotatedTorsions>
[ 6907 6896 6895 6894 ] final   21.58 input  -60.11 | X-H torsion
[ 7974 7965 7964 7962 ] final  -90.62 input  175.53 | X-H torsion
[ 8008 7997 7996 7995 ] final -154.11 input   59.86 | X-H torsion
[ 10167 10162 10161 10158 ] final -145.97 input  -65.29 | X-H torsion
[ 10718 10713 10712 10709 ] final  -56.67 input   66.30 | X-H torsion
[ 10763 10752 10751 10750 ] final  -22.96 input  -60.55 | X-H torsion
[ 11005 11000 10999 10996 ] final  -14.46 input  -57.11 | X-H torsion

> <Gold.Protein.ActiveResidues>
 VAL166  LYS551  ARG553  GLY616  TRP617  ASP618  TYR619  PRO620  LYS621  CYS622 
 ASP623  PHE694  ASN695  SER759  ASP760  ASP761  ALA762  ILE779  LEU786  VAL792 
 PHE793  MET794  SER795  GLU796  ALA797  LYS798  CYS799  TRP800  GLU811  SER814 

> <Gold.Protein.RotatedAtoms>
  151.9139  135.0327  160.0516 H   0  0  0  0  0  0  0  0  0  0  0  0  # atno 6907 bound_to 6896
  152.2256  133.5013  159.5195 H   0  0  0  0  0  0  0  0  0  0  0  0  # atno 6908 bound_to 6896
  150.7011  134.1201  159.4074 H   0  0  0  0  0  0  0  0  0  0  0  0  # atno 6909 bound_to 6896
  145.4240  140.9552  143.2165 H   0  0  0  0  0  0  0  0  0  0  0  0  # atno 7974 bound_to 7965
  155.6812  140.0744  157.2484 H   0  0  0  0  0  0  0  0  0  0  0  0  # atno 8008 bound_to 7997
  154.4105  140.1681  156.2036 H   0  0  0  0  0  0  0  0  0  0  0  0  # atno 8009 bound_to 7997
  155.9533  140.3375  155.6429 H   0  0  0  0  0  0  0  0  0  0  0  0  # atno 8010 bound_to 7997
  139.7756  143.8174  152.2631 H   0  0  0  0  0  0  0  0  0  0  0  0  # atno 10167 bound_to 10162
  156.1270  130.4162  150.0337 H   0  0  0  0  0  0  0  0  0  0  0  0  # atno 10718 bound_to 10713
  153.6603  135.6977  153.5179 H   0  0  0  0  0  0  0  0  0  0  0  0  # atno 10763 bound_to 10752
  153.2637  135.4236  155.0918 H   0  0  0  0  0  0  0  0  0  0  0  0  # atno 10764 bound_to 10752
  154.8453  135.3561  154.6148 H   0  0  0  0  0  0  0  0  0  0  0  0  # atno 10765 bound_to 10752
  140.7866  133.8320  155.9341 H   0  0  0  0  0  0  0  0  0  0  0  0  # atno 11005 bound_to 11000
  144.8226  139.5765  143.6980 LP  0  0  0  0  0  0  0  0  0  0  0  0  # atno 17320 bound_to 7965
  146.2642  139.6480  142.9341 LP  0  0  0  0  0  0  0  0  0  0  0  0  # atno 17321 bound_to 7965
  139.8222  144.7291  150.9558 LP  0  0  0  0  0  0  0  0  0  0  0  0  # atno 17342 bound_to 10162
  140.7816  143.4148  151.0934 LP  0  0  0  0  0  0  0  0  0  0  0  0  # atno 17343 bound_to 10162
  156.8260  130.9375  151.3639 LP  0  0  0  0  0  0  0  0  0  0  0  0  # atno 17370 bound_to 10713
  157.6451  130.8837  149.9522 LP  0  0  0  0  0  0  0  0  0  0  0  0  # atno 17371 bound_to 10713
  140.9430  134.1876  157.4784 LP  0  0  0  0  0  0  0  0  0  0  0  0  # atno 17394 bound_to 11000
  139.8736  134.9879  156.5390 LP  0  0  0  0  0  0  0  0  0  0  0  0  # atno 17395 bound_to 11000

$$$$
