#       Name:                AV-unprocessed.smi:2132
#       Creating user name   scv26
#       Creation time:       Fri Mar 27 11:44:47 2020


#       File generated by GOLD software.
#

@<TRIPOS>MOLECULE
AV-unprocessed.smi:2132
    46    47     1
SMALL
NO_CHARGES


@<TRIPOS>ATOM
      1 ****        -4.1742   0.5338  -2.8341 C.3            1 S1                 0.0000
      2 ****        -2.8692   0.1095  -2.4830 O.3            1 S1                 0.0000
      3 ****        -2.8584  -1.1751  -1.8820 C.3            1 S1                 0.0000
      4 ****        -1.4160  -1.5471  -1.5123 C.3            1 S1                 0.0000
      5 ****        -0.8831  -0.6598  -0.4860 N.am           1 S1                 0.0000
      6 ****        -1.0643  -0.8053   0.8365 C.2            1 S1                 0.0000
      7 ****        -1.7332  -1.7118   1.3329 O.2            1 S1                 0.0000
      8 ****        -0.4612   0.2660   1.7082 C.ar           1 S1                 0.0000
      9 ****        -1.2338   0.7761   2.7760 C.ar           1 S1                 0.0000
     10 ****        -0.7035   1.7836   3.6006 C.ar           1 S1                 0.0000
     11 ****         0.5956   2.2461   3.3319 C.ar           1 S1                 0.0000
     12 ****         1.3576   1.7601   2.3319 N.ar           1 S1                 0.0000
     13 ****         0.8589   0.7835   1.5337 C.ar           1 S1                 0.0000
     14 ****         1.7316   0.2780   0.5492 N.3            1 S1                 0.0000
     15 ****         2.3576  -0.9893   0.9048 C.3            1 S1                 0.0000
     16 ****         3.0416  -1.5977  -0.3314 C.3            1 S1                 0.0000
     17 ****         3.9645  -0.6606  -0.8808 O.3            1 S1                 0.0000
     18 ****         3.3258   0.5452  -1.2922 C.3            1 S1                 0.0000
     19 ****         2.6574   1.2140  -0.0791 C.3            1 S1                 0.0000
     20 ****        -4.1268   1.5207  -3.2942 H              1 S1                 0.0000
     21 ****        -4.8159   0.6034  -1.9549 H              1 S1                 0.0000
     22 ****        -4.6327  -0.1498  -3.5496 H              1 S1                 0.0000
     23 ****        -3.4968  -1.1900  -0.9969 H              1 S1                 0.0000
     24 ****        -3.2571  -1.9099  -2.5830 H              1 S1                 0.0000
     25 ****        -1.3706  -2.5824  -1.1709 H              1 S1                 0.0000
     26 ****        -0.7761  -1.4846  -2.3927 H              1 S1                 0.0000
     27 ****        -0.3405   0.1300  -0.8046 H              1 S1                 0.0000
     28 ****        -2.2336   0.4096   2.9594 H              1 S1                 0.0000
     29 ****        -1.2798   2.1933   4.4167 H              1 S1                 0.0000
     30 ****         1.0380   3.0212   3.9398 H              1 S1                 0.0000
     31 ****         3.0921  -0.8157   1.6922 H              1 S1                 0.0000
     32 ****         1.6213  -1.6874   1.3035 H              1 S1                 0.0000
     33 ****         3.5779  -2.5057  -0.0557 H              1 S1                 0.0000
     34 ****         2.3027  -1.8792  -1.0835 H              1 S1                 0.0000
     35 ****         4.0700   1.2122  -1.7272 H              1 S1                 0.0000
     36 ****         2.5921   0.3324  -2.0718 H              1 S1                 0.0000
     37 ****         2.1231   2.1118  -0.3921 H              1 S1                 0.0000
     38 ****         3.4186   1.5196   0.6400 H              1 S1                 0.0000
     39 ****        -2.4804   0.7682  -1.8387 LP             1 S1                 0.0000
     40 ****        -2.3079   0.0812  -3.3101 LP             1 S1                 0.0000
     41 ****        -2.1750  -2.3878   0.7431 LP             1 S1                 0.0000
     42 ****        -1.8347  -1.7721   2.3259 LP             1 S1                 0.0000
     43 ****         2.2800   2.1155   2.1803 LP             1 S1                 0.0000
     44 ****         1.0874   0.0886  -0.1918 LP             1 S1                 0.0000
     45 ****         4.4112  -1.0752  -1.6736 LP             1 S1                 0.0000
     46 ****         4.6516  -0.4411  -0.1881 LP             1 S1                 0.0000
@<TRIPOS>BOND
    1    1    2 1     
    2    1   20 1     
    3    1   21 1     
    4    1   22 1     
    5    2    3 1     
    6    3    4 1     
    7    3   23 1     
    8    3   24 1     
    9    4    5 1     
   10    4   25 1     
   11    4   26 1     
   12    5    6 am    
   13    5   27 1     
   14    6    7 2     
   15    6    8 1     
   16    8   13 ar    
   17    8    9 ar    
   18    9   10 ar    
   19    9   28 1     
   20   10   11 ar    
   21   10   29 1     
   22   11   12 ar    
   23   11   30 1     
   24   12   13 ar    
   25   13   14 1     
   26   14   19 1     
   27   14   15 1     
   28   15   16 1     
   29   15   31 1     
   30   15   32 1     
   31   16   17 1     
   32   16   33 1     
   33   16   34 1     
   34   17   18 1     
   35   18   19 1     
   36   18   35 1     
   37   18   36 1     
   38   19   37 1     
   39   19   38 1     
   40    2   39 1     
   41    2   40 1     
   42    7   41 1     
   43    7   42 1     
   44   12   43 1     
   45   14   44 1     
   46   17   45 1     
   47   17   46 1     
@<TRIPOS>SUBSTRUCTURE
      1 S1             1
@<TRIPOS>SET
LONE_PAIRS      STATIC     ATOMS    <user>   **** ""
8 39 40 41 42 43 44 45 46
DONOR_HYDROGENS      STATIC     ATOMS    <user>   **** ""
1 27
ATOM$BLUE        STATIC     ATOMS    COLORGROUP SYSTEM
8 39 40 41 42 43 44 45 46
ATOM$RED        STATIC     ATOMS    COLORGROUP SYSTEM
1 27
