AV-unprocessed.smi:1782|AV-procd|sdf|7191|dock7
  -GOLD-   22720 8433D 1   1.00000     0.00000
 Structure written by MMmdl.
 42 44  0  0  0  0  0  0  0  0  2 V2000
  150.5343  139.7687  157.1707 O   0  0  0  0  0  0  0  0  0  0  0  0
  151.1164  140.3503  156.2544 C   0  0  0  0  0  0  0  0  0  0  0  0
  151.7094  141.7501  156.4674 C   0  0  0  0  0  0  0  0  0  0  0  0
  151.8517  142.1006  157.8912 N   0  0  0  0  0  0  0  0  0  0  0  0
  151.3907  143.3692  158.2864 C   0  0  0  0  0  0  0  0  0  0  0  0
  151.4808  143.7880  159.5558 C   0  0  0  0  0  0  0  0  0  0  0  0
  152.0722  142.9004  160.5271 C   0  0  0  0  0  0  0  0  0  0  0  0
  152.5241  141.6738  160.1773 C   0  0  0  0  0  0  0  0  0  0  0  0
  153.1639  140.7268  161.1901 C   0  0  0  0  0  0  0  0  0  0  0  0
  152.5531  139.5415  161.1705 F   0  0  0  0  0  0  0  0  0  0  0  0
  154.4532  140.5356  160.9074 F   0  0  0  0  0  0  0  0  0  0  0  0
  153.0868  141.2052  162.4329 F   0  0  0  0  0  0  0  0  0  0  0  0
  152.4163  141.2204  158.7755 C   0  0  0  0  0  0  0  0  0  0  0  0
  152.8108  140.1120  158.4079 O   0  0  0  0  0  0  0  0  0  0  0  0
  151.2843  139.8136  155.0367 N   0  0  0  0  0  0  0  0  0  0  0  0
  150.7724  138.5100  154.6293 C   0  0  1  0  0  0  0  0  0  0  0  0
  151.2209  137.3488  155.5223 C   0  0  0  0  0  0  0  0  0  0  0  0
  150.0626  136.3389  155.4586 C   0  0  0  0  0  0  0  0  0  0  0  0
  148.9614  136.9964  154.7172 N   0  3  1  0  0  0  0  0  0  0  0  0
  147.6089  136.6464  155.1998 C   0  0  0  0  0  0  0  0  0  0  0  0
  147.1230  135.3035  154.7094 C   0  0  0  0  0  0  0  0  0  0  0  0
  146.5750  136.5768  154.1019 C   0  0  0  0  0  0  0  0  0  0  0  0
  149.2516  138.4405  154.7283 C   0  0  0  0  0  0  0  0  0  0  0  0
  152.6741  141.7889  155.9597 H   0  0  0  0  0  0  0  0  0  0  0  0
  151.0913  142.4948  155.9618 H   0  0  0  0  0  0  0  0  0  0  0  0
  150.9686  143.9755  157.4980 H   0  0  0  0  0  0  0  0  0  0  0  0
  151.1246  144.7664  159.8430 H   0  0  0  0  0  0  0  0  0  0  0  0
  152.1517  143.2392  161.5492 H   0  0  0  0  0  0  0  0  0  0  0  0
  151.7816  140.3537  154.3428 H   0  0  0  0  0  0  0  0  0  0  0  0
  151.0646  138.3069  153.5967 H   0  0  0  0  0  0  0  0  0  0  0  0
  152.1673  136.9186  155.1930 H   0  0  0  0  0  0  0  0  0  0  0  0
  151.3530  137.6868  156.5514 H   0  0  0  0  0  0  0  0  0  0  0  0
  150.3532  135.4242  154.9411 H   0  0  0  0  0  0  0  0  0  0  0  0
  149.7501  136.0644  156.4674 H   0  0  0  0  0  0  0  0  0  0  0  0
  147.3391  137.0020  156.1929 H   0  0  0  0  0  0  0  0  0  0  0  0
  147.7958  134.7035  154.0990 H   0  0  0  0  0  0  0  0  0  0  0  0
  146.4619  134.7390  155.3640 H   0  0  0  0  0  0  0  0  0  0  0  0
  145.5528  136.8501  154.3565 H   0  0  0  0  0  0  0  0  0  0  0  0
  146.8828  136.8227  153.0870 H   0  0  0  0  0  0  0  0  0  0  0  0
  148.9071  138.8785  155.6675 H   0  0  0  0  0  0  0  0  0  0  0  0
  148.7533  138.9563  153.9067 H   0  0  0  0  0  0  0  0  0  0  0  0
  149.0380  136.6940  153.7565 H   0  0  0  0  0  0  0  0  0  0  0  0
  1  2  2  0  0  0  0
  2  3  1  0  0  0  0
  2 15  1  0  0  0  0
  3  4  1  0  0  0  0
  3 24  1  0  0  0  0
  3 25  1  0  0  0  0
  4 13  1  0  0  0  0
  4  5  1  0  0  0  0
  5  6  2  0  0  0  0
  5 26  1  0  0  0  0
  6  7  1  0  0  0  0
  6 27  1  0  0  0  0
  7  8  2  0  0  0  0
  7 28  1  0  0  0  0
  8  9  1  0  0  0  0
  8 13  1  0  0  0  0
  9 10  1  0  0  0  0
  9 11  1  0  0  0  0
  9 12  1  0  0  0  0
 13 14  2  0  0  0  0
 15 16  1  0  0  0  0
 15 29  1  0  0  0  0
 16 23  1  0  0  0  0
 16 17  1  0  0  0  0
 16 30  1  0  0  0  0
 17 18  1  0  0  0  0
 17 31  1  0  0  0  0
 17 32  1  0  0  0  0
 18 19  1  0  0  0  0
 18 33  1  0  0  0  0
 18 34  1  0  0  0  0
 19 20  1  0  0  0  0
 19 23  1  0  0  0  0
 19 42  1  0  0  0  0
 20 22  1  0  0  0  0
 20 21  1  0  0  0  0
 20 35  1  0  0  0  0
 21 22  1  0  0  0  0
 21 36  1  0  0  0  0
 21 37  1  0  0  0  0
 22 38  1  0  0  0  0
 22 39  1  0  0  0  0
 23 40  1  0  0  0  0
 23 41  1  0  0  0  0
M  CHG  1  19   1
M  END
> <s_m_source_file>
AV-unprocessed.smi

> <i_m_source_file_index>
1782

> <i_lp_mmshare_version>
43012

> <i_f3d_flags>
0

> <s_epik_input>
W0NIMl0xW0NIMl1bQ0hdMU4oW0NIMl0yKVtDSDJdW0NIMl1bQ0BIXTJbTkhdQyg9TylbQ0gyXW4zW2NIXVtjSF1bY0hdYyhDKEYpKEYpRiljMz1P

> <s_epik_cmdline>
J2VwaWtfcHl0aG9uJywgJy1waCcsICc3LjAnLCAnLXRuJywgJzgnLCAnLW1hJywgJzIwMCcsICctbWV0YWxfYmluZGluZycsICctaW1hZScsICc8aW5maWxlLm1hZT4nLCAnLW9tYWUnLCAnPG91dGZpbGUubWFlPic=

> <r_lp_tautomer_probability>
1

> <r_epik_Ionization_Penalty>
0.00106789

> <r_epik_Ionization_Penalty_Charging>
0.00106781

> <r_epik_Ionization_Penalty_Neutral>
8.2288e-08

> <r_epik_State_Penalty>
0.000699156

> <r_epik_Charging_Adjusted_Penalty>
0.00176697

> <i_epik_Tot_Q>
1

> <i_epik_Tot_abs_Q>
1

> <r_epik_Metal_State_Penalty>
-0

> <b_epik_Metal_Only>
0

> <s_lp_Force_Field>
OPLS_2005

> <r_lp_Energy>
45.6714

> <b_lp_Chiralities_Consistent>
1

> <s_lp_Variant>
AV-unprocessed.smi:1782-4

> <Gold.Version>
5.8.1

> <Gold.Id.Protein>
6NUR|6NUR_protein|mol2

> <Gold.PLP.Fitness>
49.1058

> <Gold.PLP.PLP>
-38.3467

> <Gold.PLP.part.hbond>
-2.0000

> <Gold.PLP.part.metal>
0.0000

> <Gold.PLP.part.buried>
-4.0681

> <Gold.PLP.part.nonpolar>
-32.8904

> <Gold.PLP.part.repulsive>
2.0381

> <Gold.PLP.ligand.clash>
0.1830

> <Gold.PLP.ligand.torsion>
1.1206

> <Gold.PLP.Chemscore.Hbond>
2.8640

> <Gold.PLP.Chemscore.CHOScore>
1.0000

> <Gold.PLP.Chemscore.Metal>
0.0000

> <Gold.Chemscore.Hbonds>
donor molecule, donor type, donor heavy atom, donor atom, acceptor molecule, acceptor atom, score
      L1  H    19    42       P1  7948  2.00
      P1  H  7997  8010       L1    14  0.37
      L1  C     5    26       P1  8028  0.20

> <Gold.PLP.Chemscore.Internal.Correction>
1.5912

> <Gold.Rescore>
     Score         DG    S(hbond)    S(metal)    S(lipo)     H(rot)  DE(clash)    DE(int)     intcor
      6.11     -16.67       1.79        0.00      84.27       1.81       1.49       9.07       ----

> <Gold.Chemscore.Fitness>
6.1077

> <Gold.Chemscore.DG>
-16.6700

> <Gold.Chemscore.ZeroCoef>
-5.4800

> <Gold.Chemscore.Hbond>
1.7858

> <Gold.Chemscore.Metal>
0.0000

> <Gold.Chemscore.Lipo>
84.2657

> <Gold.Chemscore.Internal_Hbond>
0.0000

> <Gold.Chemscore.DEClash>
1.4894

> <Gold.Chemscore.DEInternal>
9.0729

> <Gold.Chemscore.Rot>
1.8101

> <Gold.Chemscore.Internal.Correction>
   9.000000E+99

> <Gold.Chemscore.Hbonds>
donor molecule, donor type, donor heavy atom, donor atom, acceptor molecule, acceptor atom, score
      L1  H    19    42       P1  7948  0.99
      P1  H  7997  8010       L1    14  0.34

> <Gold.Chemscore.Hbond.Weighted>
-5.9647

> <Gold.Chemscore.Metal.Weighted>
-0.0000

> <Gold.Chemscore.Lipo.Weighted>
-9.8591

> <Gold.Chemscore.Internal_Hbond.Weighted>
0.0000

> <Gold.Chemscore.DEClash.Weighted>
1.4894

> <Gold.Chemscore.DEInternal.Weighted>
9.0729

> <Gold.Chemscore.Rot.Weighted>
4.6338

> <Gold.Chemscore.Internal.Correction.Weighted>
   9.000000E+99

> <Gold.Protein.RotatedTorsions>
[ 6907 6896 6895 6894 ] final    3.61 input  -60.11 | X-H torsion
[ 7974 7965 7964 7962 ] final  173.44 input  175.53 | X-H torsion
[ 8008 7997 7996 7995 ] final   48.22 input   59.86 | X-H torsion
[ 10167 10162 10161 10158 ] final   -6.10 input  -65.29 | X-H torsion
[ 10718 10713 10712 10709 ] final  -51.14 input   66.30 | X-H torsion
[ 10763 10752 10751 10750 ] final  139.83 input  -60.55 | X-H torsion
[ 11005 11000 10999 10996 ] final -157.40 input  -57.11 | X-H torsion

> <Gold.Protein.ActiveResidues>
 VAL166  LYS551  ARG553  GLY616  TRP617  ASP618  TYR619  PRO620  LYS621  CYS622 
 ASP623  PHE694  ASN695  SER759  ASP760  ASP761  ALA762  ILE779  LEU786  VAL792 
 PHE793  MET794  SER795  GLU796  ALA797  LYS798  CYS799  TRP800  GLU811  SER814 

> <Gold.Protein.RotatedAtoms>
  151.6279  135.1026  160.0115 H   0  0  0  0  0  0  0  0  0  0  0  0  # atno 6907 bound_to 6896
  152.4123  133.6978  159.6417 H   0  0  0  0  0  0  0  0  0  0  0  0  # atno 6908 bound_to 6896
  150.8012  133.8520  159.3249 H   0  0  0  0  0  0  0  0  0  0  0  0  # atno 6909 bound_to 6896
  144.7244  139.9648  143.6435 H   0  0  0  0  0  0  0  0  0  0  0  0  # atno 7974 bound_to 7965
  155.3821  140.3429  155.4247 H   0  0  0  0  0  0  0  0  0  0  0  0  # atno 8008 bound_to 7997
  156.1605  140.1599  156.8654 H   0  0  0  0  0  0  0  0  0  0  0  0  # atno 8009 bound_to 7997
  154.5135  140.0784  156.8017 H   0  0  0  0  0  0  0  0  0  0  0  0  # atno 8010 bound_to 7997
  140.6986  143.6232  150.8593 H   0  0  0  0  0  0  0  0  0  0  0  0  # atno 10167 bound_to 10162
  156.1736  130.4149  149.9610 H   0  0  0  0  0  0  0  0  0  0  0  0  # atno 10718 bound_to 10713
  153.9126  135.3009  155.3448 H   0  0  0  0  0  0  0  0  0  0  0  0  # atno 10763 bound_to 10752
  154.7616  135.4931  153.9477 H   0  0  0  0  0  0  0  0  0  0  0  0  # atno 10764 bound_to 10752
  153.1184  135.6776  153.9479 H   0  0  0  0  0  0  0  0  0  0  0  0  # atno 10765 bound_to 10752
  140.6650  134.4309  157.5233 H   0  0  0  0  0  0  0  0  0  0  0  0  # atno 11005 bound_to 11000
  146.0609  139.3603  143.0582 LP  0  0  0  0  0  0  0  0  0  0  0  0  # atno 17320 bound_to 7965
  145.8093  140.9733  143.0957 LP  0  0  0  0  0  0  0  0  0  0  0  0  # atno 17321 bound_to 7965
  139.9952  143.5803  152.2896 LP  0  0  0  0  0  0  0  0  0  0  0  0  # atno 17342 bound_to 10162
  139.6473  144.7659  151.2218 LP  0  0  0  0  0  0  0  0  0  0  0  0  # atno 17343 bound_to 10162
  156.7402  130.9076  151.3631 LP  0  0  0  0  0  0  0  0  0  0  0  0  # atno 17370 bound_to 10713
  157.6820  130.9149  150.0291 LP  0  0  0  0  0  0  0  0  0  0  0  0  # atno 17371 bound_to 10713
  139.9000  134.8578  156.1936 LP  0  0  0  0  0  0  0  0  0  0  0  0  # atno 17394 bound_to 11000
  141.0436  133.6925  156.1643 LP  0  0  0  0  0  0  0  0  0  0  0  0  # atno 17395 bound_to 11000

$$$$
