AV-unprocessed.smi:28|AV-procd|sdf|190|dock9
  -GOLD-   2262015453D 1   1.00000     0.00000
 Structure written by MMmdl.
 41 44  0  0  0  0  0  0  0  0  1 V2000
  156.3800  143.4179  164.7153 O   0  0  0  0  0  0  0  0  0  0  0  0
  156.2088  142.9079  165.8236 C   0  0  0  0  0  0  0  0  0  0  0  0
  155.6871  143.6430  166.9709 C   0  0  0  0  0  0  0  0  0  0  0  0
  155.3563  144.9384  166.8351 F   0  0  0  0  0  0  0  0  0  0  0  0
  155.5375  143.0462  168.1731 C   0  0  0  0  0  0  0  0  0  0  0  0
  155.8598  141.7188  168.4034 N   0  0  0  0  0  0  0  0  0  0  0  0
  155.7030  141.0886  169.7712 C   0  0  1  0  0  0  0  0  0  0  0  0
  157.0454  140.5282  170.2531 C   0  0  0  0  0  0  0  0  0  0  0  0
  157.6227  141.7139  170.9946 C   0  0  0  0  0  0  0  0  0  0  0  0
  156.3717  142.3324  171.6104 C   0  0  0  0  0  0  0  0  0  0  0  0
  155.3131  142.0682  170.6905 O   0  0  0  0  0  0  0  0  0  0  0  0
  156.3737  140.9311  167.3504 C   0  0  0  0  0  0  0  0  0  0  0  0
  156.6931  139.7549  167.5407 O   0  0  0  0  0  0  0  0  0  0  0  0
  156.5213  141.5512  166.0870 N   0  0  0  0  0  0  0  0  0  0  0  0
  157.1008  140.7643  165.0111 C   0  0  0  0  0  0  0  0  0  0  0  0
  156.0691  140.4822  163.9643 C   0  0  0  0  0  0  0  0  0  0  0  0
  155.6701  139.2907  163.5165 N   0  0  0  0  0  0  0  0  0  0  0  0
  154.6868  139.5513  162.5898 N   0  0  0  0  0  0  0  0  0  0  0  0
  154.5720  140.8825  162.5320 C   0  0  0  0  0  0  0  0  0  0  0  0
  153.6567  141.6971  161.7366 C   0  0  0  0  0  0  0  0  0  0  0  0
  153.1582  142.8937  162.2998 C   0  0  0  0  0  0  0  0  0  0  0  0
  152.2759  143.7157  161.5738 C   0  0  0  0  0  0  0  0  0  0  0  0
  151.8870  143.3508  160.2724 C   0  0  0  0  0  0  0  0  0  0  0  0
  152.3868  142.1674  159.6980 C   0  0  0  0  0  0  0  0  0  0  0  0
  153.2727  141.3403  160.4180 C   0  0  0  0  0  0  0  0  0  0  0  0
  153.9409  139.7775  159.5516 Br  0  0  0  0  0  0  0  0  0  0  0  0
  155.4171  141.5221  163.3842 O   0  0  0  0  0  0  0  0  0  0  0  0
  155.1545  143.6491  168.9826 H   0  0  0  0  0  0  0  0  0  0  0  0
  154.9159  140.3400  169.6674 H   0  0  0  0  0  0  0  0  0  0  0  0
  156.8518  139.7037  170.9403 H   0  0  0  0  0  0  0  0  0  0  0  0
  157.6689  140.1674  169.4344 H   0  0  0  0  0  0  0  0  0  0  0  0
  158.3701  141.4337  171.7372 H   0  0  0  0  0  0  0  0  0  0  0  0
  158.0840  142.4096  170.2924 H   0  0  0  0  0  0  0  0  0  0  0  0
  156.1370  141.8460  172.5581 H   0  0  0  0  0  0  0  0  0  0  0  0
  156.4814  143.4010  171.7962 H   0  0  0  0  0  0  0  0  0  0  0  0
  157.9474  141.3134  164.5956 H   0  0  0  0  0  0  0  0  0  0  0  0
  157.5071  139.8397  165.4231 H   0  0  0  0  0  0  0  0  0  0  0  0
  153.4456  143.1852  163.2997 H   0  0  0  0  0  0  0  0  0  0  0  0
  151.8977  144.6257  162.0158 H   0  0  0  0  0  0  0  0  0  0  0  0
  151.2110  143.9805  159.7129 H   0  0  0  0  0  0  0  0  0  0  0  0
  152.0939  141.8957  158.6946 H   0  0  0  0  0  0  0  0  0  0  0  0
  1  2  2  0  0  0  0
  2 14  1  0  0  0  0
  2  3  1  0  0  0  0
  3  4  1  0  0  0  0
  3  5  2  0  0  0  0
  5  6  1  0  0  0  0
  5 28  1  0  0  0  0
  6  7  1  0  0  0  0
  6 12  1  0  0  0  0
  7 11  1  0  0  0  0
  7  8  1  0  0  0  0
  7 29  1  0  0  0  0
  8  9  1  0  0  0  0
  8 30  1  0  0  0  0
  8 31  1  0  0  0  0
  9 10  1  0  0  0  0
  9 32  1  0  0  0  0
  9 33  1  0  0  0  0
 10 11  1  0  0  0  0
 10 34  1  0  0  0  0
 10 35  1  0  0  0  0
 12 13  2  0  0  0  0
 12 14  1  0  0  0  0
 14 15  1  0  0  0  0
 15 16  1  0  0  0  0
 15 36  1  0  0  0  0
 15 37  1  0  0  0  0
 16 27  1  0  0  0  0
 16 17  2  0  0  0  0
 17 18  1  0  0  0  0
 18 19  2  0  0  0  0
 19 20  1  0  0  0  0
 19 27  1  0  0  0  0
 20 25  1  0  0  0  0
 20 21  2  0  0  0  0
 21 22  1  0  0  0  0
 21 38  1  0  0  0  0
 22 23  2  0  0  0  0
 22 39  1  0  0  0  0
 23 24  1  0  0  0  0
 23 40  1  0  0  0  0
 24 25  2  0  0  0  0
 24 41  1  0  0  0  0
 25 26  1  0  0  0  0
M  END
> <s_m_source_file>
AV-unprocessed.smi

> <i_m_source_file_index>
28

> <i_lp_mmshare_version>
43012

> <i_f3d_flags>
0

> <s_epik_input>
TzFbQ0gyXVtDSDJdW0NIMl1bQ0BIXTFuKFtjSF1jKEYpYzI9TyljKD1PKW4yW0NIMl1jM25uYyhvMyktYzRbY0hdW2NIXVtjSF1bY0hdYzRCcg==

> <s_epik_cmdline>
J2VwaWtfcHl0aG9uJywgJy1waCcsICc3LjAnLCAnLXRuJywgJzgnLCAnLW1hJywgJzIwMCcsICctbWV0YWxfYmluZGluZycsICctaW1hZScsICc8aW5maWxlLm1hZT4nLCAnLW9tYWUnLCAnPG91dGZpbGUubWFlPic=

> <r_lp_tautomer_probability>
1

> <r_epik_Ionization_Penalty>
2.5628e-09

> <r_epik_Ionization_Penalty_Charging>
2.54231e-09

> <r_epik_Ionization_Penalty_Neutral>
2.0492e-11

> <r_epik_State_Penalty>
-0

> <r_epik_Charging_Adjusted_Penalty>
2.54231e-09

> <i_epik_Tot_Q>
0

> <i_epik_Tot_abs_Q>
0

> <r_epik_Metal_State_Penalty>
-0

> <b_epik_Metal_Only>
0

> <s_epik_Chemistry_Notes>
This compound contains an acetal/aminal-like group ( X-CH(R)-Y where X, Y are N, S, or O) that may be acid/base labile, releasing an aldehyde.

> <s_lp_Force_Field>
OPLS_2005

> <r_lp_Energy>
35.5142

> <b_lp_Chiralities_Consistent>
1

> <s_lp_Variant>
AV-unprocessed.smi:28-2

> <Gold.Version>
5.8.1

> <Gold.Id.Protein>
6NUR|6NUR_protein|mol2

> <Gold.PLP.Fitness>
51.4114

> <Gold.PLP.PLP>
-52.6492

> <Gold.PLP.part.hbond>
-2.7236

> <Gold.PLP.part.metal>
0.0000

> <Gold.PLP.part.buried>
-5.1730

> <Gold.PLP.part.nonpolar>
-43.3931

> <Gold.PLP.part.repulsive>
0.3193

> <Gold.PLP.ligand.clash>
0.0000

> <Gold.PLP.ligand.torsion>
0.6326

> <Gold.PLP.Chemscore.Hbond>
0.0000

> <Gold.PLP.Chemscore.CHOScore>
0.0000

> <Gold.PLP.Chemscore.Metal>
0.0000

> <Gold.PLP.Chemscore.Internal.Correction>
0.0274

> <Gold.Rescore>
     Score         DG    S(hbond)    S(metal)    S(lipo)     H(rot)  DE(clash)    DE(int)     intcor
      6.58     -13.39       0.00        0.00     104.79       1.70       2.12       4.70       ----

> <Gold.Chemscore.Fitness>
6.5754

> <Gold.Chemscore.DG>
-13.3941

> <Gold.Chemscore.ZeroCoef>
-5.4800

> <Gold.Chemscore.Hbond>
0.0000

> <Gold.Chemscore.Metal>
0.0000

> <Gold.Chemscore.Lipo>
104.7949

> <Gold.Chemscore.Internal_Hbond>
0.0000

> <Gold.Chemscore.DEClash>
2.1219

> <Gold.Chemscore.DEInternal>
4.6969

> <Gold.Chemscore.Rot>
1.6980

> <Gold.Chemscore.Internal.Correction>
   9.000000E+99

> <Gold.Chemscore.Hbond.Weighted>
-0.0000

> <Gold.Chemscore.Metal.Weighted>
-0.0000

> <Gold.Chemscore.Lipo.Weighted>
-12.2610

> <Gold.Chemscore.Internal_Hbond.Weighted>
0.0000

> <Gold.Chemscore.DEClash.Weighted>
2.1219

> <Gold.Chemscore.DEInternal.Weighted>
4.6969

> <Gold.Chemscore.Rot.Weighted>
4.3469

> <Gold.Chemscore.Internal.Correction.Weighted>
   9.000000E+99

> <Gold.Protein.RotatedTorsions>
[ 6907 6896 6895 6894 ] final  -39.32 input  -60.11 | X-H torsion
[ 7974 7965 7964 7962 ] final  -68.05 input  175.53 | X-H torsion
[ 8008 7997 7996 7995 ] final   81.72 input   59.86 | X-H torsion
[ 10167 10162 10161 10158 ] final  -76.32 input  -65.29 | X-H torsion
[ 10718 10713 10712 10709 ] final  122.24 input   66.30 | X-H torsion
[ 10763 10752 10751 10750 ] final -178.23 input  -60.55 | X-H torsion
[ 11005 11000 10999 10996 ] final -159.58 input  -57.11 | X-H torsion

> <Gold.Protein.ActiveResidues>
 VAL166  LYS551  ARG553  GLY616  TRP617  ASP618  TYR619  PRO620  LYS621  CYS622 
 ASP623  PHE694  ASN695  SER759  ASP760  ASP761  ALA762  ILE779  LEU786  VAL792 
 PHE793  MET794  SER795  GLU796  ALA797  LYS798  CYS799  TRP800  GLU811  SER814 

> <Gold.Protein.RotatedAtoms>
  150.9918  134.9251  159.7903 H   0  0  0  0  0  0  0  0  0  0  0  0  # atno 6907 bound_to 6896
  152.5253  134.3272  159.9179 H   0  0  0  0  0  0  0  0  0  0  0  0  # atno 6908 bound_to 6896
  151.3278  133.3972  159.2694 H   0  0  0  0  0  0  0  0  0  0  0  0  # atno 6909 bound_to 6896
  145.7215  140.9036  143.0628 H   0  0  0  0  0  0  0  0  0  0  0  0  # atno 7974 bound_to 7965
  155.9010  140.3433  155.6026 H   0  0  0  0  0  0  0  0  0  0  0  0  # atno 8008 bound_to 7997
  155.7500  140.0819  157.2224 H   0  0  0  0  0  0  0  0  0  0  0  0  # atno 8009 bound_to 7997
  154.4044  140.1555  156.2700 H   0  0  0  0  0  0  0  0  0  0  0  0  # atno 8010 bound_to 7997
  140.4867  143.2389  151.7972 H   0  0  0  0  0  0  0  0  0  0  0  0  # atno 10167 bound_to 10162
  157.5757  131.1079  150.8283 H   0  0  0  0  0  0  0  0  0  0  0  0  # atno 10718 bound_to 10713
  154.5503  135.2812  155.1015 H   0  0  0  0  0  0  0  0  0  0  0  0  # atno 10763 bound_to 10752
  154.2463  135.6347  153.5228 H   0  0  0  0  0  0  0  0  0  0  0  0  # atno 10764 bound_to 10752
  153.0001  135.5572  154.6067 H   0  0  0  0  0  0  0  0  0  0  0  0  # atno 10765 bound_to 10752
  140.6410  134.4551  157.5233 H   0  0  0  0  0  0  0  0  0  0  0  0  # atno 11005 bound_to 11000
  144.6915  139.9208  143.7468 LP  0  0  0  0  0  0  0  0  0  0  0  0  # atno 17320 bound_to 7965
  146.0622  139.3614  143.0574 LP  0  0  0  0  0  0  0  0  0  0  0  0  # atno 17321 bound_to 7965
  139.4843  144.4703  151.9434 LP  0  0  0  0  0  0  0  0  0  0  0  0  # atno 17342 bound_to 10162
  140.3789  144.2762  150.5911 LP  0  0  0  0  0  0  0  0  0  0  0  0  # atno 17343 bound_to 10162
  156.8742  130.5157  149.5295 LP  0  0  0  0  0  0  0  0  0  0  0  0  # atno 17370 bound_to 10713
  156.0802  130.5814  150.9549 LP  0  0  0  0  0  0  0  0  0  0  0  0  # atno 17371 bound_to 10713
  139.9080  134.8406  156.1632 LP  0  0  0  0  0  0  0  0  0  0  0  0  # atno 17394 bound_to 11000
  141.0607  133.6843  156.1946 LP  0  0  0  0  0  0  0  0  0  0  0  0  # atno 17395 bound_to 11000

$$$$
