AV-unprocessed.smi:1856|AV-procd|sdf|7534|dock1
  -GOLD-   22720 9243D 1   1.00000     0.00000
 Structure written by MMmdl.
 44 45  0  0  0  0  0  0  0  0  1 V2000
  157.4918  136.5961  156.6063 C   0  0  0  0  0  0  0  0  0  0  0  0
  156.0530  137.1081  156.4773 C   0  0  0  0  0  0  0  0  0  0  0  0
  155.1468  136.6071  157.6161 C   0  0  0  0  0  0  0  0  0  0  0  0
  153.6742  136.9761  157.4142 C   0  0  0  0  0  0  0  0  0  0  0  0
  152.9182  136.2182  156.8062 O   0  0  0  0  0  0  0  0  0  0  0  0
  153.2835  138.1568  157.9199 N   0  0  0  0  0  0  0  0  0  0  0  0
  151.9373  138.7194  157.8216 C   0  0  1  0  0  0  0  0  0  0  0  0
  150.9722  137.9302  158.7153 C   0  0  0  0  0  0  0  0  0  0  0  0
  151.9847  140.1797  158.2000 C   0  0  0  0  0  0  0  0  0  0  0  0
  152.3763  140.5875  159.4107 N   0  0  0  0  0  0  0  0  0  0  0  0
  152.2555  141.9594  159.3288 C   0  0  0  0  0  0  0  0  0  0  0  0
  152.5259  142.9628  160.2864 C   0  0  0  0  0  0  0  0  0  0  0  0
  152.3223  144.3222  159.9726 C   0  0  0  0  0  0  0  0  0  0  0  0
  151.8458  144.6965  158.6996 C   0  0  0  0  0  0  0  0  0  0  0  0
  151.5686  143.7119  157.7318 C   0  0  0  0  0  0  0  0  0  0  0  0
  151.7741  142.3556  158.0498 C   0  0  0  0  0  0  0  0  0  0  0  0
  151.6054  141.1659  157.3460 N   0  0  0  0  0  0  0  0  0  0  0  0
  151.1112  141.0432  155.9802 C   0  0  0  0  0  0  0  0  0  0  0  0
  149.5748  141.1408  155.8746 C   0  0  2  0  0  0  0  0  0  0  0  0
  149.0447  141.2344  154.4355 C   0  0  0  0  0  0  0  0  0  0  0  0
  149.1524  142.2849  156.5852 O   0  0  0  0  0  0  0  0  0  0  0  0
  158.1087  136.9624  155.7855 H   0  0  0  0  0  0  0  0  0  0  0  0
  157.5262  135.5065  156.5874 H   0  0  0  0  0  0  0  0  0  0  0  0
  157.9466  136.9309  157.5390 H   0  0  0  0  0  0  0  0  0  0  0  0
  156.0673  138.1989  156.4623 H   0  0  0  0  0  0  0  0  0  0  0  0
  155.6467  136.7909  155.5160 H   0  0  0  0  0  0  0  0  0  0  0  0
  155.2401  135.5237  157.7065 H   0  0  0  0  0  0  0  0  0  0  0  0
  155.4759  137.0287  158.5666 H   0  0  0  0  0  0  0  0  0  0  0  0
  153.9754  138.7203  158.3925 H   0  0  0  0  0  0  0  0  0  0  0  0
  151.6029  138.6084  156.7910 H   0  0  0  0  0  0  0  0  0  0  0  0
  149.9595  138.3268  158.6387 H   0  0  0  0  0  0  0  0  0  0  0  0
  151.2697  137.9789  159.7635 H   0  0  0  0  0  0  0  0  0  0  0  0
  150.9384  136.8795  158.4260 H   0  0  0  0  0  0  0  0  0  0  0  0
  152.8910  142.6854  161.2641 H   0  0  0  0  0  0  0  0  0  0  0  0
  152.5331  145.0810  160.7118 H   0  0  0  0  0  0  0  0  0  0  0  0
  151.6936  145.7402  158.4664 H   0  0  0  0  0  0  0  0  0  0  0  0
  151.2054  143.9972  156.7560 H   0  0  0  0  0  0  0  0  0  0  0  0
  151.5894  141.8026  155.3605 H   0  0  0  0  0  0  0  0  0  0  0  0
  151.4477  140.0848  155.5830 H   0  0  0  0  0  0  0  0  0  0  0  0
  149.1198  140.2765  156.3562 H   0  0  0  0  0  0  0  0  0  0  0  0
  149.2766  140.3334  153.8668 H   0  0  0  0  0  0  0  0  0  0  0  0
  149.4782  142.0847  153.9080 H   0  0  0  0  0  0  0  0  0  0  0  0
  147.9609  141.3521  154.4239 H   0  0  0  0  0  0  0  0  0  0  0  0
  149.0719  143.0031  155.9759 H   0  0  0  0  0  0  0  0  0  0  0  0
  1  2  1  0  0  0  0
  1 22  1  0  0  0  0
  1 23  1  0  0  0  0
  1 24  1  0  0  0  0
  2  3  1  0  0  0  0
  2 25  1  0  0  0  0
  2 26  1  0  0  0  0
  3  4  1  0  0  0  0
  3 27  1  0  0  0  0
  3 28  1  0  0  0  0
  4  5  2  0  0  0  0
  4  6  1  0  0  0  0
  6  7  1  0  0  0  0
  6 29  1  0  0  0  0
  7  8  1  0  0  0  0
  7  9  1  0  0  0  0
  7 30  1  0  0  0  0
  8 31  1  0  0  0  0
  8 32  1  0  0  0  0
  8 33  1  0  0  0  0
  9 17  1  0  0  0  0
  9 10  2  0  0  0  0
 10 11  1  0  0  0  0
 11 16  2  0  0  0  0
 11 12  1  0  0  0  0
 12 13  2  0  0  0  0
 12 34  1  0  0  0  0
 13 14  1  0  0  0  0
 13 35  1  0  0  0  0
 14 15  2  0  0  0  0
 14 36  1  0  0  0  0
 15 16  1  0  0  0  0
 15 37  1  0  0  0  0
 16 17  1  0  0  0  0
 17 18  1  0  0  0  0
 18 19  1  0  0  0  0
 18 38  1  0  0  0  0
 18 39  1  0  0  0  0
 19 20  1  0  0  0  0
 19 21  1  0  0  0  0
 19 40  1  0  0  0  0
 20 41  1  0  0  0  0
 20 42  1  0  0  0  0
 20 43  1  0  0  0  0
 21 44  1  0  0  0  0
M  END
> <s_m_source_file>
AV-unprocessed.smi

> <i_m_source_file_index>
1856

> <i_lp_mmshare_version>
43012

> <i_f3d_flags>
0

> <s_epik_input>
W0NIM11bQ0gyXVtDSDJdQyg9TylbTkhdW0NASF0oW0NIM10pYyhuMSluKFtDSDJdW0NASF0oW0NIM10pW09IXSljKGMxMilbY0hdW2NIXVtjSF1bY0hdMg==

> <s_epik_cmdline>
J2VwaWtfcHl0aG9uJywgJy1waCcsICc3LjAnLCAnLXRuJywgJzgnLCAnLW1hJywgJzIwMCcsICctbWV0YWxfYmluZGluZycsICctaW1hZScsICc8aW5maWxlLm1hZT4nLCAnLW9tYWUnLCAnPG91dGZpbGUubWFlPic=

> <r_epik_Ionization_Penalty>
0.134222

> <r_epik_Ionization_Penalty_Charging>
0

> <r_epik_Ionization_Penalty_Neutral>
0.134222

> <r_epik_State_Penalty>
0.123585

> <r_epik_Charging_Adjusted_Penalty>
0.123585

> <i_epik_Tot_Q>
0

> <i_epik_Tot_abs_Q>
0

> <r_epik_Metal_State_Penalty>
0.100548

> <b_epik_Metal_Only>
0

> <s_lp_Force_Field>
OPLS_2005

> <r_lp_Energy>
2.96492

> <b_lp_Chiralities_Consistent>
1

> <s_lp_Variant>
AV-unprocessed.smi:1856-2

> <Gold.Version>
5.8.1

> <Gold.Id.Protein>
6NUR|6NUR_protein|mol2

> <Gold.PLP.Fitness>
45.3157

> <Gold.PLP.PLP>
-40.8356

> <Gold.PLP.part.hbond>
-2.0000

> <Gold.PLP.part.metal>
0.0000

> <Gold.PLP.part.buried>
-5.7732

> <Gold.PLP.part.nonpolar>
-33.0075

> <Gold.PLP.part.repulsive>
0.1079

> <Gold.PLP.ligand.clash>
0.0000

> <Gold.PLP.ligand.torsion>
0.8617

> <Gold.PLP.Chemscore.Hbond>
2.0000

> <Gold.PLP.Chemscore.CHOScore>
0.0000

> <Gold.PLP.Chemscore.Metal>
0.0000

> <Gold.Chemscore.Hbonds>
donor molecule, donor type, donor heavy atom, donor atom, acceptor molecule, acceptor atom, score
      L1  H    21    44       P1  8028  1.00
      P1  H 10752 10764       L1     5  1.00

> <Gold.PLP.Chemscore.Internal.Correction>
0.2034

> <Gold.Rescore>
     Score         DG    S(hbond)    S(metal)    S(lipo)     H(rot)  DE(clash)    DE(int)     intcor
     18.10     -19.15       1.95        0.00     114.59       2.45       0.12       0.93       ----

> <Gold.Chemscore.Fitness>
18.0970

> <Gold.Chemscore.DG>
-19.1525

> <Gold.Chemscore.ZeroCoef>
-5.4800

> <Gold.Chemscore.Hbond>
1.9542

> <Gold.Chemscore.Metal>
0.0000

> <Gold.Chemscore.Lipo>
114.5878

> <Gold.Chemscore.Internal_Hbond>
0.0000

> <Gold.Chemscore.DEClash>
0.1224

> <Gold.Chemscore.DEInternal>
0.9330

> <Gold.Chemscore.Rot>
2.4459

> <Gold.Chemscore.Internal.Correction>
   9.000000E+99

> <Gold.Chemscore.Hbonds>
donor molecule, donor type, donor heavy atom, donor atom, acceptor molecule, acceptor atom, score
      L1  H    21    44       P1  8028  0.94
      P1  H 10752 10764       L1     5  0.90

> <Gold.Chemscore.Hbond.Weighted>
-6.5271

> <Gold.Chemscore.Metal.Weighted>
-0.0000

> <Gold.Chemscore.Lipo.Weighted>
-13.4068

> <Gold.Chemscore.Internal_Hbond.Weighted>
0.0000

> <Gold.Chemscore.DEClash.Weighted>
0.1224

> <Gold.Chemscore.DEInternal.Weighted>
0.9330

> <Gold.Chemscore.Rot.Weighted>
6.2614

> <Gold.Chemscore.Internal.Correction.Weighted>
   9.000000E+99

> <Gold.Protein.RotatedTorsions>
[ 6907 6896 6895 6894 ] final  111.37 input  -60.11 | X-H torsion
[ 7974 7965 7964 7962 ] final  -44.55 input  175.53 | X-H torsion
[ 8008 7997 7996 7995 ] final  -68.96 input   59.86 | X-H torsion
[ 10167 10162 10161 10158 ] final   53.08 input  -65.29 | X-H torsion
[ 10718 10713 10712 10709 ] final  147.45 input   66.30 | X-H torsion
[ 10763 10752 10751 10750 ] final    6.27 input  -60.55 | X-H torsion
[ 11005 11000 10999 10996 ] final   43.78 input  -57.11 | X-H torsion

> <Gold.Protein.ActiveResidues>
 VAL166  LYS551  ARG553  GLY616  TRP617  ASP618  TYR619  PRO620  LYS621  CYS622 
 ASP623  PHE694  ASN695  SER759  ASP760  ASP761  ALA762  ILE779  LEU786  VAL792 
 PHE793  MET794  SER795  GLU796  ALA797  LYS798  CYS799  TRP800  GLU811  SER814 

> <Gold.Protein.RotatedAtoms>
  152.4973  133.8667  159.7277 H   0  0  0  0  0  0  0  0  0  0  0  0  # atno 6907 bound_to 6896
  150.9165  133.6924  159.2849 H   0  0  0  0  0  0  0  0  0  0  0  0  # atno 6908 bound_to 6896
  151.4316  135.1014  159.9696 H   0  0  0  0  0  0  0  0  0  0  0  0  # atno 6909 bound_to 6896
  145.9909  140.7181  142.9317 H   0  0  0  0  0  0  0  0  0  0  0  0  # atno 7974 bound_to 7965
  154.4904  140.0863  156.7582 H   0  0  0  0  0  0  0  0  0  0  0  0  # atno 8008 bound_to 7997
  155.4244  140.3447  155.4256 H   0  0  0  0  0  0  0  0  0  0  0  0  # atno 8009 bound_to 7997
  156.1322  140.1504  156.9036 H   0  0  0  0  0  0  0  0  0  0  0  0  # atno 8010 bound_to 7997
  140.2446  144.3546  150.6368 H   0  0  0  0  0  0  0  0  0  0  0  0  # atno 10167 bound_to 10162
  157.3208  131.0904  151.1242 H   0  0  0  0  0  0  0  0  0  0  0  0  # atno 10718 bound_to 10713
  153.2497  135.6912  153.7692 H   0  0  0  0  0  0  0  0  0  0  0  0  # atno 10763 bound_to 10752
  153.6791  135.3331  155.3174 H   0  0  0  0  0  0  0  0  0  0  0  0  # atno 10764 bound_to 10752
  154.8389  135.4518  154.1450 H   0  0  0  0  0  0  0  0  0  0  0  0  # atno 10765 bound_to 10752
  140.1613  134.4337  155.8316 H   0  0  0  0  0  0  0  0  0  0  0  0  # atno 11005 bound_to 11000
  144.6889  140.3069  143.7254 LP  0  0  0  0  0  0  0  0  0  0  0  0  # atno 17320 bound_to 7965
  145.7631  139.1831  143.2256 LP  0  0  0  0  0  0  0  0  0  0  0  0  # atno 17321 bound_to 7965
  140.6087  143.2168  151.6929 LP  0  0  0  0  0  0  0  0  0  0  0  0  # atno 17342 bound_to 10162
  139.5066  144.3676  152.0502 LP  0  0  0  0  0  0  0  0  0  0  0  0  # atno 17343 bound_to 10162
  157.2528  130.6622  149.5939 LP  0  0  0  0  0  0  0  0  0  0  0  0  # atno 17370 bound_to 10713
  155.9685  130.4533  150.5807 LP  0  0  0  0  0  0  0  0  0  0  0  0  # atno 17371 bound_to 10713
  141.2209  133.6914  156.7599 LP  0  0  0  0  0  0  0  0  0  0  0  0  # atno 17394 bound_to 11000
  140.2486  134.8558  157.3645 LP  0  0  0  0  0  0  0  0  0  0  0  0  # atno 17395 bound_to 11000

$$$$
