#       Name:                AV-unprocessed.smi:2825
#       Creating user name   scv26
#       Creation time:       Fri Mar 27 15:33:25 2020


#       File generated by GOLD software.
#

@<TRIPOS>MOLECULE
AV-unprocessed.smi:2825
    51    52     1
SMALL
NO_CHARGES


@<TRIPOS>ATOM
      1 ****        -4.5618   2.3618  -1.1237 C.3            1 S1                 0.0000
      2 ****        -3.2012   2.0038  -1.7300 C.3            1 S1                 0.0000
      3 ****        -3.2923   1.6878  -3.2296 C.3            1 S1                 0.0000
      4 ****        -1.6427   1.2602  -3.9406 S.o2           1 S1                 0.0000
      5 ****        -1.7801   1.0955  -5.3957 O.2            1 S1                 0.0000
      6 ****        -0.6453   2.1943  -3.3950 O.2            1 S1                 0.0000
      7 ****        -1.3344  -0.3094  -3.2675 N.pl3          1 S1                 0.0000
      8 ****        -2.0617  -1.4639  -3.8045 C.3            1 S1                 0.0000
      9 ****        -0.0073  -0.6082  -2.7072 C.3            1 S1                 0.0000
     10 ****         0.1290  -0.0570  -1.2742 C.3            1 S1                 0.0000
     11 ****        -0.4679  -0.9766  -0.3799 O.3            1 S1                 0.0000
     12 ****         1.6041   0.1411  -0.8783 C.3            1 S1                 0.0000
     13 ****         1.7507   0.6831   0.4605 N.pl3          1 S1                 0.0000
     14 ****         1.6587   1.9769   0.8229 C.2            1 S1                 0.0000
     15 ****         1.8269   2.2618   2.1108 N.2            1 S1                 0.0000
     16 ****         2.0531   1.0056   2.6467 C.ar           1 S1                 0.0000
     17 ****         2.3058   0.6094   3.9784 C.ar           1 S1                 0.0000
     18 ****         2.5086  -0.7508   4.3040 C.ar           1 S1                 0.0000
     19 ****         2.7790  -1.1322   5.7488 C.3            1 S1                 0.0000
     20 ****         2.4579  -1.7396   3.2888 C.ar           1 S1                 0.0000
     21 ****         2.6687  -3.2077   3.6151 C.3            1 S1                 0.0000
     22 ****         2.2090  -1.3608   1.9530 C.ar           1 S1                 0.0000
     23 ****         2.0107  -0.0041   1.6412 C.ar           1 S1                 0.0000
     24 ****        -4.4676   2.5725  -0.0582 H              1 S1                 0.0000
     25 ****        -5.2716   1.5421  -1.2391 H              1 S1                 0.0000
     26 ****        -4.9865   3.2450  -1.6017 H              1 S1                 0.0000
     27 ****        -2.5067   2.8279  -1.5651 H              1 S1                 0.0000
     28 ****        -2.7926   1.1429  -1.2008 H              1 S1                 0.0000
     29 ****        -3.9821   0.8672  -3.4227 H              1 S1                 0.0000
     30 ****        -3.6649   2.5583  -3.7700 H              1 S1                 0.0000
     31 ****        -2.0782  -2.2767  -3.0777 H              1 S1                 0.0000
     32 ****        -1.5838  -1.8173  -4.7184 H              1 S1                 0.0000
     33 ****        -3.0921  -1.1964  -4.0352 H              1 S1                 0.0000
     34 ****         0.1954  -1.6805  -2.7277 H              1 S1                 0.0000
     35 ****         0.7389  -0.1528  -3.3595 H              1 S1                 0.0000
     36 ****        -0.3857   0.8984  -1.1775 H              1 S1                 0.0000
     37 ****        -0.0094  -1.8001  -0.4448 H              1 S1                 0.0000
     38 ****         2.1498  -0.8014  -0.9391 H              1 S1                 0.0000
     39 ****         2.0898   0.8266  -1.5741 H              1 S1                 0.0000
     40 ****         1.4555   2.7529   0.0993 H              1 S1                 0.0000
     41 ****         2.3418   1.3633   4.7510 H              1 S1                 0.0000
     42 ****         1.9882  -1.7809   6.1265 H              1 S1                 0.0000
     43 ****         2.8260  -0.2524   6.3912 H              1 S1                 0.0000
     44 ****         3.7299  -1.6588   5.8341 H              1 S1                 0.0000
     45 ****         2.5494  -3.8333   2.7298 H              1 S1                 0.0000
     46 ****         1.9465  -3.5426   4.3601 H              1 S1                 0.0000
     47 ****         3.6729  -3.3700   4.0074 H              1 S1                 0.0000
     48 ****         2.1674  -2.1036   1.1704 H              1 S1                 0.0000
     49 ****        -1.4295  -1.1063  -0.6218 LP             1 S1                 0.0000
     50 ****        -0.4035  -0.6278   0.5550 LP             1 S1                 0.0000
     51 ****         1.7977   3.1492   2.5708 LP             1 S1                 0.0000
@<TRIPOS>BOND
    1    1    2 1     
    2    1   24 1     
    3    1   25 1     
    4    1   26 1     
    5    2    3 1     
    6    2   27 1     
    7    2   28 1     
    8    3    4 1     
    9    3   29 1     
   10    3   30 1     
   11    4    5 2     
   12    4    6 2     
   13    4    7 1     
   14    7    8 1     
   15    7    9 1     
   16    8   31 1     
   17    8   32 1     
   18    8   33 1     
   19    9   10 1     
   20    9   34 1     
   21    9   35 1     
   22   10   11 1     
   23   10   12 1     
   24   10   36 1     
   25   11   37 1     
   26   12   13 1     
   27   12   38 1     
   28   12   39 1     
   29   13   23 1     
   30   13   14 1     
   31   14   15 2     
   32   14   40 1     
   33   15   16 1     
   34   16   23 ar    
   35   16   17 ar    
   36   17   18 ar    
   37   17   41 1     
   38   18   19 1     
   39   18   20 ar    
   40   19   42 1     
   41   19   43 1     
   42   19   44 1     
   43   20   21 1     
   44   20   22 ar    
   45   21   45 1     
   46   21   46 1     
   47   21   47 1     
   48   22   23 ar    
   49   22   48 1     
   50   11   49 1     
   51   11   50 1     
   52   15   51 1     
@<TRIPOS>SUBSTRUCTURE
      1 S1             1
@<TRIPOS>SET
LONE_PAIRS      STATIC     ATOMS    <user>   **** ""
5 5 6 49 50 51
DONOR_HYDROGENS      STATIC     ATOMS    <user>   **** ""
1 37
ATOM$BLUE        STATIC     ATOMS    COLORGROUP SYSTEM
5 5 6 49 50 51
ATOM$RED        STATIC     ATOMS    COLORGROUP SYSTEM
1 37
