AV-unprocessed.smi:2163|AV-procd|sdf|8805|dock1
  -GOLD-   2272011593D 1   1.00000     0.00000
 Structure written by MMmdl.
 43 45  0  0  0  0  0  0  0  0  1 V2000
  150.7183  138.1854  158.0410 C   0  0  0  0  0  0  0  0  0  0  0  0
  151.1359  139.6018  158.2792 C   0  0  0  0  0  0  0  0  0  0  0  0
  152.1695  139.9139  159.0616 N   0  0  0  0  0  0  0  0  0  0  0  0
  152.1890  141.2939  159.0011 C   0  0  0  0  0  0  0  0  0  0  0  0
  153.0513  142.2285  159.6179 C   0  0  0  0  0  0  0  0  0  0  0  0
  152.8727  143.6116  159.4075 C   0  0  0  0  0  0  0  0  0  0  0  0
  151.8325  144.0793  158.5785 C   0  0  0  0  0  0  0  0  0  0  0  0
  150.9623  143.1651  157.9539 C   0  0  0  0  0  0  0  0  0  0  0  0
  151.1449  141.7858  158.1672 C   0  0  0  0  0  0  0  0  0  0  0  0
  150.4836  140.6485  157.7148 N   0  0  0  0  0  0  0  0  0  0  0  0
  149.3297  140.6232  156.8248 C   0  0  0  0  0  0  0  0  0  0  0  0
  149.6794  141.0521  155.3854 C   0  0  1  0  0  0  0  0  0  0  0  0
  151.0483  140.7922  155.1447 O   0  0  0  0  0  0  0  0  0  0  0  0
  148.8512  140.2858  154.3424 C   0  0  0  0  0  0  0  0  0  0  0  0
  147.5396  140.0885  154.8548 O   0  0  0  0  0  0  0  0  0  0  0  0
  146.6847  141.1689  154.8972 C   0  0  0  0  0  0  0  0  0  0  0  0
  145.7020  141.1681  155.9086 C   0  0  0  0  0  0  0  0  0  0  0  0
  144.7876  142.2323  156.0277 C   0  0  0  0  0  0  0  0  0  0  0  0
  144.8453  143.3158  155.1301 C   0  0  0  0  0  0  0  0  0  0  0  0
  143.8696  144.4666  155.2597 C   0  0  0  0  0  0  0  0  0  0  0  0
  144.0230  145.4410  154.1692 C   0  0  0  0  0  0  0  0  0  0  0  0
  144.1438  146.2082  153.3117 N   0  0  0  0  0  0  0  0  0  0  0  0
  145.8208  143.3271  154.1142 C   0  0  0  0  0  0  0  0  0  0  0  0
  146.7355  142.2626  153.9959 C   0  0  0  0  0  0  0  0  0  0  0  0
  151.4169  137.4955  158.5155 H   0  0  0  0  0  0  0  0  0  0  0  0
  150.6972  137.9685  156.9732 H   0  0  0  0  0  0  0  0  0  0  0  0
  149.7263  138.0108  158.4580 H   0  0  0  0  0  0  0  0  0  0  0  0
  153.8513  141.8803  160.2545 H   0  0  0  0  0  0  0  0  0  0  0  0
  153.5374  144.3165  159.8847 H   0  0  0  0  0  0  0  0  0  0  0  0
  151.7033  145.1404  158.4222 H   0  0  0  0  0  0  0  0  0  0  0  0
  150.1642  143.5190  157.3184 H   0  0  0  0  0  0  0  0  0  0  0  0
  148.8833  139.6288  156.8301 H   0  0  0  0  0  0  0  0  0  0  0  0
  148.5757  141.2937  157.2387 H   0  0  0  0  0  0  0  0  0  0  0  0
  149.4998  142.1226  155.2787 H   0  0  0  0  0  0  0  0  0  0  0  0
  151.2177  139.8831  155.3399 H   0  0  0  0  0  0  0  0  0  0  0  0
  148.8379  140.8197  153.3903 H   0  0  0  0  0  0  0  0  0  0  0  0
  149.3046  139.3081  154.1709 H   0  0  0  0  0  0  0  0  0  0  0  0
  145.6499  140.3430  156.6038 H   0  0  0  0  0  0  0  0  0  0  0  0
  144.0444  142.2154  156.8115 H   0  0  0  0  0  0  0  0  0  0  0  0
  142.8457  144.0921  155.2465 H   0  0  0  0  0  0  0  0  0  0  0  0
  144.0187  144.9827  156.2083 H   0  0  0  0  0  0  0  0  0  0  0  0
  145.8718  144.1558  153.4234 H   0  0  0  0  0  0  0  0  0  0  0  0
  147.4674  142.3097  153.2042 H   0  0  0  0  0  0  0  0  0  0  0  0
  1  2  1  0  0  0  0
  1 25  1  0  0  0  0
  1 26  1  0  0  0  0
  1 27  1  0  0  0  0
  2 10  1  0  0  0  0
  2  3  2  0  0  0  0
  3  4  1  0  0  0  0
  4  9  2  0  0  0  0
  4  5  1  0  0  0  0
  5  6  2  0  0  0  0
  5 28  1  0  0  0  0
  6  7  1  0  0  0  0
  6 29  1  0  0  0  0
  7  8  2  0  0  0  0
  7 30  1  0  0  0  0
  8  9  1  0  0  0  0
  8 31  1  0  0  0  0
  9 10  1  0  0  0  0
 10 11  1  0  0  0  0
 11 12  1  0  0  0  0
 11 32  1  0  0  0  0
 11 33  1  0  0  0  0
 12 13  1  0  0  0  0
 12 14  1  0  0  0  0
 12 34  1  0  0  0  0
 13 35  1  0  0  0  0
 14 15  1  0  0  0  0
 14 36  1  0  0  0  0
 14 37  1  0  0  0  0
 15 16  1  0  0  0  0
 16 24  1  0  0  0  0
 16 17  2  0  0  0  0
 17 18  1  0  0  0  0
 17 38  1  0  0  0  0
 18 19  2  0  0  0  0
 18 39  1  0  0  0  0
 19 20  1  0  0  0  0
 19 23  1  0  0  0  0
 20 21  1  0  0  0  0
 20 40  1  0  0  0  0
 20 41  1  0  0  0  0
 21 22  3  0  0  0  0
 23 24  2  0  0  0  0
 23 42  1  0  0  0  0
 24 43  1  0  0  0  0
M  END
> <s_m_source_file>
AV-unprocessed.smi

> <i_m_source_file_index>
2163

> <i_lp_mmshare_version>
43012

> <i_f3d_flags>
0

> <s_epik_input>
W2NIXTFbY0hdW2NIXVtjSF1jKGMxMiluKGMobjIpW0NIM10pW0NIMl1bQ0BIXShbT0hdKVtDSDJdT2MzW2NIXVtjSF1jKFtDSDJdQyNOKVtjSF1bY0hdMw==

> <s_epik_cmdline>
J2VwaWtfcHl0aG9uJywgJy1waCcsICc3LjAnLCAnLXRuJywgJzgnLCAnLW1hJywgJzIwMCcsICctbWV0YWxfYmluZGluZycsICctaW1hZScsICc8aW5maWxlLm1hZT4nLCAnLW9tYWUnLCAnPG91dGZpbGUubWFlPic=

> <r_lp_tautomer_probability>
1

> <r_epik_Ionization_Penalty>
0.114213

> <r_epik_Ionization_Penalty_Charging>
0

> <r_epik_Ionization_Penalty_Neutral>
0.114213

> <r_epik_State_Penalty>
0.103875

> <r_epik_Charging_Adjusted_Penalty>
0.103875

> <i_epik_Tot_Q>
0

> <i_epik_Tot_abs_Q>
0

> <r_epik_Metal_State_Penalty>
0.000113526

> <b_epik_Metal_Only>
0

> <s_lp_Force_Field>
OPLS_2005

> <r_lp_Energy>
15.853

> <b_lp_Chiralities_Consistent>
1

> <s_lp_Variant>
AV-unprocessed.smi:2163-2

> <Gold.Version>
5.8.1

> <Gold.Id.Protein>
6NUR|6NUR_protein|mol2

> <Gold.PLP.Fitness>
52.4244

> <Gold.PLP.PLP>
-51.4525

> <Gold.PLP.part.hbond>
-3.0000

> <Gold.PLP.part.metal>
0.0000

> <Gold.PLP.part.buried>
-7.8623

> <Gold.PLP.part.nonpolar>
-40.8719

> <Gold.PLP.part.repulsive>
0.2010

> <Gold.PLP.ligand.clash>
0.0000

> <Gold.PLP.ligand.torsion>
1.2330

> <Gold.PLP.Chemscore.Hbond>
0.9920

> <Gold.PLP.Chemscore.CHOScore>
0.0000

> <Gold.PLP.Chemscore.Metal>
0.0000

> <Gold.Chemscore.Hbonds>
donor molecule, donor type, donor heavy atom, donor atom, acceptor molecule, acceptor atom, score
      P1  H  7989  7998       L1    13  0.82

> <Gold.PLP.Chemscore.Internal.Correction>
0.4619

> <Gold.Rescore>
     Score         DG    S(hbond)    S(metal)    S(lipo)     H(rot)  DE(clash)    DE(int)     intcor
     13.10     -16.00       0.89        0.00     119.57       2.51       1.57       1.33       ----

> <Gold.Chemscore.Fitness>
13.0965

> <Gold.Chemscore.DG>
-15.9963

> <Gold.Chemscore.ZeroCoef>
-5.4800

> <Gold.Chemscore.Hbond>
0.8852

> <Gold.Chemscore.Metal>
0.0000

> <Gold.Chemscore.Lipo>
119.5670

> <Gold.Chemscore.Internal_Hbond>
0.0000

> <Gold.Chemscore.DEClash>
1.5693

> <Gold.Chemscore.DEInternal>
1.3305

> <Gold.Chemscore.Rot>
2.5115

> <Gold.Chemscore.Internal.Correction>
   9.000000E+99

> <Gold.Chemscore.Hbonds>
donor molecule, donor type, donor heavy atom, donor atom, acceptor molecule, acceptor atom, score
      P1  H  7989  7998       L1    13  0.24

> <Gold.Chemscore.Hbond.Weighted>
-2.9566

> <Gold.Chemscore.Metal.Weighted>
-0.0000

> <Gold.Chemscore.Lipo.Weighted>
-13.9893

> <Gold.Chemscore.Internal_Hbond.Weighted>
0.0000

> <Gold.Chemscore.DEClash.Weighted>
1.5693

> <Gold.Chemscore.DEInternal.Weighted>
1.3305

> <Gold.Chemscore.Rot.Weighted>
6.4296

> <Gold.Chemscore.Internal.Correction.Weighted>
   9.000000E+99

> <Gold.Protein.RotatedTorsions>
[ 6907 6896 6895 6894 ] final  -96.23 input  -60.11 | X-H torsion
[ 7974 7965 7964 7962 ] final    9.50 input  175.53 | X-H torsion
[ 8008 7997 7996 7995 ] final -149.87 input   59.86 | X-H torsion
[ 10167 10162 10161 10158 ] final  176.70 input  -65.29 | X-H torsion
[ 10718 10713 10712 10709 ] final  138.48 input   66.30 | X-H torsion
[ 10763 10752 10751 10750 ] final   67.16 input  -60.55 | X-H torsion
[ 11005 11000 10999 10996 ] final -122.35 input  -57.11 | X-H torsion

> <Gold.Protein.ActiveResidues>
 VAL166  LYS551  ARG553  GLY616  TRP617  ASP618  TYR619  PRO620  LYS621  CYS622 
 ASP623  PHE694  ASN695  SER759  ASP760  ASP761  ALA762  ILE779  LEU786  VAL792 
 PHE793  MET794  SER795  GLU796  ALA797  LYS798  CYS799  TRP800  GLU811  SER814 

> <Gold.Protein.RotatedAtoms>
  150.6983  134.1536  159.4149 H   0  0  0  0  0  0  0  0  0  0  0  0  # atno 6907 bound_to 6896
  151.9518  135.0163  160.0551 H   0  0  0  0  0  0  0  0  0  0  0  0  # atno 6908 bound_to 6896
  152.2004  133.4802  159.5092 H   0  0  0  0  0  0  0  0  0  0  0  0  # atno 6909 bound_to 6896
  146.2402  139.9774  142.8440 H   0  0  0  0  0  0  0  0  0  0  0  0  # atno 7974 bound_to 7965
  155.6145  140.0675  157.2696 H   0  0  0  0  0  0  0  0  0  0  0  0  # atno 8008 bound_to 7997
  154.4245  140.1795  156.1355 H   0  0  0  0  0  0  0  0  0  0  0  0  # atno 8009 bound_to 7997
  156.0058  140.3331  155.6894 H   0  0  0  0  0  0  0  0  0  0  0  0  # atno 8010 bound_to 7997
  139.5224  144.2884  152.0485 H   0  0  0  0  0  0  0  0  0  0  0  0  # atno 10167 bound_to 10162
  157.4248  131.1042  151.0314 H   0  0  0  0  0  0  0  0  0  0  0  0  # atno 10718 bound_to 10713
  153.0173  135.5294  154.6936 H   0  0  0  0  0  0  0  0  0  0  0  0  # atno 10763 bound_to 10752
  154.6064  135.2873  155.0482 H   0  0  0  0  0  0  0  0  0  0  0  0  # atno 10764 bound_to 10752
  154.1520  135.6561  153.5018 H   0  0  0  0  0  0  0  0  0  0  0  0  # atno 10765 bound_to 10752
  141.0001  134.0414  157.3547 H   0  0  0  0  0  0  0  0  0  0  0  0  # atno 11005 bound_to 11000
  145.1624  140.9679  143.4369 LP  0  0  0  0  0  0  0  0  0  0  0  0  # atno 17320 bound_to 7965
  145.0104  139.3515  143.6123 LP  0  0  0  0  0  0  0  0  0  0  0  0  # atno 17321 bound_to 7965
  140.2337  144.4342  150.6289 LP  0  0  0  0  0  0  0  0  0  0  0  0  # atno 17342 bound_to 10162
  140.6338  143.2191  151.6438 LP  0  0  0  0  0  0  0  0  0  0  0  0  # atno 17343 bound_to 10162
  157.1232  130.6070  149.5510 LP  0  0  0  0  0  0  0  0  0  0  0  0  # atno 17370 bound_to 10713
  155.9893  130.4939  150.7206 LP  0  0  0  0  0  0  0  0  0  0  0  0  # atno 17371 bound_to 10713
  139.9034  135.0172  156.7377 LP  0  0  0  0  0  0  0  0  0  0  0  0  # atno 17394 bound_to 11000
  140.6902  133.9397  155.7962 LP  0  0  0  0  0  0  0  0  0  0  0  0  # atno 17395 bound_to 11000

$$$$
