AV-unprocessed.smi:1900|AV-procd|sdf|7711|dock9
  -GOLD-   22720 9453D 1   1.00000     0.00000
 Structure written by MMmdl.
 44 45  0  0  0  0  0  0  0  0  2 V2000
  153.3919  139.0342  154.7875 C   0  0  0  0  0  0  0  0  0  0  0  0
  151.8918  138.8057  155.0029 C   0  0  2  0  0  0  0  0  0  0  0  0
  151.3230  137.7481  154.0347 C   0  0  0  0  0  0  0  0  0  0  0  0
  149.8552  137.6042  154.1939 N   0  3  1  0  0  0  0  0  0  0  0  0
  149.4620  136.8084  155.3872 C   0  0  0  0  0  0  0  0  0  0  0  0
  150.4769  135.7005  155.7160 C   0  0  0  0  0  0  0  0  0  0  0  0
  149.9487  134.3031  155.3508 C   0  0  0  0  0  0  0  0  0  0  0  0
  149.1725  134.3218  154.1162 N   0  0  0  0  0  0  0  0  0  0  0  0
  148.4362  133.3012  153.6545 C   0  0  0  0  0  0  0  0  0  0  0  0
  148.3501  132.2131  154.2243 O   0  0  0  0  0  0  0  0  0  0  0  0
  147.8171  133.6248  152.5074 N   0  0  0  0  0  0  0  0  0  0  0  0
  146.9527  132.8080  151.7355 C   0  0  0  0  0  0  0  0  0  0  0  0
  146.3462  133.2019  150.5119 C   0  0  0  0  0  0  0  0  0  0  0  0
  145.5891  132.2349  150.0140 N   0  0  0  0  0  0  0  0  0  0  0  0
  145.7077  131.2269  150.9075 N   0  0  0  0  0  0  0  0  0  0  0  0
  146.5284  131.5303  151.9711 C   0  0  0  0  0  0  0  0  0  0  0  0
  149.1923  138.9284  154.0779 C   0  0  0  0  0  0  0  0  0  0  0  0
  149.8220  139.9666  155.0314 C   0  0  2  0  0  0  0  0  0  0  0  0
  149.2273  141.3649  154.8312 C   0  0  0  0  0  0  0  0  0  0  0  0
  151.2217  140.0420  154.7821 O   0  0  0  0  0  0  0  0  0  0  0  0
  145.2275  130.3476  150.7788 H   0  0  0  0  0  0  0  0  0  0  0  0
  153.9558  138.1148  154.9465 H   0  0  0  0  0  0  0  0  0  0  0  0
  153.7758  139.7831  155.4808 H   0  0  0  0  0  0  0  0  0  0  0  0
  153.5973  139.3822  153.7748 H   0  0  0  0  0  0  0  0  0  0  0  0
  151.7373  138.4909  156.0361 H   0  0  0  0  0  0  0  0  0  0  0  0
  151.5251  138.0503  153.0062 H   0  0  0  0  0  0  0  0  0  0  0  0
  151.8189  136.7863  154.1720 H   0  0  0  0  0  0  0  0  0  0  0  0
  149.4062  137.4742  156.2495 H   0  0  0  0  0  0  0  0  0  0  0  0
  148.4640  136.3880  155.2634 H   0  0  0  0  0  0  0  0  0  0  0  0
  151.4132  135.8713  155.1852 H   0  0  0  0  0  0  0  0  0  0  0  0
  150.7131  135.7367  156.7804 H   0  0  0  0  0  0  0  0  0  0  0  0
  150.7722  133.5926  155.2606 H   0  0  0  0  0  0  0  0  0  0  0  0
  149.3039  133.9308  156.1472 H   0  0  0  0  0  0  0  0  0  0  0  0
  149.1835  135.1794  153.5832 H   0  0  0  0  0  0  0  0  0  0  0  0
  147.9709  134.5578  152.1535 H   0  0  0  0  0  0  0  0  0  0  0  0
  146.4275  134.1384  149.9800 H   0  0  0  0  0  0  0  0  0  0  0  0
  146.7252  130.8289  152.7683 H   0  0  0  0  0  0  0  0  0  0  0  0
  149.3081  139.2697  153.0482 H   0  0  0  0  0  0  0  0  0  0  0  0
  148.1195  138.8491  154.2480 H   0  0  0  0  0  0  0  0  0  0  0  0
  149.6586  139.6756  156.0698 H   0  0  0  0  0  0  0  0  0  0  0  0
  148.1535  141.3649  155.0202 H   0  0  0  0  0  0  0  0  0  0  0  0
  149.3886  141.7220  153.8137 H   0  0  0  0  0  0  0  0  0  0  0  0
  149.6839  142.0834  155.5121 H   0  0  0  0  0  0  0  0  0  0  0  0
  149.5465  137.0573  153.4024 H   0  0  0  0  0  0  0  0  0  0  0  0
  1  2  1  0  0  0  0
  1 22  1  0  0  0  0
  1 23  1  0  0  0  0
  1 24  1  0  0  0  0
  2 20  1  0  0  0  0
  2  3  1  0  0  0  0
  2 25  1  0  0  0  0
  3  4  1  0  0  0  0
  3 26  1  0  0  0  0
  3 27  1  0  0  0  0
  4  5  1  0  0  0  0
  4 17  1  0  0  0  0
  4 44  1  0  0  0  0
  5  6  1  0  0  0  0
  5 28  1  0  0  0  0
  5 29  1  0  0  0  0
  6  7  1  0  0  0  0
  6 30  1  0  0  0  0
  6 31  1  0  0  0  0
  7  8  1  0  0  0  0
  7 32  1  0  0  0  0
  7 33  1  0  0  0  0
  8  9  1  0  0  0  0
  8 34  1  0  0  0  0
  9 10  2  0  0  0  0
  9 11  1  0  0  0  0
 11 12  1  0  0  0  0
 11 35  1  0  0  0  0
 12 16  2  0  0  0  0
 12 13  1  0  0  0  0
 13 14  2  0  0  0  0
 13 36  1  0  0  0  0
 14 15  1  0  0  0  0
 15 21  1  0  0  0  0
 15 16  1  0  0  0  0
 16 37  1  0  0  0  0
 17 18  1  0  0  0  0
 17 38  1  0  0  0  0
 17 39  1  0  0  0  0
 18 19  1  0  0  0  0
 18 20  1  0  0  0  0
 18 40  1  0  0  0  0
 19 41  1  0  0  0  0
 19 42  1  0  0  0  0
 19 43  1  0  0  0  0
M  CHG  1   4   1
M  END
> <s_m_source_file>
AV-unprocessed.smi

> <i_m_source_file_index>
1900

> <i_lp_mmshare_version>
43012

> <i_f3d_flags>
0

> <s_epik_input>
W0NIM11bQ0BASF0xW0NIMl1OKFtDSDJdW0NASF0oTzEpW0NIM10pW0NIMl1bQ0gyXVtDSDJdW05IXUMoPU8pW05IXWMyW2NIXW5bbkhdW2NIXTI=

> <s_epik_cmdline>
J2VwaWtfcHl0aG9uJywgJy1waCcsICc3LjAnLCAnLXRuJywgJzgnLCAnLW1hJywgJzIwMCcsICctbWV0YWxfYmluZGluZycsICctaW1hZScsICc8aW5maWxlLm1hZT4nLCAnLW9tYWUnLCAnPG91dGZpbGUubWFlPic=

> <r_lp_tautomer_probability>
0.5

> <r_epik_Ionization_Penalty>
0.270543

> <r_epik_Ionization_Penalty_Charging>
0.270496

> <r_epik_Ionization_Penalty_Neutral>
4.67091e-05

> <r_epik_State_Penalty>
0.262618

> <r_epik_Charging_Adjusted_Penalty>
0.533114

> <i_epik_Tot_Q>
1

> <i_epik_Tot_abs_Q>
1

> <r_epik_Metal_State_Penalty>
0.262618

> <b_epik_Metal_Only>
0

> <s_lp_Force_Field>
OPLS_2005

> <r_lp_Energy>
20.3326

> <b_lp_Chiralities_Consistent>
1

> <s_lp_Variant>
AV-unprocessed.smi:1900-3

> <Gold.Version>
5.8.1

> <Gold.Id.Protein>
6NUR|6NUR_protein|mol2

> <Gold.PLP.Fitness>
51.4884

> <Gold.PLP.PLP>
-34.9089

> <Gold.PLP.part.hbond>
-4.0000

> <Gold.PLP.part.metal>
0.0000

> <Gold.PLP.part.buried>
-2.7612

> <Gold.PLP.part.nonpolar>
-29.2207

> <Gold.PLP.part.repulsive>
0.3728

> <Gold.PLP.ligand.clash>
0.0000

> <Gold.PLP.ligand.torsion>
0.7388

> <Gold.PLP.Chemscore.Hbond>
5.0000

> <Gold.PLP.Chemscore.CHOScore>
1.0000

> <Gold.PLP.Chemscore.Metal>
0.0000

> <Gold.Chemscore.Hbonds>
donor molecule, donor type, donor heavy atom, donor atom, acceptor molecule, acceptor atom, score
      L1  H     4    44       P1  7948  2.00
      L1  H     8    34       P1  7948  1.00
      L1  H    11    35       P1  7948  1.00
      P1  H  7989  7998       L1    20  1.00
      L1  C    13    36       P1  7921  0.63

> <Gold.PLP.Chemscore.Internal.Correction>
0.0569

> <Gold.Rescore>
     Score         DG    S(hbond)    S(metal)    S(lipo)     H(rot)  DE(clash)    DE(int)     intcor
     18.14     -20.43       3.20        0.00      78.76       1.93       0.39       1.89       ----

> <Gold.Chemscore.Fitness>
18.1434

> <Gold.Chemscore.DG>
-20.4311

> <Gold.Chemscore.ZeroCoef>
-5.4800

> <Gold.Chemscore.Hbond>
3.2004

> <Gold.Chemscore.Metal>
0.0000

> <Gold.Chemscore.Lipo>
78.7560

> <Gold.Chemscore.Internal_Hbond>
0.0000

> <Gold.Chemscore.DEClash>
0.3944

> <Gold.Chemscore.DEInternal>
1.8933

> <Gold.Chemscore.Rot>
1.9347

> <Gold.Chemscore.Internal.Correction>
   9.000000E+99

> <Gold.Chemscore.Hbonds>
donor molecule, donor type, donor heavy atom, donor atom, acceptor molecule, acceptor atom, score
      L1  H     4    44       P1  7948  0.82
      L1  H     8    34       P1  7948  0.28
      L1  H    11    35       P1  7948  0.29
      P1  H  7989  7998       L1    20  0.85

> <Gold.Chemscore.Hbond.Weighted>
-10.6894

> <Gold.Chemscore.Metal.Weighted>
-0.0000

> <Gold.Chemscore.Lipo.Weighted>
-9.2144

> <Gold.Chemscore.Internal_Hbond.Weighted>
0.0000

> <Gold.Chemscore.DEClash.Weighted>
0.3944

> <Gold.Chemscore.DEInternal.Weighted>
1.8933

> <Gold.Chemscore.Rot.Weighted>
4.9528

> <Gold.Chemscore.Internal.Correction.Weighted>
   9.000000E+99

> <Gold.Protein.RotatedTorsions>
[ 6907 6896 6895 6894 ] final  147.28 input  -60.11 | X-H torsion
[ 7974 7965 7964 7962 ] final -124.46 input  175.53 | X-H torsion
[ 8008 7997 7996 7995 ] final  -10.10 input   59.86 | X-H torsion
[ 10167 10162 10161 10158 ] final   48.18 input  -65.29 | X-H torsion
[ 10718 10713 10712 10709 ] final -135.22 input   66.30 | X-H torsion
[ 10763 10752 10751 10750 ] final -128.53 input  -60.55 | X-H torsion
[ 11005 11000 10999 10996 ] final  154.77 input  -57.11 | X-H torsion

> <Gold.Protein.ActiveResidues>
 VAL166  LYS551  ARG553  GLY616  TRP617  ASP618  TYR619  PRO620  LYS621  CYS622 
 ASP623  PHE694  ASN695  SER759  ASP760  ASP761  ALA762  ILE779  LEU786  VAL792 
 PHE793  MET794  SER795  GLU796  ALA797  LYS798  CYS799  TRP800  GLU811  SER814 

> <Gold.Protein.RotatedAtoms>
  152.1569  133.4557  159.4840 H   0  0  0  0  0  0  0  0  0  0  0  0  # atno 6907 bound_to 6896
  150.6902  134.2120  159.4372 H   0  0  0  0  0  0  0  0  0  0  0  0  # atno 6908 bound_to 6896
  152.0020  134.9922  160.0616 H   0  0  0  0  0  0  0  0  0  0  0  0  # atno 6909 bound_to 6896
  145.0079  140.7879  143.4456 H   0  0  0  0  0  0  0  0  0  0  0  0  # atno 7974 bound_to 7965
  154.5585  140.2337  155.8372 H   0  0  0  0  0  0  0  0  0  0  0  0  # atno 8008 bound_to 7997
  156.2009  140.3052  155.9485 H   0  0  0  0  0  0  0  0  0  0  0  0  # atno 8009 bound_to 7997
  155.2933  140.0427  157.3015 H   0  0  0  0  0  0  0  0  0  0  0  0  # atno 8010 bound_to 7997
  140.2959  144.2991  150.6230 H   0  0  0  0  0  0  0  0  0  0  0  0  # atno 10167 bound_to 10162
  156.2639  130.7226  151.1169 H   0  0  0  0  0  0  0  0  0  0  0  0  # atno 10718 bound_to 10713
  154.8756  135.3925  154.3772 H   0  0  0  0  0  0  0  0  0  0  0  0  # atno 10763 bound_to 10752
  153.4524  135.7028  153.6106 H   0  0  0  0  0  0  0  0  0  0  0  0  # atno 10764 bound_to 10752
  153.4640  135.3805  155.2323 H   0  0  0  0  0  0  0  0  0  0  0  0  # atno 10765 bound_to 10752
  140.1520  134.8668  157.2466 H   0  0  0  0  0  0  0  0  0  0  0  0  # atno 11005 bound_to 11000
  145.2064  139.2226  143.5166 LP  0  0  0  0  0  0  0  0  0  0  0  0  # atno 17320 bound_to 7965
  146.3464  140.1892  142.8589 LP  0  0  0  0  0  0  0  0  0  0  0  0  # atno 17321 bound_to 7965
  140.5692  143.2182  151.7629 LP  0  0  0  0  0  0  0  0  0  0  0  0  # atno 17342 bound_to 10162
  139.4926  144.4240  151.9946 LP  0  0  0  0  0  0  0  0  0  0  0  0  # atno 17343 bound_to 10162
  157.7260  131.0649  150.5927 LP  0  0  0  0  0  0  0  0  0  0  0  0  # atno 17370 bound_to 10713
  156.6017  130.4356  149.5894 LP  0  0  0  0  0  0  0  0  0  0  0  0  # atno 17371 bound_to 10713
  140.2593  134.3590  155.7412 LP  0  0  0  0  0  0  0  0  0  0  0  0  # atno 17394 bound_to 11000
  141.2200  133.7360  156.9056 LP  0  0  0  0  0  0  0  0  0  0  0  0  # atno 17395 bound_to 11000

$$$$
