AV-unprocessed.smi:3316|AV-procd|sdf|12753|dock10
  -GOLD-   2272019 93D 1   1.00000     0.00000
 Structure written by MMmdl.
 41 43  0  0  0  0  0  0  0  0  2 V2000
  148.8245  141.3053  154.1332 C   0  0  0  0  0  0  0  0  0  0  0  0
  148.8306  140.3143  155.3076 C   0  0  2  0  0  0  0  0  0  0  0  0
  148.6353  141.0365  156.6545 C   0  0  0  0  0  0  0  0  0  0  0  0
  149.5870  142.1545  156.8180 N   0  3  0  0  0  0  0  0  0  0  0  0
  149.8472  142.5197  158.2237 C   0  0  0  0  0  0  0  0  0  0  0  0
  151.3550  142.6902  158.4859 C   0  0  2  0  0  0  0  0  0  0  0  0
  151.7676  142.6101  159.9890 C   0  0  0  0  0  0  0  0  0  0  0  0
  152.5674  143.9164  160.2001 C   0  0  2  0  0  0  0  0  0  0  0  0
  151.5926  145.0700  160.1039 C   0  0  0  0  0  0  0  0  0  0  0  0
  151.2124  145.1622  158.8287 C   0  0  0  0  0  0  0  0  0  0  0  0
  151.9297  144.0679  158.0627 C   0  0  1  0  0  0  0  0  0  0  0  0
  153.2539  144.0340  158.8352 C   0  0  0  0  0  0  0  0  0  0  0  0
  150.0848  139.4486  155.2945 C   0  0  0  0  0  0  0  0  0  0  0  0
  150.0315  138.1179  154.8280 C   0  0  0  0  0  0  0  0  0  0  0  0
  151.2143  137.3515  154.8361 C   0  0  0  0  0  0  0  0  0  0  0  0
  152.4008  137.8246  155.2723 N   0  0  0  0  0  0  0  0  0  0  0  0
  152.4478  139.0983  155.7170 C   0  0  0  0  0  0  0  0  0  0  0  0
  151.3240  139.9480  155.7510 C   0  0  0  0  0  0  0  0  0  0  0  0
  148.9031  140.7822  153.1796 H   0  0  0  0  0  0  0  0  0  0  0  0
  149.6537  142.0109  154.1955 H   0  0  0  0  0  0  0  0  0  0  0  0
  147.9008  141.8842  154.1131 H   0  0  0  0  0  0  0  0  0  0  0  0
  147.9734  139.6542  155.1661 H   0  0  0  0  0  0  0  0  0  0  0  0
  147.6162  141.4155  156.7420 H   0  0  0  0  0  0  0  0  0  0  0  0
  148.7820  140.3309  157.4735 H   0  0  0  0  0  0  0  0  0  0  0  0
  150.4635  141.8973  156.3871 H   0  0  0  0  0  0  0  0  0  0  0  0
  149.3311  143.4550  158.4434 H   0  0  0  0  0  0  0  0  0  0  0  0
  149.4223  141.7566  158.8771 H   0  0  0  0  0  0  0  0  0  0  0  0
  151.8902  141.9172  157.9308 H   0  0  0  0  0  0  0  0  0  0  0  0
  150.9121  142.5511  160.6636 H   0  0  0  0  0  0  0  0  0  0  0  0
  152.3927  141.7345  160.1691 H   0  0  0  0  0  0  0  0  0  0  0  0
  153.2295  143.9460  161.0657 H   0  0  0  0  0  0  0  0  0  0  0  0
  151.2599  145.6685  160.9391 H   0  0  0  0  0  0  0  0  0  0  0  0
  150.5005  145.8517  158.3993 H   0  0  0  0  0  0  0  0  0  0  0  0
  152.0231  144.2439  156.9908 H   0  0  0  0  0  0  0  0  0  0  0  0
  153.8342  144.9530  158.7277 H   0  0  0  0  0  0  0  0  0  0  0  0
  153.8933  143.1843  158.5867 H   0  0  0  0  0  0  0  0  0  0  0  0
  149.1084  137.6881  154.4676 H   0  0  0  0  0  0  0  0  0  0  0  0
  151.2054  136.3304  154.4841 H   0  0  0  0  0  0  0  0  0  0  0  0
  153.4100  139.4511  156.0577 H   0  0  0  0  0  0  0  0  0  0  0  0
  151.4196  140.9595  156.1174 H   0  0  0  0  0  0  0  0  0  0  0  0
  149.2164  142.9628  156.3386 H   0  0  0  0  0  0  0  0  0  0  0  0
  1  2  1  0  0  0  0
  1 19  1  0  0  0  0
  1 20  1  0  0  0  0
  1 21  1  0  0  0  0
  2  3  1  0  0  0  0
  2 13  1  0  0  0  0
  2 22  1  0  0  0  0
  3  4  1  0  0  0  0
  3 23  1  0  0  0  0
  3 24  1  0  0  0  0
  4  5  1  0  0  0  0
  4 25  1  0  0  0  0
  4 41  1  0  0  0  0
  5  6  1  0  0  0  0
  5 26  1  0  0  0  0
  5 27  1  0  0  0  0
  6 11  1  0  0  0  0
  6  7  1  0  0  0  0
  6 28  1  0  0  0  0
  7  8  1  0  0  0  0
  7 29  1  0  0  0  0
  7 30  1  0  0  0  0
  8 12  1  0  0  0  0
  8  9  1  0  0  0  0
  8 31  1  0  0  0  0
  9 10  2  0  0  0  0
  9 32  1  0  0  0  0
 10 11  1  0  0  0  0
 10 33  1  0  0  0  0
 11 12  1  0  0  0  0
 11 34  1  0  0  0  0
 12 35  1  0  0  0  0
 12 36  1  0  0  0  0
 13 18  1  0  0  0  0
 13 14  2  0  0  0  0
 14 15  1  0  0  0  0
 14 37  1  0  0  0  0
 15 16  2  0  0  0  0
 15 38  1  0  0  0  0
 16 17  1  0  0  0  0
 17 18  2  0  0  0  0
 17 39  1  0  0  0  0
 18 40  1  0  0  0  0
M  CHG  1   4   1
M  END
> <s_m_source_file>
AV-unprocessed.smi

> <i_m_source_file_index>
3316

> <i_lp_mmshare_version>
43012

> <i_f3d_flags>
0

> <s_epik_input>
W2NIXTFbY0hdbltjSF1bY0hdYzFbQ0BIXShbQ0gzXSlbQ0gyXVtOSF1bQ0gyXVtDQEhdKFtDSDJdW0NASF0yMylbQ0BIXShbQ0gyXTMpW0NIXT1bQ0hdMg==

> <s_epik_cmdline>
J2VwaWtfcHl0aG9uJywgJy1waCcsICc3LjAnLCAnLXRuJywgJzgnLCAnLW1hJywgJzIwMCcsICctbWV0YWxfYmluZGluZycsICctaW1hZScsICc8aW5maWxlLm1hZT4nLCAnLW9tYWUnLCAnPG91dGZpbGUubWFlPic=

> <r_lp_tautomer_probability>
1

> <r_epik_Ionization_Penalty>
0.00280406

> <r_epik_Ionization_Penalty_Charging>
0.000446589

> <r_epik_Ionization_Penalty_Neutral>
0.00235747

> <r_epik_State_Penalty>
-0

> <r_epik_Charging_Adjusted_Penalty>
0.000446589

> <i_epik_Tot_Q>
1

> <i_epik_Tot_abs_Q>
1

> <r_epik_Metal_State_Penalty>
-0

> <b_epik_Metal_Only>
0

> <s_lp_Force_Field>
OPLS_2005

> <r_lp_Energy>
65.4585

> <b_lp_Chiralities_Consistent>
1

> <s_lp_Variant>
AV-unprocessed.smi:3316-1

> <Gold.Version>
5.8.1

> <Gold.Id.Protein>
6NUR|6NUR_protein|mol2

> <Gold.PLP.Fitness>
50.5324

> <Gold.PLP.PLP>
-43.6874

> <Gold.PLP.part.hbond>
-1.6886

> <Gold.PLP.part.metal>
0.0000

> <Gold.PLP.part.buried>
-2.5078

> <Gold.PLP.part.nonpolar>
-39.7172

> <Gold.PLP.part.repulsive>
0.0731

> <Gold.PLP.ligand.clash>
0.0000

> <Gold.PLP.ligand.torsion>
1.0909

> <Gold.PLP.Chemscore.Hbond>
2.0009

> <Gold.PLP.Chemscore.CHOScore>
0.9898

> <Gold.PLP.Chemscore.Metal>
0.0000

> <Gold.Chemscore.Hbonds>
donor molecule, donor type, donor heavy atom, donor atom, acceptor molecule, acceptor atom, score
      L1  H     4    41       P1  8028  2.00

> <Gold.PLP.Chemscore.Internal.Correction>
0.0546

> <Gold.Rescore>
     Score         DG    S(hbond)    S(metal)    S(lipo)     H(rot)  DE(clash)    DE(int)     intcor
     22.60     -23.92       1.89        0.00     133.42       1.36       0.26       1.06       ----

> <Gold.Chemscore.Fitness>
22.5995

> <Gold.Chemscore.DG>
-23.9241

> <Gold.Chemscore.ZeroCoef>
-5.4800

> <Gold.Chemscore.Hbond>
1.8940

> <Gold.Chemscore.Metal>
0.0000

> <Gold.Chemscore.Lipo>
133.4204

> <Gold.Chemscore.Internal_Hbond>
0.0000

> <Gold.Chemscore.DEClash>
0.2649

> <Gold.Chemscore.DEInternal>
1.0597

> <Gold.Chemscore.Rot>
1.3640

> <Gold.Chemscore.Internal.Correction>
   9.000000E+99

> <Gold.Chemscore.Hbonds>
donor molecule, donor type, donor heavy atom, donor atom, acceptor molecule, acceptor atom, score
      L1  H     4    41       P1  8028  1.00

> <Gold.Chemscore.Hbond.Weighted>
-6.3258

> <Gold.Chemscore.Metal.Weighted>
-0.0000

> <Gold.Chemscore.Lipo.Weighted>
-15.6102

> <Gold.Chemscore.Internal_Hbond.Weighted>
0.0000

> <Gold.Chemscore.DEClash.Weighted>
0.2649

> <Gold.Chemscore.DEInternal.Weighted>
1.0597

> <Gold.Chemscore.Rot.Weighted>
3.4919

> <Gold.Chemscore.Internal.Correction.Weighted>
   9.000000E+99

> <Gold.Protein.RotatedTorsions>
[ 6907 6896 6895 6894 ] final  -56.07 input  -60.11 | X-H torsion
[ 7974 7965 7964 7962 ] final   47.82 input  175.53 | X-H torsion
[ 8008 7997 7996 7995 ] final   96.24 input   59.86 | X-H torsion
[ 10167 10162 10161 10158 ] final   78.54 input  -65.29 | X-H torsion
[ 10718 10713 10712 10709 ] final -151.30 input   66.30 | X-H torsion
[ 10763 10752 10751 10750 ] final  178.77 input  -60.55 | X-H torsion
[ 11005 11000 10999 10996 ] final  117.68 input  -57.11 | X-H torsion

> <Gold.Protein.ActiveResidues>
 VAL166  LYS551  ARG553  GLY616  TRP617  ASP618  TYR619  PRO620  LYS621  CYS622 
 ASP623  PHE694  ASN695  SER759  ASP760  ASP761  ALA762  ILE779  LEU786  VAL792 
 PHE793  MET794  SER795  GLU796  ALA797  LYS798  CYS799  TRP800  GLU811  SER814 

> <Gold.Protein.RotatedAtoms>
  150.8198  134.7400  159.6762 H   0  0  0  0  0  0  0  0  0  0  0  0  # atno 6907 bound_to 6896
  152.4315  134.5766  159.9946 H   0  0  0  0  0  0  0  0  0  0  0  0  # atno 6908 bound_to 6896
  151.5953  133.3325  159.3072 H   0  0  0  0  0  0  0  0  0  0  0  0  # atno 6909 bound_to 6896
  146.0262  139.4709  142.9866 H   0  0  0  0  0  0  0  0  0  0  0  0  # atno 7974 bound_to 7965
  156.0775  140.3275  155.7652 H   0  0  0  0  0  0  0  0  0  0  0  0  # atno 8008 bound_to 7997
  155.5207  140.0585  157.2924 H   0  0  0  0  0  0  0  0  0  0  0  0  # atno 8009 bound_to 7997
  154.4563  140.1944  156.0387 H   0  0  0  0  0  0  0  0  0  0  0  0  # atno 8010 bound_to 7997
  139.9699  144.5902  150.7995 H   0  0  0  0  0  0  0  0  0  0  0  0  # atno 10167 bound_to 10162
  156.4574  130.8197  151.2428 H   0  0  0  0  0  0  0  0  0  0  0  0  # atno 10718 bound_to 10713
  154.5120  135.2789  155.1335 H   0  0  0  0  0  0  0  0  0  0  0  0  # atno 10763 bound_to 10752
  154.2927  135.6264  153.5395 H   0  0  0  0  0  0  0  0  0  0  0  0  # atno 10764 bound_to 10752
  152.9920  135.5678  154.5587 H   0  0  0  0  0  0  0  0  0  0  0  0  # atno 10765 bound_to 10752
  139.9083  134.9613  156.7388 H   0  0  0  0  0  0  0  0  0  0  0  0  # atno 11005 bound_to 11000
  145.7114  141.0105  143.1451 LP  0  0  0  0  0  0  0  0  0  0  0  0  # atno 17320 bound_to 7965
  144.7010  139.8762  143.7444 LP  0  0  0  0  0  0  0  0  0  0  0  0  # atno 17321 bound_to 7965
  140.7525  143.2992  151.3124 LP  0  0  0  0  0  0  0  0  0  0  0  0  # atno 17342 bound_to 10162
  139.6489  144.0399  152.2612 LP  0  0  0  0  0  0  0  0  0  0  0  0  # atno 17343 bound_to 10162
  157.7500  131.0118  150.3360 LP  0  0  0  0  0  0  0  0  0  0  0  0  # atno 17370 bound_to 10713
  156.3752  130.3870  149.7144 LP  0  0  0  0  0  0  0  0  0  0  0  0  # atno 17371 bound_to 10713
  140.6866  133.9427  155.7941 LP  0  0  0  0  0  0  0  0  0  0  0  0  # atno 17394 bound_to 11000
  141.0472  134.0537  157.3829 LP  0  0  0  0  0  0  0  0  0  0  0  0  # atno 17395 bound_to 11000

$$$$
