#       Name:                AV-unprocessed.smi:35
#       Creating user name   scv26
#       Creation time:       Thu Mar 26 16:02:21 2020


#       File generated by GOLD software.
#

@<TRIPOS>MOLECULE
AV-unprocessed.smi:35
    41    42     1
SMALL
NO_CHARGES


@<TRIPOS>ATOM
      1 ****        -4.1188   2.7922  -1.7103 O.2            1 S1                 0.0000
      2 ****        -3.1484   2.2672  -1.1686 C.2            1 S1                 0.0000
      3 ****        -3.1021   2.1359   0.2220 N.am           1 S1                 0.0000
      4 ****        -2.0577   1.5590   0.9471 C.2            1 S1                 0.0000
      5 ****        -2.1257   1.4834   2.1733 O.2            1 S1                 0.0000
      6 ****        -0.9530   1.0700   0.2147 N.am           1 S1                 0.0000
      7 ****         0.1953   0.4385   0.9800 C.3            1 S1                 0.0000
      8 ****         1.3475   0.4424   0.1872 O.3            1 S1                 0.0000
      9 ****         1.6553  -0.8817  -0.2411 C.3            1 S1                 0.0000
     10 ****         3.1525  -0.9868  -0.5667 C.3            1 S1                 0.0000
     11 ****         3.3959  -0.5074  -1.8718 O.3            1 S1                 0.0000
     12 ****         1.2289  -1.7040   0.9740 C.3            1 S1                 0.0000
     13 ****         1.0905  -3.0847   0.6928 O.3            1 S1                 0.0000
     14 ****        -0.0763  -1.0305   1.3861 C.3            1 S1                 0.0000
     15 ****        -1.2005  -1.6032   0.7338 O.3            1 S1                 0.0000
     16 ****        -0.9562   1.1757  -1.1713 C.2            1 S1                 0.0000
     17 ****        -1.9782   1.7369  -1.8596 C.2            1 S1                 0.0000
     18 ****        -1.7931   1.7928  -3.8310 Br             1 S1                 0.0000
     19 ****        -3.8919   2.4853   0.7450 H              1 S1                 0.0000
     20 ****         0.3857   1.0956   1.8308 H              1 S1                 0.0000
     21 ****         1.0425  -1.1544  -1.1023 H              1 S1                 0.0000
     22 ****         3.7571  -0.4415   0.1585 H              1 S1                 0.0000
     23 ****         3.4713  -2.0290  -0.5367 H              1 S1                 0.0000
     24 ****         4.3173  -0.6010  -2.0595 H              1 S1                 0.0000
     25 ****         1.9618  -1.5787   1.7729 H              1 S1                 0.0000
     26 ****         0.7182  -3.5097   1.4503 H              1 S1                 0.0000
     27 ****        -0.2355  -1.0891   2.4632 H              1 S1                 0.0000
     28 ****        -1.9593  -1.0754   0.9307 H              1 S1                 0.0000
     29 ****        -0.1218   0.8015  -1.7438 H              1 S1                 0.0000
     30 ****        -4.1475   2.8826  -2.7058 LP             1 S1                 0.0000
     31 ****        -4.8797   3.1289  -1.1555 LP             1 S1                 0.0000
     32 ****        -2.9300   1.8355   2.6521 LP             1 S1                 0.0000
     33 ****        -1.3768   1.0699   2.6911 LP             1 S1                 0.0000
     34 ****         2.1132   0.8038   0.7192 LP             1 S1                 0.0000
     35 ****         1.1953   1.0216  -0.6137 LP             1 S1                 0.0000
     36 ****         3.1360   0.4565  -1.9308 LP             1 S1                 0.0000
     37 ****         2.8621  -1.0374  -2.5306 LP             1 S1                 0.0000
     38 ****         1.9870  -3.4793   0.4914 LP             1 S1                 0.0000
     39 ****         0.4868  -3.2096  -0.0946 LP             1 S1                 0.0000
     40 ****        -1.3433  -2.5365   1.0633 LP             1 S1                 0.0000
     41 ****        -1.0466  -1.6184  -0.2541 LP             1 S1                 0.0000
@<TRIPOS>BOND
    1    1    2 2     
    2    2   17 1     
    3    2    3 1     
    4    3   19 1     
    5    3    4 1     
    6    4    5 2     
    7    4    6 1     
    8    6    7 1     
    9    6   16 1     
   10    7   14 1     
   11    7    8 1     
   12    7   20 1     
   13    8    9 1     
   14    9   10 1     
   15    9   12 1     
   16    9   21 1     
   17   10   11 1     
   18   10   22 1     
   19   10   23 1     
   20   11   24 1     
   21   12   13 1     
   22   12   14 1     
   23   12   25 1     
   24   13   26 1     
   25   14   15 1     
   26   14   27 1     
   27   15   28 1     
   28   16   17 2     
   29   16   29 1     
   30   17   18 1     
   31    1   30 1     
   32    1   31 1     
   33    5   32 1     
   34    5   33 1     
   35    8   34 1     
   36    8   35 1     
   37   11   36 1     
   38   11   37 1     
   39   13   38 1     
   40   13   39 1     
   41   15   40 1     
   42   15   41 1     
@<TRIPOS>SUBSTRUCTURE
      1 S1             1
@<TRIPOS>SET
LONE_PAIRS      STATIC     ATOMS    <user>   **** ""
12 30 31 32 33 34 35 36 37 38 39 40 41
DONOR_HYDROGENS      STATIC     ATOMS    <user>   **** ""
4 19 24 26 28
ATOM$BLUE        STATIC     ATOMS    COLORGROUP SYSTEM
12 30 31 32 33 34 35 36 37 38 39 40 41
ATOM$RED        STATIC     ATOMS    COLORGROUP SYSTEM
4 19 24 26 28
