AV-unprocessed.smi:1166|AV-procd|sdf|4937|dock7
  -GOLD-   22720 3523D 1   1.00000     0.00000
 Structure written by MMmdl.
 46 47  0  0  0  0  0  0  0  0  1 V2000
  152.4067  142.0353  159.4576 C   0  0  0  0  0  0  0  0  0  0  0  0
  151.6611  142.2727  158.2257 N   0  0  0  0  0  0  0  0  0  0  0  0
  151.2659  143.6289  157.8660 C   0  0  0  0  0  0  0  0  0  0  0  0
  151.2739  141.1803  157.4159 C   0  0  0  0  0  0  0  0  0  0  0  0
  150.6603  141.3757  156.1536 C   0  0  0  0  0  0  0  0  0  0  0  0
  150.2910  140.2563  155.3834 C   0  0  0  0  0  0  0  0  0  0  0  0
  150.5490  138.9608  155.8872 C   0  0  0  0  0  0  0  0  0  0  0  0
  150.2077  137.7530  155.2202 N   0  0  0  0  0  0  0  0  0  0  0  0
  150.1812  136.5005  155.7073 C   0  0  0  0  0  0  0  0  0  0  0  0
  150.4228  136.1814  156.8712 O   0  0  0  0  0  0  0  0  0  0  0  0
  149.8335  135.6211  154.7572 N   0  0  0  0  0  0  0  0  0  0  0  0
  149.7077  134.1794  154.9478 C   0  0  1  0  0  0  0  0  0  0  0  0
  149.3236  133.4858  153.6301 C   0  0  0  0  0  0  0  0  0  0  0  0
  149.2532  131.9699  153.8446 C   0  0  0  0  0  0  0  0  0  0  0  0
  150.5752  131.4226  154.4106 C   0  0  0  0  0  0  0  0  0  0  0  0
  150.9873  132.1456  155.6311 N   0  0  0  0  0  0  0  0  0  0  0  0
  150.7303  131.4282  157.1957 S   0  0  0  0  0  0  0  0  0  0  0  0
  152.4146  130.9364  157.7487 C   0  0  0  0  0  0  0  0  0  0  0  0
  150.2414  132.4824  158.0975 O   0  0  0  0  0  0  0  0  0  0  0  0
  149.9348  130.2057  157.0051 O   0  0  0  0  0  0  0  0  0  0  0  0
  151.0346  133.6149  155.4917 C   0  0  0  0  0  0  0  0  0  0  0  0
  151.1529  138.8653  157.1561 C   0  0  0  0  0  0  0  0  0  0  0  0
  151.5091  139.9350  157.8968 N   0  0  0  0  0  0  0  0  0  0  0  0
  153.3496  141.5313  159.2438 H   0  0  0  0  0  0  0  0  0  0  0  0
  151.8278  141.4135  160.1413 H   0  0  0  0  0  0  0  0  0  0  0  0
  152.6380  142.9692  159.9700 H   0  0  0  0  0  0  0  0  0  0  0  0
  150.1798  143.7118  157.8180 H   0  0  0  0  0  0  0  0  0  0  0  0
  151.6817  143.9047  156.8966 H   0  0  0  0  0  0  0  0  0  0  0  0
  151.6218  144.3541  158.5982 H   0  0  0  0  0  0  0  0  0  0  0  0
  150.4610  142.3612  155.7612 H   0  0  0  0  0  0  0  0  0  0  0  0
  149.8070  140.4184  154.4334 H   0  0  0  0  0  0  0  0  0  0  0  0
  149.9073  137.8615  154.2624 H   0  0  0  0  0  0  0  0  0  0  0  0
  149.6468  135.9738  153.8299 H   0  0  0  0  0  0  0  0  0  0  0  0
  148.9246  133.9939  155.6831 H   0  0  0  0  0  0  0  0  0  0  0  0
  148.3616  133.8525  153.2701 H   0  0  0  0  0  0  0  0  0  0  0  0
  150.0574  133.7155  152.8561 H   0  0  0  0  0  0  0  0  0  0  0  0
  148.4301  131.7344  154.5180 H   0  0  0  0  0  0  0  0  0  0  0  0
  149.0243  131.4739  152.9010 H   0  0  0  0  0  0  0  0  0  0  0  0
  150.4885  130.3551  154.6117 H   0  0  0  0  0  0  0  0  0  0  0  0
  151.3632  131.5311  153.6647 H   0  0  0  0  0  0  0  0  0  0  0  0
  152.3461  130.4888  158.7399 H   0  0  0  0  0  0  0  0  0  0  0  0
  153.0592  131.8120  157.8008 H   0  0  0  0  0  0  0  0  0  0  0  0
  152.8333  130.2041  157.0608 H   0  0  0  0  0  0  0  0  0  0  0  0
  151.8500  133.8658  154.8121 H   0  0  0  0  0  0  0  0  0  0  0  0
  151.2813  134.0753  156.4483 H   0  0  0  0  0  0  0  0  0  0  0  0
  151.3612  137.8995  157.5928 H   0  0  0  0  0  0  0  0  0  0  0  0
  1  2  1  0  0  0  0
  1 24  1  0  0  0  0
  1 25  1  0  0  0  0
  1 26  1  0  0  0  0
  2  3  1  0  0  0  0
  2  4  1  0  0  0  0
  3 27  1  0  0  0  0
  3 28  1  0  0  0  0
  3 29  1  0  0  0  0
  4 23  1  0  0  0  0
  4  5  2  0  0  0  0
  5  6  1  0  0  0  0
  5 30  1  0  0  0  0
  6  7  2  0  0  0  0
  6 31  1  0  0  0  0
  7  8  1  0  0  0  0
  7 22  1  0  0  0  0
  8  9  1  0  0  0  0
  8 32  1  0  0  0  0
  9 10  2  0  0  0  0
  9 11  1  0  0  0  0
 11 12  1  0  0  0  0
 11 33  1  0  0  0  0
 12 21  1  0  0  0  0
 12 13  1  0  0  0  0
 12 34  1  0  0  0  0
 13 14  1  0  0  0  0
 13 35  1  0  0  0  0
 13 36  1  0  0  0  0
 14 15  1  0  0  0  0
 14 37  1  0  0  0  0
 14 38  1  0  0  0  0
 15 16  1  0  0  0  0
 15 39  1  0  0  0  0
 15 40  1  0  0  0  0
 16 17  1  0  0  0  0
 16 21  1  0  0  0  0
 17 18  1  0  0  0  0
 17 19  2  0  0  0  0
 17 20  2  0  0  0  0
 18 41  1  0  0  0  0
 18 42  1  0  0  0  0
 18 43  1  0  0  0  0
 21 44  1  0  0  0  0
 21 45  1  0  0  0  0
 22 23  2  0  0  0  0
 22 46  1  0  0  0  0
M  END
> <s_m_source_file>
AV-unprocessed.smi

> <i_m_source_file_index>
1166

> <i_lp_mmshare_version>
43012

> <i_f3d_flags>
0

> <s_epik_input>
W0NIM11OKFtDSDNdKWMxW2NIXVtjSF1jKFtjSF1uMSlbTkhdQyg9TylbTkhdW0NAQEhdMltDSDJdW0NIMl1bQ0gyXU4oW0NIMl0yKVMoPU8pKD1PKVtDSDNd

> <s_epik_cmdline>
J2VwaWtfcHl0aG9uJywgJy1waCcsICc3LjAnLCAnLXRuJywgJzgnLCAnLW1hJywgJzIwMCcsICctbWV0YWxfYmluZGluZycsICctaW1hZScsICc8aW5maWxlLm1hZT4nLCAnLW9tYWUnLCAnPG91dGZpbGUubWFlPic=

> <r_lp_tautomer_probability>
1

> <r_epik_Ionization_Penalty>
0.585334

> <r_epik_Ionization_Penalty_Charging>
0

> <r_epik_Ionization_Penalty_Neutral>
0.585334

> <r_epik_State_Penalty>
0.597345

> <r_epik_Charging_Adjusted_Penalty>
0.597345

> <i_epik_Tot_Q>
0

> <i_epik_Tot_abs_Q>
0

> <r_epik_Metal_State_Penalty>
0.29678

> <b_epik_Metal_Only>
0

> <s_lp_Force_Field>
OPLS_2005

> <r_lp_Energy>
2.0747

> <b_lp_Chiralities_Consistent>
1

> <s_lp_Variant>
AV-unprocessed.smi:1166-4

> <Gold.Version>
5.8.1

> <Gold.Id.Protein>
6NUR|6NUR_protein|mol2

> <Gold.PLP.Fitness>
40.5322

> <Gold.PLP.PLP>
-34.6629

> <Gold.PLP.part.hbond>
-2.0000

> <Gold.PLP.part.metal>
0.0000

> <Gold.PLP.part.buried>
-3.3707

> <Gold.PLP.part.nonpolar>
-28.1593

> <Gold.PLP.part.repulsive>
0.0701

> <Gold.PLP.ligand.clash>
0.0000

> <Gold.PLP.ligand.torsion>
1.0964

> <Gold.PLP.Chemscore.Hbond>
2.0000

> <Gold.PLP.Chemscore.CHOScore>
0.0000

> <Gold.PLP.Chemscore.Metal>
0.0000

> <Gold.Chemscore.Hbonds>
donor molecule, donor type, donor heavy atom, donor atom, acceptor molecule, acceptor atom, score
      L1  H    11    33       P1  7948  0.91
      P1  H  6896  6909       L1    19  1.00

> <Gold.PLP.Chemscore.Internal.Correction>
2.0621

> <Gold.Rescore>
     Score         DG    S(hbond)    S(metal)    S(lipo)     H(rot)  DE(clash)    DE(int)     intcor
     14.90     -18.30       1.94        0.00      76.22       1.00       0.06       3.34       ----

> <Gold.Chemscore.Fitness>
14.9026

> <Gold.Chemscore.DG>
-18.3011

> <Gold.Chemscore.ZeroCoef>
-5.4800

> <Gold.Chemscore.Hbond>
1.9351

> <Gold.Chemscore.Metal>
0.0000

> <Gold.Chemscore.Lipo>
76.2220

> <Gold.Chemscore.Internal_Hbond>
0.0000

> <Gold.Chemscore.DEClash>
0.0566

> <Gold.Chemscore.DEInternal>
3.3418

> <Gold.Chemscore.Rot>
1.0000

> <Gold.Chemscore.Internal.Correction>
   9.000000E+99

> <Gold.Chemscore.Hbonds>
donor molecule, donor type, donor heavy atom, donor atom, acceptor molecule, acceptor atom, score
      L1  H    11    33       P1  7948  0.30
      P1  H  6896  6909       L1    19  1.00

> <Gold.Chemscore.Hbond.Weighted>
-6.4631

> <Gold.Chemscore.Metal.Weighted>
-0.0000

> <Gold.Chemscore.Lipo.Weighted>
-8.9180

> <Gold.Chemscore.Internal_Hbond.Weighted>
0.0000

> <Gold.Chemscore.DEClash.Weighted>
0.0566

> <Gold.Chemscore.DEInternal.Weighted>
3.3418

> <Gold.Chemscore.Rot.Weighted>
2.5600

> <Gold.Chemscore.Internal.Correction.Weighted>
   9.000000E+99

> <Gold.Protein.RotatedTorsions>
[ 6907 6896 6895 6894 ] final  -23.28 input  -60.11 | X-H torsion
[ 7974 7965 7964 7962 ] final   75.63 input  175.53 | X-H torsion
[ 8008 7997 7996 7995 ] final  -57.14 input   59.86 | X-H torsion
[ 10167 10162 10161 10158 ] final -117.61 input  -65.29 | X-H torsion
[ 10718 10713 10712 10709 ] final  118.56 input   66.30 | X-H torsion
[ 10763 10752 10751 10750 ] final -117.50 input  -60.55 | X-H torsion
[ 11005 11000 10999 10996 ] final   25.49 input  -57.11 | X-H torsion

> <Gold.Protein.ActiveResidues>
 VAL166  LYS551  ARG553  GLY616  TRP617  ASP618  TYR619  PRO620  LYS621  CYS622 
 ASP623  PHE694  ASN695  SER759  ASP760  ASP761  ALA762  ILE779  LEU786  VAL792 
 PHE793  MET794  SER795  GLU796  ALA797  LYS798  CYS799  TRP800  GLU811  SER814 

> <Gold.Protein.RotatedAtoms>
  151.2062  135.0463  159.8892 H   0  0  0  0  0  0  0  0  0  0  0  0  # atno 6907 bound_to 6896
  152.5428  134.0795  159.8239 H   0  0  0  0  0  0  0  0  0  0  0  0  # atno 6908 bound_to 6896
  151.0942  133.5245  159.2645 H   0  0  0  0  0  0  0  0  0  0  0  0  # atno 6909 bound_to 6896
  145.7132  139.2622  143.1639 H   0  0  0  0  0  0  0  0  0  0  0  0  # atno 7974 bound_to 7965
  154.4256  140.1113  156.5750 H   0  0  0  0  0  0  0  0  0  0  0  0  # atno 8008 bound_to 7997
  155.6172  140.3495  155.4622 H   0  0  0  0  0  0  0  0  0  0  0  0  # atno 8009 bound_to 7997
  156.0053  140.1207  157.0497 H   0  0  0  0  0  0  0  0  0  0  0  0  # atno 8010 bound_to 7997
  140.0664  143.4918  152.2003 H   0  0  0  0  0  0  0  0  0  0  0  0  # atno 10167 bound_to 10162
  157.6021  131.1049  150.7774 H   0  0  0  0  0  0  0  0  0  0  0  0  # atno 10718 bound_to 10713
  154.8557  135.4307  154.1990 H   0  0  0  0  0  0  0  0  0  0  0  0  # atno 10763 bound_to 10752
  153.3041  135.6971  153.7182 H   0  0  0  0  0  0  0  0  0  0  0  0  # atno 10764 bound_to 10752
  153.6300  135.3486  155.3013 H   0  0  0  0  0  0  0  0  0  0  0  0  # atno 10765 bound_to 10752
  140.3473  134.2267  155.7683 H   0  0  0  0  0  0  0  0  0  0  0  0  # atno 11005 bound_to 11000
  146.0694  140.7886  142.9696 LP  0  0  0  0  0  0  0  0  0  0  0  0  # atno 17320 bound_to 7965
  144.6936  140.3318  143.7214 LP  0  0  0  0  0  0  0  0  0  0  0  0  # atno 17321 bound_to 7965
  139.5862  144.7532  151.3514 LP  0  0  0  0  0  0  0  0  0  0  0  0  # atno 17342 bound_to 10162
  140.7147  143.7299  150.7632 LP  0  0  0  0  0  0  0  0  0  0  0  0  # atno 17343 bound_to 10162
  156.8170  130.4971  149.5348 LP  0  0  0  0  0  0  0  0  0  0  0  0  # atno 17370 bound_to 10713
  156.1098  130.6031  151.0028 LP  0  0  0  0  0  0  0  0  0  0  0  0  # atno 17371 bound_to 10713
  141.2022  133.7944  157.0403 LP  0  0  0  0  0  0  0  0  0  0  0  0  # atno 17394 bound_to 11000
  140.0732  134.9690  157.1502 LP  0  0  0  0  0  0  0  0  0  0  0  0  # atno 17395 bound_to 11000

$$$$
