AV-unprocessed.smi:661|AV-procd|sdf|3241|dock5
  -GOLD-   22720 0193D 1   1.00000     0.00000
 Structure written by MMmdl.
 30 31  0  0  0  0  0  0  0  0  1 V2000
  150.4018  138.7432  154.1059 C   0  0  0  0  0  0  0  0  0  0  0  0
  150.8179  139.9192  154.8485 N   0  0  0  0  0  0  0  0  0  0  0  0
  151.4213  139.5138  156.1072 C   0  0  0  0  0  0  0  0  0  0  0  0
  151.6132  140.6661  157.0440 C   0  0  0  0  0  0  0  0  0  0  0  0
  151.2235  141.9004  156.7236 N   0  0  0  0  0  0  0  0  0  0  0  0
  151.5857  142.6323  157.8376 C   0  0  0  0  0  0  0  0  0  0  0  0
  151.4418  144.0098  158.1185 C   0  0  0  0  0  0  0  0  0  0  0  0
  151.8972  144.5400  159.3435 C   0  0  0  0  0  0  0  0  0  0  0  0
  152.5020  143.7024  160.3030 C   0  0  0  0  0  0  0  0  0  0  0  0
  152.6546  142.3268  160.0435 C   0  0  0  0  0  0  0  0  0  0  0  0
  152.1974  141.8026  158.8196 C   0  0  0  0  0  0  0  0  0  0  0  0
  152.1957  140.5279  158.2625 N   0  0  0  0  0  0  0  0  0  0  0  0
  152.7257  139.3242  158.8854 C   0  0  0  0  0  0  0  0  0  0  0  0
  151.6328  138.2669  159.0931 C   0  0  0  0  0  0  0  0  0  0  0  0
  152.2087  137.0795  159.5918 O   0  0  0  0  0  0  0  0  0  0  0  0
  149.9396  139.0433  153.1654 H   0  0  0  0  0  0  0  0  0  0  0  0
  149.6730  138.1620  154.6723 H   0  0  0  0  0  0  0  0  0  0  0  0
  151.2560  138.1051  153.8764 H   0  0  0  0  0  0  0  0  0  0  0  0
  150.0050  140.4865  155.0432 H   0  0  0  0  0  0  0  0  0  0  0  0
  150.7824  138.7714  156.5878 H   0  0  0  0  0  0  0  0  0  0  0  0
  152.3826  139.0306  155.9306 H   0  0  0  0  0  0  0  0  0  0  0  0
  150.9803  144.6599  157.3902 H   0  0  0  0  0  0  0  0  0  0  0  0
  151.7823  145.5944  159.5474 H   0  0  0  0  0  0  0  0  0  0  0  0
  152.8488  144.1169  161.2384 H   0  0  0  0  0  0  0  0  0  0  0  0
  153.1183  141.6819  160.7753 H   0  0  0  0  0  0  0  0  0  0  0  0
  153.5150  138.9280  158.2452 H   0  0  0  0  0  0  0  0  0  0  0  0
  153.2004  139.5765  159.8331 H   0  0  0  0  0  0  0  0  0  0  0  0
  150.8793  138.6185  159.7979 H   0  0  0  0  0  0  0  0  0  0  0  0
  151.1242  138.0467  158.1540 H   0  0  0  0  0  0  0  0  0  0  0  0
  153.1492  137.1711  159.5722 H   0  0  0  0  0  0  0  0  0  0  0  0
  1  2  1  0  0  0  0
  1 16  1  0  0  0  0
  1 17  1  0  0  0  0
  1 18  1  0  0  0  0
  2  3  1  0  0  0  0
  2 19  1  0  0  0  0
  3  4  1  0  0  0  0
  3 20  1  0  0  0  0
  3 21  1  0  0  0  0
  4 12  1  0  0  0  0
  4  5  2  0  0  0  0
  5  6  1  0  0  0  0
  6 11  2  0  0  0  0
  6  7  1  0  0  0  0
  7  8  2  0  0  0  0
  7 22  1  0  0  0  0
  8  9  1  0  0  0  0
  8 23  1  0  0  0  0
  9 10  2  0  0  0  0
  9 24  1  0  0  0  0
 10 11  1  0  0  0  0
 10 25  1  0  0  0  0
 11 12  1  0  0  0  0
 12 13  1  0  0  0  0
 13 14  1  0  0  0  0
 13 26  1  0  0  0  0
 13 27  1  0  0  0  0
 14 15  1  0  0  0  0
 14 28  1  0  0  0  0
 14 29  1  0  0  0  0
 15 30  1  0  0  0  0
M  END
> <s_m_source_file>
AV-unprocessed.smi

> <i_m_source_file_index>
661

> <i_lp_mmshare_version>
43012

> <i_f3d_flags>
0

> <s_epik_input>
W0NIM11bTkhdW0NIMl1jKG4xKW4oW0NIMl1bQ0gyXVtPSF0pYyhjMTIpW2NIXVtjSF1bY0hdW2NIXTI=

> <s_epik_cmdline>
J2VwaWtfcHl0aG9uJywgJy1waCcsICc3LjAnLCAnLXRuJywgJzgnLCAnLW1hJywgJzIwMCcsICctbWV0YWxfYmluZGluZycsICctaW1hZScsICc8aW5maWxlLm1hZT4nLCAnLW9tYWUnLCAnPG91dGZpbGUubWFlPic=

> <r_epik_Ionization_Penalty>
1.98932

> <r_epik_Ionization_Penalty_Charging>
0

> <r_epik_Ionization_Penalty_Neutral>
1.98932

> <r_epik_State_Penalty>
1.95598

> <r_epik_Charging_Adjusted_Penalty>
1.95598

> <i_epik_Tot_Q>
0

> <i_epik_Tot_abs_Q>
0

> <r_epik_Metal_State_Penalty>
1.80219

> <b_epik_Metal_Only>
0

> <s_lp_Force_Field>
OPLS_2005

> <r_lp_Energy>
9.98392

> <b_lp_Chiralities_Consistent>
1

> <s_lp_Variant>
AV-unprocessed.smi:661-2

> <Gold.Version>
5.8.1

> <Gold.Id.Protein>
6NUR|6NUR_protein|mol2

> <Gold.PLP.Fitness>
40.7196

> <Gold.PLP.PLP>
-34.8072

> <Gold.PLP.part.hbond>
-2.0000

> <Gold.PLP.part.metal>
0.0000

> <Gold.PLP.part.buried>
-4.4489

> <Gold.PLP.part.nonpolar>
-28.3663

> <Gold.PLP.part.repulsive>
0.0622

> <Gold.PLP.ligand.clash>
0.0000

> <Gold.PLP.ligand.torsion>
0.0482

> <Gold.PLP.Chemscore.Hbond>
2.0000

> <Gold.PLP.Chemscore.CHOScore>
0.0000

> <Gold.PLP.Chemscore.Metal>
0.0000

> <Gold.Chemscore.Hbonds>
donor molecule, donor type, donor heavy atom, donor atom, acceptor molecule, acceptor atom, score
      P1  H  6896  6909       L1    15  1.00
      P1  H  7989  7998       L1     2  1.00

> <Gold.PLP.Chemscore.Internal.Correction>
0.0088

> <Gold.Rescore>
     Score         DG    S(hbond)    S(metal)    S(lipo)     H(rot)  DE(clash)    DE(int)     intcor
     14.07     -14.17       1.26        0.00      88.73       2.30       0.00       0.10       ----

> <Gold.Chemscore.Fitness>
14.0668

> <Gold.Chemscore.DG>
-14.1682

> <Gold.Chemscore.ZeroCoef>
-5.4800

> <Gold.Chemscore.Hbond>
1.2585

> <Gold.Chemscore.Metal>
0.0000

> <Gold.Chemscore.Lipo>
88.7263

> <Gold.Chemscore.Internal_Hbond>
0.0000

> <Gold.Chemscore.DEClash>
0.0021

> <Gold.Chemscore.DEInternal>
0.0993

> <Gold.Chemscore.Rot>
2.3031

> <Gold.Chemscore.Internal.Correction>
   9.000000E+99

> <Gold.Chemscore.Hbonds>
donor molecule, donor type, donor heavy atom, donor atom, acceptor molecule, acceptor atom, score
      P1  H  6896  6909       L1    15  0.61
      P1  H  7989  7998       L1     2  0.09

> <Gold.Chemscore.Hbond.Weighted>
-4.2032

> <Gold.Chemscore.Metal.Weighted>
-0.0000

> <Gold.Chemscore.Lipo.Weighted>
-10.3810

> <Gold.Chemscore.Internal_Hbond.Weighted>
0.0000

> <Gold.Chemscore.DEClash.Weighted>
0.0021

> <Gold.Chemscore.DEInternal.Weighted>
0.0993

> <Gold.Chemscore.Rot.Weighted>
5.8960

> <Gold.Chemscore.Internal.Correction.Weighted>
   9.000000E+99

> <Gold.Protein.RotatedTorsions>
[ 6907 6896 6895 6894 ] final  131.67 input  -60.11 | X-H torsion
[ 7974 7965 7964 7962 ] final  143.10 input  175.53 | X-H torsion
[ 8008 7997 7996 7995 ] final  -93.21 input   59.86 | X-H torsion
[ 10167 10162 10161 10158 ] final   52.57 input  -65.29 | X-H torsion
[ 10718 10713 10712 10709 ] final  -72.01 input   66.30 | X-H torsion
[ 10763 10752 10751 10750 ] final  -61.31 input  -60.55 | X-H torsion
[ 11005 11000 10999 10996 ] final  113.72 input  -57.11 | X-H torsion

> <Gold.Protein.ActiveResidues>
 VAL166  LYS551  ARG553  GLY616  TRP617  ASP618  TYR619  PRO620  LYS621  CYS622 
 ASP623  PHE694  ASN695  SER759  ASP760  ASP761  ALA762  ILE779  LEU786  VAL792 
 PHE793  MET794  SER795  GLU796  ALA797  LYS798  CYS799  TRP800  GLU811  SER814 

> <Gold.Protein.RotatedAtoms>
  152.3403  133.6059  159.5871 H   0  0  0  0  0  0  0  0  0  0  0  0  # atno 6907 bound_to 6896
  150.7474  133.9733  159.3561 H   0  0  0  0  0  0  0  0  0  0  0  0  # atno 6908 bound_to 6896
  151.7598  135.0813  160.0395 H   0  0  0  0  0  0  0  0  0  0  0  0  # atno 6909 bound_to 6896
  144.8950  139.5504  143.5781 H   0  0  0  0  0  0  0  0  0  0  0  0  # atno 7974 bound_to 7965
  154.7327  140.0501  157.0741 H   0  0  0  0  0  0  0  0  0  0  0  0  # atno 8008 bound_to 7997
  155.0280  140.3154  155.4749 H   0  0  0  0  0  0  0  0  0  0  0  0  # atno 8009 bound_to 7997
  156.2845  140.2155  156.5400 H   0  0  0  0  0  0  0  0  0  0  0  0  # atno 8010 bound_to 7997
  140.2500  144.3490  150.6351 H   0  0  0  0  0  0  0  0  0  0  0  0  # atno 10167 bound_to 10162
  156.0338  130.4363  150.2529 H   0  0  0  0  0  0  0  0  0  0  0  0  # atno 10718 bound_to 10713
  154.2826  135.6269  153.5353 H   0  0  0  0  0  0  0  0  0  0  0  0  # atno 10763 bound_to 10752
  152.9863  135.5636  154.5479 H   0  0  0  0  0  0  0  0  0  0  0  0  # atno 10764 bound_to 10752
  154.5073  135.2875  155.1348 H   0  0  0  0  0  0  0  0  0  0  0  0  # atno 10765 bound_to 10752
  139.8961  134.9555  156.6783 H   0  0  0  0  0  0  0  0  0  0  0  0  # atno 11005 bound_to 11000
  146.3076  139.7632  142.9044 LP  0  0  0  0  0  0  0  0  0  0  0  0  # atno 17320 bound_to 7965
  145.3717  141.0344  143.3227 LP  0  0  0  0  0  0  0  0  0  0  0  0  # atno 17321 bound_to 7965
  140.6048  143.2167  151.7002 LP  0  0  0  0  0  0  0  0  0  0  0  0  # atno 17342 bound_to 10162
  139.5049  144.3736  152.0446 LP  0  0  0  0  0  0  0  0  0  0  0  0  # atno 17343 bound_to 10162
  157.0630  131.0095  151.3216 LP  0  0  0  0  0  0  0  0  0  0  0  0  # atno 17370 bound_to 10713
  157.5056  130.7907  149.7651 LP  0  0  0  0  0  0  0  0  0  0  0  0  # atno 17371 bound_to 10713
  140.7319  133.9051  155.8217 LP  0  0  0  0  0  0  0  0  0  0  0  0  # atno 17394 bound_to 11000
  141.0146  134.0973  157.4185 LP  0  0  0  0  0  0  0  0  0  0  0  0  # atno 17395 bound_to 11000

$$$$
