#       Name:                AV-unprocessed.smi:1254
#       Creating user name   scv26
#       Creation time:       Fri Mar 27 04:39:45 2020


#       File generated by GOLD software.
#

@<TRIPOS>MOLECULE
AV-unprocessed.smi:1254
    53    54     1
SMALL
NO_CHARGES


@<TRIPOS>ATOM
      1 ****        -7.0079   5.4401  -0.8516 C.3            1 S1                 0.0000
      2 ****        -5.8895   4.6954  -0.2064 C.2            1 S1                 0.0000
      3 ****        -4.6575   4.3058  -0.6495 C.2            1 S1                 0.0000
      4 ****        -4.1079   3.6281   0.4729 C.2            1 S1                 0.0000
      5 ****        -2.8912   3.0653   0.5350 N.pl3          1 S1                -1.0000
      6 ****        -2.7075   1.7929   0.1144 C.2            1 S1                 0.0000
      7 ****        -3.5698   1.0387  -0.3419 O.2            1 S1                 0.0000
      8 ****        -1.4436   1.3670   0.2288 N.am           1 S1                 0.0000
      9 ****        -0.9678   0.0435  -0.1496 C.3            1 S1                 0.0000
     10 ****         0.5583  -0.0406  -0.0139 C.3            1 S1                 0.0000
     11 ****         1.0820  -1.4640  -0.2886 C.3            1 S1                 0.0000
     12 ****         2.5641  -1.4970  -0.2205 N.4            1 S1                 1.0000
     13 ****         3.1420  -2.8497  -0.4277 C.3            1 S1                 0.0000
     14 ****         2.9902  -3.7708   0.8021 C.3            1 S1                 0.0000
     15 ****         3.7270  -3.2135   2.0319 C.3            1 S1                 0.0000
     16 ****         3.4859  -5.1879   0.4778 C.3            1 S1                 0.0000
     17 ****         3.1451  -0.4885  -1.1378 C.3            1 S1                 0.0000
     18 ****         2.5588   0.9022  -0.8478 C.3            1 S1                 0.0000
     19 ****         1.1432   0.8502  -0.9591 O.3            1 S1                 0.0000
     20 ****        -4.9268   3.6233   1.5118 N.2            1 S1                 0.0000
     21 ****        -6.0749   4.2994   1.0818 O.3            1 S1                 0.0000
     22 ****        -6.6433   6.3547  -1.3189 H              1 S1                 0.0000
     23 ****        -7.7704   5.7143  -0.1223 H              1 S1                 0.0000
     24 ****        -7.4806   4.8314  -1.6225 H              1 S1                 0.0000
     25 ****        -4.2197   4.4742  -1.6220 H              1 S1                 0.0000
     26 ****        -0.7651   2.0138   0.6031 H              1 S1                 0.0000
     27 ****        -1.4427  -0.6957   0.4973 H              1 S1                 0.0000
     28 ****        -1.2690  -0.1823  -1.1739 H              1 S1                 0.0000
     29 ****         0.8414   0.2616   0.9967 H              1 S1                 0.0000
     30 ****         0.6539  -2.1495   0.4418 H              1 S1                 0.0000
     31 ****         0.7540  -1.8014  -1.2733 H              1 S1                 0.0000
     32 ****         2.6834  -3.3034  -1.3077 H              1 S1                 0.0000
     33 ****         4.2053  -2.7568  -0.6549 H              1 S1                 0.0000
     34 ****         1.9342  -3.8596   1.0553 H              1 S1                 0.0000
     35 ****         4.7933  -3.0954   1.8360 H              1 S1                 0.0000
     36 ****         3.6199  -3.8801   2.8883 H              1 S1                 0.0000
     37 ****         3.3327  -2.2411   2.3277 H              1 S1                 0.0000
     38 ****         4.5455  -5.1893   0.2194 H              1 S1                 0.0000
     39 ****         2.9379  -5.6142  -0.3632 H              1 S1                 0.0000
     40 ****         3.3509  -5.8569   1.3283 H              1 S1                 0.0000
     41 ****         4.2291  -0.4592  -1.0204 H              1 S1                 0.0000
     42 ****         2.9409  -0.7727  -2.1714 H              1 S1                 0.0000
     43 ****         2.8476   1.2501   0.1454 H              1 S1                 0.0000
     44 ****         2.9425   1.6292  -1.5638 H              1 S1                 0.0000
     45 ****         2.8244  -1.2124   0.7131 H              1 S1                 0.0000
     46 ****        -2.1178   3.5883   0.8934 LP             1 S1                 0.0000
     47 ****        -4.5146   1.3543  -0.4292 LP             1 S1                 0.0000
     48 ****        -3.3242   0.1115  -0.6246 LP             1 S1                 0.0000
     49 ****         0.7749   1.7674  -0.8071 LP             1 S1                 0.0000
     50 ****         0.9043   0.5436  -1.8804 LP             1 S1                 0.0000
     51 ****        -4.7610   3.2221   2.4127 LP             1 S1                 0.0000
     52 ****        -6.8652   3.6892   1.1361 LP             1 S1                 0.0000
     53 ****        -6.2312   5.0996   1.6609 LP             1 S1                 0.0000
@<TRIPOS>BOND
    1    1    2 1     
    2    1   22 1     
    3    1   23 1     
    4    1   24 1     
    5    2   21 1     
    6    2    3 2     
    7    3    4 1     
    8    3   25 1     
    9    4    5 1     
   10    4   20 2     
   11    5    6 1     
   12    6    7 2     
   13    6    8 am    
   14    8    9 1     
   15    8   26 1     
   16    9   10 1     
   17    9   27 1     
   18    9   28 1     
   19   10   19 1     
   20   10   11 1     
   21   10   29 1     
   22   11   12 1     
   23   11   30 1     
   24   11   31 1     
   25   12   13 1     
   26   12   17 1     
   27   12   45 1     
   28   13   14 1     
   29   13   32 1     
   30   13   33 1     
   31   14   15 1     
   32   14   16 1     
   33   14   34 1     
   34   15   35 1     
   35   15   36 1     
   36   15   37 1     
   37   16   38 1     
   38   16   39 1     
   39   16   40 1     
   40   17   18 1     
   41   17   41 1     
   42   17   42 1     
   43   18   19 1     
   44   18   43 1     
   45   18   44 1     
   46   20   21 1     
   47    5   46 1     
   48    7   47 1     
   49    7   48 1     
   50   19   49 1     
   51   19   50 1     
   52   20   51 1     
   53   21   52 1     
   54   21   53 1     
@<TRIPOS>SUBSTRUCTURE
      1 S1             1
@<TRIPOS>SET
LONE_PAIRS      STATIC     ATOMS    <user>   **** ""
8 46 47 48 49 50 51 52 53
DONOR_HYDROGENS      STATIC     ATOMS    <user>   **** ""
2 26 45
ATOM$BLUE        STATIC     ATOMS    COLORGROUP SYSTEM
8 46 47 48 49 50 51 52 53
ATOM$RED        STATIC     ATOMS    COLORGROUP SYSTEM
2 26 45
