#       Name:                AV-unprocessed.smi:2956
#       Creating user name   scv26
#       Creation time:       Fri Mar 27 16:20:28 2020


#       File generated by GOLD software.
#

@<TRIPOS>MOLECULE
AV-unprocessed.smi:2956
    30    31     1
SMALL
NO_CHARGES


@<TRIPOS>ATOM
      1 ****        -1.1712   0.6812  -0.3287 O.2            1 S1                 0.0000
      2 ****        -0.4776  -0.3313  -0.2200 C.2            1 S1                 0.0000
      3 ****         1.0561  -0.2468  -0.2591 C.3            1 S1                 0.0000
      4 ****         1.5756   1.1228  -0.1255 N.am           1 S1                 0.0000
      5 ****         1.9238   1.7130  -1.3280 N.2            1 S1                 0.0000
      6 ****         2.3743   2.9200  -1.3354 C.2            1 S1                 0.0000
      7 ****         2.5358   3.6895  -0.1217 C.2            1 S1                 0.0000
      8 ****         3.1442   5.3058  -0.1946 Cl             1 S1                 0.0000
      9 ****         2.1974   3.0998   1.0524 C.2            1 S1                 0.0000
     10 ****         2.3629   3.9570   2.5463 Cl             1 S1                 0.0000
     11 ****         1.6814   1.7246   1.0994 C.2            1 S1                 0.0000
     12 ****         1.3664   1.1531   2.1441 O.2            1 S1                 0.0000
     13 ****        -0.9895  -1.5626  -0.0791 N.am           1 S1                 0.0000
     14 ****        -2.3792  -1.8802  -0.0135 C.3            1 S1                 0.0000
     15 ****        -2.7775  -3.1191   0.7595 C.3            1 S1                 0.0000
     16 ****        -2.8561  -3.1177  -0.7423 C.3            1 S1                 0.0000
     17 ****         1.4717  -0.8819   0.5256 H              1 S1                 0.0000
     18 ****         1.3948  -0.6865  -1.1990 H              1 S1                 0.0000
     19 ****         2.6584   3.4262  -2.2580 H              1 S1                 0.0000
     20 ****        -0.3441  -2.3355  -0.0032 H              1 S1                 0.0000
     21 ****        -3.0808  -1.0482   0.0303 H              1 S1                 0.0000
     22 ****        -1.9872  -3.7096   1.2194 H              1 S1                 0.0000
     23 ****        -3.7149  -3.0875   1.3109 H              1 S1                 0.0000
     24 ****        -3.8456  -3.0821  -1.1938 H              1 S1                 0.0000
     25 ****        -2.1181  -3.7052  -1.2852 H              1 S1                 0.0000
     26 ****        -0.7371   1.5747  -0.4444 LP             1 S1                 0.0000
     27 ****        -2.1683   0.6096  -0.3013 LP             1 S1                 0.0000
     28 ****         1.8264   1.2064  -2.1847 LP             1 S1                 0.0000
     29 ****         1.0189   0.2159   2.1161 LP             1 S1                 0.0000
     30 ****         1.4581   1.6265   3.0202 LP             1 S1                 0.0000
@<TRIPOS>BOND
    1    1    2 2     
    2    2    3 1     
    3    2   13 am    
    4    3    4 1     
    5    3   17 1     
    6    3   18 1     
    7    4   11 am    
    8    4    5 1     
    9    5    6 2     
   10    6    7 1     
   11    6   19 1     
   12    7    8 1     
   13    7    9 2     
   14    9   10 1     
   15    9   11 1     
   16   11   12 2     
   17   13   14 1     
   18   13   20 1     
   19   14   16 1     
   20   14   15 1     
   21   14   21 1     
   22   15   16 1     
   23   15   22 1     
   24   15   23 1     
   25   16   24 1     
   26   16   25 1     
   27    1   26 1     
   28    1   27 1     
   29    5   28 1     
   30   12   29 1     
   31   12   30 1     
@<TRIPOS>SUBSTRUCTURE
      1 S1             1
@<TRIPOS>SET
LONE_PAIRS      STATIC     ATOMS    <user>   **** ""
5 26 27 28 29 30
DONOR_HYDROGENS      STATIC     ATOMS    <user>   **** ""
1 20
ATOM$BLUE        STATIC     ATOMS    COLORGROUP SYSTEM
5 26 27 28 29 30
ATOM$RED        STATIC     ATOMS    COLORGROUP SYSTEM
1 20
