AV-unprocessed.smi:771|AV-procd|sdf|3681|dock8
  -GOLD-   22720 1 93D 1   1.00000     0.00000
 Structure written by MMmdl.
 41 42  0  0  0  0  0  0  0  0  3 V2000
  151.8386  136.4386  156.0698 O   0  0  0  0  0  0  0  0  0  0  0  0
  151.2161  136.6016  155.0193 C   0  0  0  0  0  0  0  0  0  0  0  0
  151.4521  137.8448  154.1497 C   0  0  0  0  0  0  0  0  0  0  0  0
  151.0493  139.1000  154.8062 N   0  0  0  0  0  0  0  0  0  0  0  0
  149.8953  139.7396  154.3113 C   0  0  0  0  0  0  0  0  0  0  0  0
  149.4302  140.8877  154.8412 C   0  0  0  0  0  0  0  0  0  0  0  0
  148.2398  141.5272  154.3249 N   0  3  0  0  0  0  0  0  0  0  0  0
  147.2544  140.8347  154.0912 O   0  0  0  0  0  0  0  0  0  0  0  0
  148.2490  142.7401  154.1369 O   0  5  0  0  0  0  0  0  0  0  0  0
  150.1623  141.4620  155.9536 C   0  0  0  0  0  0  0  0  0  0  0  0
  151.2640  140.8525  156.4343 C   0  0  0  0  0  0  0  0  0  0  0  0
  151.7646  139.5995  155.8601 C   0  0  0  0  0  0  0  0  0  0  0  0
  152.7656  139.0338  156.2997 O   0  0  0  0  0  0  0  0  0  0  0  0
  150.2859  135.7430  154.5734 N   0  0  0  0  0  0  0  0  0  0  0  0
  149.8863  134.5034  155.2354 C   0  0  0  0  0  0  0  0  0  0  0  0
  149.4647  133.4026  154.2322 C   0  0  2  0  0  0  0  0  0  0  0  0
  148.0911  133.7074  153.5873 C   0  0  0  0  0  0  0  0  0  0  0  0
  147.6395  132.6005  152.6226 C   0  0  0  0  0  0  0  0  0  0  0  0
  147.6017  131.2368  153.3234 C   0  0  0  0  0  0  0  0  0  0  0  0
  148.9683  130.9042  153.9357 C   0  0  0  0  0  0  0  0  0  0  0  0
  149.4351  132.0065  154.9050 C   0  0  1  0  0  0  0  0  0  0  0  0
  150.7236  131.6531  155.3670 O   0  0  0  0  0  0  0  0  0  0  0  0
  152.5039  137.8895  153.8606 H   0  0  0  0  0  0  0  0  0  0  0  0
  150.9058  137.7121  153.2147 H   0  0  0  0  0  0  0  0  0  0  0  0
  149.4187  139.2289  153.4870 H   0  0  0  0  0  0  0  0  0  0  0  0
  149.8329  142.3842  156.4094 H   0  0  0  0  0  0  0  0  0  0  0  0
  151.7937  141.2976  157.2639 H   0  0  0  0  0  0  0  0  0  0  0  0
  149.8216  135.9614  153.7038 H   0  0  0  0  0  0  0  0  0  0  0  0
  150.7453  134.1702  155.8179 H   0  0  0  0  0  0  0  0  0  0  0  0
  149.0878  134.6817  155.9576 H   0  0  0  0  0  0  0  0  0  0  0  0
  150.2063  133.3747  153.4320 H   0  0  0  0  0  0  0  0  0  0  0  0
  147.3405  133.8353  154.3683 H   0  0  0  0  0  0  0  0  0  0  0  0
  148.1266  134.6491  153.0398 H   0  0  0  0  0  0  0  0  0  0  0  0
  146.6543  132.8383  152.2206 H   0  0  0  0  0  0  0  0  0  0  0  0
  148.3191  132.5569  151.7705 H   0  0  0  0  0  0  0  0  0  0  0  0
  146.8400  131.2447  154.1041 H   0  0  0  0  0  0  0  0  0  0  0  0
  147.3123  130.4611  152.6139 H   0  0  0  0  0  0  0  0  0  0  0  0
  148.9130  129.9471  154.4562 H   0  0  0  0  0  0  0  0  0  0  0  0
  149.6993  130.7792  153.1355 H   0  0  0  0  0  0  0  0  0  0  0  0
  148.7646  132.0329  155.7651 H   0  0  0  0  0  0  0  0  0  0  0  0
  151.1351  131.1022  154.7189 H   0  0  0  0  0  0  0  0  0  0  0  0
  1  2  2  0  0  0  0
  2  3  1  0  0  0  0
  2 14  1  0  0  0  0
  3  4  1  0  0  0  0
  3 23  1  0  0  0  0
  3 24  1  0  0  0  0
  4 12  1  0  0  0  0
  4  5  1  0  0  0  0
  5  6  2  0  0  0  0
  5 25  1  0  0  0  0
  6  7  1  0  0  0  0
  6 10  1  0  0  0  0
  7  8  2  0  0  0  0
  7  9  1  0  0  0  0
 10 11  2  0  0  0  0
 10 26  1  0  0  0  0
 11 12  1  0  0  0  0
 11 27  1  0  0  0  0
 12 13  2  0  0  0  0
 14 15  1  0  0  0  0
 14 28  1  0  0  0  0
 15 16  1  0  0  0  0
 15 29  1  0  0  0  0
 15 30  1  0  0  0  0
 16 21  1  0  0  0  0
 16 17  1  0  0  0  0
 16 31  1  0  0  0  0
 17 18  1  0  0  0  0
 17 32  1  0  0  0  0
 17 33  1  0  0  0  0
 18 19  1  0  0  0  0
 18 34  1  0  0  0  0
 18 35  1  0  0  0  0
 19 20  1  0  0  0  0
 19 36  1  0  0  0  0
 19 37  1  0  0  0  0
 20 21  1  0  0  0  0
 20 38  1  0  0  0  0
 20 39  1  0  0  0  0
 21 22  1  0  0  0  0
 21 40  1  0  0  0  0
 22 41  1  0  0  0  0
M  CHG  1   7   1
M  CHG  1   9  -1
M  END
> <s_m_source_file>
AV-unprocessed.smi

> <i_m_source_file_index>
771

> <i_lp_mmshare_version>
43012

> <i_f3d_flags>
0

> <s_epik_input>
Tz1jMVtjSF1bY0hdYyhbTitdKD1PKVtPLV0pW2NIXW4xW0NIMl1DKD1PKVtOSF1bQ0gyXVtDQEBIXTJbQ0gyXVtDSDJdW0NIMl1bQ0gyXVtDQEhdMltPSF0=

> <s_epik_cmdline>
J2VwaWtfcHl0aG9uJywgJy1waCcsICc3LjAnLCAnLXRuJywgJzgnLCAnLW1hJywgJzIwMCcsICctbWV0YWxfYmluZGluZycsICctaW1hZScsICc8aW5maWxlLm1hZT4nLCAnLW9tYWUnLCAnPG91dGZpbGUubWFlPic=

> <r_lp_tautomer_probability>
1

> <r_epik_Ionization_Penalty>
3.77175e-07

> <r_epik_Ionization_Penalty_Charging>
7.70067e-11

> <r_epik_Ionization_Penalty_Neutral>
3.77098e-07

> <r_epik_State_Penalty>
-0

> <r_epik_Charging_Adjusted_Penalty>
7.70067e-11

> <i_epik_Tot_Q>
0

> <i_epik_Tot_abs_Q>
2

> <r_epik_Metal_State_Penalty>
-0

> <b_epik_Metal_Only>
0

> <s_lp_Force_Field>
OPLS_2005

> <r_lp_Energy>
23.4116

> <b_lp_Chiralities_Consistent>
1

> <s_lp_Variant>
AV-unprocessed.smi:771-1

> <Gold.Version>
5.8.1

> <Gold.Id.Protein>
6NUR|6NUR_protein|mol2

> <Gold.PLP.Fitness>
50.9063

> <Gold.PLP.PLP>
-39.0845

> <Gold.PLP.part.hbond>
-5.7538

> <Gold.PLP.part.metal>
0.0000

> <Gold.PLP.part.buried>
3.2632

> <Gold.PLP.part.nonpolar>
-38.7626

> <Gold.PLP.part.repulsive>
4.3613

> <Gold.PLP.ligand.clash>
0.0000

> <Gold.PLP.ligand.torsion>
1.1889

> <Gold.PLP.Chemscore.Hbond>
3.9000

> <Gold.PLP.Chemscore.CHOScore>
0.8277

> <Gold.PLP.Chemscore.Metal>
0.0000

> <Gold.Chemscore.Hbonds>
donor molecule, donor type, donor heavy atom, donor atom, acceptor molecule, acceptor atom, score
      L1  H    14    28       P1  7948  0.85
      P1  H  7997  8010       L1    13  1.00
      P1  H  8022  8030       L1     9  0.80
      P1  H 10752 10763       L1     1  0.60
      L1  C     5    25       P1  7957  0.84

> <Gold.PLP.Chemscore.Internal.Correction>
0.0163

> <Gold.Rescore>
     Score         DG    S(hbond)    S(metal)    S(lipo)     H(rot)  DE(clash)    DE(int)     intcor
     13.32     -18.42       3.38        0.00      68.28       2.48       2.47       2.63       ----

> <Gold.Chemscore.Fitness>
13.3167

> <Gold.Chemscore.DG>
-18.4178

> <Gold.Chemscore.ZeroCoef>
-5.4800

> <Gold.Chemscore.Hbond>
3.3790

> <Gold.Chemscore.Metal>
0.0000

> <Gold.Chemscore.Lipo>
68.2809

> <Gold.Chemscore.Internal_Hbond>
0.0000

> <Gold.Chemscore.DEClash>
2.4725

> <Gold.Chemscore.DEInternal>
2.6286

> <Gold.Chemscore.Rot>
2.4753

> <Gold.Chemscore.Internal.Correction>
   9.000000E+99

> <Gold.Chemscore.Hbonds>
donor molecule, donor type, donor heavy atom, donor atom, acceptor molecule, acceptor atom, score
      L1  H    14    28       P1  7948  0.14
      P1  H  7997  8010       L1    13  0.92
      P1  H  8022  8030       L1     9  0.75
      P1  H 10752 10763       L1     1  0.04

> <Gold.Chemscore.Hbond.Weighted>
-11.2858

> <Gold.Chemscore.Metal.Weighted>
-0.0000

> <Gold.Chemscore.Lipo.Weighted>
-7.9889

> <Gold.Chemscore.Internal_Hbond.Weighted>
0.0000

> <Gold.Chemscore.DEClash.Weighted>
2.4725

> <Gold.Chemscore.DEInternal.Weighted>
2.6286

> <Gold.Chemscore.Rot.Weighted>
6.3369

> <Gold.Chemscore.Internal.Correction.Weighted>
   9.000000E+99

> <Gold.Protein.RotatedTorsions>
[ 6907 6896 6895 6894 ] final -159.52 input  -60.11 | X-H torsion
[ 7974 7965 7964 7962 ] final   -8.28 input  175.53 | X-H torsion
[ 8008 7997 7996 7995 ] final   75.02 input   59.86 | X-H torsion
[ 10167 10162 10161 10158 ] final  -51.76 input  -65.29 | X-H torsion
[ 10718 10713 10712 10709 ] final   37.20 input   66.30 | X-H torsion
[ 10763 10752 10751 10750 ] final  100.10 input  -60.55 | X-H torsion
[ 11005 11000 10999 10996 ] final  -11.20 input  -57.11 | X-H torsion

> <Gold.Protein.ActiveResidues>
 VAL166  LYS551  ARG553  GLY616  TRP617  ASP618  TYR619  PRO620  LYS621  CYS622 
 ASP623  PHE694  ASN695  SER759  ASP760  ASP761  ALA762  ILE779  LEU786  VAL792 
 PHE793  MET794  SER795  GLU796  ALA797  LYS798  CYS799  TRP800  GLU811  SER814 

> <Gold.Protein.RotatedAtoms>
  151.3348  133.3986  159.2665 H   0  0  0  0  0  0  0  0  0  0  0  0  # atno 6907 bound_to 6896
  150.9926  134.9258  159.7918 H   0  0  0  0  0  0  0  0  0  0  0  0  # atno 6908 bound_to 6896
  152.5251  134.3313  159.9236 H   0  0  0  0  0  0  0  0  0  0  0  0  # atno 6909 bound_to 6896
  146.2284  140.2445  142.8345 H   0  0  0  0  0  0  0  0  0  0  0  0  # atno 7974 bound_to 7965
  155.8068  140.3474  155.5434 H   0  0  0  0  0  0  0  0  0  0  0  0  # atno 8008 bound_to 7997
  155.8482  140.0952  157.1712 H   0  0  0  0  0  0  0  0  0  0  0  0  # atno 8009 bound_to 7997
  154.4007  140.1381  156.3799 H   0  0  0  0  0  0  0  0  0  0  0  0  # atno 8010 bound_to 7997
  140.6572  143.2608  151.4550 H   0  0  0  0  0  0  0  0  0  0  0  0  # atno 10167 bound_to 10162
  157.3441  130.7563  149.6932 H   0  0  0  0  0  0  0  0  0  0  0  0  # atno 10718 bound_to 10713
  153.3097  135.4090  155.1325 H   0  0  0  0  0  0  0  0  0  0  0  0  # atno 10763 bound_to 10752
  154.8572  135.3561  154.5740 H   0  0  0  0  0  0  0  0  0  0  0  0  # atno 10764 bound_to 10752
  153.6168  135.7066  153.5384 H   0  0  0  0  0  0  0  0  0  0  0  0  # atno 10765 bound_to 10752
  140.7527  133.8579  155.9058 H   0  0  0  0  0  0  0  0  0  0  0  0  # atno 11005 bound_to 11000
  144.9459  140.8127  143.5602 LP  0  0  0  0  0  0  0  0  0  0  0  0  # atno 17320 bound_to 7965
  145.2401  139.2076  143.4997 LP  0  0  0  0  0  0  0  0  0  0  0  0  # atno 17321 bound_to 7965
  139.5797  144.1738  152.1951 LP  0  0  0  0  0  0  0  0  0  0  0  0  # atno 17342 bound_to 10162
  140.1059  144.5499  150.6957 LP  0  0  0  0  0  0  0  0  0  0  0  0  # atno 17343 bound_to 10162
  155.9712  130.4159  150.4205 LP  0  0  0  0  0  0  0  0  0  0  0  0  # atno 17370 bound_to 10713
  157.2258  131.0493  151.2521 LP  0  0  0  0  0  0  0  0  0  0  0  0  # atno 17371 bound_to 10713
  140.9736  134.1499  157.4556 LP  0  0  0  0  0  0  0  0  0  0  0  0  # atno 17394 bound_to 11000
  139.8784  134.9987  156.5913 LP  0  0  0  0  0  0  0  0  0  0  0  0  # atno 17395 bound_to 11000

$$$$
