#       Name:                AV-unprocessed.smi:54
#       Creating user name   scv26
#       Creation time:       Thu Mar 26 16:44:34 2020


#       File generated by GOLD software.
#

@<TRIPOS>MOLECULE
AV-unprocessed.smi:54
    58    60     1
SMALL
NO_CHARGES


@<TRIPOS>ATOM
      1 ****        -2.1974   5.4640   1.2340 C.3            1 S1                 0.0000
      2 ****        -1.4827   4.7461   0.0768 C.3            1 S1                 0.0000
      3 ****        -1.4469   5.6217  -1.1865 C.3            1 S1                 0.0000
      4 ****        -2.1467   3.3934  -0.2181 C.2            1 S1                 0.0000
      5 ****        -3.3291   3.3687  -0.5668 O.2            1 S1                 0.0000
      6 ****        -1.3454   2.3143  -0.0787 N.am           1 S1                 0.0000
      7 ****        -1.6485   0.9628  -0.2773 C.2            1 S1                 0.0000
      8 ****        -0.5902   0.2243  -0.5075 N.2            1 S1                 0.0000
      9 ****        -0.8978  -1.1134  -0.6701 C.2            1 S1                 0.0000
     10 ****        -2.1343  -1.6969  -0.6204 C.2            1 S1                 0.0000
     11 ****        -2.0626  -3.0615  -0.8678 N.2            1 S1                 0.0000
     12 ****        -0.7572  -3.2399  -1.0590 C.2            1 S1                 0.0000
     13 ****         0.0109  -2.1380  -0.9242 N.pl3          1 S1                 0.0000
     14 ****         1.4953  -2.0228  -1.1246 C.3            1 S1                 0.0000
     15 ****         2.0423  -3.3106  -1.1735 O.3            1 S1                 0.0000
     16 ****         2.6554  -3.6469   0.0674 C.3            1 S1                 0.0000
     17 ****         1.6267  -4.3234   1.0017 C.3            1 S1                 0.0000
     18 ****         2.2770  -5.0307   2.0375 O.3            1 S1                 0.0000
     19 ****         3.2111  -2.2942   0.5322 C.3            1 S1                 0.0000
     20 ****         3.3963  -2.2237   1.9322 O.3            1 S1                 0.0000
     21 ****         2.1681  -1.2896   0.0544 C.3            1 S1                 0.0000
     22 ****         2.8081  -0.1021  -0.3685 O.3            1 S1                 0.0000
     23 ****        -3.2869  -0.8064  -0.3484 C.2            1 S1                 0.0000
     24 ****        -4.4164  -1.2891  -0.2933 O.2            1 S1                 0.0000
     25 ****        -2.9805   0.5141  -0.1774 N.pl3          1 S1                -1.0000
     26 ****         1.5937  -1.5203  -2.0877 H              1 S1                 0.0000
     27 ****         3.4661  -4.3482  -0.1347 H              1 S1                 0.0000
     28 ****         4.1658  -2.1216   0.0324 H              1 S1                 0.0000
     29 ****         1.4398  -1.0792   0.8392 H              1 S1                 0.0000
     30 ****        -2.2376   4.8365   2.1252 H              1 S1                 0.0000
     31 ****        -3.2207   5.7328   0.9693 H              1 S1                 0.0000
     32 ****        -1.6751   6.3820   1.5045 H              1 S1                 0.0000
     33 ****        -0.4520   4.5634   0.3853 H              1 S1                 0.0000
     34 ****        -0.9501   5.1083  -2.0110 H              1 S1                 0.0000
     35 ****        -0.9018   6.5478  -1.0024 H              1 S1                 0.0000
     36 ****        -2.4508   5.8902  -1.5177 H              1 S1                 0.0000
     37 ****        -0.3815   2.5261   0.1328 H              1 S1                 0.0000
     38 ****        -0.3503  -4.2085  -1.3082 H              1 S1                 0.0000
     39 ****         0.9275  -3.6018   1.4253 H              1 S1                 0.0000
     40 ****         1.0396  -5.0503   0.4410 H              1 S1                 0.0000
     41 ****         1.6190  -5.4293   2.5865 H              1 S1                 0.0000
     42 ****         3.9736  -2.9251   2.1929 H              1 S1                 0.0000
     43 ****         3.4275  -0.3216  -1.0472 H              1 S1                 0.0000
     44 ****        -3.8426   4.2223  -0.6542 LP             1 S1                 0.0000
     45 ****        -3.7747   2.4950  -0.7622 LP             1 S1                 0.0000
     46 ****         0.3393   0.5893  -0.5598 LP             1 S1                 0.0000
     47 ****        -2.8006  -3.7358  -0.8952 LP             1 S1                 0.0000
     48 ****         2.7292  -3.3478  -1.8993 LP             1 S1                 0.0000
     49 ****         1.3150  -3.9686  -1.3689 LP             1 S1                 0.0000
     50 ****         2.8323  -4.4002   2.5798 LP             1 S1                 0.0000
     51 ****         2.8639  -5.7392   1.6456 LP             1 S1                 0.0000
     52 ****         2.5151  -2.3222   2.3947 LP             1 S1                 0.0000
     53 ****         3.8036  -1.3433   2.1750 LP             1 S1                 0.0000
     54 ****         3.2871   0.3163   0.4032 LP             1 S1                 0.0000
     55 ****         2.1286   0.5385  -0.7260 LP             1 S1                 0.0000
     56 ****        -4.5479  -2.2708  -0.4313 LP             1 S1                 0.0000
     57 ****        -5.2036  -0.7000  -0.1105 LP             1 S1                 0.0000
     58 ****        -3.7095   1.1693   0.0208 LP             1 S1                 0.0000
@<TRIPOS>BOND
    1    1    2 1     
    2    1   30 1     
    3    1   31 1     
    4    1   32 1     
    5    2    3 1     
    6    2    4 1     
    7    2   33 1     
    8    3   34 1     
    9    3   35 1     
   10    3   36 1     
   11    4    5 2     
   12    4    6 am    
   13    6   37 1     
   14    6    7 1     
   15    7   25 1     
   16    7    8 2     
   17    8    9 1     
   18    9   13 1     
   19    9   10 2     
   20   10   11 1     
   21   10   23 1     
   22   11   12 2     
   23   12   13 1     
   24   12   38 1     
   25   13   14 1     
   26   14   26 1     
   27   14   21 1     
   28   14   15 1     
   29   15   16 1     
   30   16   27 1     
   31   16   17 1     
   32   16   19 1     
   33   17   18 1     
   34   17   39 1     
   35   17   40 1     
   36   18   41 1     
   37   19   28 1     
   38   19   20 1     
   39   19   21 1     
   40   20   42 1     
   41   21   29 1     
   42   21   22 1     
   43   22   43 1     
   44   23   24 2     
   45   23   25 1     
   46    5   44 1     
   47    5   45 1     
   48    8   46 1     
   49   11   47 1     
   50   15   48 1     
   51   15   49 1     
   52   18   50 1     
   53   18   51 1     
   54   20   52 1     
   55   20   53 1     
   56   22   54 1     
   57   22   55 1     
   58   24   56 1     
   59   24   57 1     
   60   25   58 1     
@<TRIPOS>SUBSTRUCTURE
      1 S1             1
@<TRIPOS>SET
LONE_PAIRS      STATIC     ATOMS    <user>   **** ""
15 44 45 46 47 48 49 50 51 52 53 54 55 56 57 58
DONOR_HYDROGENS      STATIC     ATOMS    <user>   **** ""
4 37 41 42 43
ATOM$BLUE        STATIC     ATOMS    COLORGROUP SYSTEM
15 44 45 46 47 48 49 50 51 52 53 54 55 56 57 58
ATOM$RED        STATIC     ATOMS    COLORGROUP SYSTEM
4 37 41 42 43
