#       Name:                AV-unprocessed.smi:3274
#       Creating user name   scv26
#       Creation time:       Fri Mar 27 18:44:13 2020


#       File generated by GOLD software.
#

@<TRIPOS>MOLECULE
AV-unprocessed.smi:3274
    45    46     1
SMALL
NO_CHARGES


@<TRIPOS>ATOM
      1 ****        -0.3676   0.9330  -2.9212 C.3            1 S1                 0.0000
      2 ****        -1.2474   1.3225  -1.7449 C.2            1 S1                 0.0000
      3 ****        -2.4521   1.8827  -1.9658 C.2            1 S1                 0.0000
      4 ****        -3.3774   2.3716  -0.8751 C.3            1 S1                 0.0000
      5 ****        -2.6110   2.6197   0.4265 C.3            1 S1                 0.0000
      6 ****        -1.7273   1.4171   0.7958 C.3            1 S1                 0.0000
      7 ****        -1.0506   1.6760   2.1566 C.3            1 S1                 0.0000
      8 ****        -0.6992   1.0710  -0.3256 C.3            1 S1                 0.0000
      9 ****        -0.1716  -0.3749  -0.1356 C.3            1 S1                 0.0000
     10 ****         1.1407  -0.5973  -0.7833 N.4            1 S1                 1.0000
     11 ****         1.6793  -1.9741  -0.6844 C.3            1 S1                 0.0000
     12 ****         2.3891  -2.3268  -1.9985 C.3            1 S1                 0.0000
     13 ****         2.6504  -2.1251   0.5087 C.3            1 S1                 0.0000
     14 ****         2.0075  -1.9897   1.8029 N.pl3          1 S1                 0.0000
     15 ****         2.1800  -1.0836   2.7669 C.2            1 S1                 0.0000
     16 ****         1.4073  -1.2764   3.8262 N.2            1 S1                 0.0000
     17 ****         0.7503  -2.4064   3.4284 C.2            1 S1                 0.0000
     18 ****         1.0763  -2.8774   2.2246 N.2            1 S1                 0.0000
     19 ****         0.6326   1.3508  -2.8050 H              1 S1                 0.0000
     20 ****        -0.7743   1.3070  -3.8616 H              1 S1                 0.0000
     21 ****        -0.2924  -0.1506  -3.0090 H              1 S1                 0.0000
     22 ****        -2.8065   2.0190  -2.9774 H              1 S1                 0.0000
     23 ****        -3.8591   3.2940  -1.2007 H              1 S1                 0.0000
     24 ****        -4.1654   1.6327  -0.7272 H              1 S1                 0.0000
     25 ****        -1.9895   3.5101   0.3186 H              1 S1                 0.0000
     26 ****        -3.3201   2.8340   1.2272 H              1 S1                 0.0000
     27 ****        -2.3952   0.5625   0.9167 H              1 S1                 0.0000
     28 ****        -0.3497   2.5094   2.0975 H              1 S1                 0.0000
     29 ****        -0.5028   0.8094   2.5233 H              1 S1                 0.0000
     30 ****        -1.7906   1.9250   2.9179 H              1 S1                 0.0000
     31 ****         0.1407   1.7586  -0.2136 H              1 S1                 0.0000
     32 ****        -0.0667  -0.6061   0.9202 H              1 S1                 0.0000
     33 ****        -0.8997  -1.0859  -0.5283 H              1 S1                 0.0000
     34 ****         1.0159  -0.3927  -1.7646 H              1 S1                 0.0000
     35 ****         0.8508  -2.6755  -0.5728 H              1 S1                 0.0000
     36 ****         2.7662  -3.3499  -1.9796 H              1 S1                 0.0000
     37 ****         3.2354  -1.6643  -2.1848 H              1 S1                 0.0000
     38 ****         1.7089  -2.2455  -2.8470 H              1 S1                 0.0000
     39 ****         3.1255  -3.1067   0.4806 H              1 S1                 0.0000
     40 ****         3.4548  -1.3913   0.4404 H              1 S1                 0.0000
     41 ****         2.8770  -0.2620   2.6901 H              1 S1                 0.0000
     42 ****         0.0092  -2.8953   4.0435 H              1 S1                 0.0000
     43 ****         1.8186   0.0509  -0.4086 H              1 S1                 0.0000
     44 ****         1.3281  -0.7480   4.6716 LP             1 S1                 0.0000
     45 ****         0.7219  -3.6841   1.7517 LP             1 S1                 0.0000
@<TRIPOS>BOND
    1    1    2 1     
    2    1   19 1     
    3    1   20 1     
    4    1   21 1     
    5    2    8 1     
    6    2    3 2     
    7    3    4 1     
    8    3   22 1     
    9    4    5 1     
   10    4   23 1     
   11    4   24 1     
   12    5    6 1     
   13    5   25 1     
   14    5   26 1     
   15    6    7 1     
   16    6    8 1     
   17    6   27 1     
   18    7   28 1     
   19    7   29 1     
   20    7   30 1     
   21    8    9 1     
   22    8   31 1     
   23    9   10 1     
   24    9   32 1     
   25    9   33 1     
   26   10   11 1     
   27   10   34 1     
   28   10   43 1     
   29   11   12 1     
   30   11   13 1     
   31   11   35 1     
   32   12   36 1     
   33   12   37 1     
   34   12   38 1     
   35   13   14 1     
   36   13   39 1     
   37   13   40 1     
   38   14   18 1     
   39   14   15 1     
   40   15   16 2     
   41   15   41 1     
   42   16   17 1     
   43   17   18 2     
   44   17   42 1     
   45   16   44 1     
   46   18   45 1     
@<TRIPOS>SUBSTRUCTURE
      1 S1             1
@<TRIPOS>SET
LONE_PAIRS      STATIC     ATOMS    <user>   **** ""
2 44 45
DONOR_HYDROGENS      STATIC     ATOMS    <user>   **** ""
2 34 43
ATOM$BLUE        STATIC     ATOMS    COLORGROUP SYSTEM
2 44 45
ATOM$RED        STATIC     ATOMS    COLORGROUP SYSTEM
2 34 43
