AV-unprocessed.smi:2944|AV-procd|sdf|11272|dock5
  -GOLD-   2272016163D 1   1.00000     0.00000
 Structure written by MMmdl.
 44 46  0  0  0  0  0  0  0  0  1 V2000
  147.4893  141.9388  154.3681 C   0  0  0  0  0  0  0  0  0  0  0  0
  148.3127  140.7869  154.3733 O   0  0  0  0  0  0  0  0  0  0  0  0
  149.0198  140.6282  155.5921 C   0  0  0  0  0  0  0  0  0  0  0  0
  150.1161  141.6973  155.6971 C   0  0  0  0  0  0  0  0  0  0  0  0
  151.1094  141.3609  156.7064 N   0  0  0  0  0  0  0  0  0  0  0  0
  151.8314  140.2193  156.8308 C   0  0  0  0  0  0  0  0  0  0  0  0
  151.6617  138.8832  155.6885 S   0  0  0  0  0  0  0  0  0  0  0  0
  150.7001  137.7266  156.7140 C   0  0  2  0  0  0  0  0  0  0  0  0
  150.9903  137.9593  158.2090 C   0  0  0  0  0  0  0  0  0  0  0  0
  150.9674  136.2696  156.2833 C   0  0  0  0  0  0  0  0  0  0  0  0
  152.0645  135.7783  156.5623 O   0  0  0  0  0  0  0  0  0  0  0  0
  149.9956  135.5977  155.6031 N   0  0  0  0  0  0  0  0  0  0  0  0
  150.1387  134.2277  155.1026 C   0  0  0  0  0  0  0  0  0  0  0  0
  148.7908  133.9097  154.4672 C   0  0  0  0  0  0  0  0  0  0  0  0
  148.0741  135.1457  154.6517 N   0  0  0  0  0  0  0  0  0  0  0  0
  148.7688  136.0861  155.2960 C   0  0  0  0  0  0  0  0  0  0  0  0
  148.3174  137.2033  155.5511 O   0  0  0  0  0  0  0  0  0  0  0  0
  152.6788  140.1851  157.8603 N   0  0  0  0  0  0  0  0  0  0  0  0
  152.4913  141.4168  158.4550 C   0  0  0  0  0  0  0  0  0  0  0  0
  153.1006  141.9908  159.5938 C   0  0  0  0  0  0  0  0  0  0  0  0
  152.7424  143.2878  160.0169 C   0  0  0  0  0  0  0  0  0  0  0  0
  151.7733  144.0276  159.3087 C   0  0  0  0  0  0  0  0  0  0  0  0
  151.1547  143.4742  158.1716 C   0  0  0  0  0  0  0  0  0  0  0  0
  151.5149  142.1787  157.7550 C   0  0  0  0  0  0  0  0  0  0  0  0
  146.9650  142.0086  153.4153 H   0  0  0  0  0  0  0  0  0  0  0  0
  148.0808  142.8465  154.4943 H   0  0  0  0  0  0  0  0  0  0  0  0
  146.7422  141.8932  155.1616 H   0  0  0  0  0  0  0  0  0  0  0  0
  148.3332  140.7158  156.4356 H   0  0  0  0  0  0  0  0  0  0  0  0
  149.4674  139.6345  155.6375 H   0  0  0  0  0  0  0  0  0  0  0  0
  150.6229  141.8054  154.7378 H   0  0  0  0  0  0  0  0  0  0  0  0
  149.6796  142.6707  155.9192 H   0  0  0  0  0  0  0  0  0  0  0  0
  149.6406  137.9351  156.5744 H   0  0  0  0  0  0  0  0  0  0  0  0
  150.4470  137.2497  158.8340 H   0  0  0  0  0  0  0  0  0  0  0  0
  150.6872  138.9592  158.5185 H   0  0  0  0  0  0  0  0  0  0  0  0
  152.0530  137.8576  158.4324 H   0  0  0  0  0  0  0  0  0  0  0  0
  150.9326  134.1654  154.3568 H   0  0  0  0  0  0  0  0  0  0  0  0
  150.3601  133.5262  155.9071 H   0  0  0  0  0  0  0  0  0  0  0  0
  148.8806  133.6686  153.4075 H   0  0  0  0  0  0  0  0  0  0  0  0
  148.2800  133.0924  154.9774 H   0  0  0  0  0  0  0  0  0  0  0  0
  147.1279  135.2754  154.3234 H   0  0  0  0  0  0  0  0  0  0  0  0
  153.8452  141.4330  160.1422 H   0  0  0  0  0  0  0  0  0  0  0  0
  153.2142  143.7177  160.8884 H   0  0  0  0  0  0  0  0  0  0  0  0
  151.5054  145.0207  159.6388 H   0  0  0  0  0  0  0  0  0  0  0  0
  150.4137  144.0392  157.6257 H   0  0  0  0  0  0  0  0  0  0  0  0
  1  2  1  0  0  0  0
  1 25  1  0  0  0  0
  1 26  1  0  0  0  0
  1 27  1  0  0  0  0
  2  3  1  0  0  0  0
  3  4  1  0  0  0  0
  3 28  1  0  0  0  0
  3 29  1  0  0  0  0
  4  5  1  0  0  0  0
  4 30  1  0  0  0  0
  4 31  1  0  0  0  0
  5 24  1  0  0  0  0
  5  6  1  0  0  0  0
  6  7  1  0  0  0  0
  6 18  2  0  0  0  0
  7  8  1  0  0  0  0
  8  9  1  0  0  0  0
  8 10  1  0  0  0  0
  8 32  1  0  0  0  0
  9 33  1  0  0  0  0
  9 34  1  0  0  0  0
  9 35  1  0  0  0  0
 10 11  2  0  0  0  0
 10 12  1  0  0  0  0
 12 16  1  0  0  0  0
 12 13  1  0  0  0  0
 13 14  1  0  0  0  0
 13 36  1  0  0  0  0
 13 37  1  0  0  0  0
 14 15  1  0  0  0  0
 14 38  1  0  0  0  0
 14 39  1  0  0  0  0
 15 16  1  0  0  0  0
 15 40  1  0  0  0  0
 16 17  2  0  0  0  0
 18 19  1  0  0  0  0
 19 24  2  0  0  0  0
 19 20  1  0  0  0  0
 20 21  2  0  0  0  0
 20 41  1  0  0  0  0
 21 22  1  0  0  0  0
 21 42  1  0  0  0  0
 22 23  2  0  0  0  0
 22 43  1  0  0  0  0
 23 24  1  0  0  0  0
 23 44  1  0  0  0  0
M  END
> <s_m_source_file>
AV-unprocessed.smi

> <i_m_source_file_index>
2944

> <i_lp_mmshare_version>
43012

> <i_f3d_flags>
0

> <s_epik_input>
W2NIXTFbY0hdW2NIXVtjSF1jKGMxMiluKFtDSDJdW0NIMl1PW0NIM10pYyhuMilTW0NASF0oW0NIM10pQyg9TylOM1tDSDJdW0NIMl1bTkhdQzM9Tw==

> <s_epik_cmdline>
J2VwaWtfcHl0aG9uJywgJy1waCcsICc3LjAnLCAnLXRuJywgJzgnLCAnLW1hJywgJzIwMCcsICctbWV0YWxfYmluZGluZycsICctaW1hZScsICc8aW5maWxlLm1hZT4nLCAnLW9tYWUnLCAnPG91dGZpbGUubWFlPic=

> <r_lp_tautomer_probability>
0.9999

> <r_epik_Ionization_Penalty>
0.0250226

> <r_epik_Ionization_Penalty_Charging>
0

> <r_epik_Ionization_Penalty_Neutral>
0.0250226

> <r_epik_State_Penalty>
0.0203222

> <r_epik_Charging_Adjusted_Penalty>
0.0203222

> <i_epik_Tot_Q>
0

> <i_epik_Tot_abs_Q>
0

> <r_epik_Metal_State_Penalty>
0.0194901

> <b_epik_Metal_Only>
0

> <s_lp_Force_Field>
OPLS_2005

> <r_lp_Energy>
42.2169

> <b_lp_Chiralities_Consistent>
1

> <s_lp_Variant>
AV-unprocessed.smi:2944-1

> <Gold.Version>
5.8.1

> <Gold.Id.Protein>
6NUR|6NUR_protein|mol2

> <Gold.PLP.Fitness>
45.9782

> <Gold.PLP.PLP>
-43.4736

> <Gold.PLP.part.hbond>
-3.0000

> <Gold.PLP.part.metal>
0.0000

> <Gold.PLP.part.buried>
-5.7540

> <Gold.PLP.part.nonpolar>
-33.5232

> <Gold.PLP.part.repulsive>
0.2092

> <Gold.PLP.ligand.clash>
1.7140

> <Gold.PLP.ligand.torsion>
0.9171

> <Gold.PLP.Chemscore.Hbond>
1.9920

> <Gold.PLP.Chemscore.CHOScore>
0.0000

> <Gold.PLP.Chemscore.Metal>
0.0000

> <Gold.Chemscore.Hbonds>
donor molecule, donor type, donor heavy atom, donor atom, acceptor molecule, acceptor atom, score
      P1  H  7997  8008       L1    18  0.90
      P1  H 10752 10764       L1    11  1.00

> <Gold.PLP.Chemscore.Internal.Correction>
0.0769

> <Gold.Rescore>
     Score         DG    S(hbond)    S(metal)    S(lipo)     H(rot)  DE(clash)    DE(int)     intcor
     13.46     -17.24       1.52        0.00     106.02       2.24       0.11       3.67       ----

> <Gold.Chemscore.Fitness>
13.4628

> <Gold.Chemscore.DG>
-17.2404

> <Gold.Chemscore.ZeroCoef>
-5.4800

> <Gold.Chemscore.Hbond>
1.5207

> <Gold.Chemscore.Metal>
0.0000

> <Gold.Chemscore.Lipo>
106.0237

> <Gold.Chemscore.Internal_Hbond>
0.0000

> <Gold.Chemscore.DEClash>
0.1087

> <Gold.Chemscore.DEInternal>
3.6688

> <Gold.Chemscore.Rot>
2.2357

> <Gold.Chemscore.Internal.Correction>
   9.000000E+99

> <Gold.Chemscore.Hbonds>
donor molecule, donor type, donor heavy atom, donor atom, acceptor molecule, acceptor atom, score
      P1  H  7997  8008       L1    18  0.26
      P1  H 10752 10764       L1    11  0.78

> <Gold.Chemscore.Hbond.Weighted>
-5.0790

> <Gold.Chemscore.Metal.Weighted>
-0.0000

> <Gold.Chemscore.Lipo.Weighted>
-12.4048

> <Gold.Chemscore.Internal_Hbond.Weighted>
0.0000

> <Gold.Chemscore.DEClash.Weighted>
0.1087

> <Gold.Chemscore.DEInternal.Weighted>
3.6688

> <Gold.Chemscore.Rot.Weighted>
5.7234

> <Gold.Chemscore.Internal.Correction.Weighted>
   9.000000E+99

> <Gold.Protein.RotatedTorsions>
[ 6907 6896 6895 6894 ] final  -57.40 input  -60.11 | X-H torsion
[ 7974 7965 7964 7962 ] final  150.83 input  175.53 | X-H torsion
[ 8008 7997 7996 7995 ] final  -80.22 input   59.86 | X-H torsion
[ 10167 10162 10161 10158 ] final  -96.94 input  -65.29 | X-H torsion
[ 10718 10713 10712 10709 ] final  -68.45 input   66.30 | X-H torsion
[ 10763 10752 10751 10750 ] final  -35.72 input  -60.55 | X-H torsion
[ 11005 11000 10999 10996 ] final   39.94 input  -57.11 | X-H torsion

> <Gold.Protein.ActiveResidues>
 VAL166  LYS551  ARG553  GLY616  TRP617  ASP618  TYR619  PRO620  LYS621  CYS622 
 ASP623  PHE694  ASN695  SER759  ASP760  ASP761  ALA762  ILE779  LEU786  VAL792 
 PHE793  MET794  SER795  GLU796  ALA797  LYS798  CYS799  TRP800  GLU811  SER814 

> <Gold.Protein.RotatedAtoms>
  150.8089  134.7232  159.6669 H   0  0  0  0  0  0  0  0  0  0  0  0  # atno 6907 bound_to 6896
  152.4209  134.5953  159.9995 H   0  0  0  0  0  0  0  0  0  0  0  0  # atno 6908 bound_to 6896
  151.6169  133.3305  159.3115 H   0  0  0  0  0  0  0  0  0  0  0  0  # atno 6909 bound_to 6896
  144.8336  139.6459  143.6048 H   0  0  0  0  0  0  0  0  0  0  0  0  # atno 7974 bound_to 7965
  154.5862  140.0666  156.9174 H   0  0  0  0  0  0  0  0  0  0  0  0  # atno 8008 bound_to 7997
  155.2375  140.3342  155.4278 H   0  0  0  0  0  0  0  0  0  0  0  0  # atno 8009 bound_to 7997
  156.2224  140.1804  156.7429 H   0  0  0  0  0  0  0  0  0  0  0  0  # atno 8010 bound_to 7997
  140.2886  143.3236  152.0369 H   0  0  0  0  0  0  0  0  0  0  0  0  # atno 10167 bound_to 10162
  156.0505  130.4295  150.2002 H   0  0  0  0  0  0  0  0  0  0  0  0  # atno 10718 bound_to 10713
  153.8679  135.6834  153.4777 H   0  0  0  0  0  0  0  0  0  0  0  0  # atno 10763 bound_to 10752
  153.1304  135.4700  154.9338 H   0  0  0  0  0  0  0  0  0  0  0  0  # atno 10764 bound_to 10752
  154.7728  135.3244  154.8104 H   0  0  0  0  0  0  0  0  0  0  0  0  # atno 10765 bound_to 10752
  140.1979  134.3907  155.8112 H   0  0  0  0  0  0  0  0  0  0  0  0  # atno 11005 bound_to 11000
  146.2637  139.6469  142.9344 LP  0  0  0  0  0  0  0  0  0  0  0  0  # atno 17320 bound_to 7965
  145.4843  141.0438  143.2629 LP  0  0  0  0  0  0  0  0  0  0  0  0  # atno 17321 bound_to 7965
  139.4944  144.6541  151.6611 LP  0  0  0  0  0  0  0  0  0  0  0  0  # atno 17342 bound_to 10162
  140.5752  144.0041  150.6238 LP  0  0  0  0  0  0  0  0  0  0  0  0  # atno 17343 bound_to 10162
  157.0086  130.9944  151.3372 LP  0  0  0  0  0  0  0  0  0  0  0  0  # atno 17370 bound_to 10713
  157.5425  130.8129  149.8046 LP  0  0  0  0  0  0  0  0  0  0  0  0  # atno 17371 bound_to 10713
  141.2227  133.7079  156.8207 LP  0  0  0  0  0  0  0  0  0  0  0  0  # atno 17394 bound_to 11000
  140.2087  134.8843  157.3250 LP  0  0  0  0  0  0  0  0  0  0  0  0  # atno 17395 bound_to 11000

$$$$
