AV-unprocessed.smi:8|AV-procd|sdf|47|dock7
  -GOLD-   2262015163D 1   1.00000     0.00000
 Structure written by MMmdl.
 33 34  0  0  0  0  0  0  0  0  2 V2000
  151.3871  135.8450  156.8215 C   0  0  0  0  0  0  0  0  0  0  0  0
  149.9019  136.0183  156.4743 C   0  0  0  0  0  0  0  0  0  0  0  0
  149.2878  134.7403  156.0909 N   0  0  0  0  0  0  0  0  0  0  0  0
  148.9885  134.5472  154.7326 C   0  0  0  0  0  0  0  0  0  0  0  0
  148.4139  133.4181  154.2700 C   0  0  0  0  0  0  0  0  0  0  0  0
  148.0943  133.2188  152.7942 C   0  0  0  0  0  0  0  0  0  0  0  0
  146.9940  134.0518  152.3212 N   0  0  0  0  0  0  0  0  0  0  0  0
  146.1678  133.5518  151.3031 C   0  0  0  0  0  0  0  0  0  0  0  0
  146.5669  132.4546  150.6159 N   0  0  0  0  0  0  0  0  0  0  0  0
  145.7595  132.0085  149.6514 C   0  0  0  0  0  0  0  0  0  0  0  0
  144.5853  132.5287  149.2891 N   0  0  0  0  0  0  0  0  0  0  0  0
  144.1725  133.6212  149.9659 C   0  0  0  0  0  0  0  0  0  0  0  0
  144.9389  134.1881  151.0066 C   0  0  0  0  0  0  0  0  0  0  0  0
  144.4624  135.4236  151.7479 C   0  0  0  0  0  0  0  0  0  0  0  0
  148.1250  132.3620  155.2466 C   0  0  0  0  0  0  0  0  0  0  0  0
  147.6096  131.3080  154.8743 O   0  0  0  0  0  0  0  0  0  0  0  0
  148.4447  132.5944  156.5530 N   0  5  0  0  0  0  0  0  0  0  0  0
  149.0193  133.7541  156.9958 C   0  0  0  0  0  0  0  0  0  0  0  0
  149.3038  133.9374  158.1797 O   0  0  0  0  0  0  0  0  0  0  0  0
  151.8352  136.8012  157.0919 H   0  0  0  0  0  0  0  0  0  0  0  0
  151.9459  135.4427  155.9759 H   0  0  0  0  0  0  0  0  0  0  0  0
  151.5201  135.1664  157.6645 H   0  0  0  0  0  0  0  0  0  0  0  0
  149.3723  136.4639  157.3178 H   0  0  0  0  0  0  0  0  0  0  0  0
  149.8000  136.7401  155.6626 H   0  0  0  0  0  0  0  0  0  0  0  0
  149.2484  135.3755  154.0895 H   0  0  0  0  0  0  0  0  0  0  0  0
  148.9856  133.3936  152.1905 H   0  0  0  0  0  0  0  0  0  0  0  0
  147.8246  132.1744  152.6364 H   0  0  0  0  0  0  0  0  0  0  0  0
  147.1974  135.0398  152.2677 H   0  0  0  0  0  0  0  0  0  0  0  0
  146.0900  131.1348  149.1095 H   0  0  0  0  0  0  0  0  0  0  0  0
  143.2241  134.0458  149.6715 H   0  0  0  0  0  0  0  0  0  0  0  0
  143.5116  135.7796  151.3504 H   0  0  0  0  0  0  0  0  0  0  0  0
  145.1924  136.2285  151.6529 H   0  0  0  0  0  0  0  0  0  0  0  0
  144.3270  135.2025  152.8069 H   0  0  0  0  0  0  0  0  0  0  0  0
  1  2  1  0  0  0  0
  1 20  1  0  0  0  0
  1 21  1  0  0  0  0
  1 22  1  0  0  0  0
  2  3  1  0  0  0  0
  2 23  1  0  0  0  0
  2 24  1  0  0  0  0
  3 18  1  0  0  0  0
  3  4  1  0  0  0  0
  4  5  2  0  0  0  0
  4 25  1  0  0  0  0
  5  6  1  0  0  0  0
  5 15  1  0  0  0  0
  6  7  1  0  0  0  0
  6 26  1  0  0  0  0
  6 27  1  0  0  0  0
  7  8  1  0  0  0  0
  7 28  1  0  0  0  0
  8 13  1  0  0  0  0
  8  9  2  0  0  0  0
  9 10  1  0  0  0  0
 10 11  2  0  0  0  0
 10 29  1  0  0  0  0
 11 12  1  0  0  0  0
 12 13  2  0  0  0  0
 12 30  1  0  0  0  0
 13 14  1  0  0  0  0
 14 31  1  0  0  0  0
 14 32  1  0  0  0  0
 14 33  1  0  0  0  0
 15 16  2  0  0  0  0
 15 17  1  0  0  0  0
 17 18  1  0  0  0  0
 18 19  2  0  0  0  0
M  CHG  1  17  -1
M  END
> <s_m_source_file>
AV-unprocessed.smi

> <i_m_source_file_index>
8

> <i_lp_mmshare_version>
43012

> <i_f3d_flags>
0

> <s_epik_input>
W0NIM11bQ0gyXW4xW2NIXWMoYyg9TylbbkhdYzE9TylbQ0gyXVtOSF1jMm5bY0hdbltjSF1jMltDSDNd

> <s_epik_cmdline>
J2VwaWtfcHl0aG9uJywgJy1waCcsICc3LjAnLCAnLXRuJywgJzgnLCAnLW1hJywgJzIwMCcsICctbWV0YWxfYmluZGluZycsICctaW1hZScsICc8aW5maWxlLm1hZT4nLCAnLW9tYWUnLCAnPG91dGZpbGUubWFlPic=

> <r_lp_tautomer_probability>
0.999537

> <r_epik_Ionization_Penalty>
4.00162

> <r_epik_Ionization_Penalty_Charging>
4.85554e-07

> <r_epik_Ionization_Penalty_Neutral>
4.00162

> <r_epik_State_Penalty>
4.01059

> <r_epik_Charging_Adjusted_Penalty>
4.01059

> <i_epik_Tot_Q>
-1

> <i_epik_Tot_abs_Q>
1

> <r_epik_Metal_State_Penalty>
0.642438

> <b_epik_Metal_Only>
1

> <s_lp_Force_Field>
OPLS_2005

> <r_lp_Energy>
12.8082

> <b_lp_Chiralities_Consistent>
1

> <s_lp_Variant>
AV-unprocessed.smi:8-3

> <Gold.Version>
5.8.1

> <Gold.Id.Protein>
6NUR|6NUR_protein|mol2

> <Gold.PLP.Fitness>
35.3703

> <Gold.PLP.PLP>
-24.7942

> <Gold.PLP.part.hbond>
-2.0000

> <Gold.PLP.part.metal>
0.0000

> <Gold.PLP.part.buried>
-2.8772

> <Gold.PLP.part.nonpolar>
-21.1459

> <Gold.PLP.part.repulsive>
1.4574

> <Gold.PLP.ligand.clash>
0.0000

> <Gold.PLP.ligand.torsion>
0.5988

> <Gold.PLP.Chemscore.Hbond>
1.9920

> <Gold.PLP.Chemscore.CHOScore>
1.9306

> <Gold.PLP.Chemscore.Metal>
0.0000

> <Gold.Chemscore.Hbonds>
donor molecule, donor type, donor heavy atom, donor atom, acceptor molecule, acceptor atom, score
      L1  H     7    28       P1  7948  0.53
      P1  H  6896  6909       L1    19  1.00
      L1  C     4    25       P1  7948  1.00
      L1  C    12    30       P1 10186  1.00

> <Gold.PLP.Chemscore.Internal.Correction>
0.0058

> <Gold.Rescore>
     Score         DG    S(hbond)    S(metal)    S(lipo)     H(rot)  DE(clash)    DE(int)     intcor
     10.73     -11.49       1.95        0.00      41.40       2.09       0.06       0.70       ----

> <Gold.Chemscore.Fitness>
10.7291

> <Gold.Chemscore.DG>
-11.4907

> <Gold.Chemscore.ZeroCoef>
-5.4800

> <Gold.Chemscore.Hbond>
1.9495

> <Gold.Chemscore.Metal>
0.0000

> <Gold.Chemscore.Lipo>
41.3987

> <Gold.Chemscore.Internal_Hbond>
0.0000

> <Gold.Chemscore.DEClash>
0.0593

> <Gold.Chemscore.DEInternal>
0.7023

> <Gold.Chemscore.Rot>
2.0876

> <Gold.Chemscore.Internal.Correction>
   9.000000E+99

> <Gold.Chemscore.Hbonds>
donor molecule, donor type, donor heavy atom, donor atom, acceptor molecule, acceptor atom, score
      L1  H     7    28       P1  7948  0.50
      P1  H  6896  6909       L1    19  0.98

> <Gold.Chemscore.Hbond.Weighted>
-6.5112

> <Gold.Chemscore.Metal.Weighted>
-0.0000

> <Gold.Chemscore.Lipo.Weighted>
-4.8436

> <Gold.Chemscore.Internal_Hbond.Weighted>
0.0000

> <Gold.Chemscore.DEClash.Weighted>
0.0593

> <Gold.Chemscore.DEInternal.Weighted>
0.7023

> <Gold.Chemscore.Rot.Weighted>
5.3442

> <Gold.Chemscore.Internal.Correction.Weighted>
   9.000000E+99

> <Gold.Protein.RotatedTorsions>
[ 6907 6896 6895 6894 ] final   33.37 input  -60.11 | X-H torsion
[ 7974 7965 7964 7962 ] final  170.37 input  175.53 | X-H torsion
[ 8008 7997 7996 7995 ] final  -68.13 input   59.86 | X-H torsion
[ 10167 10162 10161 10158 ] final  145.09 input  -65.29 | X-H torsion
[ 10718 10713 10712 10709 ] final -116.26 input   66.30 | X-H torsion
[ 10763 10752 10751 10750 ] final   54.66 input  -60.55 | X-H torsion
[ 11005 11000 10999 10996 ] final  -26.22 input  -57.11 | X-H torsion

> <Gold.Protein.ActiveResidues>
 VAL166  LYS551  ARG553  GLY616  TRP617  ASP618  TYR619  PRO620  LYS621  CYS622 
 ASP623  PHE694  ASN695  SER759  ASP760  ASP761  ALA762  ILE779  LEU786  VAL792 
 PHE793  MET794  SER795  GLU796  ALA797  LYS798  CYS799  TRP800  GLU811  SER814 

> <Gold.Protein.RotatedAtoms>
  152.0876  134.9429  160.0572 H   0  0  0  0  0  0  0  0  0  0  0  0  # atno 6907 bound_to 6896
  152.0693  133.4094  159.4460 H   0  0  0  0  0  0  0  0  0  0  0  0  # atno 6908 bound_to 6896
  150.6836  134.3030  159.4758 H   0  0  0  0  0  0  0  0  0  0  0  0  # atno 6909 bound_to 6896
  144.7326  139.9191  143.6419 H   0  0  0  0  0  0  0  0  0  0  0  0  # atno 7974 bound_to 7965
  154.4847  140.0879  156.7459 H   0  0  0  0  0  0  0  0  0  0  0  0  # atno 8008 bound_to 7997
  155.4381  140.3452  155.4269 H   0  0  0  0  0  0  0  0  0  0  0  0  # atno 8009 bound_to 7997
  156.1243  140.1483  156.9147 H   0  0  0  0  0  0  0  0  0  0  0  0  # atno 8010 bound_to 7997
  139.4933  144.5926  151.6649 H   0  0  0  0  0  0  0  0  0  0  0  0  # atno 10167 bound_to 10162
  156.0951  130.6126  150.9013 H   0  0  0  0  0  0  0  0  0  0  0  0  # atno 10718 bound_to 10713
  152.9807  135.5737  154.4940 H   0  0  0  0  0  0  0  0  0  0  0  0  # atno 10763 bound_to 10752
  154.4470  135.2777  155.1810 H   0  0  0  0  0  0  0  0  0  0  0  0  # atno 10764 bound_to 10752
  154.3454  135.6220  153.5670 H   0  0  0  0  0  0  0  0  0  0  0  0  # atno 10765 bound_to 10752
  140.9009  133.7524  156.0543 H   0  0  0  0  0  0  0  0  0  0  0  0  # atno 11005 bound_to 11000
  146.0943  139.3934  143.0386 LP  0  0  0  0  0  0  0  0  0  0  0  0  # atno 17320 bound_to 7965
  145.7668  140.9913  143.1171 LP  0  0  0  0  0  0  0  0  0  0  0  0  # atno 17321 bound_to 7965
  140.5556  144.0353  150.6146 LP  0  0  0  0  0  0  0  0  0  0  0  0  # atno 17342 bound_to 10162
  140.3422  143.3013  152.0576 LP  0  0  0  0  0  0  0  0  0  0  0  0  # atno 17343 bound_to 10162
  157.6110  131.0936  150.8794 LP  0  0  0  0  0  0  0  0  0  0  0  0  # atno 17370 bound_to 10713
  156.8934  130.5221  149.5285 LP  0  0  0  0  0  0  0  0  0  0  0  0  # atno 17371 bound_to 10713
  140.8231  134.3266  157.5375 LP  0  0  0  0  0  0  0  0  0  0  0  0  # atno 17394 bound_to 11000
  139.8742  134.9320  156.3544 LP  0  0  0  0  0  0  0  0  0  0  0  0  # atno 17395 bound_to 11000

$$$$
