AV-unprocessed.smi:561|AV-procd|sdf|2936|dock5
  -GOLD-   2262023433D 1   1.00000     0.00000
 Structure written by MMmdl.
 37 38  0  0  0  0  0  0  0  0  2 V2000
  147.4595  132.7953  152.5538 C   0  0  0  0  0  0  0  0  0  0  0  0
  147.0884  133.4531  153.8892 C   0  0  2  0  0  0  0  0  0  0  0  0
  145.5769  133.7564  153.9648 C   0  0  0  0  0  0  0  0  0  0  0  0
  145.0233  134.2305  152.6922 N   0  0  0  0  0  0  0  0  0  0  0  0
  145.6090  135.0928  151.8008 C   0  0  0  0  0  0  0  0  0  0  0  0
  144.7198  135.2516  150.7695 C   0  0  0  0  0  0  0  0  0  0  0  0
  143.6321  134.4771  151.0725 N   0  3  0  0  0  0  0  0  0  0  0  0
  143.8203  133.8537  152.2401 C   0  0  0  0  0  0  0  0  0  0  0  0
  147.8744  134.6755  154.0519 N   0  0  0  0  0  0  0  0  0  0  0  0
  148.4717  135.0829  155.1877 C   0  0  0  0  0  0  0  0  0  0  0  0
  148.4169  134.4494  156.2422 O   0  0  0  0  0  0  0  0  0  0  0  0
  149.2111  136.3688  155.1059 C   0  0  0  0  0  0  0  0  0  0  0  0
  148.6283  137.4223  154.6262 N   0  0  0  0  0  0  0  0  0  0  0  0
  149.2702  138.6413  154.5417 N   0  0  0  0  0  0  0  0  0  0  0  0
  148.3704  139.7587  154.2570 C   0  0  0  0  0  0  0  0  0  0  0  0
  150.6112  138.8136  154.6755 C   0  0  0  0  0  0  0  0  0  0  0  0
  151.1784  139.9036  154.6061 O   0  0  0  0  0  0  0  0  0  0  0  0
  151.4422  137.5460  154.8984 C   0  0  0  0  0  0  0  0  0  0  0  0
  150.6384  136.4387  155.6074 C   0  0  0  0  0  0  0  0  0  0  0  0
  146.9146  131.8615  152.4123 H   0  0  0  0  0  0  0  0  0  0  0  0
  148.5244  132.5629  152.5124 H   0  0  0  0  0  0  0  0  0  0  0  0
  147.2272  133.4466  151.7105 H   0  0  0  0  0  0  0  0  0  0  0  0
  147.3435  132.7419  154.6768 H   0  0  0  0  0  0  0  0  0  0  0  0
  145.0184  132.8695  154.2679 H   0  0  0  0  0  0  0  0  0  0  0  0
  145.3793  134.5252  154.7133 H   0  0  0  0  0  0  0  0  0  0  0  0
  146.5863  135.5231  151.9661 H   0  0  0  0  0  0  0  0  0  0  0  0
  144.7779  135.8425  149.8671 H   0  0  0  0  0  0  0  0  0  0  0  0
  143.1322  133.1853  152.7265 H   0  0  0  0  0  0  0  0  0  0  0  0
  147.9774  135.2603  153.2347 H   0  0  0  0  0  0  0  0  0  0  0  0
  148.8698  140.7271  154.2066 H   0  0  0  0  0  0  0  0  0  0  0  0
  147.6053  139.8289  155.0312 H   0  0  0  0  0  0  0  0  0  0  0  0
  147.8672  139.6006  153.3025 H   0  0  0  0  0  0  0  0  0  0  0  0
  151.7704  137.1929  153.9201 H   0  0  0  0  0  0  0  0  0  0  0  0
  152.3431  137.7826  155.4654 H   0  0  0  0  0  0  0  0  0  0  0  0
  150.6345  136.6118  156.6842 H   0  0  0  0  0  0  0  0  0  0  0  0
  151.1469  135.4866  155.4500 H   0  0  0  0  0  0  0  0  0  0  0  0
  142.8032  134.3881  150.4982 H   0  0  0  0  0  0  0  0  0  0  0  0
  1  2  1  0  0  0  0
  1 20  1  0  0  0  0
  1 21  1  0  0  0  0
  1 22  1  0  0  0  0
  2  3  1  0  0  0  0
  2  9  1  0  0  0  0
  2 23  1  0  0  0  0
  3  4  1  0  0  0  0
  3 24  1  0  0  0  0
  3 25  1  0  0  0  0
  4  8  1  0  0  0  0
  4  5  1  0  0  0  0
  5  6  2  0  0  0  0
  5 26  1  0  0  0  0
  6  7  1  0  0  0  0
  6 27  1  0  0  0  0
  7  8  2  0  0  0  0
  7 37  1  0  0  0  0
  8 28  1  0  0  0  0
  9 10  1  0  0  0  0
  9 29  1  0  0  0  0
 10 11  2  0  0  0  0
 10 12  1  0  0  0  0
 12 19  1  0  0  0  0
 12 13  2  0  0  0  0
 13 14  1  0  0  0  0
 14 15  1  0  0  0  0
 14 16  1  0  0  0  0
 15 30  1  0  0  0  0
 15 31  1  0  0  0  0
 15 32  1  0  0  0  0
 16 17  2  0  0  0  0
 16 18  1  0  0  0  0
 18 19  1  0  0  0  0
 18 33  1  0  0  0  0
 18 34  1  0  0  0  0
 19 35  1  0  0  0  0
 19 36  1  0  0  0  0
M  CHG  1   7   1
M  END
> <s_m_source_file>
AV-unprocessed.smi

> <i_m_source_file_index>
561

> <i_lp_mmshare_version>
43012

> <i_f3d_flags>
0

> <s_epik_input>
W2NIXTFuW2NIXVtjSF1uMVtDSDJdW0NAQEhdKFtDSDNdKVtOSF1DKD1PKUMyPU5OKFtDSDNdKUMoPU8pW0NIMl1bQ0gyXTI=

> <s_epik_cmdline>
J2VwaWtfcHl0aG9uJywgJy1waCcsICc3LjAnLCAnLXRuJywgJzgnLCAnLW1hJywgJzIwMCcsICctbWV0YWxfYmluZGluZycsICctaW1hZScsICc8aW5maWxlLm1hZT4nLCAnLW9tYWUnLCAnPG91dGZpbGUubWFlPic=

> <r_lp_tautomer_probability>
1

> <r_epik_Ionization_Penalty>
0.358595

> <r_epik_Ionization_Penalty_Charging>
0

> <r_epik_Ionization_Penalty_Neutral>
0.358595

> <r_epik_State_Penalty>
0.355181

> <r_epik_Charging_Adjusted_Penalty>
0.355181

> <i_epik_Tot_Q>
1

> <i_epik_Tot_abs_Q>
1

> <r_epik_Metal_State_Penalty>
0.718565

> <b_epik_Metal_Only>
0

> <s_epik_Chemistry_Notes>
This compound has an imine and may undergo hydrolysis.

> <s_lp_Force_Field>
OPLS_2005

> <r_lp_Energy>
20.1569

> <b_lp_Chiralities_Consistent>
1

> <s_lp_Variant>
AV-unprocessed.smi:561-1

> <Gold.Version>
5.8.1

> <Gold.Id.Protein>
6NUR|6NUR_protein|mol2

> <Gold.PLP.Fitness>
40.1410

> <Gold.PLP.PLP>
-25.4957

> <Gold.PLP.part.hbond>
-3.0000

> <Gold.PLP.part.metal>
0.0000

> <Gold.PLP.part.buried>
-5.7332

> <Gold.PLP.part.nonpolar>
-20.7588

> <Gold.PLP.part.repulsive>
1.0081

> <Gold.PLP.ligand.clash>
0.0000

> <Gold.PLP.ligand.torsion>
1.6809

> <Gold.PLP.Chemscore.Hbond>
4.0000

> <Gold.PLP.Chemscore.CHOScore>
2.0000

> <Gold.PLP.Chemscore.Metal>
0.0000

> <Gold.Chemscore.Hbonds>
donor molecule, donor type, donor heavy atom, donor atom, acceptor molecule, acceptor atom, score
      L1  H     7    37       P1 10186  2.00
      L1  H     9    29       P1  7948  1.00
      P1  H  7989  7998       L1    17  1.00
      L1  C     5    26       P1  7948  1.00
      L1  C     8    28       P1 10957  1.00

> <Gold.PLP.Chemscore.Internal.Correction>
0.0072

> <Gold.Rescore>
     Score         DG    S(hbond)    S(metal)    S(lipo)     H(rot)  DE(clash)    DE(int)     intcor
     13.71     -15.42       2.83        0.00      42.54       1.76       0.08       1.63       ----

> <Gold.Chemscore.Fitness>
13.7065

> <Gold.Chemscore.DG>
-15.4153

> <Gold.Chemscore.ZeroCoef>
-5.4800

> <Gold.Chemscore.Hbond>
2.8326

> <Gold.Chemscore.Metal>
0.0000

> <Gold.Chemscore.Lipo>
42.5417

> <Gold.Chemscore.Internal_Hbond>
0.0000

> <Gold.Chemscore.DEClash>
0.0757

> <Gold.Chemscore.DEInternal>
1.6331

> <Gold.Chemscore.Rot>
1.7589

> <Gold.Chemscore.Internal.Correction>
   9.000000E+99

> <Gold.Chemscore.Hbonds>
donor molecule, donor type, donor heavy atom, donor atom, acceptor molecule, acceptor atom, score
      L1  H     7    37       P1 10186  0.56
      L1  H     9    29       P1  7948  0.97
      P1  H  7989  7998       L1    17  0.93

> <Gold.Chemscore.Hbond.Weighted>
-9.4607

> <Gold.Chemscore.Metal.Weighted>
-0.0000

> <Gold.Chemscore.Lipo.Weighted>
-4.9774

> <Gold.Chemscore.Internal_Hbond.Weighted>
0.0000

> <Gold.Chemscore.DEClash.Weighted>
0.0757

> <Gold.Chemscore.DEInternal.Weighted>
1.6331

> <Gold.Chemscore.Rot.Weighted>
4.5028

> <Gold.Chemscore.Internal.Correction.Weighted>
   9.000000E+99

> <Gold.Protein.RotatedTorsions>
[ 6907 6896 6895 6894 ] final  -12.98 input  -60.11 | X-H torsion
[ 7974 7965 7964 7962 ] final -171.28 input  175.53 | X-H torsion
[ 8008 7997 7996 7995 ] final  132.16 input   59.86 | X-H torsion
[ 10167 10162 10161 10158 ] final  -41.46 input  -65.29 | X-H torsion
[ 10718 10713 10712 10709 ] final   42.34 input   66.30 | X-H torsion
[ 10763 10752 10751 10750 ] final  150.02 input  -60.55 | X-H torsion
[ 11005 11000 10999 10996 ] final   65.96 input  -57.11 | X-H torsion

> <Gold.Protein.ActiveResidues>
 VAL166  LYS551  ARG553  GLY616  TRP617  ASP618  TYR619  PRO620  LYS621  CYS622 
 ASP623  PHE694  ASN695  SER759  ASP760  ASP761  ALA762  ILE779  LEU786  VAL792 
 PHE793  MET794  SER795  GLU796  ALA797  LYS798  CYS799  TRP800  GLU811  SER814 

> <Gold.Protein.RotatedAtoms>
  151.3621  135.0906  159.9437 H   0  0  0  0  0  0  0  0  0  0  0  0  # atno 6907 bound_to 6896
  152.5159  133.9248  159.7562 H   0  0  0  0  0  0  0  0  0  0  0  0  # atno 6908 bound_to 6896
  150.9644  133.6356  159.2778 H   0  0  0  0  0  0  0  0  0  0  0  0  # atno 6909 bound_to 6896
  144.7159  140.1945  143.6345 H   0  0  0  0  0  0  0  0  0  0  0  0  # atno 7974 bound_to 7965
  156.2979  140.2553  156.3044 H   0  0  0  0  0  0  0  0  0  0  0  0  # atno 8008 bound_to 7997
  154.9386  140.0396  157.2104 H   0  0  0  0  0  0  0  0  0  0  0  0  # atno 8009 bound_to 7997
  154.8148  140.2850  155.5832 H   0  0  0  0  0  0  0  0  0  0  0  0  # atno 8010 bound_to 7997
  140.7002  143.3093  151.3070 H   0  0  0  0  0  0  0  0  0  0  0  0  # atno 10167 bound_to 10162
  157.4037  130.7874  149.7370 H   0  0  0  0  0  0  0  0  0  0  0  0  # atno 10718 bound_to 10713
  154.0806  135.2859  155.3291 H   0  0  0  0  0  0  0  0  0  0  0  0  # atno 10763 bound_to 10752
  154.6686  135.5308  153.8112 H   0  0  0  0  0  0  0  0  0  0  0  0  # atno 10764 bound_to 10752
  153.0450  135.6552  154.0982 H   0  0  0  0  0  0  0  0  0  0  0  0  # atno 10765 bound_to 10752
  139.9862  134.6665  156.0173 H   0  0  0  0  0  0  0  0  0  0  0  0  # atno 11005 bound_to 11000
  145.8737  139.2285  143.1646 LP  0  0  0  0  0  0  0  0  0  0  0  0  # atno 17320 bound_to 7965
  146.0061  140.8478  142.9994 LP  0  0  0  0  0  0  0  0  0  0  0  0  # atno 17321 bound_to 7965
  139.6510  144.0362  152.2626 LP  0  0  0  0  0  0  0  0  0  0  0  0  # atno 17342 bound_to 10162
  139.9898  144.6369  150.7824 LP  0  0  0  0  0  0  0  0  0  0  0  0  # atno 17343 bound_to 10162
  155.9830  130.4004  150.3385 LP  0  0  0  0  0  0  0  0  0  0  0  0  # atno 17370 bound_to 10713
  157.1515  131.0322  151.2883 LP  0  0  0  0  0  0  0  0  0  0  0  0  # atno 17371 bound_to 10713
  141.1526  133.6546  156.4061 LP  0  0  0  0  0  0  0  0  0  0  0  0  # atno 17394 bound_to 11000
  140.4998  134.6496  157.5244 LP  0  0  0  0  0  0  0  0  0  0  0  0  # atno 17395 bound_to 11000

$$$$
