AV-unprocessed.smi:2317|AV-procd|sdf|9272|dock3
  -GOLD-   2272012493D 1   1.00000     0.00000
 Structure written by MMmdl.
 37 38  0  0  0  0  0  0  0  0  1 V2000
  146.6129  139.5867  153.8067 O   0  0  0  0  0  0  0  0  0  0  0  0
  147.3749  138.7470  153.3288 C   0  0  0  0  0  0  0  0  0  0  0  0
  146.9882  137.8185  152.4415 N   0  0  0  0  0  0  0  0  0  0  0  0
  145.6419  137.6752  151.8929 C   0  0  0  0  0  0  0  0  0  0  0  0
  145.0542  136.2646  152.1266 C   0  0  1  0  0  0  0  0  0  0  0  0
  143.5634  136.2778  152.5382 C   0  0  0  0  0  0  0  0  0  0  0  0
  143.0318  134.8583  152.7955 C   0  0  0  0  0  0  0  0  0  0  0  0
  143.2465  133.9481  151.5779 C   0  0  0  0  0  0  0  0  0  0  0  0
  144.7258  133.9206  151.1572 C   0  0  0  0  0  0  0  0  0  0  0  0
  145.2837  135.3355  150.9084 C   0  0  1  0  0  0  0  0  0  0  0  0
  144.6903  135.8674  149.7382 O   0  0  0  0  0  0  0  0  0  0  0  0
  148.6796  138.6169  153.6255 N   0  0  0  0  0  0  0  0  0  0  0  0
  149.4871  139.3959  154.5006 C   0  0  0  0  0  0  0  0  0  0  0  0
  149.1214  140.6640  155.0152 C   0  0  0  0  0  0  0  0  0  0  0  0
  150.0261  141.3362  155.8616 C   0  0  0  0  0  0  0  0  0  0  0  0
  151.2325  140.8395  156.2067 N   0  0  0  0  0  0  0  0  0  0  0  0
  151.5828  139.6360  155.7063 C   0  0  0  0  0  0  0  0  0  0  0  0
  150.7533  138.8816  154.8524 C   0  0  0  0  0  0  0  0  0  0  0  0
  151.1697  137.6811  154.3816 F   0  0  0  0  0  0  0  0  0  0  0  0
  147.6816  137.1636  152.1105 H   0  0  0  0  0  0  0  0  0  0  0  0
  144.9758  138.4409  152.2937 H   0  0  0  0  0  0  0  0  0  0  0  0
  145.7103  137.8675  150.8219 H   0  0  0  0  0  0  0  0  0  0  0  0
  145.6084  135.8279  152.9592 H   0  0  0  0  0  0  0  0  0  0  0  0
  143.4225  136.8707  153.4416 H   0  0  0  0  0  0  0  0  0  0  0  0
  142.9678  136.7586  151.7613 H   0  0  0  0  0  0  0  0  0  0  0  0
  143.5367  134.4314  153.6629 H   0  0  0  0  0  0  0  0  0  0  0  0
  141.9712  134.8991  153.0450 H   0  0  0  0  0  0  0  0  0  0  0  0
  142.9068  132.9373  151.8058 H   0  0  0  0  0  0  0  0  0  0  0  0
  142.6326  134.2982  150.7472 H   0  0  0  0  0  0  0  0  0  0  0  0
  145.3092  133.4400  151.9435 H   0  0  0  0  0  0  0  0  0  0  0  0
  144.8503  133.3027  150.2670 H   0  0  0  0  0  0  0  0  0  0  0  0
  146.3542  135.2579  150.7147 H   0  0  0  0  0  0  0  0  0  0  0  0
  145.1789  135.5644  148.9882 H   0  0  0  0  0  0  0  0  0  0  0  0
  149.1515  137.8339  153.1975 H   0  0  0  0  0  0  0  0  0  0  0  0
  148.1834  141.1391  154.7756 H   0  0  0  0  0  0  0  0  0  0  0  0
  149.7748  142.3046  156.2682 H   0  0  0  0  0  0  0  0  0  0  0  0
  152.5550  139.2635  155.9930 H   0  0  0  0  0  0  0  0  0  0  0  0
  1  2  2  0  0  0  0
  2  3  1  0  0  0  0
  2 12  1  0  0  0  0
  3  4  1  0  0  0  0
  3 20  1  0  0  0  0
  4  5  1  0  0  0  0
  4 21  1  0  0  0  0
  4 22  1  0  0  0  0
  5 10  1  0  0  0  0
  5  6  1  0  0  0  0
  5 23  1  0  0  0  0
  6  7  1  0  0  0  0
  6 24  1  0  0  0  0
  6 25  1  0  0  0  0
  7  8  1  0  0  0  0
  7 26  1  0  0  0  0
  7 27  1  0  0  0  0
  8  9  1  0  0  0  0
  8 28  1  0  0  0  0
  8 29  1  0  0  0  0
  9 10  1  0  0  0  0
  9 30  1  0  0  0  0
  9 31  1  0  0  0  0
 10 11  1  0  0  0  0
 10 32  1  0  0  0  0
 11 33  1  0  0  0  0
 12 13  1  0  0  0  0
 12 34  1  0  0  0  0
 13 18  1  0  0  0  0
 13 14  2  0  0  0  0
 14 15  1  0  0  0  0
 14 35  1  0  0  0  0
 15 16  2  0  0  0  0
 15 36  1  0  0  0  0
 16 17  1  0  0  0  0
 17 18  2  0  0  0  0
 17 37  1  0  0  0  0
 18 19  1  0  0  0  0
M  END
> <s_m_source_file>
AV-unprocessed.smi

> <i_m_source_file_index>
2317

> <i_lp_mmshare_version>
43012

> <i_f3d_flags>
0

> <s_epik_input>
RmMxW2NIXW5bY0hdW2NIXWMxW05IXUMoPU8pW05IXVtDSDJdW0NAQEhdMltDSDJdW0NIMl1bQ0gyXVtDSDJdW0NASF0yW09IXQ==

> <s_epik_cmdline>
J2VwaWtfcHl0aG9uJywgJy1waCcsICc3LjAnLCAnLXRuJywgJzgnLCAnLW1hJywgJzIwMCcsICctbWV0YWxfYmluZGluZycsICctaW1hZScsICc8aW5maWxlLm1hZT4nLCAnLW9tYWUnLCAnPG91dGZpbGUubWFlPic=

> <r_epik_Ionization_Penalty>
0.00317647

> <r_epik_Ionization_Penalty_Charging>
0

> <r_epik_Ionization_Penalty_Neutral>
0.00317647

> <r_epik_State_Penalty>
0.0022093

> <r_epik_Charging_Adjusted_Penalty>
0.0022093

> <i_epik_Tot_Q>
0

> <i_epik_Tot_abs_Q>
0

> <r_epik_Metal_State_Penalty>
-0

> <b_epik_Metal_Only>
0

> <s_lp_Force_Field>
OPLS_2005

> <r_lp_Energy>
21.0871

> <b_lp_Chiralities_Consistent>
1

> <s_lp_Variant>
AV-unprocessed.smi:2317-2

> <Gold.Version>
5.8.1

> <Gold.Id.Protein>
6NUR|6NUR_protein|mol2

> <Gold.PLP.Fitness>
49.2666

> <Gold.PLP.PLP>
-38.8849

> <Gold.PLP.part.hbond>
-5.4017

> <Gold.PLP.part.metal>
0.0000

> <Gold.PLP.part.buried>
-1.7034

> <Gold.PLP.part.nonpolar>
-33.3533

> <Gold.PLP.part.repulsive>
0.3340

> <Gold.PLP.ligand.clash>
0.0000

> <Gold.PLP.ligand.torsion>
0.5825

> <Gold.PLP.Chemscore.Hbond>
2.8445

> <Gold.PLP.Chemscore.CHOScore>
1.0000

> <Gold.PLP.Chemscore.Metal>
0.0000

> <Gold.Chemscore.Hbonds>
donor molecule, donor type, donor heavy atom, donor atom, acceptor molecule, acceptor atom, score
      L1  H     3    20       P1  7948  1.00
      L1  H    11    33       P1  7921  1.00
      L1  H    12    34       P1  7948  0.83
      L1  C    15    36       P1  8028  0.71

> <Gold.PLP.Chemscore.Internal.Correction>
0.0133

> <Gold.Rescore>
     Score         DG    S(hbond)    S(metal)    S(lipo)     H(rot)  DE(clash)    DE(int)     intcor
     16.11     -19.03       2.86        0.00      73.15       1.79       1.19       1.74       ----

> <Gold.Chemscore.Fitness>
16.1096

> <Gold.Chemscore.DG>
-19.0338

> <Gold.Chemscore.ZeroCoef>
-5.4800

> <Gold.Chemscore.Hbond>
2.8639

> <Gold.Chemscore.Metal>
0.0000

> <Gold.Chemscore.Lipo>
73.1522

> <Gold.Chemscore.Internal_Hbond>
0.0000

> <Gold.Chemscore.DEClash>
1.1853

> <Gold.Chemscore.DEInternal>
1.7389

> <Gold.Chemscore.Rot>
1.7853

> <Gold.Chemscore.Internal.Correction>
   9.000000E+99

> <Gold.Chemscore.Hbonds>
donor molecule, donor type, donor heavy atom, donor atom, acceptor molecule, acceptor atom, score
      L1  H     3    20       P1  7948  0.97
      L1  H    11    33       P1  7921  1.00
      L1  H    12    34       P1  7948  0.78

> <Gold.Chemscore.Hbond.Weighted>
-9.5654

> <Gold.Chemscore.Metal.Weighted>
-0.0000

> <Gold.Chemscore.Lipo.Weighted>
-8.5588

> <Gold.Chemscore.Internal_Hbond.Weighted>
0.0000

> <Gold.Chemscore.DEClash.Weighted>
1.1853

> <Gold.Chemscore.DEInternal.Weighted>
1.7389

> <Gold.Chemscore.Rot.Weighted>
4.5704

> <Gold.Chemscore.Internal.Correction.Weighted>
   9.000000E+99

> <Gold.Protein.RotatedTorsions>
[ 6907 6896 6895 6894 ] final    5.44 input  -60.11 | X-H torsion
[ 7974 7965 7964 7962 ] final  -74.12 input  175.53 | X-H torsion
[ 8008 7997 7996 7995 ] final  -15.20 input   59.86 | X-H torsion
[ 10167 10162 10161 10158 ] final -105.48 input  -65.29 | X-H torsion
[ 10718 10713 10712 10709 ] final  -76.13 input   66.30 | X-H torsion
[ 10763 10752 10751 10750 ] final -117.18 input  -60.55 | X-H torsion
[ 11005 11000 10999 10996 ] final  -39.32 input  -57.11 | X-H torsion

> <Gold.Protein.ActiveResidues>
 VAL166  LYS551  ARG553  GLY616  TRP617  ASP618  TYR619  PRO620  LYS621  CYS622 
 ASP623  PHE694  ASN695  SER759  ASP760  ASP761  ALA762  ILE779  LEU786  VAL792 
 PHE793  MET794  SER795  GLU796  ALA797  LYS798  CYS799  TRP800  GLU811  SER814 

> <Gold.Protein.RotatedAtoms>
  151.6576  135.0993  160.0172 H   0  0  0  0  0  0  0  0  0  0  0  0  # atno 6907 bound_to 6896
  152.3965  133.6750  159.6289 H   0  0  0  0  0  0  0  0  0  0  0  0  # atno 6908 bound_to 6896
  150.7871  133.8782  159.3319 H   0  0  0  0  0  0  0  0  0  0  0  0  # atno 6909 bound_to 6896
  145.6433  140.9304  143.1024 H   0  0  0  0  0  0  0  0  0  0  0  0  # atno 7974 bound_to 7965
  154.5149  140.2203  155.9084 H   0  0  0  0  0  0  0  0  0  0  0  0  # atno 8008 bound_to 7997
  156.1596  140.3145  155.8750 H   0  0  0  0  0  0  0  0  0  0  0  0  # atno 8009 bound_to 7997
  155.3777  140.0470  157.3035 H   0  0  0  0  0  0  0  0  0  0  0  0  # atno 8010 bound_to 7997
  140.1981  143.3839  152.1152 H   0  0  0  0  0  0  0  0  0  0  0  0  # atno 10167 bound_to 10162
  156.0185  130.4458  150.3147 H   0  0  0  0  0  0  0  0  0  0  0  0  # atno 10718 bound_to 10713
  154.8546  135.4319  154.1939 H   0  0  0  0  0  0  0  0  0  0  0  0  # atno 10763 bound_to 10752
  153.3001  135.6968  153.7217 H   0  0  0  0  0  0  0  0  0  0  0  0  # atno 10764 bound_to 10752
  153.6350  135.3478  155.3028 H   0  0  0  0  0  0  0  0  0  0  0  0  # atno 10765 bound_to 10752
  141.0093  133.6916  156.2172 H   0  0  0  0  0  0  0  0  0  0  0  0  # atno 11005 bound_to 11000
  144.7149  139.8232  143.7402 LP  0  0  0  0  0  0  0  0  0  0  0  0  # atno 17320 bound_to 7965
  146.1263  139.4290  143.0196 LP  0  0  0  0  0  0  0  0  0  0  0  0  # atno 17321 bound_to 7965
  139.5228  144.7063  151.5342 LP  0  0  0  0  0  0  0  0  0  0  0  0  # atno 17342 bound_to 10162
  140.6409  143.8890  150.6691 LP  0  0  0  0  0  0  0  0  0  0  0  0  # atno 17343 bound_to 10162
  157.1249  131.0256  151.2994 LP  0  0  0  0  0  0  0  0  0  0  0  0  # atno 17370 bound_to 10713
  157.4598  130.7646  149.7226 LP  0  0  0  0  0  0  0  0  0  0  0  0  # atno 17371 bound_to 10713
  140.6760  134.4818  157.5588 LP  0  0  0  0  0  0  0  0  0  0  0  0  # atno 17394 bound_to 11000
  139.9081  134.8404  156.1630 LP  0  0  0  0  0  0  0  0  0  0  0  0  # atno 17395 bound_to 11000

$$$$
