#       Name:                AV-unprocessed.smi:1215
#       Creating user name   scv26
#       Creation time:       Fri Mar 27 04:14:59 2020


#       File generated by GOLD software.
#

@<TRIPOS>MOLECULE
AV-unprocessed.smi:1215
    49    50     1
SMALL
NO_CHARGES


@<TRIPOS>ATOM
      1 ****        -7.3419   3.4595   1.2613 C.3            1 S1                 0.0000
      2 ****        -6.9242   2.4220   0.2125 C.3            1 S1                 0.0000
      3 ****        -5.4997   2.1562   0.2571 N.pl3          1 S1                 0.0000
      4 ****        -4.8480   1.0847   0.8347 C.2            1 S1                 0.0000
      5 ****        -3.5203   1.2919   0.6098 C.2            1 S1                 0.0000
      6 ****        -2.4812   0.4277   1.0377 N.am           1 S1                 0.0000
      7 ****        -1.1654   0.5704   0.8125 C.2            1 S1                 0.0000
      8 ****        -0.6509   1.4914   0.1783 O.2            1 S1                 0.0000
      9 ****        -0.4603  -0.4299   1.3607 N.am           1 S1                 0.0000
     10 ****         0.9912  -0.5585   1.2872 C.3            1 S1                 0.0000
     11 ****         1.4384  -1.1365  -0.0721 C.3            1 S1                 0.0000
     12 ****         2.9207  -1.1738  -0.2355 N.4            1 S1                 1.0000
     13 ****         3.5472  -2.1855   0.6650 C.3            1 S1                 0.0000
     14 ****         5.0802  -2.1481   0.6009 C.3            1 S1                 0.0000
     15 ****         5.5608  -2.3708  -0.8323 C.3            1 S1                 0.0000
     16 ****         4.9195  -1.3242  -1.7454 C.3            1 S1                 0.0000
     17 ****         3.3767  -1.3394  -1.6563 C.3            1 S1                 0.0000
     18 ****         2.8258  -0.2546  -2.6064 C.3            1 S1                 0.0000
     19 ****        -3.4353   2.5167  -0.1114 C.2            1 S1                 0.0000
     20 ****        -4.6382   3.0299  -0.3200 N.2            1 S1                 0.0000
     21 ****        -8.4164   3.6381   1.2235 H              1 S1                 0.0000
     22 ****        -6.8407   4.4133   1.0947 H              1 S1                 0.0000
     23 ****        -7.0957   3.1221   2.2683 H              1 S1                 0.0000
     24 ****        -7.4589   1.4857   0.3759 H              1 S1                 0.0000
     25 ****        -7.1868   2.7668  -0.7887 H              1 S1                 0.0000
     26 ****        -5.3745   0.2897   1.3422 H              1 S1                 0.0000
     27 ****        -2.7710  -0.3822   1.5661 H              1 S1                 0.0000
     28 ****        -0.9603  -1.1466   1.8667 H              1 S1                 0.0000
     29 ****         1.4598   0.4113   1.4644 H              1 S1                 0.0000
     30 ****         1.2896  -1.2049   2.1111 H              1 S1                 0.0000
     31 ****         1.0274  -2.1365  -0.2188 H              1 S1                 0.0000
     32 ****         0.9888  -0.5097  -0.8371 H              1 S1                 0.0000
     33 ****         3.2563  -2.0155   1.6998 H              1 S1                 0.0000
     34 ****         3.1880  -3.1808   0.3983 H              1 S1                 0.0000
     35 ****         5.4430  -1.1875   0.9694 H              1 S1                 0.0000
     36 ****         5.5002  -2.9114   1.2568 H              1 S1                 0.0000
     37 ****         6.6480  -2.3023  -0.8829 H              1 S1                 0.0000
     38 ****         5.2914  -3.3735  -1.1666 H              1 S1                 0.0000
     39 ****         5.2943  -0.3344  -1.4796 H              1 S1                 0.0000
     40 ****         5.2372  -1.5052  -2.7731 H              1 S1                 0.0000
     41 ****         3.0248  -2.3099  -2.0103 H              1 S1                 0.0000
     42 ****         3.3214  -0.2996  -3.5768 H              1 S1                 0.0000
     43 ****         2.9850   0.7467  -2.2045 H              1 S1                 0.0000
     44 ****         1.7631  -0.3773  -2.8117 H              1 S1                 0.0000
     45 ****        -2.5710   3.0456  -0.4843 H              1 S1                 0.0000
     46 ****         3.2606  -0.2698   0.0604 H              1 S1                 0.0000
     47 ****        -1.2251   2.2090  -0.2158 LP             1 S1                 0.0000
     48 ****         0.3413   1.5219   0.0571 LP             1 S1                 0.0000
     49 ****        -4.8626   3.8783  -0.7995 LP             1 S1                 0.0000
@<TRIPOS>BOND
    1    1    2 1     
    2    1   21 1     
    3    1   22 1     
    4    1   23 1     
    5    2    3 1     
    6    2   24 1     
    7    2   25 1     
    8    3   20 1     
    9    3    4 1     
   10    4    5 2     
   11    4   26 1     
   12    5    6 1     
   13    5   19 1     
   14    6    7 am    
   15    6   27 1     
   16    7    8 2     
   17    7    9 am    
   18    9   10 1     
   19    9   28 1     
   20   10   11 1     
   21   10   29 1     
   22   10   30 1     
   23   11   12 1     
   24   11   31 1     
   25   11   32 1     
   26   12   17 1     
   27   12   13 1     
   28   12   46 1     
   29   13   14 1     
   30   13   33 1     
   31   13   34 1     
   32   14   15 1     
   33   14   35 1     
   34   14   36 1     
   35   15   16 1     
   36   15   37 1     
   37   15   38 1     
   38   16   17 1     
   39   16   39 1     
   40   16   40 1     
   41   17   18 1     
   42   17   41 1     
   43   18   42 1     
   44   18   43 1     
   45   18   44 1     
   46   19   20 2     
   47   19   45 1     
   48    8   47 1     
   49    8   48 1     
   50   20   49 1     
@<TRIPOS>SUBSTRUCTURE
      1 S1             1
@<TRIPOS>SET
LONE_PAIRS      STATIC     ATOMS    <user>   **** ""
3 47 48 49
DONOR_HYDROGENS      STATIC     ATOMS    <user>   **** ""
3 27 28 46
ATOM$BLUE        STATIC     ATOMS    COLORGROUP SYSTEM
3 47 48 49
ATOM$RED        STATIC     ATOMS    COLORGROUP SYSTEM
3 27 28 46
