#       Name:                AV-unprocessed.smi:994
#       Creating user name   scv26
#       Creation time:       Fri Mar 27 02:24:22 2020


#       File generated by GOLD software.
#

@<TRIPOS>MOLECULE
AV-unprocessed.smi:994
    44    45     1
SMALL
NO_CHARGES


@<TRIPOS>ATOM
      1 ****         0.8011   1.6987  -1.1651 O.2            1 S1                 0.0000
      2 ****         0.3507   0.5869  -0.8867 C.2            1 S1                 0.0000
      3 ****         1.1221  -0.4631  -0.5656 N.am           1 S1                 0.0000
      4 ****         2.5844  -0.4636  -0.5173 C.3            1 S1                 0.0000
      5 ****         3.0504  -1.5037   0.5268 C.3            1 S1                 0.0000
      6 ****         2.6889  -1.1988   1.9631 C.2            1 S1                 0.0000
      7 ****         2.1146  -0.0642   2.5044 C.2            1 S1                 0.0000
      8 ****         2.0002  -0.2933   3.8636 N.pl3          1 S1                 0.0000
      9 ****         2.4954  -1.5090   4.0962 C.2            1 S1                 0.0000
     10 ****         2.9305  -2.1111   2.9972 N.2            1 S1                 0.0000
     11 ****         3.1460  -0.8669  -1.8897 C.2            1 S1                 0.0000
     12 ****         4.0153  -0.1184  -2.3871 O.co2          1 S1                 0.0000
     13 ****         2.7048  -1.9132  -2.4168 O.co2          1 S1                -1.0000
     14 ****        -1.1643   0.3448  -0.8798 C.3            1 S1                 0.0000
     15 ****        -1.7729   0.5960  -2.2760 C.3            1 S1                 0.0000
     16 ****        -3.2947   0.3745  -2.2712 C.3            1 S1                 0.0000
     17 ****        -3.9820   1.2498  -1.2109 C.3            1 S1                 0.0000
     18 ****        -3.3793   1.0098   0.1824 C.3            1 S1                 0.0000
     19 ****        -1.8580   1.2320   0.1760 C.3            1 S1                 0.0000
     20 ****         1.6169   0.3406   4.5498 H              1 S1                 0.0000
     21 ****         0.6668  -1.3420  -0.3683 H              1 S1                 0.0000
     22 ****         2.9643   0.5236  -0.2466 H              1 S1                 0.0000
     23 ****         2.6441  -2.4872   0.2841 H              1 S1                 0.0000
     24 ****         4.1360  -1.6045   0.4862 H              1 S1                 0.0000
     25 ****         1.7873   0.8573   2.0455 H              1 S1                 0.0000
     26 ****         2.5395  -1.9575   5.0778 H              1 S1                 0.0000
     27 ****        -1.3434  -0.6992  -0.6158 H              1 S1                 0.0000
     28 ****        -1.5598   1.6152  -2.6025 H              1 S1                 0.0000
     29 ****        -1.3107  -0.0651  -3.0106 H              1 S1                 0.0000
     30 ****        -3.7050   0.5937  -3.2573 H              1 S1                 0.0000
     31 ****        -3.5097  -0.6764  -2.0731 H              1 S1                 0.0000
     32 ****        -3.8735   2.3015  -1.4789 H              1 S1                 0.0000
     33 ****        -5.0525   1.0435  -1.1942 H              1 S1                 0.0000
     34 ****        -3.8484   1.6731   0.9095 H              1 S1                 0.0000
     35 ****        -3.5988  -0.0086   0.5054 H              1 S1                 0.0000
     36 ****        -1.4548   1.0200   1.1673 H              1 S1                 0.0000
     37 ****        -1.6510   2.2850  -0.0222 H              1 S1                 0.0000
     38 ****         1.7890   1.8538  -1.1590 LP             1 S1                 0.0000
     39 ****         0.1790   2.4464  -1.3973 LP             1 S1                 0.0000
     40 ****         3.3418  -3.0196   2.9234 LP             1 S1                 0.0000
     41 ****         4.4153  -0.3389  -3.2767 LP             1 S1                 0.0000
     42 ****         4.3106   0.7007  -1.8953 LP             1 S1                 0.0000
     43 ****         3.0502  -2.2083  -3.3076 LP             1 S1                 0.0000
     44 ****         2.0069  -2.4538  -1.9470 LP             1 S1                 0.0000
@<TRIPOS>BOND
    1    1    2 2     
    2    2    3 am    
    3    2   14 1     
    4    3    4 1     
    5    3   21 1     
    6    4    5 1     
    7    4   11 1     
    8    4   22 1     
    9    5    6 1     
   10    5   23 1     
   11    5   24 1     
   12    6   10 1     
   13    6    7 2     
   14    7    8 1     
   15    7   25 1     
   16    8   20 1     
   17    8    9 1     
   18    9   10 2     
   19    9   26 1     
   20   11   12 ar    
   21   11   13 ar    
   22   14   19 1     
   23   14   15 1     
   24   14   27 1     
   25   15   16 1     
   26   15   28 1     
   27   15   29 1     
   28   16   17 1     
   29   16   30 1     
   30   16   31 1     
   31   17   18 1     
   32   17   32 1     
   33   17   33 1     
   34   18   19 1     
   35   18   34 1     
   36   18   35 1     
   37   19   36 1     
   38   19   37 1     
   39    1   38 1     
   40    1   39 1     
   41   10   40 1     
   42   12   41 1     
   43   12   42 1     
   44   13   43 1     
   45   13   44 1     
@<TRIPOS>SUBSTRUCTURE
      1 S1             1
@<TRIPOS>SET
LONE_PAIRS      STATIC     ATOMS    <user>   **** ""
7 38 39 40 41 42 43 44
DONOR_HYDROGENS      STATIC     ATOMS    <user>   **** ""
2 21 20
ATOM$BLUE        STATIC     ATOMS    COLORGROUP SYSTEM
7 38 39 40 41 42 43 44
ATOM$RED        STATIC     ATOMS    COLORGROUP SYSTEM
2 21 20
