AV-unprocessed.smi:2583|AV-procd|sdf|10142|dock3
  -GOLD-   2272014153D 1   1.00000     0.00000
 Structure written by MMmdl.
 54 56  0  0  0  0  0  0  0  0  2 V2000
  154.0390  139.2002  160.7646 C   0  0  0  0  0  0  0  0  0  0  0  0
  153.4571  140.5302  160.3342 C   0  0  0  0  0  0  0  0  0  0  0  0
  153.7014  141.7059  161.0736 C   0  0  0  0  0  0  0  0  0  0  0  0
  153.1952  142.9106  160.7366 N   0  0  0  0  0  0  0  0  0  0  0  0
  152.4222  142.9848  159.6325 C   0  0  0  0  0  0  0  0  0  0  0  0
  152.1238  141.8782  158.8099 C   0  0  0  0  0  0  0  0  0  0  0  0
  151.2791  142.0892  157.6872 N   0  0  0  0  0  0  0  0  0  0  0  0
  150.3048  141.2933  157.2149 C   0  0  0  0  0  0  0  0  0  0  0  0
  150.0112  140.1861  157.6646 O   0  0  0  0  0  0  0  0  0  0  0  0
  149.6938  141.8535  156.1613 N   0  0  0  0  0  0  0  0  0  0  0  0
  148.5927  141.2680  155.4014 C   0  0  2  0  0  0  0  0  0  0  0  0
  148.4103  142.0242  154.0720 C   0  0  0  0  0  0  0  0  0  0  0  0
  147.1448  141.5509  153.3309 C   0  0  0  0  0  0  0  0  0  0  0  0
  145.9234  141.6895  154.1751 N   0  3  2  0  0  0  0  0  0  0  0  0
  145.4592  143.1003  154.4035 C   0  0  0  0  0  0  0  0  0  0  0  0
  144.0771  143.1586  155.0975 C   0  0  0  0  0  0  0  0  0  0  0  0
  143.5466  144.5971  155.2198 C   0  0  0  0  0  0  0  0  0  0  0  0
  143.4388  145.2055  153.8972 N   0  0  0  0  0  0  0  0  0  0  0  0
  142.8633  146.5372  154.0234 C   0  0  0  0  0  0  0  0  0  0  0  0
  144.7668  145.3056  153.2989 C   0  0  0  0  0  0  0  0  0  0  0  0
  145.3560  143.9016  153.0836 C   0  0  0  0  0  0  0  0  0  0  0  0
  146.0849  140.8642  155.4063 C   0  0  0  0  0  0  0  0  0  0  0  0
  147.3010  141.3132  156.2383 C   0  0  0  0  0  0  0  0  0  0  0  0
  152.6499  140.6177  159.1821 C   0  0  0  0  0  0  0  0  0  0  0  0
  154.6656  139.3088  161.6505 H   0  0  0  0  0  0  0  0  0  0  0  0
  154.6487  138.7784  159.9651 H   0  0  0  0  0  0  0  0  0  0  0  0
  153.2394  138.4958  160.9951 H   0  0  0  0  0  0  0  0  0  0  0  0
  154.3135  141.6811  161.9633 H   0  0  0  0  0  0  0  0  0  0  0  0
  152.0318  143.9640  159.3959 H   0  0  0  0  0  0  0  0  0  0  0  0
  151.4694  142.9258  157.1553 H   0  0  0  0  0  0  0  0  0  0  0  0
  150.0141  142.7634  155.8631 H   0  0  0  0  0  0  0  0  0  0  0  0
  148.8008  140.2221  155.1684 H   0  0  0  0  0  0  0  0  0  0  0  0
  148.3561  143.0985  154.2511 H   0  0  0  0  0  0  0  0  0  0  0  0
  149.2839  141.8684  153.4380 H   0  0  0  0  0  0  0  0  0  0  0  0
  147.0424  142.0555  152.3726 H   0  0  0  0  0  0  0  0  0  0  0  0
  147.2611  140.4969  153.0742 H   0  0  0  0  0  0  0  0  0  0  0  0
  146.1752  143.6101  155.0478 H   0  0  0  0  0  0  0  0  0  0  0  0
  143.3565  142.5498  154.5493 H   0  0  0  0  0  0  0  0  0  0  0  0
  144.1302  142.7530  156.1066 H   0  0  0  0  0  0  0  0  0  0  0  0
  142.5644  144.5811  155.6940 H   0  0  0  0  0  0  0  0  0  0  0  0
  144.2013  145.1911  155.8601 H   0  0  0  0  0  0  0  0  0  0  0  0
  142.7677  147.0068  153.0436 H   0  0  0  0  0  0  0  0  0  0  0  0
  143.4789  147.1816  154.6528 H   0  0  0  0  0  0  0  0  0  0  0  0
  141.8662  146.4828  154.4616 H   0  0  0  0  0  0  0  0  0  0  0  0
  144.6952  145.8189  152.3391 H   0  0  0  0  0  0  0  0  0  0  0  0
  145.4257  145.9024  153.9320 H   0  0  0  0  0  0  0  0  0  0  0  0
  146.3370  144.0344  152.6298 H   0  0  0  0  0  0  0  0  0  0  0  0
  144.7457  143.3566  152.3615 H   0  0  0  0  0  0  0  0  0  0  0  0
  145.1814  140.8464  156.0121 H   0  0  0  0  0  0  0  0  0  0  0  0
  146.2304  139.8266  155.1023 H   0  0  0  0  0  0  0  0  0  0  0  0
  147.4057  140.6665  157.1103 H   0  0  0  0  0  0  0  0  0  0  0  0
  147.1350  142.3189  156.6262 H   0  0  0  0  0  0  0  0  0  0  0  0
  152.4377  139.7214  158.6198 H   0  0  0  0  0  0  0  0  0  0  0  0
  145.1781  141.2533  153.6511 H   0  0  0  0  0  0  0  0  0  0  0  0
  1  2  1  0  0  0  0
  1 25  1  0  0  0  0
  1 26  1  0  0  0  0
  1 27  1  0  0  0  0
  2 24  1  0  0  0  0
  2  3  2  0  0  0  0
  3  4  1  0  0  0  0
  3 28  1  0  0  0  0
  4  5  2  0  0  0  0
  5  6  1  0  0  0  0
  5 29  1  0  0  0  0
  6  7  1  0  0  0  0
  6 24  2  0  0  0  0
  7  8  1  0  0  0  0
  7 30  1  0  0  0  0
  8  9  2  0  0  0  0
  8 10  1  0  0  0  0
 10 11  1  0  0  0  0
 10 31  1  0  0  0  0
 11 23  1  0  0  0  0
 11 12  1  0  0  0  0
 11 32  1  0  0  0  0
 12 13  1  0  0  0  0
 12 33  1  0  0  0  0
 12 34  1  0  0  0  0
 13 14  1  0  0  0  0
 13 35  1  0  0  0  0
 13 36  1  0  0  0  0
 14 15  1  0  0  0  0
 14 22  1  0  0  0  0
 14 54  1  0  0  0  0
 15 21  1  0  0  0  0
 15 16  1  0  0  0  0
 15 37  1  0  0  0  0
 16 17  1  0  0  0  0
 16 38  1  0  0  0  0
 16 39  1  0  0  0  0
 17 18  1  0  0  0  0
 17 40  1  0  0  0  0
 17 41  1  0  0  0  0
 18 19  1  0  0  0  0
 18 20  1  0  0  0  0
 19 42  1  0  0  0  0
 19 43  1  0  0  0  0
 19 44  1  0  0  0  0
 20 21  1  0  0  0  0
 20 45  1  0  0  0  0
 20 46  1  0  0  0  0
 21 47  1  0  0  0  0
 21 48  1  0  0  0  0
 22 23  1  0  0  0  0
 22 49  1  0  0  0  0
 22 50  1  0  0  0  0
 23 51  1  0  0  0  0
 23 52  1  0  0  0  0
 24 53  1  0  0  0  0
M  CHG  1  14   1
M  END
> <s_m_source_file>
AV-unprocessed.smi

> <i_m_source_file_index>
2583

> <i_lp_mmshare_version>
43012

> <i_f3d_flags>
0

> <s_epik_input>
W0NIM11jMVtjSF1uW2NIXWMoW2NIXTEpW05IXUMoPU8pW05IXVtDSF0yW0NIMl1bQ0gyXU4oW0NIMl1bQ0gyXTIpW0NIXTNbQ0gyXVtDSDJdTihbQ0gzXSlbQ0gyXVtDSDJdMw==

> <s_epik_cmdline>
J2VwaWtfcHl0aG9uJywgJy1waCcsICc3LjAnLCAnLXRuJywgJzgnLCAnLW1hJywgJzIwMCcsICctbWV0YWxfYmluZGluZycsICctaW1hZScsICc8aW5maWxlLm1hZT4nLCAnLW9tYWUnLCAnPG91dGZpbGUubWFlPic=

> <r_epik_Ionization_Penalty>
1.38006

> <r_epik_Ionization_Penalty_Charging>
0.00081195

> <r_epik_Ionization_Penalty_Neutral>
1.37925

> <r_epik_State_Penalty>
1.55585

> <r_epik_Charging_Adjusted_Penalty>
1.55666

> <i_epik_Tot_Q>
1

> <i_epik_Tot_abs_Q>
1

> <r_epik_Metal_State_Penalty>
1.55173

> <b_epik_Metal_Only>
0

> <s_lp_Force_Field>
OPLS_2005

> <r_lp_Energy>
35.4229

> <b_lp_Chiralities_Consistent>
1

> <s_lp_Variant>
AV-unprocessed.smi:2583-8

> <Gold.Version>
5.8.1

> <Gold.Id.Protein>
6NUR|6NUR_protein|mol2

> <Gold.PLP.Fitness>
46.4216

> <Gold.PLP.PLP>
-40.4977

> <Gold.PLP.part.hbond>
-2.0668

> <Gold.PLP.part.metal>
0.0000

> <Gold.PLP.part.buried>
-3.7486

> <Gold.PLP.part.nonpolar>
-35.7737

> <Gold.PLP.part.repulsive>
0.2399

> <Gold.PLP.ligand.clash>
0.0000

> <Gold.PLP.ligand.torsion>
0.5015

> <Gold.PLP.Chemscore.Hbond>
2.2945

> <Gold.PLP.Chemscore.CHOScore>
0.0000

> <Gold.PLP.Chemscore.Metal>
0.0000

> <Gold.Chemscore.Hbonds>
donor molecule, donor type, donor heavy atom, donor atom, acceptor molecule, acceptor atom, score
      L1  H    10    31       P1  8028  0.25
      L1  H    14    54       P1 10175  1.95

> <Gold.PLP.Chemscore.Internal.Correction>
0.0433

> <Gold.Rescore>
     Score         DG    S(hbond)    S(metal)    S(lipo)     H(rot)  DE(clash)    DE(int)     intcor
     18.92     -21.23       1.54        0.00     116.82       1.19       1.09       1.22       ----

> <Gold.Chemscore.Fitness>
18.9192

> <Gold.Chemscore.DG>
-21.2344

> <Gold.Chemscore.ZeroCoef>
-5.4800

> <Gold.Chemscore.Hbond>
1.5374

> <Gold.Chemscore.Metal>
0.0000

> <Gold.Chemscore.Lipo>
116.8245

> <Gold.Chemscore.Internal_Hbond>
0.0000

> <Gold.Chemscore.DEClash>
1.0929

> <Gold.Chemscore.DEInternal>
1.2223

> <Gold.Chemscore.Rot>
1.1910

> <Gold.Chemscore.Internal.Correction>
   9.000000E+99

> <Gold.Chemscore.Hbonds>
donor molecule, donor type, donor heavy atom, donor atom, acceptor molecule, acceptor atom, score
      L1  H    10    31       P1  8028  0.26
      L1  H    14    54       P1 10175  0.37

> <Gold.Chemscore.Hbond.Weighted>
-5.1348

> <Gold.Chemscore.Metal.Weighted>
-0.0000

> <Gold.Chemscore.Lipo.Weighted>
-13.6685

> <Gold.Chemscore.Internal_Hbond.Weighted>
0.0000

> <Gold.Chemscore.DEClash.Weighted>
1.0929

> <Gold.Chemscore.DEInternal.Weighted>
1.2223

> <Gold.Chemscore.Rot.Weighted>
3.0489

> <Gold.Chemscore.Internal.Correction.Weighted>
   9.000000E+99

> <Gold.Protein.RotatedTorsions>
[ 6907 6896 6895 6894 ] final -159.78 input  -60.11 | X-H torsion
[ 7974 7965 7964 7962 ] final  -47.91 input  175.53 | X-H torsion
[ 8008 7997 7996 7995 ] final    7.26 input   59.86 | X-H torsion
[ 10167 10162 10161 10158 ] final  -22.26 input  -65.29 | X-H torsion
[ 10718 10713 10712 10709 ] final  -86.94 input   66.30 | X-H torsion
[ 10763 10752 10751 10750 ] final  -31.76 input  -60.55 | X-H torsion
[ 11005 11000 10999 10996 ] final  -97.18 input  -57.11 | X-H torsion

> <Gold.Protein.ActiveResidues>
 VAL166  LYS551  ARG553  GLY616  TRP617  ASP618  TYR619  PRO620  LYS621  CYS622 
 ASP623  PHE694  ASN695  SER759  ASP760  ASP761  ALA762  ILE779  LEU786  VAL792 
 PHE793  MET794  SER795  GLU796  ALA797  LYS798  CYS799  TRP800  GLU811  SER814 

> <Gold.Protein.RotatedAtoms>
  151.3389  133.3970  159.2669 H   0  0  0  0  0  0  0  0  0  0  0  0  # atno 6907 bound_to 6896
  150.9894  134.9233  159.7901 H   0  0  0  0  0  0  0  0  0  0  0  0  # atno 6908 bound_to 6896
  152.5242  134.3354  159.9250 H   0  0  0  0  0  0  0  0  0  0  0  0  # atno 6909 bound_to 6896
  145.9567  140.7520  142.9478 H   0  0  0  0  0  0  0  0  0  0  0  0  # atno 7974 bound_to 7965
  154.7515  140.2768  155.6288 H   0  0  0  0  0  0  0  0  0  0  0  0  # atno 8008 bound_to 7997
  156.2896  140.2677  156.2196 H   0  0  0  0  0  0  0  0  0  0  0  0  # atno 8009 bound_to 7997
  155.0131  140.0372  157.2397 H   0  0  0  0  0  0  0  0  0  0  0  0  # atno 8010 bound_to 7997
  140.7285  143.4551  151.0460 H   0  0  0  0  0  0  0  0  0  0  0  0  # atno 10167 bound_to 10162
  155.9987  130.4782  150.4791 H   0  0  0  0  0  0  0  0  0  0  0  0  # atno 10718 bound_to 10713
  153.8026  135.6889  153.4853 H   0  0  0  0  0  0  0  0  0  0  0  0  # atno 10763 bound_to 10752
  153.1678  135.4554  154.9860 H   0  0  0  0  0  0  0  0  0  0  0  0  # atno 10764 bound_to 10752
  154.8000  135.3334  154.7514 H   0  0  0  0  0  0  0  0  0  0  0  0  # atno 10765 bound_to 10752
  141.1387  133.8152  157.0672 H   0  0  0  0  0  0  0  0  0  0  0  0  # atno 11005 bound_to 11000
  144.6806  140.2523  143.7330 LP  0  0  0  0  0  0  0  0  0  0  0  0  # atno 17320 bound_to 7965
  145.8097  139.1998  143.2000 LP  0  0  0  0  0  0  0  0  0  0  0  0  # atno 17321 bound_to 7965
  139.8231  143.7793  152.3177 LP  0  0  0  0  0  0  0  0  0  0  0  0  # atno 17342 bound_to 10162
  139.7882  144.7420  150.9992 LP  0  0  0  0  0  0  0  0  0  0  0  0  # atno 17343 bound_to 10162
  157.2798  131.0604  151.2205 LP  0  0  0  0  0  0  0  0  0  0  0  0  # atno 17370 bound_to 10713
  157.3256  130.6959  149.6294 LP  0  0  0  0  0  0  0  0  0  0  0  0  # atno 17371 bound_to 10713
  140.0534  134.9793  157.1177 LP  0  0  0  0  0  0  0  0  0  0  0  0  # atno 17394 bound_to 11000
  140.3955  134.2138  155.7165 LP  0  0  0  0  0  0  0  0  0  0  0  0  # atno 17395 bound_to 11000

$$$$
