AV-unprocessed.smi:72|AV-procd|sdf|674|dock1
  -GOLD-   2262016583D 1   1.00000     0.00000
 Structure written by MMmdl.
 29 30  0  0  0  0  0  0  0  0  1 V2000
  147.7580  142.9268  158.2204 N   0  0  0  0  0  0  0  0  0  0  0  0
  148.1814  141.9644  157.4815 C   0  0  0  0  0  0  0  0  0  0  0  0
  148.3213  140.6302  157.8893 N   0  0  0  0  0  0  0  0  0  0  0  0
  148.7256  139.7535  157.0229 C   0  0  0  0  0  0  0  0  0  0  0  0
  148.9943  140.0956  155.6303 N   0  0  0  0  0  0  0  0  0  0  0  0
  149.5086  139.0616  154.6364 C   0  0  1  0  0  0  0  0  0  0  0  0
  150.7575  139.4627  154.1406 O   0  0  0  0  0  0  0  0  0  0  0  0
  151.8234  138.6985  154.7026 C   0  0  1  0  0  0  0  0  0  0  0  0
  152.3333  139.3422  156.0126 C   0  0  0  0  0  0  0  0  0  0  0  0
  153.3714  138.5579  156.5604 O   0  0  0  0  0  0  0  0  0  0  0  0
  151.1567  137.3291  154.8671 C   0  0  1  0  0  0  0  0  0  0  0  0
  151.7952  136.5092  155.8264 O   0  0  0  0  0  0  0  0  0  0  0  0
  149.7295  137.6691  155.2769 C   0  0  2  0  0  0  0  0  0  0  0  0
  148.8494  136.6988  154.7461 O   0  0  0  0  0  0  0  0  0  0  0  0
  148.9628  141.4598  155.2393 C   0  0  0  0  0  0  0  0  0  0  0  0
  149.3096  141.8390  154.1212 O   0  0  0  0  0  0  0  0  0  0  0  0
  148.5262  142.3303  156.1748 N   0  0  0  0  0  0  0  0  0  0  0  0
  148.7731  139.0714  153.8301 H   0  0  0  0  0  0  0  0  0  0  0  0
  152.6472  138.6277  153.9910 H   0  0  0  0  0  0  0  0  0  0  0  0
  151.1633  136.8224  153.9003 H   0  0  0  0  0  0  0  0  0  0  0  0
  149.6448  137.7305  156.3631 H   0  0  0  0  0  0  0  0  0  0  0  0
  147.7527  143.7948  157.7050 H   0  0  0  0  0  0  0  0  0  0  0  0
  148.8850  138.7090  157.2909 H   0  0  0  0  0  0  0  0  0  0  0  0
  152.6607  140.3715  155.8745 H   0  0  0  0  0  0  0  0  0  0  0  0
  151.5408  139.3650  156.7602 H   0  0  0  0  0  0  0  0  0  0  0  0
  153.1577  137.6459  156.4347 H   0  0  0  0  0  0  0  0  0  0  0  0
  151.5946  136.8464  156.6863 H   0  0  0  0  0  0  0  0  0  0  0  0
  148.7489  136.8638  153.8205 H   0  0  0  0  0  0  0  0  0  0  0  0
  148.4696  143.3037  155.9137 H   0  0  0  0  0  0  0  0  0  0  0  0
  1  2  2  0  0  0  0
  1 22  1  0  0  0  0
  2 17  1  0  0  0  0
  2  3  1  0  0  0  0
  3  4  2  0  0  0  0
  4  5  1  0  0  0  0
  4 23  1  0  0  0  0
  5  6  1  0  0  0  0
  5 15  1  0  0  0  0
  6 18  1  0  0  0  0
  6 13  1  0  0  0  0
  6  7  1  0  0  0  0
  7  8  1  0  0  0  0
  8 19  1  0  0  0  0
  8  9  1  0  0  0  0
  8 11  1  0  0  0  0
  9 10  1  0  0  0  0
  9 24  1  0  0  0  0
  9 25  1  0  0  0  0
 10 26  1  0  0  0  0
 11 20  1  0  0  0  0
 11 12  1  0  0  0  0
 11 13  1  0  0  0  0
 12 27  1  0  0  0  0
 13 21  1  0  0  0  0
 13 14  1  0  0  0  0
 14 28  1  0  0  0  0
 15 16  2  0  0  0  0
 15 17  1  0  0  0  0
 17 29  1  0  0  0  0
M  END
> <s_m_source_file>
AV-unprocessed.smi

> <i_m_source_file_index>
72

> <i_lp_mmshare_version>
43012

> <i_f3d_flags>
0

> <s_epik_input>
W05IMl1jMW5bY0hdbihjKD1PKW4xKVtDQEBIXTJPW0NASF0oW0NIMl1bT0hdKVtDQEBIXShbT0hdKVtDQEhdMltPSF0=

> <s_epik_cmdline>
J2VwaWtfcHl0aG9uJywgJy1waCcsICc3LjAnLCAnLXRuJywgJzgnLCAnLW1hJywgJzIwMCcsICctbWV0YWxfYmluZGluZycsICctaW1hZScsICc8aW5maWxlLm1hZT4nLCAnLW9tYWUnLCAnPG91dGZpbGUubWFlPic=

> <r_lp_tautomer_probability>
7.17554e-07

> <r_epik_Ionization_Penalty>
0.0066451

> <r_epik_Ionization_Penalty_Charging>
0.00663793

> <r_epik_Ionization_Penalty_Neutral>
7.17052e-06

> <r_epik_State_Penalty>
0.419231

> <r_epik_Charging_Adjusted_Penalty>
0.425868

> <i_epik_Tot_Q>
0

> <i_epik_Tot_abs_Q>
0

> <r_epik_Metal_State_Penalty>
1.44144

> <b_epik_Metal_Only>
0

> <s_epik_Chemistry_Notes>
This compound contains an acetal/aminal-like group ( X-CH(R)-Y where X, Y are N, S, or O) that may be acid/base labile, releasing an aldehyde.

> <s_lp_Force_Field>
OPLS_2005

> <r_lp_Energy>
41.469

> <b_lp_Chiralities_Consistent>
1

> <s_lp_Variant>
AV-unprocessed.smi:72-12

> <Gold.Version>
5.8.1

> <Gold.Id.Protein>
6NUR|6NUR_protein|mol2

> <Gold.PLP.Fitness>
39.8897

> <Gold.PLP.PLP>
-24.1968

> <Gold.PLP.part.hbond>
-7.1804

> <Gold.PLP.part.metal>
0.0000

> <Gold.PLP.part.buried>
-3.1441

> <Gold.PLP.part.nonpolar>
-14.1491

> <Gold.PLP.part.repulsive>
0.4489

> <Gold.PLP.ligand.clash>
0.0000

> <Gold.PLP.ligand.torsion>
0.0932

> <Gold.PLP.Chemscore.Hbond>
5.2601

> <Gold.PLP.Chemscore.CHOScore>
0.0000

> <Gold.PLP.Chemscore.Metal>
0.0000

> <Gold.Chemscore.Hbonds>
donor molecule, donor type, donor heavy atom, donor atom, acceptor molecule, acceptor atom, score
      L1  H     1    22       P1  8029  0.25
      L1  H    14    28       P1  7948  0.92
      L1  H    17    29       P1  8028  0.89
      P1  H  7989  7998       L1     7  1.00
      P1  H  7997  8010       L1    10  0.55
      P1  H  8011  8017       L1    16  0.48
      P1  H 10752 10764       L1    12  1.00

> <Gold.PLP.Chemscore.Internal.Correction>
0.0989

> <Gold.Rescore>
     Score         DG    S(hbond)    S(metal)    S(lipo)     H(rot)  DE(clash)    DE(int)     intcor
      7.74      -9.74       3.48        0.00      25.80       4.06       0.46       1.54       ----

> <Gold.Chemscore.Fitness>
7.7373

> <Gold.Chemscore.DG>
-9.7408

> <Gold.Chemscore.ZeroCoef>
-5.4800

> <Gold.Chemscore.Hbond>
3.4838

> <Gold.Chemscore.Metal>
0.0000

> <Gold.Chemscore.Lipo>
25.7987

> <Gold.Chemscore.Internal_Hbond>
0.0000

> <Gold.Chemscore.DEClash>
0.4593

> <Gold.Chemscore.DEInternal>
1.5442

> <Gold.Chemscore.Rot>
4.0600

> <Gold.Chemscore.Internal.Correction>
   9.000000E+99

> <Gold.Chemscore.Hbonds>
donor molecule, donor type, donor heavy atom, donor atom, acceptor molecule, acceptor atom, score
      L1  H     1    22       P1  8029  0.01
      L1  H    14    28       P1  7948  0.83
      L1  H    17    29       P1  8028  0.81
      P1  H  7989  7998       L1     7  0.35
      P1  H  7997  8010       L1    10  0.08
      P1  H  8011  8017       L1    16  0.48
      P1  H 10752 10764       L1    12  0.25

> <Gold.Chemscore.Hbond.Weighted>
-11.6359

> <Gold.Chemscore.Metal.Weighted>
-0.0000

> <Gold.Chemscore.Lipo.Weighted>
-3.0184

> <Gold.Chemscore.Internal_Hbond.Weighted>
0.0000

> <Gold.Chemscore.DEClash.Weighted>
0.4593

> <Gold.Chemscore.DEInternal.Weighted>
1.5442

> <Gold.Chemscore.Rot.Weighted>
10.3936

> <Gold.Chemscore.Internal.Correction.Weighted>
   9.000000E+99

> <Gold.Protein.RotatedTorsions>
[ 6907 6896 6895 6894 ] final   -5.88 input  -60.11 | X-H torsion
[ 7974 7965 7964 7962 ] final -137.95 input  175.53 | X-H torsion
[ 8008 7997 7996 7995 ] final   38.82 input   59.86 | X-H torsion
[ 10167 10162 10161 10158 ] final   82.63 input  -65.29 | X-H torsion
[ 10718 10713 10712 10709 ] final   36.85 input   66.30 | X-H torsion
[ 10763 10752 10751 10750 ] final  -54.11 input  -60.55 | X-H torsion
[ 11005 11000 10999 10996 ] final -137.12 input  -57.11 | X-H torsion

> <Gold.Protein.ActiveResidues>
 VAL166  LYS551  ARG553  GLY616  TRP617  ASP618  TYR619  PRO620  LYS621  CYS622 
 ASP623  PHE694  ASN695  SER759  ASP760  ASP761  ALA762  ILE779  LEU786  VAL792 
 PHE793  MET794  SER795  GLU796  ALA797  LYS798  CYS799  TRP800  GLU811  SER814 

> <Gold.Protein.RotatedAtoms>
  151.4746  135.1048  159.9760 H   0  0  0  0  0  0  0  0  0  0  0  0  # atno 6907 bound_to 6896
  152.4803  133.8234  159.7076 H   0  0  0  0  0  0  0  0  0  0  0  0  # atno 6908 bound_to 6896
  150.8870  133.7233  159.2942 H   0  0  0  0  0  0  0  0  0  0  0  0  # atno 6909 bound_to 6896
  144.8799  140.6491  143.5213 H   0  0  0  0  0  0  0  0  0  0  0  0  # atno 7974 bound_to 7965
  155.2264  140.3335  155.4309 H   0  0  0  0  0  0  0  0  0  0  0  0  # atno 8008 bound_to 7997
  156.2312  140.1851  156.7283 H   0  0  0  0  0  0  0  0  0  0  0  0  # atno 8009 bound_to 7997
  154.5982  140.0627  156.9318 H   0  0  0  0  0  0  0  0  0  0  0  0  # atno 8010 bound_to 7997
  139.9268  144.6178  150.8385 H   0  0  0  0  0  0  0  0  0  0  0  0  # atno 10167 bound_to 10162
  157.3398  130.7542  149.6904 H   0  0  0  0  0  0  0  0  0  0  0  0  # atno 10718 bound_to 10713
  154.1695  135.6461  153.5006 H   0  0  0  0  0  0  0  0  0  0  0  0  # atno 10763 bound_to 10752
  153.0088  135.5380  154.6627 H   0  0  0  0  0  0  0  0  0  0  0  0  # atno 10764 bound_to 10752
  154.5963  135.2939  155.0555 H   0  0  0  0  0  0  0  0  0  0  0  0  # atno 10765 bound_to 10752
  140.8741  134.2014  157.4633 H   0  0  0  0  0  0  0  0  0  0  0  0  # atno 11005 bound_to 11000
  145.3974  139.1604  143.4196 LP  0  0  0  0  0  0  0  0  0  0  0  0  # atno 17320 bound_to 7965
  146.2987  140.4068  142.8712 LP  0  0  0  0  0  0  0  0  0  0  0  0  # atno 17321 bound_to 7965
  140.7648  143.3258  151.2519 LP  0  0  0  0  0  0  0  0  0  0  0  0  # atno 17342 bound_to 10162
  139.6815  143.9846  152.2811 LP  0  0  0  0  0  0  0  0  0  0  0  0  # atno 17343 bound_to 10162
  155.9706  130.4171  150.4262 LP  0  0  0  0  0  0  0  0  0  0  0  0  # atno 17370 bound_to 10713
  157.2308  131.0504  151.2493 LP  0  0  0  0  0  0  0  0  0  0  0  0  # atno 17371 bound_to 10713
  139.8714  134.9787  156.5009 LP  0  0  0  0  0  0  0  0  0  0  0  0  # atno 17394 bound_to 11000
  140.8539  133.8111  155.9196 LP  0  0  0  0  0  0  0  0  0  0  0  0  # atno 17395 bound_to 11000

$$$$
