AV-unprocessed.smi:252|AV-procd|sdf|1940|dock1
  -GOLD-   2262021 63D 1   1.00000     0.00000
 Structure written by MMmdl.
 56 59  0  0  0  0  0  0  0  0  1 V2000
  151.9465  145.0372  160.3763 C   0  0  0  0  0  0  0  0  0  0  0  0
  152.4521  143.7324  161.0093 C   0  0  0  0  0  0  0  0  0  0  0  0
  152.4005  142.5463  160.0422 C   0  0  0  0  0  0  0  0  0  0  0  0
  153.0535  141.5290  160.2748 O   0  0  0  0  0  0  0  0  0  0  0  0
  151.6202  142.6999  158.9587 N   0  0  0  0  0  0  0  0  0  0  0  0
  151.3831  141.7320  157.8866 C   0  0  2  0  0  0  0  0  0  0  0  0
  150.5971  142.3352  156.7039 C   0  0  0  0  0  0  0  0  0  0  0  0
  150.4267  141.2835  155.5979 C   0  0  0  0  0  0  0  0  0  0  0  0
  149.7742  140.0062  156.1517 C   0  0  0  0  0  0  0  0  0  0  0  0
  150.5261  139.4879  157.2950 N   0  0  0  0  0  0  0  0  0  0  0  0
  150.2573  138.1958  157.6113 C   0  0  0  0  0  0  0  0  0  0  0  0
  149.8363  137.8758  158.8644 N   0  0  0  0  0  0  0  0  0  0  0  0
  149.5539  136.6079  159.1789 C   0  0  0  0  0  0  0  0  0  0  0  0
  149.6238  135.5213  158.4077 N   0  0  0  0  0  0  0  0  0  0  0  0
  150.0528  135.8335  157.1515 C   0  0  0  0  0  0  0  0  0  0  0  0
  150.3923  137.1316  156.6753 C   0  0  0  0  0  0  0  0  0  0  0  0
  150.8060  137.0554  155.3502 N   0  0  0  0  0  0  0  0  0  0  0  0
  150.7038  135.7883  155.0564 C   0  0  0  0  0  0  0  0  0  0  0  0
  150.2481  134.9839  156.0763 N   0  0  0  0  0  0  0  0  0  0  0  0
  150.0297  133.5470  156.0193 C   0  0  0  0  0  0  0  0  0  0  0  0
  148.8751  133.1411  155.0726 C   0  0  1  0  0  0  0  0  0  0  0  0
  147.6608  133.6581  155.5932 O   0  0  0  0  0  0  0  0  0  0  0  0
  149.0380  133.6414  153.6448 C   0  0  0  0  0  0  0  0  0  0  0  0
  148.1794  132.6641  152.8523 C   0  0  0  0  0  0  0  0  0  0  0  0
  148.3510  131.4147  153.5088 O   0  0  0  0  0  0  0  0  0  0  0  0
  148.7728  131.6149  154.8575 C   0  0  2  0  0  0  0  0  0  0  0  0
  147.8746  130.8401  155.8349 C   0  0  0  0  0  0  0  0  0  0  0  0
  150.7173  140.4352  158.3950 C   0  0  0  0  0  0  0  0  0  0  0  0
  152.0262  145.8640  161.0822 H   0  0  0  0  0  0  0  0  0  0  0  0
  150.8998  144.9600  160.0800 H   0  0  0  0  0  0  0  0  0  0  0  0
  152.5285  145.3009  159.4924 H   0  0  0  0  0  0  0  0  0  0  0  0
  153.4745  143.8754  161.3620 H   0  0  0  0  0  0  0  0  0  0  0  0
  151.8507  143.4902  161.8857 H   0  0  0  0  0  0  0  0  0  0  0  0
  151.1351  143.5809  158.8677 H   0  0  0  0  0  0  0  0  0  0  0  0
  152.3742  141.4650  157.5172 H   0  0  0  0  0  0  0  0  0  0  0  0
  149.6119  142.6725  157.0270 H   0  0  0  0  0  0  0  0  0  0  0  0
  151.1147  143.2102  156.3094 H   0  0  0  0  0  0  0  0  0  0  0  0
  149.8231  141.6888  154.7856 H   0  0  0  0  0  0  0  0  0  0  0  0
  151.4000  141.0394  155.1701 H   0  0  0  0  0  0  0  0  0  0  0  0
  148.7548  140.2220  156.4746 H   0  0  0  0  0  0  0  0  0  0  0  0
  149.6969  139.2679  155.3544 H   0  0  0  0  0  0  0  0  0  0  0  0
  149.2215  136.4409  160.1929 H   0  0  0  0  0  0  0  0  0  0  0  0
  150.9538  135.4040  154.0780 H   0  0  0  0  0  0  0  0  0  0  0  0
  150.9620  133.0803  155.6989 H   0  0  0  0  0  0  0  0  0  0  0  0
  149.8380  133.1828  157.0296 H   0  0  0  0  0  0  0  0  0  0  0  0
  147.6659  134.5971  155.4873 H   0  0  0  0  0  0  0  0  0  0  0  0
  148.7427  134.6823  153.5059 H   0  0  0  0  0  0  0  0  0  0  0  0
  150.0773  133.5426  153.3282 H   0  0  0  0  0  0  0  0  0  0  0  0
  147.1278  132.9497  152.9032 H   0  0  0  0  0  0  0  0  0  0  0  0
  148.4655  132.6084  151.8020 H   0  0  0  0  0  0  0  0  0  0  0  0
  149.7758  131.1891  154.9104 H   0  0  0  0  0  0  0  0  0  0  0  0
  148.1898  130.9993  156.8666 H   0  0  0  0  0  0  0  0  0  0  0  0
  147.9225  129.7695  155.6356 H   0  0  0  0  0  0  0  0  0  0  0  0
  146.8302  131.1410  155.7496 H   0  0  0  0  0  0  0  0  0  0  0  0
  151.3431  139.9849  159.1670 H   0  0  0  0  0  0  0  0  0  0  0  0
  149.7484  140.6485  158.8476 H   0  0  0  0  0  0  0  0  0  0  0  0
  1  2  1  0  0  0  0
  1 29  1  0  0  0  0
  1 30  1  0  0  0  0
  1 31  1  0  0  0  0
  2  3  1  0  0  0  0
  2 32  1  0  0  0  0
  2 33  1  0  0  0  0
  3  4  2  0  0  0  0
  3  5  1  0  0  0  0
  5  6  1  0  0  0  0
  5 34  1  0  0  0  0
  6 28  1  0  0  0  0
  6  7  1  0  0  0  0
  6 35  1  0  0  0  0
  7  8  1  0  0  0  0
  7 36  1  0  0  0  0
  7 37  1  0  0  0  0
  8  9  1  0  0  0  0
  8 38  1  0  0  0  0
  8 39  1  0  0  0  0
  9 10  1  0  0  0  0
  9 40  1  0  0  0  0
  9 41  1  0  0  0  0
 10 11  1  0  0  0  0
 10 28  1  0  0  0  0
 11 16  1  0  0  0  0
 11 12  2  0  0  0  0
 12 13  1  0  0  0  0
 13 14  2  0  0  0  0
 13 42  1  0  0  0  0
 14 15  1  0  0  0  0
 15 19  1  0  0  0  0
 15 16  2  0  0  0  0
 16 17  1  0  0  0  0
 17 18  2  0  0  0  0
 18 19  1  0  0  0  0
 18 43  1  0  0  0  0
 19 20  1  0  0  0  0
 20 21  1  0  0  0  0
 20 44  1  0  0  0  0
 20 45  1  0  0  0  0
 21 26  1  0  0  0  0
 21 22  1  0  0  0  0
 21 23  1  0  0  0  0
 22 46  1  0  0  0  0
 23 24  1  0  0  0  0
 23 47  1  0  0  0  0
 23 48  1  0  0  0  0
 24 25  1  0  0  0  0
 24 49  1  0  0  0  0
 24 50  1  0  0  0  0
 25 26  1  0  0  0  0
 26 27  1  0  0  0  0
 26 51  1  0  0  0  0
 27 52  1  0  0  0  0
 27 53  1  0  0  0  0
 27 54  1  0  0  0  0
 28 55  1  0  0  0  0
 28 56  1  0  0  0  0
M  END
> <s_m_source_file>
AV-unprocessed.smi

> <i_m_source_file_index>
252

> <i_lp_mmshare_version>
43012

> <i_f3d_flags>
0

> <s_epik_input>
W0NIM11bQ0gyXUMoPU8pW05IXVtDQEBIXTFbQ0gyXVtDSDJdW0NIMl1OKFtDSDJdMSljKG5bY0hdbjIpYyhjMjMpbltjSF1uM1tDSDJdW0NAQF00KFtPSF0pW0NIMl1bQ0gyXU9bQ0BIXTRbQ0gzXQ==

> <s_epik_cmdline>
J2VwaWtfcHl0aG9uJywgJy1waCcsICc3LjAnLCAnLXRuJywgJzgnLCAnLW1hJywgJzIwMCcsICctbWV0YWxfYmluZGluZycsICctaW1hZScsICc8aW5maWxlLm1hZT4nLCAnLW9tYWUnLCAnPG91dGZpbGUubWFlPic=

> <r_lp_tautomer_probability>
1

> <r_epik_Ionization_Penalty>
0.00182575

> <r_epik_Ionization_Penalty_Charging>
0

> <r_epik_Ionization_Penalty_Neutral>
0.00182575

> <r_epik_State_Penalty>
0.00104524

> <r_epik_Charging_Adjusted_Penalty>
0.00104524

> <i_epik_Tot_Q>
0

> <i_epik_Tot_abs_Q>
0

> <r_epik_Metal_State_Penalty>
-0

> <b_epik_Metal_Only>
0

> <s_lp_Force_Field>
OPLS_2005

> <r_lp_Energy>
36.8902

> <b_lp_Chiralities_Consistent>
1

> <s_lp_Variant>
AV-unprocessed.smi:252-5

> <Gold.Version>
5.8.1

> <Gold.Id.Protein>
6NUR|6NUR_protein|mol2

> <Gold.PLP.Fitness>
41.8202

> <Gold.PLP.PLP>
-38.8099

> <Gold.PLP.part.hbond>
-1.0000

> <Gold.PLP.part.metal>
0.0000

> <Gold.PLP.part.buried>
-2.6584

> <Gold.PLP.part.nonpolar>
-34.1542

> <Gold.PLP.part.repulsive>
0.2522

> <Gold.PLP.ligand.clash>
0.0000

> <Gold.PLP.ligand.torsion>
0.5794

> <Gold.PLP.Chemscore.Hbond>
0.5920

> <Gold.PLP.Chemscore.CHOScore>
0.5981

> <Gold.PLP.Chemscore.Metal>
0.0000

> <Gold.Chemscore.Hbonds>
donor molecule, donor type, donor heavy atom, donor atom, acceptor molecule, acceptor atom, score
      P1  H  6896  6908       L1    14  0.59
      L1  C    18    43       P1  7949  0.57

> <Gold.PLP.Chemscore.Internal.Correction>
0.5988

> <Gold.Rescore>
     Score         DG    S(hbond)    S(metal)    S(lipo)     H(rot)  DE(clash)    DE(int)     intcor
      8.74     -10.10       0.44        0.00      86.10       2.70       0.03       1.33       ----

> <Gold.Chemscore.Fitness>
8.7435

> <Gold.Chemscore.DG>
-10.1040

> <Gold.Chemscore.ZeroCoef>
-5.4800

> <Gold.Chemscore.Hbond>
0.4409

> <Gold.Chemscore.Metal>
0.0000

> <Gold.Chemscore.Lipo>
86.1017

> <Gold.Chemscore.Internal_Hbond>
0.0000

> <Gold.Chemscore.DEClash>
0.0290

> <Gold.Chemscore.DEInternal>
1.3314

> <Gold.Chemscore.Rot>
2.7041

> <Gold.Chemscore.Internal.Correction>
   9.000000E+99

> <Gold.Chemscore.Hbonds>
donor molecule, donor type, donor heavy atom, donor atom, acceptor molecule, acceptor atom, score
      P1  H  6896  6908       L1    14  0.38

> <Gold.Chemscore.Hbond.Weighted>
-1.4725

> <Gold.Chemscore.Metal.Weighted>
-0.0000

> <Gold.Chemscore.Lipo.Weighted>
-10.0739

> <Gold.Chemscore.Internal_Hbond.Weighted>
0.0000

> <Gold.Chemscore.DEClash.Weighted>
0.0290

> <Gold.Chemscore.DEInternal.Weighted>
1.3314

> <Gold.Chemscore.Rot.Weighted>
6.9225

> <Gold.Chemscore.Internal.Correction.Weighted>
   9.000000E+99

> <Gold.Protein.RotatedTorsions>
[ 6907 6896 6895 6894 ] final  134.79 input  -60.11 | X-H torsion
[ 7974 7965 7964 7962 ] final   20.33 input  175.53 | X-H torsion
[ 8008 7997 7996 7995 ] final  145.62 input   59.86 | X-H torsion
[ 10167 10162 10161 10158 ] final -103.58 input  -65.29 | X-H torsion
[ 10718 10713 10712 10709 ] final  -32.40 input   66.30 | X-H torsion
[ 10763 10752 10751 10750 ] final  -48.41 input  -60.55 | X-H torsion
[ 11005 11000 10999 10996 ] final -114.68 input  -57.11 | X-H torsion

> <Gold.Protein.ActiveResidues>
 VAL166  LYS551  ARG553  GLY616  TRP617  ASP618  TYR619  PRO620  LYS621  CYS622 
 ASP623  PHE694  ASN695  SER759  ASP760  ASP761  ALA762  ILE779  LEU786  VAL792 
 PHE793  MET794  SER795  GLU796  ALA797  LYS798  CYS799  TRP800  GLU811  SER814 

> <Gold.Protein.RotatedAtoms>
  152.3075  133.5718  159.5658 H   0  0  0  0  0  0  0  0  0  0  0  0  # atno 6907 bound_to 6896
  150.7306  134.0202  159.3707 H   0  0  0  0  0  0  0  0  0  0  0  0  # atno 6908 bound_to 6896
  151.8097  135.0685  160.0462 H   0  0  0  0  0  0  0  0  0  0  0  0  # atno 6909 bound_to 6896
  146.2115  139.8185  142.8685 H   0  0  0  0  0  0  0  0  0  0  0  0  # atno 7974 bound_to 7965
  156.2878  140.2204  156.5245 H   0  0  0  0  0  0  0  0  0  0  0  0  # atno 8008 bound_to 7997
  154.7501  140.0481  157.0907 H   0  0  0  0  0  0  0  0  0  0  0  0  # atno 8009 bound_to 7997
  155.0121  140.3114  155.4829 H   0  0  0  0  0  0  0  0  0  0  0  0  # atno 8010 bound_to 7997
  140.2184  143.3694  152.0990 H   0  0  0  0  0  0  0  0  0  0  0  0  # atno 10167 bound_to 10162
  156.3754  130.4347  149.7511 H   0  0  0  0  0  0  0  0  0  0  0  0  # atno 10718 bound_to 10713
  154.0773  135.6596  153.4833 H   0  0  0  0  0  0  0  0  0  0  0  0  # atno 10763 bound_to 10752
  153.0369  135.5171  154.7508 H   0  0  0  0  0  0  0  0  0  0  0  0  # atno 10764 bound_to 10752
  154.6592  135.3012  154.9856 H   0  0  0  0  0  0  0  0  0  0  0  0  # atno 10765 bound_to 10752
  141.0536  133.9647  157.2793 H   0  0  0  0  0  0  0  0  0  0  0  0  # atno 11005 bound_to 11000
  145.3121  141.0222  143.3548 LP  0  0  0  0  0  0  0  0  0  0  0  0  # atno 17320 bound_to 7965
  144.8928  139.4752  143.6670 LP  0  0  0  0  0  0  0  0  0  0  0  0  # atno 17321 bound_to 7965
  139.5153  144.6961  151.5626 LP  0  0  0  0  0  0  0  0  0  0  0  0  # atno 17342 bound_to 10162
  140.6273  143.9145  150.6575 LP  0  0  0  0  0  0  0  0  0  0  0  0  # atno 17343 bound_to 10162
  156.4622  130.7957  151.2977 LP  0  0  0  0  0  0  0  0  0  0  0  0  # atno 17370 bound_to 10713
  157.7488  131.0062  150.3142 LP  0  0  0  0  0  0  0  0  0  0  0  0  # atno 17371 bound_to 10713
  139.9371  135.0195  156.8591 LP  0  0  0  0  0  0  0  0  0  0  0  0  # atno 17394 bound_to 11000
  140.6007  134.0175  155.7536 LP  0  0  0  0  0  0  0  0  0  0  0  0  # atno 17395 bound_to 11000

$$$$
