#       Name:                AV-unprocessed.smi:2046
#       Creating user name   scv26
#       Creation time:       Fri Mar 27 10:58:00 2020


#       File generated by GOLD software.
#

@<TRIPOS>MOLECULE
AV-unprocessed.smi:2046
    36    37     1
SMALL
NO_CHARGES


@<TRIPOS>ATOM
      1 ****         1.9983   0.6112  -0.4410 O.2            1 S1                 0.0000
      2 ****         1.6629  -0.4619   0.0611 C.2            1 S1                 0.0000
      3 ****         2.4889  -1.4892   0.3269 N.am           1 S1                 0.0000
      4 ****         3.8878  -1.5761   0.0996 C.2            1 S1                 0.0000
      5 ****         4.6148  -0.5927  -0.4540 N.2            1 S1                 0.0000
      6 ****         5.9564  -0.9357  -0.5615 N.2            1 S1                 0.0000
      7 ****         6.1881  -2.1624  -0.0857 C.2            1 S1                 0.0000
      8 ****         4.7898  -3.0194   0.5396 S.3            1 S1                 0.0000
      9 ****         0.4022  -0.7512   0.4150 N.am           1 S1                 0.0000
     10 ****        -0.7468   0.1482   0.2969 C.3            1 S1                 0.0000
     11 ****        -1.3244   0.0909  -1.1354 C.3            1 S1                 0.0000
     12 ****        -2.1358   1.3348  -1.5323 C.3            1 S1                 0.0000
     13 ****        -3.3992   1.5771  -0.6930 C.3            1 S1                 0.0000
     14 ****        -3.1076   1.8966   0.7835 C.3            1 S1                 0.0000
     15 ****        -2.8115   0.7033   1.5666 N.am           1 S1                 0.0000
     16 ****        -1.7776  -0.1365   1.4055 C.2            1 S1                 0.0000
     17 ****        -1.6578  -1.1255   2.1285 O.2            1 S1                 0.0000
     18 ****         2.0675  -2.3055   0.7445 H              1 S1                 0.0000
     19 ****         7.1899  -2.5654  -0.1036 H              1 S1                 0.0000
     20 ****         0.2191  -1.6557   0.8244 H              1 S1                 0.0000
     21 ****        -0.3756   1.1588   0.4788 H              1 S1                 0.0000
     22 ****        -0.5094  -0.0043  -1.8538 H              1 S1                 0.0000
     23 ****        -1.9311  -0.8072  -1.2596 H              1 S1                 0.0000
     24 ****        -1.4944   2.2157  -1.4875 H              1 S1                 0.0000
     25 ****        -2.4291   1.2361  -2.5780 H              1 S1                 0.0000
     26 ****        -3.9329   2.4233  -1.1271 H              1 S1                 0.0000
     27 ****        -4.0771   0.7260  -0.7710 H              1 S1                 0.0000
     28 ****        -2.3009   2.6248   0.8784 H              1 S1                 0.0000
     29 ****        -3.9888   2.3581   1.2295 H              1 S1                 0.0000
     30 ****        -3.4659   0.4840   2.3038 H              1 S1                 0.0000
     31 ****         2.9545   0.7715  -0.6857 LP             1 S1                 0.0000
     32 ****         1.3145   1.3224  -0.6040 LP             1 S1                 0.0000
     33 ****         4.2355   0.2828  -0.7534 LP             1 S1                 0.0000
     34 ****         6.6606  -0.3393  -0.9467 LP             1 S1                 0.0000
     35 ****        -0.8877  -1.7499   1.9980 LP             1 S1                 0.0000
     36 ****        -2.3306  -1.3045   2.8464 LP             1 S1                 0.0000
@<TRIPOS>BOND
    1    1    2 2     
    2    2    3 am    
    3    2    9 am    
    4    3    4 1     
    5    3   18 1     
    6    4    8 1     
    7    4    5 2     
    8    5    6 1     
    9    6    7 2     
   10    7    8 1     
   11    7   19 1     
   12    9   10 1     
   13    9   20 1     
   14   10   16 1     
   15   10   11 1     
   16   10   21 1     
   17   11   12 1     
   18   11   22 1     
   19   11   23 1     
   20   12   13 1     
   21   12   24 1     
   22   12   25 1     
   23   13   14 1     
   24   13   26 1     
   25   13   27 1     
   26   14   15 1     
   27   14   28 1     
   28   14   29 1     
   29   15   16 am    
   30   15   30 1     
   31   16   17 2     
   32    1   31 1     
   33    1   32 1     
   34    5   33 1     
   35    6   34 1     
   36   17   35 1     
   37   17   36 1     
@<TRIPOS>SUBSTRUCTURE
      1 S1             1
@<TRIPOS>SET
LONE_PAIRS      STATIC     ATOMS    <user>   **** ""
6 31 32 33 34 35 36
DONOR_HYDROGENS      STATIC     ATOMS    <user>   **** ""
3 18 20 30
ATOM$BLUE        STATIC     ATOMS    COLORGROUP SYSTEM
6 31 32 33 34 35 36
ATOM$RED        STATIC     ATOMS    COLORGROUP SYSTEM
3 18 20 30
