AV-unprocessed.smi:3198|AV-procd|sdf|12230|dock6
  -GOLD-   2272018 63D 1   1.00000     0.00000
 Structure written by MMmdl.
 37 38  0  0  0  0  0  0  0  0  1 V2000
  153.1954  141.7429  160.6829 C   0  0  0  0  0  0  0  0  0  0  0  0
  152.5281  142.7472  159.7673 C   0  0  0  0  0  0  0  0  0  0  0  0
  152.5479  144.1254  160.0642 C   0  0  0  0  0  0  0  0  0  0  0  0
  151.9123  145.0090  159.1716 C   0  0  0  0  0  0  0  0  0  0  0  0
  151.2875  144.4834  158.0241 C   0  0  0  0  0  0  0  0  0  0  0  0
  151.3213  143.0896  157.8087 C   0  0  0  0  0  0  0  0  0  0  0  0
  150.6973  142.5729  156.6638 N   0  0  0  0  0  0  0  0  0  0  0  0
  151.1745  141.3536  156.0219 C   0  0  0  0  0  0  0  0  0  0  0  0
  150.0293  140.5074  155.4473 C   0  0  0  0  0  0  0  0  0  0  0  0
  150.5466  139.6478  154.4458 O   0  0  0  0  0  0  0  0  0  0  0  0
  151.5101  138.7362  154.9490 C   0  0  0  0  0  0  0  0  0  0  0  0
  150.8044  137.5643  155.6454 C   0  0  1  0  0  0  0  0  0  0  0  0
  149.4711  137.1321  155.0171 C   0  0  0  0  0  0  0  0  0  0  0  0
  149.5635  135.6139  154.9608 C   0  0  0  0  0  0  0  0  0  0  0  0
  150.7726  135.2899  155.8324 C   0  0  0  0  0  0  0  0  0  0  0  0
  151.6246  136.4042  155.6300 O   0  0  0  0  0  0  0  0  0  0  0  0
  151.9295  142.2378  158.6687 N   0  0  0  0  0  0  0  0  0  0  0  0
  153.5552  142.2178  161.5960 H   0  0  0  0  0  0  0  0  0  0  0  0
  154.0456  141.2808  160.1806 H   0  0  0  0  0  0  0  0  0  0  0  0
  152.4926  140.9574  160.9626 H   0  0  0  0  0  0  0  0  0  0  0  0
  153.0372  144.4989  160.9517 H   0  0  0  0  0  0  0  0  0  0  0  0
  151.9046  146.0717  159.3630 H   0  0  0  0  0  0  0  0  0  0  0  0
  150.7942  145.1414  157.3235 H   0  0  0  0  0  0  0  0  0  0  0  0
  150.0602  143.1622  156.1478 H   0  0  0  0  0  0  0  0  0  0  0  0
  151.8847  141.6089  155.2348 H   0  0  0  0  0  0  0  0  0  0  0  0
  151.7322  140.7708  156.7551 H   0  0  0  0  0  0  0  0  0  0  0  0
  149.5338  139.9341  156.2326 H   0  0  0  0  0  0  0  0  0  0  0  0
  149.2795  141.1643  155.0045 H   0  0  0  0  0  0  0  0  0  0  0  0
  152.1342  138.3608  154.1367 H   0  0  0  0  0  0  0  0  0  0  0  0
  152.1654  139.2451  155.6574 H   0  0  0  0  0  0  0  0  0  0  0  0
  150.6327  137.8231  156.6916 H   0  0  0  0  0  0  0  0  0  0  0  0
  148.6336  137.4602  155.6334 H   0  0  0  0  0  0  0  0  0  0  0  0
  149.3243  137.5422  154.0174 H   0  0  0  0  0  0  0  0  0  0  0  0
  148.6550  135.1181  155.3033 H   0  0  0  0  0  0  0  0  0  0  0  0
  149.7548  135.2962  153.9349 H   0  0  0  0  0  0  0  0  0  0  0  0
  150.4913  135.2304  156.8852 H   0  0  0  0  0  0  0  0  0  0  0  0
  151.2575  134.3553  155.5504 H   0  0  0  0  0  0  0  0  0  0  0  0
  1  2  1  0  0  0  0
  1 18  1  0  0  0  0
  1 19  1  0  0  0  0
  1 20  1  0  0  0  0
  2 17  1  0  0  0  0
  2  3  2  0  0  0  0
  3  4  1  0  0  0  0
  3 21  1  0  0  0  0
  4  5  2  0  0  0  0
  4 22  1  0  0  0  0
  5  6  1  0  0  0  0
  5 23  1  0  0  0  0
  6  7  1  0  0  0  0
  6 17  2  0  0  0  0
  7  8  1  0  0  0  0
  7 24  1  0  0  0  0
  8  9  1  0  0  0  0
  8 25  1  0  0  0  0
  8 26  1  0  0  0  0
  9 10  1  0  0  0  0
  9 27  1  0  0  0  0
  9 28  1  0  0  0  0
 10 11  1  0  0  0  0
 11 12  1  0  0  0  0
 11 29  1  0  0  0  0
 11 30  1  0  0  0  0
 12 16  1  0  0  0  0
 12 13  1  0  0  0  0
 12 31  1  0  0  0  0
 13 14  1  0  0  0  0
 13 32  1  0  0  0  0
 13 33  1  0  0  0  0
 14 15  1  0  0  0  0
 14 34  1  0  0  0  0
 14 35  1  0  0  0  0
 15 16  1  0  0  0  0
 15 36  1  0  0  0  0
 15 37  1  0  0  0  0
M  END
> <s_m_source_file>
AV-unprocessed.smi

> <i_m_source_file_index>
3198

> <i_lp_mmshare_version>
43012

> <i_f3d_flags>
0

> <s_epik_input>
W0NIM11jMVtjSF1bY0hdW2NIXWMobjEpW05IXVtDSDJdW0NIMl1PW0NIMl1bQ0BASF0yW0NIMl1bQ0gyXVtDSDJdTzI=

> <s_epik_cmdline>
J2VwaWtfcHl0aG9uJywgJy1waCcsICc3LjAnLCAnLXRuJywgJzgnLCAnLW1hJywgJzIwMCcsICctbWV0YWxfYmluZGluZycsICctaW1hZScsICc8aW5maWxlLm1hZT4nLCAnLW9tYWUnLCAnPG91dGZpbGUubWFlPic=

> <r_lp_tautomer_probability>
1

> <r_epik_Ionization_Penalty>
1.29225

> <r_epik_Ionization_Penalty_Charging>
0

> <r_epik_Ionization_Penalty_Neutral>
1.29225

> <r_epik_State_Penalty>
1.3654

> <r_epik_Charging_Adjusted_Penalty>
1.3654

> <i_epik_Tot_Q>
0

> <i_epik_Tot_abs_Q>
0

> <r_epik_Metal_State_Penalty>
0.00531989

> <b_epik_Metal_Only>
0

> <s_lp_Force_Field>
OPLS_2005

> <r_lp_Energy>
18.8909

> <b_lp_Chiralities_Consistent>
1

> <s_lp_Variant>
AV-unprocessed.smi:3198-4

> <Gold.Version>
5.8.1

> <Gold.Id.Protein>
6NUR|6NUR_protein|mol2

> <Gold.PLP.Fitness>
46.2992

> <Gold.PLP.PLP>
-38.9310

> <Gold.PLP.part.hbond>
-3.0000

> <Gold.PLP.part.metal>
0.0000

> <Gold.PLP.part.buried>
-5.8832

> <Gold.PLP.part.nonpolar>
-30.5988

> <Gold.PLP.part.repulsive>
0.2371

> <Gold.PLP.ligand.clash>
0.0000

> <Gold.PLP.ligand.torsion>
0.8412

> <Gold.PLP.Chemscore.Hbond>
3.0000

> <Gold.PLP.Chemscore.CHOScore>
0.0000

> <Gold.PLP.Chemscore.Metal>
0.0000

> <Gold.Chemscore.Hbonds>
donor molecule, donor type, donor heavy atom, donor atom, acceptor molecule, acceptor atom, score
      L1  H     7    24       P1  8028  1.00
      P1  H  7989  7998       L1    10  1.00
      P1  H 10752 10765       L1    16  0.95

> <Gold.PLP.Chemscore.Internal.Correction>
0.0504

> <Gold.Rescore>
     Score         DG    S(hbond)    S(metal)    S(lipo)     H(rot)  DE(clash)    DE(int)     intcor
     18.55     -19.81       2.13        0.00      97.23       1.63       0.09       1.16       ----

> <Gold.Chemscore.Fitness>
18.5534

> <Gold.Chemscore.DG>
-19.8052

> <Gold.Chemscore.ZeroCoef>
-5.4800

> <Gold.Chemscore.Hbond>
2.1331

> <Gold.Chemscore.Metal>
0.0000

> <Gold.Chemscore.Lipo>
97.2343

> <Gold.Chemscore.Internal_Hbond>
0.0000

> <Gold.Chemscore.DEClash>
0.0900

> <Gold.Chemscore.DEInternal>
1.1618

> <Gold.Chemscore.Rot>
1.6311

> <Gold.Chemscore.Internal.Correction>
   9.000000E+99

> <Gold.Chemscore.Hbonds>
donor molecule, donor type, donor heavy atom, donor atom, acceptor molecule, acceptor atom, score
      L1  H     7    24       P1  8028  0.95
      P1  H  7989  7998       L1    10  0.09
      P1  H 10752 10765       L1    16  0.22

> <Gold.Chemscore.Hbond.Weighted>
-7.1245

> <Gold.Chemscore.Metal.Weighted>
-0.0000

> <Gold.Chemscore.Lipo.Weighted>
-11.3764

> <Gold.Chemscore.Internal_Hbond.Weighted>
0.0000

> <Gold.Chemscore.DEClash.Weighted>
0.0900

> <Gold.Chemscore.DEInternal.Weighted>
1.1618

> <Gold.Chemscore.Rot.Weighted>
4.1757

> <Gold.Chemscore.Internal.Correction.Weighted>
   9.000000E+99

> <Gold.Protein.RotatedTorsions>
[ 6907 6896 6895 6894 ] final  155.63 input  -60.11 | X-H torsion
[ 7974 7965 7964 7962 ] final -146.01 input  175.53 | X-H torsion
[ 8008 7997 7996 7995 ] final  -38.30 input   59.86 | X-H torsion
[ 10167 10162 10161 10158 ] final  162.72 input  -65.29 | X-H torsion
[ 10718 10713 10712 10709 ] final   49.68 input   66.30 | X-H torsion
[ 10763 10752 10751 10750 ] final -168.16 input  -60.55 | X-H torsion
[ 11005 11000 10999 10996 ] final   81.75 input  -57.11 | X-H torsion

> <Gold.Protein.ActiveResidues>
 VAL166  LYS551  ARG553  GLY616  TRP617  ASP618  TYR619  PRO620  LYS621  CYS622 
 ASP623  PHE694  ASN695  SER759  ASP760  ASP761  ALA762  ILE779  LEU786  VAL792 
 PHE793  MET794  SER795  GLU796  ALA797  LYS798  CYS799  TRP800  GLU811  SER814 

> <Gold.Protein.RotatedAtoms>
  152.0414  133.3979  159.4338 H   0  0  0  0  0  0  0  0  0  0  0  0  # atno 6907 bound_to 6896
  150.6875  134.3410  159.4877 H   0  0  0  0  0  0  0  0  0  0  0  0  # atno 6908 bound_to 6896
  152.1209  134.9206  160.0613 H   0  0  0  0  0  0  0  0  0  0  0  0  # atno 6909 bound_to 6896
  144.8188  140.5510  143.5592 H   0  0  0  0  0  0  0  0  0  0  0  0  # atno 7974 bound_to 7965
  154.4039  140.1581  156.2677 H   0  0  0  0  0  0  0  0  0  0  0  0  # atno 8008 bound_to 7997
  155.8980  140.3435  155.5983 H   0  0  0  0  0  0  0  0  0  0  0  0  # atno 8009 bound_to 7997
  155.7481  140.0801  157.2205 H   0  0  0  0  0  0  0  0  0  0  0  0  # atno 8010 bound_to 7997
  139.4864  144.4410  151.8952 H   0  0  0  0  0  0  0  0  0  0  0  0  # atno 10167 bound_to 10162
  157.4810  130.8315  149.8093 H   0  0  0  0  0  0  0  0  0  0  0  0  # atno 10718 bound_to 10713
  154.6657  135.2931  154.9808 H   0  0  0  0  0  0  0  0  0  0  0  0  # atno 10763 bound_to 10752
  154.0852  135.6598  153.4848 H   0  0  0  0  0  0  0  0  0  0  0  0  # atno 10764 bound_to 10752
  153.0456  135.5207  154.7629 H   0  0  0  0  0  0  0  0  0  0  0  0  # atno 10765 bound_to 10752
  139.9087  134.8020  156.2083 H   0  0  0  0  0  0  0  0  0  0  0  0  # atno 11005 bound_to 11000
  145.5153  139.1478  143.3582 LP  0  0  0  0  0  0  0  0  0  0  0  0  # atno 17320 bound_to 7965
  146.2492  140.5293  142.8900 LP  0  0  0  0  0  0  0  0  0  0  0  0  # atno 17321 bound_to 7965
  140.3861  144.2674  150.5904 LP  0  0  0  0  0  0  0  0  0  0  0  0  # atno 17342 bound_to 10162
  140.5189  143.2271  151.8420 LP  0  0  0  0  0  0  0  0  0  0  0  0  # atno 17343 bound_to 10162
  156.0121  130.3828  150.2229 LP  0  0  0  0  0  0  0  0  0  0  0  0  # atno 17370 bound_to 10713
  157.0415  131.0036  151.3282 LP  0  0  0  0  0  0  0  0  0  0  0  0  # atno 17371 bound_to 10713
  141.0482  133.6902  156.1722 LP  0  0  0  0  0  0  0  0  0  0  0  0  # atno 17394 bound_to 11000
  140.6852  134.4725  157.5589 LP  0  0  0  0  0  0  0  0  0  0  0  0  # atno 17395 bound_to 11000

$$$$
