AV-unprocessed.smi:906|AV-procd|sdf|4103|dock3
  -GOLD-   22720 1593D 1   1.00000     0.00000
 Structure written by MMmdl.
 48 49  0  0  0  0  0  0  0  0  2 V2000
  150.0333  130.3504  154.4496 C   0  0  0  0  0  0  0  0  0  0  0  0
  149.6874  131.8195  154.5690 C   0  0  0  0  0  0  0  0  0  0  0  0
  148.8777  132.4812  153.6211 C   0  0  0  0  0  0  0  0  0  0  0  0
  148.5928  133.8516  153.7954 C   0  0  0  0  0  0  0  0  0  0  0  0
  149.1222  134.5319  154.9136 C   0  0  0  0  0  0  0  0  0  0  0  0
  148.8318  136.0034  155.1334 C   0  0  0  0  0  0  0  0  0  0  0  0
  150.1184  136.8405  155.2211 C   0  0  0  0  0  0  0  0  0  0  0  0
  149.8776  138.1291  155.8595 N   0  0  0  0  0  0  0  0  0  0  0  0
  150.3715  139.3057  155.4369 C   0  0  0  0  0  0  0  0  0  0  0  0
  151.0795  139.3930  154.4325 O   0  0  0  0  0  0  0  0  0  0  0  0
  149.9986  140.3779  156.1788 N   0  0  0  0  0  0  0  0  0  0  0  0
  149.2953  140.3562  157.4695 C   0  0  0  0  0  0  0  0  0  0  0  0
  150.2772  140.7899  158.5748 C   0  0  0  0  0  0  0  0  0  0  0  0
  150.7962  142.1343  158.2936 N   0  0  0  0  0  0  0  0  0  0  0  0
  151.6066  142.6507  159.4099 C   0  0  1  0  0  0  0  0  0  0  0  0
  152.9165  141.8671  159.6461 C   0  0  0  0  0  0  0  0  0  0  0  0
  151.8463  144.1750  159.2934 C   0  0  0  0  0  0  0  0  0  0  0  0
  152.1717  144.6841  160.4823 F   0  0  0  0  0  0  0  0  0  0  0  0
  152.8634  144.3925  158.4600 F   0  0  0  0  0  0  0  0  0  0  0  0
  150.7789  144.8198  158.8227 F   0  0  0  0  0  0  0  0  0  0  0  0
  151.4466  142.1811  156.9766 C   0  0  0  0  0  0  0  0  0  0  0  0
  150.4554  141.7385  155.8832 C   0  0  0  0  0  0  0  0  0  0  0  0
  149.9242  133.8182  155.8298 C   0  0  0  0  0  0  0  0  0  0  0  0
  150.1739  132.5061  155.6273 N   0  3  0  0  0  0  0  0  0  0  0  0
  149.9300  130.0098  153.4190 H   0  0  0  0  0  0  0  0  0  0  0  0
  149.3694  129.7543  155.0763 H   0  0  0  0  0  0  0  0  0  0  0  0
  151.0611  130.1677  154.7644 H   0  0  0  0  0  0  0  0  0  0  0  0
  148.4788  131.9477  152.7704 H   0  0  0  0  0  0  0  0  0  0  0  0
  147.9732  134.3715  153.0790 H   0  0  0  0  0  0  0  0  0  0  0  0
  148.2014  136.3600  154.3177 H   0  0  0  0  0  0  0  0  0  0  0  0
  148.2460  136.1199  156.0464 H   0  0  0  0  0  0  0  0  0  0  0  0
  150.8709  136.3083  155.8039 H   0  0  0  0  0  0  0  0  0  0  0  0
  150.5455  136.9925  154.2282 H   0  0  0  0  0  0  0  0  0  0  0  0
  149.2952  138.1304  156.6844 H   0  0  0  0  0  0  0  0  0  0  0  0
  148.4487  141.0438  157.4291 H   0  0  0  0  0  0  0  0  0  0  0  0
  148.8689  139.3864  157.7241 H   0  0  0  0  0  0  0  0  0  0  0  0
  149.7608  140.7876  159.5352 H   0  0  0  0  0  0  0  0  0  0  0  0
  151.0934  140.0706  158.6458 H   0  0  0  0  0  0  0  0  0  0  0  0
  150.9947  142.5246  160.3042 H   0  0  0  0  0  0  0  0  0  0  0  0
  153.4135  142.2188  160.5502 H   0  0  0  0  0  0  0  0  0  0  0  0
  153.6220  141.9937  158.8251 H   0  0  0  0  0  0  0  0  0  0  0  0
  152.7401  140.8002  159.7769 H   0  0  0  0  0  0  0  0  0  0  0  0
  151.7849  143.1905  156.7516 H   0  0  0  0  0  0  0  0  0  0  0  0
  152.3237  141.5333  156.9593 H   0  0  0  0  0  0  0  0  0  0  0  0
  150.9285  141.8195  154.9037 H   0  0  0  0  0  0  0  0  0  0  0  0
  149.5980  142.4128  155.8535 H   0  0  0  0  0  0  0  0  0  0  0  0
  150.3687  134.2536  156.7133 H   0  0  0  0  0  0  0  0  0  0  0  0
  150.7559  132.0113  156.3036 H   0  0  0  0  0  0  0  0  0  0  0  0
  1  2  1  0  0  0  0
  1 25  1  0  0  0  0
  1 26  1  0  0  0  0
  1 27  1  0  0  0  0
  2 24  1  0  0  0  0
  2  3  2  0  0  0  0
  3  4  1  0  0  0  0
  3 28  1  0  0  0  0
  4  5  2  0  0  0  0
  4 29  1  0  0  0  0
  5  6  1  0  0  0  0
  5 23  1  0  0  0  0
  6  7  1  0  0  0  0
  6 30  1  0  0  0  0
  6 31  1  0  0  0  0
  7  8  1  0  0  0  0
  7 32  1  0  0  0  0
  7 33  1  0  0  0  0
  8  9  1  0  0  0  0
  8 34  1  0  0  0  0
  9 10  2  0  0  0  0
  9 11  1  0  0  0  0
 11 22  1  0  0  0  0
 11 12  1  0  0  0  0
 12 13  1  0  0  0  0
 12 35  1  0  0  0  0
 12 36  1  0  0  0  0
 13 14  1  0  0  0  0
 13 37  1  0  0  0  0
 13 38  1  0  0  0  0
 14 15  1  0  0  0  0
 14 21  1  0  0  0  0
 15 16  1  0  0  0  0
 15 17  1  0  0  0  0
 15 39  1  0  0  0  0
 16 40  1  0  0  0  0
 16 41  1  0  0  0  0
 16 42  1  0  0  0  0
 17 18  1  0  0  0  0
 17 19  1  0  0  0  0
 17 20  1  0  0  0  0
 21 22  1  0  0  0  0
 21 43  1  0  0  0  0
 21 44  1  0  0  0  0
 22 45  1  0  0  0  0
 22 46  1  0  0  0  0
 23 24  2  0  0  0  0
 23 47  1  0  0  0  0
 24 48  1  0  0  0  0
M  CHG  1  24   1
M  END
> <s_m_source_file>
AV-unprocessed.smi

> <i_m_source_file_index>
906

> <i_lp_mmshare_version>
43012

> <i_f3d_flags>
0

> <s_epik_input>
W0NIM11jMVtjSF1bY0hdYyhbY0hdbjEpW0NIMl1bQ0gyXVtOSF1DKD1PKU4yW0NIMl1bQ0gyXU4oW0NASF0oW0NIM10pQyhGKShGKUYpW0NIMl1bQ0gyXTI=

> <s_epik_cmdline>
J2VwaWtfcHl0aG9uJywgJy1waCcsICc3LjAnLCAnLXRuJywgJzgnLCAnLW1hJywgJzIwMCcsICctbWV0YWxfYmluZGluZycsICctaW1hZScsICc8aW5maWxlLm1hZT4nLCAnLW9tYWUnLCAnPG91dGZpbGUubWFlPic=

> <r_epik_Ionization_Penalty>
1.4413

> <r_epik_Ionization_Penalty_Charging>
1.42075

> <r_epik_Ionization_Penalty_Neutral>
0.0205507

> <r_epik_State_Penalty>
1.52216

> <r_epik_Charging_Adjusted_Penalty>
2.94291

> <i_epik_Tot_Q>
1

> <i_epik_Tot_abs_Q>
1

> <r_epik_Metal_State_Penalty>
1.57308

> <b_epik_Metal_Only>
0

> <s_lp_Force_Field>
OPLS_2005

> <r_lp_Energy>
53.1846

> <b_lp_Chiralities_Consistent>
1

> <s_lp_Variant>
AV-unprocessed.smi:906-4

> <Gold.Version>
5.8.1

> <Gold.Id.Protein>
6NUR|6NUR_protein|mol2

> <Gold.PLP.Fitness>
49.6542

> <Gold.PLP.PLP>
-47.4405

> <Gold.PLP.part.hbond>
-1.0000

> <Gold.PLP.part.metal>
0.0000

> <Gold.PLP.part.buried>
-6.9497

> <Gold.PLP.part.nonpolar>
-39.7166

> <Gold.PLP.part.repulsive>
0.2420

> <Gold.PLP.ligand.clash>
0.0000

> <Gold.PLP.ligand.torsion>
0.7367

> <Gold.PLP.Chemscore.Hbond>
1.0000

> <Gold.PLP.Chemscore.CHOScore>
0.0000

> <Gold.PLP.Chemscore.Metal>
0.0000

> <Gold.Chemscore.Hbonds>
donor molecule, donor type, donor heavy atom, donor atom, acceptor molecule, acceptor atom, score
      P1  H  7989  7998       L1    10  1.00

> <Gold.PLP.Chemscore.Internal.Correction>
0.6871

> <Gold.Rescore>
     Score         DG    S(hbond)    S(metal)    S(lipo)     H(rot)  DE(clash)    DE(int)     intcor
     14.66     -15.63       1.00        0.00      94.47       1.66       0.07       0.91       ----

> <Gold.Chemscore.Fitness>
14.6603

> <Gold.Chemscore.DG>
-15.6335

> <Gold.Chemscore.ZeroCoef>
-5.4800

> <Gold.Chemscore.Hbond>
0.9995

> <Gold.Chemscore.Metal>
0.0000

> <Gold.Chemscore.Lipo>
94.4696

> <Gold.Chemscore.Internal_Hbond>
0.0000

> <Gold.Chemscore.DEClash>
0.0672

> <Gold.Chemscore.DEInternal>
0.9060

> <Gold.Chemscore.Rot>
1.6553

> <Gold.Chemscore.Internal.Correction>
   9.000000E+99

> <Gold.Chemscore.Hbonds>
donor molecule, donor type, donor heavy atom, donor atom, acceptor molecule, acceptor atom, score
      P1  H  7989  7998       L1    10  1.00

> <Gold.Chemscore.Hbond.Weighted>
-3.3382

> <Gold.Chemscore.Metal.Weighted>
-0.0000

> <Gold.Chemscore.Lipo.Weighted>
-11.0529

> <Gold.Chemscore.Internal_Hbond.Weighted>
0.0000

> <Gold.Chemscore.DEClash.Weighted>
0.0672

> <Gold.Chemscore.DEInternal.Weighted>
0.9060

> <Gold.Chemscore.Rot.Weighted>
4.2376

> <Gold.Chemscore.Internal.Correction.Weighted>
   9.000000E+99

> <Gold.Protein.RotatedTorsions>
[ 6907 6896 6895 6894 ] final  173.76 input  -60.11 | X-H torsion
[ 7974 7965 7964 7962 ] final  115.25 input  175.53 | X-H torsion
[ 8008 7997 7996 7995 ] final -116.99 input   59.86 | X-H torsion
[ 10167 10162 10161 10158 ] final   10.72 input  -65.29 | X-H torsion
[ 10718 10713 10712 10709 ] final  -19.78 input   66.30 | X-H torsion
[ 10763 10752 10751 10750 ] final  -82.25 input  -60.55 | X-H torsion
[ 11005 11000 10999 10996 ] final  -77.19 input  -57.11 | X-H torsion

> <Gold.Protein.ActiveResidues>
 VAL166  LYS551  ARG553  GLY616  TRP617  ASP618  TYR619  PRO620  LYS621  CYS622 
 ASP623  PHE694  ASN695  SER759  ASP760  ASP761  ALA762  ILE779  LEU786  VAL792 
 PHE793  MET794  SER795  GLU796  ALA797  LYS798  CYS799  TRP800  GLU811  SER814 

> <Gold.Protein.RotatedAtoms>
  151.7631  133.3335  159.3423 H   0  0  0  0  0  0  0  0  0  0  0  0  # atno 6907 bound_to 6896
  150.7490  134.6087  159.6084 H   0  0  0  0  0  0  0  0  0  0  0  0  # atno 6908 bound_to 6896
  152.3392  134.7159  160.0320 H   0  0  0  0  0  0  0  0  0  0  0  0  # atno 6909 bound_to 6896
  145.1943  139.2984  143.4352 H   0  0  0  0  0  0  0  0  0  0  0  0  # atno 7974 bound_to 7965
  155.0766  140.0394  157.2626 H   0  0  0  0  0  0  0  0  0  0  0  0  # atno 8008 bound_to 7997
  154.6940  140.2659  155.6760 H   0  0  0  0  0  0  0  0  0  0  0  0  # atno 8009 bound_to 7997
  156.2738  140.2754  156.1528 H   0  0  0  0  0  0  0  0  0  0  0  0  # atno 8010 bound_to 7997
  140.6177  143.8273  150.7137 H   0  0  0  0  0  0  0  0  0  0  0  0  # atno 10167 bound_to 10162
  156.5409  130.4678  149.6499 H   0  0  0  0  0  0  0  0  0  0  0  0  # atno 10718 bound_to 10713
  154.5735  135.5598  153.7117 H   0  0  0  0  0  0  0  0  0  0  0  0  # atno 10763 bound_to 10752
  153.0056  135.6303  154.2081 H   0  0  0  0  0  0  0  0  0  0  0  0  # atno 10764 bound_to 10752
  154.2021  135.2877  155.2967 H   0  0  0  0  0  0  0  0  0  0  0  0  # atno 10765 bound_to 10752
  141.1659  133.7013  156.7783 H   0  0  0  0  0  0  0  0  0  0  0  0  # atno 11005 bound_to 11000
  146.3430  140.2166  142.8591 LP  0  0  0  0  0  0  0  0  0  0  0  0  # atno 17320 bound_to 7965
  145.0010  140.8632  143.5281 LP  0  0  0  0  0  0  0  0  0  0  0  0  # atno 17321 bound_to 7965
  140.1856  143.4079  152.1901 LP  0  0  0  0  0  0  0  0  0  0  0  0  # atno 17342 bound_to 10162
  139.5412  144.7258  151.4728 LP  0  0  0  0  0  0  0  0  0  0  0  0  # atno 17343 bound_to 10162
  156.2972  130.7157  151.2020 LP  0  0  0  0  0  0  0  0  0  0  0  0  # atno 17370 bound_to 10713
  157.7405  131.0516  150.5159 LP  0  0  0  0  0  0  0  0  0  0  0  0  # atno 17371 bound_to 10713
  140.2413  134.8611  157.3576 LP  0  0  0  0  0  0  0  0  0  0  0  0  # atno 17394 bound_to 11000
  140.1793  134.4510  155.7782 LP  0  0  0  0  0  0  0  0  0  0  0  0  # atno 17395 bound_to 11000

$$$$
