AV-unprocessed.smi:704|AV-procd|sdf|3443|dock3
  -GOLD-   22720 0433D 1   1.00000     0.00000
 Structure written by MMmdl.
 38 39  0  0  0  0  0  0  0  0  1 V2000
  151.4771  138.2163  154.8357 C   0  0  0  0  0  0  0  0  0  0  0  0
  150.1553  138.1354  154.3138 O   0  0  0  0  0  0  0  0  0  0  0  0
  149.3792  139.2787  154.3035 C   0  0  0  0  0  0  0  0  0  0  0  0
  149.8780  140.4025  154.8777 N   0  0  0  0  0  0  0  0  0  0  0  0
  149.1240  141.5209  154.8634 C   0  0  0  0  0  0  0  0  0  0  0  0
  147.8470  141.5816  154.2763 C   0  0  0  0  0  0  0  0  0  0  0  0
  147.3267  140.4174  153.6817 C   0  0  0  0  0  0  0  0  0  0  0  0
  148.0999  139.2316  153.7021 C   0  0  0  0  0  0  0  0  0  0  0  0
  147.6753  138.0101  153.1116 N   0  0  0  0  0  0  0  0  0  0  0  0
  146.4219  137.5519  152.9583 C   0  0  0  0  0  0  0  0  0  0  0  0
  145.4018  138.1254  153.3407 O   0  0  0  0  0  0  0  0  0  0  0  0
  146.4145  136.3551  152.3552 N   0  0  0  0  0  0  0  0  0  0  0  0
  145.2145  135.5656  152.0728 C   0  0  1  0  0  0  0  0  0  0  0  0
  144.8295  135.6516  150.5836 C   0  0  0  0  0  0  0  0  0  0  0  0
  144.4294  134.2375  150.1445 C   0  0  0  0  0  0  0  0  0  0  0  0
  144.3466  133.4069  151.4282 C   0  0  0  0  0  0  0  0  0  0  0  0
  145.3341  134.0548  152.4102 C   0  0  1  0  0  0  0  0  0  0  0  0
  146.7481  133.4549  152.2486 C   0  0  0  0  0  0  0  0  0  0  0  0
  147.0183  132.8500  151.0891 N   0  0  0  0  0  0  0  0  0  0  0  0
  147.5792  133.5282  153.1522 O   0  0  0  0  0  0  0  0  0  0  0  0
  151.9497  137.2360  154.7749 H   0  0  0  0  0  0  0  0  0  0  0  0
  151.4743  138.5170  155.8844 H   0  0  0  0  0  0  0  0  0  0  0  0
  152.0902  138.9145  154.2642 H   0  0  0  0  0  0  0  0  0  0  0  0
  149.5546  142.3956  155.3278 H   0  0  0  0  0  0  0  0  0  0  0  0
  147.2813  142.5015  154.2774 H   0  0  0  0  0  0  0  0  0  0  0  0
  146.3568  140.4596  153.2106 H   0  0  0  0  0  0  0  0  0  0  0  0
  148.4166  137.3808  152.8396 H   0  0  0  0  0  0  0  0  0  0  0  0
  147.2991  135.9509  152.0844 H   0  0  0  0  0  0  0  0  0  0  0  0
  144.3844  135.9753  152.6518 H   0  0  0  0  0  0  0  0  0  0  0  0
  144.0059  136.3529  150.4448 H   0  0  0  0  0  0  0  0  0  0  0  0
  145.6582  136.0065  149.9691 H   0  0  0  0  0  0  0  0  0  0  0  0
  143.4893  134.2273  149.5923 H   0  0  0  0  0  0  0  0  0  0  0  0
  145.1957  133.8268  149.4858 H   0  0  0  0  0  0  0  0  0  0  0  0
  143.3383  133.4719  151.8391 H   0  0  0  0  0  0  0  0  0  0  0  0
  144.5485  132.3504  151.2450 H   0  0  0  0  0  0  0  0  0  0  0  0
  145.0054  133.8803  153.4363 H   0  0  0  0  0  0  0  0  0  0  0  0
  147.9297  132.4448  150.9316 H   0  0  0  0  0  0  0  0  0  0  0  0
  146.3098  132.8037  150.3713 H   0  0  0  0  0  0  0  0  0  0  0  0
  1  2  1  0  0  0  0
  1 21  1  0  0  0  0
  1 22  1  0  0  0  0
  1 23  1  0  0  0  0
  2  3  1  0  0  0  0
  3  8  1  0  0  0  0
  3  4  2  0  0  0  0
  4  5  1  0  0  0  0
  5  6  2  0  0  0  0
  5 24  1  0  0  0  0
  6  7  1  0  0  0  0
  6 25  1  0  0  0  0
  7  8  2  0  0  0  0
  7 26  1  0  0  0  0
  8  9  1  0  0  0  0
  9 10  1  0  0  0  0
  9 27  1  0  0  0  0
 10 11  2  0  0  0  0
 10 12  1  0  0  0  0
 12 13  1  0  0  0  0
 12 28  1  0  0  0  0
 13 17  1  0  0  0  0
 13 14  1  0  0  0  0
 13 29  1  0  0  0  0
 14 15  1  0  0  0  0
 14 30  1  0  0  0  0
 14 31  1  0  0  0  0
 15 16  1  0  0  0  0
 15 32  1  0  0  0  0
 15 33  1  0  0  0  0
 16 17  1  0  0  0  0
 16 34  1  0  0  0  0
 16 35  1  0  0  0  0
 17 18  1  0  0  0  0
 17 36  1  0  0  0  0
 18 19  1  0  0  0  0
 18 20  2  0  0  0  0
 19 37  1  0  0  0  0
 19 38  1  0  0  0  0
M  END
> <s_m_source_file>
AV-unprocessed.smi

> <i_m_source_file_index>
704

> <i_lp_mmshare_version>
43012

> <i_f3d_flags>
0

> <s_epik_input>
W0NIM11PYzFuW2NIXVtjSF1bY0hdYzFbTkhdQyg9TylbTkhdW0NAQEhdMltDSDJdW0NIMl1bQ0gyXVtDQEhdMkMoPU8pW05IMl0=

> <s_epik_cmdline>
J2VwaWtfcHl0aG9uJywgJy1waCcsICc3LjAnLCAnLXRuJywgJzgnLCAnLW1hJywgJzIwMCcsICctbWV0YWxfYmluZGluZycsICctaW1hZScsICc8aW5maWxlLm1hZT4nLCAnLW9tYWUnLCAnPG91dGZpbGUubWFlPic=

> <r_lp_tautomer_probability>
1

> <r_epik_Ionization_Penalty>
9.09123e-05

> <r_epik_Ionization_Penalty_Charging>
0

> <r_epik_Ionization_Penalty_Neutral>
9.09123e-05

> <r_epik_State_Penalty>
-0

> <r_epik_Charging_Adjusted_Penalty>
0

> <i_epik_Tot_Q>
0

> <i_epik_Tot_abs_Q>
0

> <r_epik_Metal_State_Penalty>
-0

> <b_epik_Metal_Only>
0

> <s_lp_Force_Field>
OPLS_2005

> <r_lp_Energy>
16.4561

> <b_lp_Chiralities_Consistent>
1

> <s_lp_Variant>
AV-unprocessed.smi:704-2

> <Gold.Version>
5.8.1

> <Gold.Id.Protein>
6NUR|6NUR_protein|mol2

> <Gold.PLP.Fitness>
44.5956

> <Gold.PLP.PLP>
-32.2982

> <Gold.PLP.part.hbond>
-3.9146

> <Gold.PLP.part.metal>
0.0000

> <Gold.PLP.part.buried>
-0.6256

> <Gold.PLP.part.nonpolar>
-28.6394

> <Gold.PLP.part.repulsive>
1.2275

> <Gold.PLP.ligand.clash>
0.0000

> <Gold.PLP.ligand.torsion>
1.0507

> <Gold.PLP.Chemscore.Hbond>
3.7920

> <Gold.PLP.Chemscore.CHOScore>
1.0000

> <Gold.PLP.Chemscore.Metal>
0.0000

> <Gold.Chemscore.Hbonds>
donor molecule, donor type, donor heavy atom, donor atom, acceptor molecule, acceptor atom, score
      L1  H     9    27       P1  7948  0.99
      L1  H    12    28       P1  7948  0.93
      L1  H    19    37       P1 10747  0.96
      P1  H  7989  7998       L1     4  0.37
      L1  C     5    24       P1  8028  1.00

> <Gold.PLP.Chemscore.Internal.Correction>
0.0228

> <Gold.Rescore>
     Score         DG    S(hbond)    S(metal)    S(lipo)     H(rot)  DE(clash)    DE(int)     intcor
     15.28     -17.83       3.00        0.00      60.56       1.86       0.29       2.27       ----

> <Gold.Chemscore.Fitness>
15.2771

> <Gold.Chemscore.DG>
-17.8280

> <Gold.Chemscore.ZeroCoef>
-5.4800

> <Gold.Chemscore.Hbond>
3.0049

> <Gold.Chemscore.Metal>
0.0000

> <Gold.Chemscore.Lipo>
60.5605

> <Gold.Chemscore.Internal_Hbond>
0.0000

> <Gold.Chemscore.DEClash>
0.2858

> <Gold.Chemscore.DEInternal>
2.2652

> <Gold.Chemscore.Rot>
1.8648

> <Gold.Chemscore.Internal.Correction>
   9.000000E+99

> <Gold.Chemscore.Hbonds>
donor molecule, donor type, donor heavy atom, donor atom, acceptor molecule, acceptor atom, score
      L1  H     9    27       P1  7948  0.92
      L1  H    12    28       P1  7948  0.91
      L1  H    19    37       P1 10747  0.89
      P1  H  7989  7998       L1     4  0.05

> <Gold.Chemscore.Hbond.Weighted>
-10.0364

> <Gold.Chemscore.Metal.Weighted>
-0.0000

> <Gold.Chemscore.Lipo.Weighted>
-7.0856

> <Gold.Chemscore.Internal_Hbond.Weighted>
0.0000

> <Gold.Chemscore.DEClash.Weighted>
0.2858

> <Gold.Chemscore.DEInternal.Weighted>
2.2652

> <Gold.Chemscore.Rot.Weighted>
4.7739

> <Gold.Chemscore.Internal.Correction.Weighted>
   9.000000E+99

> <Gold.Protein.RotatedTorsions>
[ 6907 6896 6895 6894 ] final  159.40 input  -60.11 | X-H torsion
[ 7974 7965 7964 7962 ] final  121.73 input  175.53 | X-H torsion
[ 8008 7997 7996 7995 ] final    9.92 input   59.86 | X-H torsion
[ 10167 10162 10161 10158 ] final -162.59 input  -65.29 | X-H torsion
[ 10718 10713 10712 10709 ] final  -19.63 input   66.30 | X-H torsion
[ 10763 10752 10751 10750 ] final  -28.67 input  -60.55 | X-H torsion
[ 11005 11000 10999 10996 ] final -113.98 input  -57.11 | X-H torsion

> <Gold.Protein.ActiveResidues>
 VAL166  LYS551  ARG553  GLY616  TRP617  ASP618  TYR619  PRO620  LYS621  CYS622 
 ASP623  PHE694  ASN695  SER759  ASP760  ASP761  ALA762  ILE779  LEU786  VAL792 
 PHE793  MET794  SER795  GLU796  ALA797  LYS798  CYS799  TRP800  GLU811  SER814 

> <Gold.Protein.RotatedAtoms>
  151.9861  133.3774  159.4125 H   0  0  0  0  0  0  0  0  0  0  0  0  # atno 6907 bound_to 6896
  150.6928  134.3987  159.5118 H   0  0  0  0  0  0  0  0  0  0  0  0  # atno 6908 bound_to 6896
  152.1713  134.8831  160.0585 H   0  0  0  0  0  0  0  0  0  0  0  0  # atno 6909 bound_to 6896
  145.1158  139.3422  143.4739 H   0  0  0  0  0  0  0  0  0  0  0  0  # atno 7974 bound_to 7965
  154.7865  140.2828  155.6024 H   0  0  0  0  0  0  0  0  0  0  0  0  # atno 8008 bound_to 7997
  156.2958  140.2613  156.2631 H   0  0  0  0  0  0  0  0  0  0  0  0  # atno 8009 bound_to 7997
  154.9721  140.0376  157.2229 H   0  0  0  0  0  0  0  0  0  0  0  0  # atno 8010 bound_to 7997
  139.6381  144.0311  152.2070 H   0  0  0  0  0  0  0  0  0  0  0  0  # atno 10167 bound_to 10162
  156.5431  130.4683  149.6489 H   0  0  0  0  0  0  0  0  0  0  0  0  # atno 10718 bound_to 10713
  153.7520  135.6925  153.4943 H   0  0  0  0  0  0  0  0  0  0  0  0  # atno 10763 bound_to 10752
  153.1996  135.4441  155.0249 H   0  0  0  0  0  0  0  0  0  0  0  0  # atno 10764 bound_to 10752
  154.8184  135.3410  154.7041 H   0  0  0  0  0  0  0  0  0  0  0  0  # atno 10765 bound_to 10752
  141.0580  133.9581  157.2718 H   0  0  0  0  0  0  0  0  0  0  0  0  # atno 11005 bound_to 11000
  146.3524  140.1097  142.8604 LP  0  0  0  0  0  0  0  0  0  0  0  0  # atno 17320 bound_to 7965
  145.0795  140.9211  143.4834 LP  0  0  0  0  0  0  0  0  0  0  0  0  # atno 17321 bound_to 7965
  139.9993  144.6305  150.7744 LP  0  0  0  0  0  0  0  0  0  0  0  0  # atno 17342 bound_to 10162
  140.7476  143.2909  151.3333 LP  0  0  0  0  0  0  0  0  0  0  0  0  # atno 17343 bound_to 10162
  156.2953  130.7147  151.2006 LP  0  0  0  0  0  0  0  0  0  0  0  0  # atno 17370 bound_to 10713
  157.7402  131.0520  150.5184 LP  0  0  0  0  0  0  0  0  0  0  0  0  # atno 17371 bound_to 10713
  139.9407  135.0191  156.8700 LP  0  0  0  0  0  0  0  0  0  0  0  0  # atno 17394 bound_to 11000
  140.5925  134.0248  155.7505 LP  0  0  0  0  0  0  0  0  0  0  0  0  # atno 17395 bound_to 11000

$$$$
