AV-unprocessed.smi:3267|AV-procd|sdf|12505|dock1
  -GOLD-   2272018413D 1   1.00000     0.00000
 Structure written by MMmdl.
 38 39  0  0  0  0  0  0  0  0  1 V2000
  147.6408  138.3051  156.1017 C   0  0  0  0  0  0  0  0  0  0  0  0
  147.5588  138.6238  154.5999 C   0  0  1  0  0  0  0  0  0  0  0  0
  148.7084  139.5326  154.1019 C   0  0  0  0  0  0  0  0  0  0  0  0
  150.0349  139.0279  154.4185 N   0  0  0  0  0  0  0  0  0  0  0  0
  150.4876  137.7254  154.3840 C   0  0  0  0  0  0  0  0  0  0  0  0
  151.7988  137.7398  154.7645 C   0  0  0  0  0  0  0  0  0  0  0  0
  152.0611  139.1146  155.0202 C   0  0  0  0  0  0  0  0  0  0  0  0
  151.0037  139.8825  154.8141 N   0  0  0  0  0  0  0  0  0  0  0  0
  147.5050  137.3740  153.8446 N   0  0  0  0  0  0  0  0  0  0  0  0
  146.5482  136.4418  153.9510 C   0  0  0  0  0  0  0  0  0  0  0  0
  145.5897  136.5207  154.7198 O   0  0  0  0  0  0  0  0  0  0  0  0
  146.7631  135.4155  153.1168 N   0  0  0  0  0  0  0  0  0  0  0  0
  145.9188  134.2316  153.0096 C   0  0  0  0  0  0  0  0  0  0  0  0
  145.6434  133.8709  151.5407 C   0  0  2  0  0  0  0  0  0  0  0  0
  144.2596  133.2673  151.3016 C   0  0  0  0  0  0  0  0  0  0  0  0
  144.4492  132.3943  150.0691 C   0  0  0  0  0  0  0  0  0  0  0  0
  145.9669  132.3407  149.8765 C   0  0  0  0  0  0  0  0  0  0  0  0
  146.5044  132.8356  151.0934 O   0  0  0  0  0  0  0  0  0  0  0  0
  147.6907  139.2194  156.6932 H   0  0  0  0  0  0  0  0  0  0  0  0
  148.5189  137.7044  156.3410 H   0  0  0  0  0  0  0  0  0  0  0  0
  146.7627  137.7484  156.4306 H   0  0  0  0  0  0  0  0  0  0  0  0
  146.6208  139.1572  154.4352 H   0  0  0  0  0  0  0  0  0  0  0  0
  148.6404  139.6915  153.0245 H   0  0  0  0  0  0  0  0  0  0  0  0
  148.6108  140.5192  154.5564 H   0  0  0  0  0  0  0  0  0  0  0  0
  149.8466  136.9067  154.0917 H   0  0  0  0  0  0  0  0  0  0  0  0
  152.4684  136.8968  154.8492 H   0  0  0  0  0  0  0  0  0  0  0  0
  152.9818  139.5744  155.3477 H   0  0  0  0  0  0  0  0  0  0  0  0
  148.2467  137.2159  153.1784 H   0  0  0  0  0  0  0  0  0  0  0  0
  147.5777  135.4487  152.5217 H   0  0  0  0  0  0  0  0  0  0  0  0
  146.3600  133.3865  153.5412 H   0  0  0  0  0  0  0  0  0  0  0  0
  144.9774  134.4543  153.5122 H   0  0  0  0  0  0  0  0  0  0  0  0
  145.7776  134.7461  150.9019 H   0  0  0  0  0  0  0  0  0  0  0  0
  143.9673  132.6427  152.1469 H   0  0  0  0  0  0  0  0  0  0  0  0
  143.4914  134.0296  151.1675 H   0  0  0  0  0  0  0  0  0  0  0  0
  144.0350  131.3997  150.2377 H   0  0  0  0  0  0  0  0  0  0  0  0
  143.9602  132.8171  149.1909 H   0  0  0  0  0  0  0  0  0  0  0  0
  146.3282  131.3342  149.6642 H   0  0  0  0  0  0  0  0  0  0  0  0
  146.2741  132.9932  149.0580 H   0  0  0  0  0  0  0  0  0  0  0  0
  1  2  1  0  0  0  0
  1 19  1  0  0  0  0
  1 20  1  0  0  0  0
  1 21  1  0  0  0  0
  2  3  1  0  0  0  0
  2  9  1  0  0  0  0
  2 22  1  0  0  0  0
  3  4  1  0  0  0  0
  3 23  1  0  0  0  0
  3 24  1  0  0  0  0
  4  8  1  0  0  0  0
  4  5  1  0  0  0  0
  5  6  2  0  0  0  0
  5 25  1  0  0  0  0
  6  7  1  0  0  0  0
  6 26  1  0  0  0  0
  7  8  2  0  0  0  0
  7 27  1  0  0  0  0
  9 10  1  0  0  0  0
  9 28  1  0  0  0  0
 10 11  2  0  0  0  0
 10 12  1  0  0  0  0
 12 13  1  0  0  0  0
 12 29  1  0  0  0  0
 13 14  1  0  0  0  0
 13 30  1  0  0  0  0
 13 31  1  0  0  0  0
 14 18  1  0  0  0  0
 14 15  1  0  0  0  0
 14 32  1  0  0  0  0
 15 16  1  0  0  0  0
 15 33  1  0  0  0  0
 15 34  1  0  0  0  0
 16 17  1  0  0  0  0
 16 35  1  0  0  0  0
 16 36  1  0  0  0  0
 17 18  1  0  0  0  0
 17 37  1  0  0  0  0
 17 38  1  0  0  0  0
M  END
> <s_m_source_file>
AV-unprocessed.smi

> <i_m_source_file_index>
3267

> <i_lp_mmshare_version>
43012

> <i_f3d_flags>
0

> <s_epik_input>
bjFbY0hdW2NIXVtjSF1uMVtDSDJdW0NAQEhdKFtDSDNdKVtOSF1DKD1PKVtOSF1bQ0gyXVtDQEBIXTJbQ0gyXVtDSDJdW0NIMl1PMg==

> <s_epik_cmdline>
J2VwaWtfcHl0aG9uJywgJy1waCcsICc3LjAnLCAnLXRuJywgJzgnLCAnLW1hJywgJzIwMCcsICctbWV0YWxfYmluZGluZycsICctaW1hZScsICc8aW5maWxlLm1hZT4nLCAnLW9tYWUnLCAnPG91dGZpbGUubWFlPic=

> <r_lp_tautomer_probability>
1

> <r_epik_Ionization_Penalty>
6.24796e-05

> <r_epik_Ionization_Penalty_Charging>
0

> <r_epik_Ionization_Penalty_Neutral>
6.24796e-05

> <r_epik_State_Penalty>
-0

> <r_epik_Charging_Adjusted_Penalty>
0

> <i_epik_Tot_Q>
0

> <i_epik_Tot_abs_Q>
0

> <r_epik_Metal_State_Penalty>
-0

> <b_epik_Metal_Only>
0

> <s_lp_Force_Field>
OPLS_2005

> <r_lp_Energy>
14.7816

> <b_lp_Chiralities_Consistent>
1

> <s_lp_Variant>
AV-unprocessed.smi:3267-2

> <Gold.Version>
5.8.1

> <Gold.Id.Protein>
6NUR|6NUR_protein|mol2

> <Gold.PLP.Fitness>
39.9051

> <Gold.PLP.PLP>
-29.6648

> <Gold.PLP.part.hbond>
-3.0000

> <Gold.PLP.part.metal>
0.0000

> <Gold.PLP.part.buried>
-3.4436

> <Gold.PLP.part.nonpolar>
-23.9696

> <Gold.PLP.part.repulsive>
0.2744

> <Gold.PLP.ligand.clash>
0.0000

> <Gold.PLP.ligand.torsion>
0.9257

> <Gold.PLP.Chemscore.Hbond>
3.0000

> <Gold.PLP.Chemscore.CHOScore>
1.0000

> <Gold.PLP.Chemscore.Metal>
0.0000

> <Gold.Chemscore.Hbonds>
donor molecule, donor type, donor heavy atom, donor atom, acceptor molecule, acceptor atom, score
      L1  H     9    28       P1  7948  1.00
      L1  H    12    29       P1  7948  1.00
      P1  H  7989  7998       L1     8  0.95
      L1  C     5    25       P1  7948  1.00

> <Gold.PLP.Chemscore.Internal.Correction>
0.0917

> <Gold.Rescore>
     Score         DG    S(hbond)    S(metal)    S(lipo)     H(rot)  DE(clash)    DE(int)     intcor
     14.96     -17.43       2.68        0.00      66.61       1.87       0.59       1.87       ----

> <Gold.Chemscore.Fitness>
14.9618

> <Gold.Chemscore.DG>
-17.4285

> <Gold.Chemscore.ZeroCoef>
-5.4800

> <Gold.Chemscore.Hbond>
2.6793

> <Gold.Chemscore.Metal>
0.0000

> <Gold.Chemscore.Lipo>
66.6062

> <Gold.Chemscore.Internal_Hbond>
0.0000

> <Gold.Chemscore.DEClash>
0.5935

> <Gold.Chemscore.DEInternal>
1.8731

> <Gold.Chemscore.Rot>
1.8724

> <Gold.Chemscore.Internal.Correction>
   9.000000E+99

> <Gold.Chemscore.Hbonds>
donor molecule, donor type, donor heavy atom, donor atom, acceptor molecule, acceptor atom, score
      L1  H     9    28       P1  7948  0.94
      L1  H    12    29       P1  7948  0.98
      P1  H  7989  7998       L1     8  0.18

> <Gold.Chemscore.Hbond.Weighted>
-8.9488

> <Gold.Chemscore.Metal.Weighted>
-0.0000

> <Gold.Chemscore.Lipo.Weighted>
-7.7929

> <Gold.Chemscore.Internal_Hbond.Weighted>
0.0000

> <Gold.Chemscore.DEClash.Weighted>
0.5935

> <Gold.Chemscore.DEInternal.Weighted>
1.8731

> <Gold.Chemscore.Rot.Weighted>
4.7933

> <Gold.Chemscore.Internal.Correction.Weighted>
   9.000000E+99

> <Gold.Protein.RotatedTorsions>
[ 6907 6896 6895 6894 ] final -139.67 input  -60.11 | X-H torsion
[ 7974 7965 7964 7962 ] final  -50.54 input  175.53 | X-H torsion
[ 8008 7997 7996 7995 ] final -103.16 input   59.86 | X-H torsion
[ 10167 10162 10161 10158 ] final   34.55 input  -65.29 | X-H torsion
[ 10718 10713 10712 10709 ] final   10.00 input   66.30 | X-H torsion
[ 10763 10752 10751 10750 ] final -115.65 input  -60.55 | X-H torsion
[ 11005 11000 10999 10996 ] final  -81.86 input  -57.11 | X-H torsion

> <Gold.Protein.ActiveResidues>
 VAL166  LYS551  ARG553  GLY616  TRP617  ASP618  TYR619  PRO620  LYS621  CYS622 
 ASP623  PHE694  ASN695  SER759  ASP760  ASP761  ALA762  ILE779  LEU786  VAL792 
 PHE793  MET794  SER795  GLU796  ALA797  LYS798  CYS799  TRP800  GLU811  SER814 

> <Gold.Protein.RotatedAtoms>
  151.0508  133.5626  159.2642 H   0  0  0  0  0  0  0  0  0  0  0  0  # atno 6907 bound_to 6896
  151.2638  135.0662  159.9118 H   0  0  0  0  0  0  0  0  0  0  0  0  # atno 6908 bound_to 6896
  152.5381  134.0249  159.8052 H   0  0  0  0  0  0  0  0  0  0  0  0  # atno 6909 bound_to 6896
  145.9287  140.7769  142.9611 H   0  0  0  0  0  0  0  0  0  0  0  0  # atno 7974 bound_to 7965
  154.8669  140.0424  157.1700 H   0  0  0  0  0  0  0  0  0  0  0  0  # atno 8008 bound_to 7997
  154.8780  140.2968  155.5421 H   0  0  0  0  0  0  0  0  0  0  0  0  # atno 8009 bound_to 7997
  156.2999  140.2416  156.3779 H   0  0  0  0  0  0  0  0  0  0  0  0  # atno 8010 bound_to 7997
  140.4304  144.1332  150.6159 H   0  0  0  0  0  0  0  0  0  0  0  0  # atno 10167 bound_to 10162
  156.9746  130.5982  149.5671 H   0  0  0  0  0  0  0  0  0  0  0  0  # atno 10718 bound_to 10713
  154.8489  135.4374  154.1697 H   0  0  0  0  0  0  0  0  0  0  0  0  # atno 10763 bound_to 10752
  153.2814  135.6954  153.7388 H   0  0  0  0  0  0  0  0  0  0  0  0  # atno 10764 bound_to 10752
  153.6591  135.3438  155.3097 H   0  0  0  0  0  0  0  0  0  0  0  0  # atno 10765 bound_to 10752
  141.1665  133.7216  156.8485 H   0  0  0  0  0  0  0  0  0  0  0  0  # atno 11005 bound_to 11000
  144.6762  140.2092  143.7379 LP  0  0  0  0  0  0  0  0  0  0  0  0  # atno 17320 bound_to 7965
  145.8455  139.2150  143.1802 LP  0  0  0  0  0  0  0  0  0  0  0  0  # atno 17321 bound_to 7965
  140.4433  143.2517  151.9444 LP  0  0  0  0  0  0  0  0  0  0  0  0  # atno 17342 bound_to 10162
  139.4785  144.5633  151.8205 LP  0  0  0  0  0  0  0  0  0  0  0  0  # atno 17343 bound_to 10162
  156.0269  130.5362  150.8430 LP  0  0  0  0  0  0  0  0  0  0  0  0  # atno 17370 bound_to 10713
  157.5569  131.0945  150.9616 LP  0  0  0  0  0  0  0  0  0  0  0  0  # atno 17371 bound_to 10713
  140.1932  134.8950  157.3085 LP  0  0  0  0  0  0  0  0  0  0  0  0  # atno 17394 bound_to 11000
  140.2267  134.3958  155.7540 LP  0  0  0  0  0  0  0  0  0  0  0  0  # atno 17395 bound_to 11000

$$$$
