#       Name:                AV-unprocessed.smi:838
#       Creating user name   scv26
#       Creation time:       Fri Mar 27 01:37:05 2020


#       File generated by GOLD software.
#

@<TRIPOS>MOLECULE
AV-unprocessed.smi:838
    51    52     1
SMALL
NO_CHARGES


@<TRIPOS>ATOM
      1 ****        -4.5766   1.0185  -3.4944 C.3            1 S1                 0.0000
      2 ****        -4.5955   0.4556  -2.0716 C.2            1 S1                 0.0000
      3 ****        -5.6877   0.1922  -1.5681 O.2            1 S1                 0.0000
      4 ****        -3.4244   0.2698  -1.4176 N.am           1 S1                 0.0000
      5 ****        -3.3372  -0.2937  -0.0675 C.3            1 S1                 0.0000
      6 ****        -2.5807  -1.6346  -0.1319 C.3            1 S1                 0.0000
      7 ****        -1.2396  -1.4336  -0.6875 N.3            1 S1                 0.0000
      8 ****        -0.5258  -2.7106  -0.7036 C.3            1 S1                 0.0000
      9 ****         0.9891  -2.5588  -0.9520 C.3            1 S1                 0.0000
     10 ****         1.6411  -1.8130   0.1206 N.am           1 S1                 0.0000
     11 ****         1.9714  -0.5139   0.0728 C.2            1 S1                 0.0000
     12 ****         1.7787   0.2016  -0.9109 O.2            1 S1                 0.0000
     13 ****         2.5260  -0.1129   1.2302 N.am           1 S1                 0.0000
     14 ****         3.0104   1.1790   1.5801 C.ar           1 S1                 0.0000
     15 ****         3.0005   2.2240   0.7147 N.ar           1 S1                 0.0000
     16 ****         3.4779   3.4211   1.1114 C.ar           1 S1                 0.0000
     17 ****         3.9962   3.6528   2.3970 C.ar           1 S1                 0.0000
     18 ****         4.0134   2.5814   3.3062 C.ar           1 S1                 0.0000
     19 ****         3.5156   1.3251   2.9000 C.ar           1 S1                 0.0000
     20 ****         3.5303   0.1656   3.8830 C.3            1 S1                 0.0000
     21 ****        -1.3389  -0.8523  -2.0320 C.3            1 S1                 0.0000
     22 ****        -2.0849   0.4942  -1.9702 C.3            1 S1                 0.0000
     23 ****        -4.0292   0.3560  -4.1654 H              1 S1                 0.0000
     24 ****        -4.1134   2.0052  -3.5132 H              1 S1                 0.0000
     25 ****        -5.5911   1.1201  -3.8809 H              1 S1                 0.0000
     26 ****        -2.8129   0.4071   0.5839 H              1 S1                 0.0000
     27 ****        -4.3157  -0.4508   0.3873 H              1 S1                 0.0000
     28 ****        -2.5023  -2.0537   0.8718 H              1 S1                 0.0000
     29 ****        -3.1350  -2.3527  -0.7385 H              1 S1                 0.0000
     30 ****        -0.6604  -3.2057   0.2593 H              1 S1                 0.0000
     31 ****        -0.9667  -3.3700  -1.4527 H              1 S1                 0.0000
     32 ****         1.4403  -3.5508  -0.9727 H              1 S1                 0.0000
     33 ****         1.2008  -2.1245  -1.9291 H              1 S1                 0.0000
     34 ****         1.8360  -2.3212   0.9706 H              1 S1                 0.0000
     35 ****         2.6100  -0.8138   1.9512 H              1 S1                 0.0000
     36 ****         3.4452   4.2167   0.3820 H              1 S1                 0.0000
     37 ****         4.3695   4.6265   2.6777 H              1 S1                 0.0000
     38 ****         4.4045   2.7255   4.3026 H              1 S1                 0.0000
     39 ****         3.9552   0.4628   4.8420 H              1 S1                 0.0000
     40 ****         4.1280  -0.6589   3.4931 H              1 S1                 0.0000
     41 ****         2.5168  -0.1945   4.0624 H              1 S1                 0.0000
     42 ****        -0.3472  -0.6832  -2.4487 H              1 S1                 0.0000
     43 ****        -1.8554  -1.5406  -2.7030 H              1 S1                 0.0000
     44 ****        -2.0917   0.9472  -2.9600 H              1 S1                 0.0000
     45 ****        -1.5443   1.1938  -1.3305 H              1 S1                 0.0000
     46 ****        -6.5281   0.3475  -2.0873 LP             1 S1                 0.0000
     47 ****        -5.7344  -0.1770  -0.6399 LP             1 S1                 0.0000
     48 ****        -0.7242  -0.7940  -0.1171 LP             1 S1                 0.0000
     49 ****         1.3547  -0.1807  -1.7319 LP             1 S1                 0.0000
     50 ****         2.0462   1.1649  -0.8886 LP             1 S1                 0.0000
     51 ****         2.6415   2.1072  -0.2112 LP             1 S1                 0.0000
@<TRIPOS>BOND
    1    1    2 1     
    2    1   23 1     
    3    1   24 1     
    4    1   25 1     
    5    2    3 2     
    6    2    4 am    
    7    4   22 1     
    8    4    5 1     
    9    5    6 1     
   10    5   26 1     
   11    5   27 1     
   12    6    7 1     
   13    6   28 1     
   14    6   29 1     
   15    7    8 1     
   16    7   21 1     
   17    8    9 1     
   18    8   30 1     
   19    8   31 1     
   20    9   10 1     
   21    9   32 1     
   22    9   33 1     
   23   10   11 am    
   24   10   34 1     
   25   11   12 2     
   26   11   13 am    
   27   13   14 1     
   28   13   35 1     
   29   14   19 ar    
   30   14   15 ar    
   31   15   16 ar    
   32   16   17 ar    
   33   16   36 1     
   34   17   18 ar    
   35   17   37 1     
   36   18   19 ar    
   37   18   38 1     
   38   19   20 1     
   39   20   39 1     
   40   20   40 1     
   41   20   41 1     
   42   21   22 1     
   43   21   42 1     
   44   21   43 1     
   45   22   44 1     
   46   22   45 1     
   47    3   46 1     
   48    3   47 1     
   49    7   48 1     
   50   12   49 1     
   51   12   50 1     
   52   15   51 1     
@<TRIPOS>SUBSTRUCTURE
      1 S1             1
@<TRIPOS>SET
LONE_PAIRS      STATIC     ATOMS    <user>   **** ""
6 46 47 48 49 50 51
DONOR_HYDROGENS      STATIC     ATOMS    <user>   **** ""
2 34 35
ATOM$BLUE        STATIC     ATOMS    COLORGROUP SYSTEM
6 46 47 48 49 50 51
ATOM$RED        STATIC     ATOMS    COLORGROUP SYSTEM
2 34 35
