AV-unprocessed.smi:574|AV-procd|sdf|2975|dock3
  -GOLD-   2262023483D 1   1.00000     0.00000
 Structure written by MMmdl.
 40 41  0  0  0  0  0  0  0  0  1 V2000
  144.6997  138.9419  155.6814 C   0  0  0  0  0  0  0  0  0  0  0  0
  145.8977  139.7253  155.1560 C   0  0  0  0  0  0  0  0  0  0  0  0
  146.9597  139.7214  155.7776 O   0  0  0  0  0  0  0  0  0  0  0  0
  145.7115  140.3954  154.0093 N   0  0  0  0  0  0  0  0  0  0  0  0
  146.7227  141.2028  153.3379 C   0  0  0  0  0  0  0  0  0  0  0  0
  147.2195  142.3482  154.2379 C   0  0  0  0  0  0  0  0  0  0  0  0
  148.2805  141.9021  155.1316 N   0  0  0  0  0  0  0  0  0  0  0  0
  149.3447  141.1715  154.7633 C   0  0  0  0  0  0  0  0  0  0  0  0
  149.5670  140.8306  153.6010 O   0  0  0  0  0  0  0  0  0  0  0  0
  150.3202  140.8450  155.8576 C   0  0  0  0  0  0  0  0  0  0  0  0
  150.3008  141.6573  156.9391 N   0  0  0  0  0  0  0  0  0  0  0  0
  151.1579  141.4163  157.9386 C   0  0  0  0  0  0  0  0  0  0  0  0
  151.1177  142.2727  159.0466 N   0  0  0  0  0  0  0  0  0  0  0  0
  150.3935  143.5430  159.0143 C   0  0  0  0  0  0  0  0  0  0  0  0
  151.3655  144.6781  158.6443 C   0  0  0  0  0  0  0  0  0  0  0  0
  152.4369  144.7121  159.5855 O   0  0  0  0  0  0  0  0  0  0  0  0
  153.1653  143.4867  159.6326 C   0  0  0  0  0  0  0  0  0  0  0  0
  152.2133  142.3381  160.0131 C   0  0  0  0  0  0  0  0  0  0  0  0
  152.0496  140.4183  157.9561 N   0  0  0  0  0  0  0  0  0  0  0  0
  152.0988  139.6019  156.8834 C   0  0  0  0  0  0  0  0  0  0  0  0
  151.2455  139.7716  155.7760 C   0  0  0  0  0  0  0  0  0  0  0  0
  151.3932  138.7205  154.4087 Cl  0  0  0  0  0  0  0  0  0  0  0  0
  144.3164  138.2676  154.9152 H   0  0  0  0  0  0  0  0  0  0  0  0
  143.9007  139.6230  155.9746 H   0  0  0  0  0  0  0  0  0  0  0  0
  144.9768  138.3461  156.5515 H   0  0  0  0  0  0  0  0  0  0  0  0
  144.8042  140.3404  153.5692 H   0  0  0  0  0  0  0  0  0  0  0  0
  147.5568  140.5738  153.0218 H   0  0  0  0  0  0  0  0  0  0  0  0
  146.2766  141.6049  152.4280 H   0  0  0  0  0  0  0  0  0  0  0  0
  147.5669  143.1888  153.6348 H   0  0  0  0  0  0  0  0  0  0  0  0
  146.4023  142.7244  154.8538 H   0  0  0  0  0  0  0  0  0  0  0  0
  148.1939  142.1531  156.1061 H   0  0  0  0  0  0  0  0  0  0  0  0
  149.5460  143.5271  158.3296 H   0  0  0  0  0  0  0  0  0  0  0  0
  149.9722  143.7285  160.0030 H   0  0  0  0  0  0  0  0  0  0  0  0
  151.7573  144.5417  157.6350 H   0  0  0  0  0  0  0  0  0  0  0  0
  150.8491  145.6379  158.6611 H   0  0  0  0  0  0  0  0  0  0  0  0
  153.6413  143.2960  158.6695 H   0  0  0  0  0  0  0  0  0  0  0  0
  153.9616  143.5767  160.3714 H   0  0  0  0  0  0  0  0  0  0  0  0
  151.7934  142.5226  161.0025 H   0  0  0  0  0  0  0  0  0  0  0  0
  152.7592  141.3986  160.0935 H   0  0  0  0  0  0  0  0  0  0  0  0
  152.8348  138.8119  156.9054 H   0  0  0  0  0  0  0  0  0  0  0  0
  1  2  1  0  0  0  0
  1 23  1  0  0  0  0
  1 24  1  0  0  0  0
  1 25  1  0  0  0  0
  2  3  2  0  0  0  0
  2  4  1  0  0  0  0
  4  5  1  0  0  0  0
  4 26  1  0  0  0  0
  5  6  1  0  0  0  0
  5 27  1  0  0  0  0
  5 28  1  0  0  0  0
  6  7  1  0  0  0  0
  6 29  1  0  0  0  0
  6 30  1  0  0  0  0
  7  8  1  0  0  0  0
  7 31  1  0  0  0  0
  8  9  2  0  0  0  0
  8 10  1  0  0  0  0
 10 21  1  0  0  0  0
 10 11  2  0  0  0  0
 11 12  1  0  0  0  0
 12 13  1  0  0  0  0
 12 19  2  0  0  0  0
 13 18  1  0  0  0  0
 13 14  1  0  0  0  0
 14 15  1  0  0  0  0
 14 32  1  0  0  0  0
 14 33  1  0  0  0  0
 15 16  1  0  0  0  0
 15 34  1  0  0  0  0
 15 35  1  0  0  0  0
 16 17  1  0  0  0  0
 17 18  1  0  0  0  0
 17 36  1  0  0  0  0
 17 37  1  0  0  0  0
 18 38  1  0  0  0  0
 18 39  1  0  0  0  0
 19 20  1  0  0  0  0
 20 21  2  0  0  0  0
 20 40  1  0  0  0  0
 21 22  1  0  0  0  0
M  END
> <s_m_source_file>
AV-unprocessed.smi

> <i_m_source_file_index>
574

> <i_lp_mmshare_version>
43012

> <i_f3d_flags>
0

> <s_epik_input>
W0NIM11DKD1PKVtOSF1bQ0gyXVtDSDJdW05IXUMoPU8pYzFuYyhuW2NIXWMxQ2wpTjJbQ0gyXVtDSDJdT1tDSDJdW0NIMl0y

> <s_epik_cmdline>
J2VwaWtfcHl0aG9uJywgJy1waCcsICc3LjAnLCAnLXRuJywgJzgnLCAnLW1hJywgJzIwMCcsICctbWV0YWxfYmluZGluZycsICctaW1hZScsICc8aW5maWxlLm1hZT4nLCAnLW9tYWUnLCAnPG91dGZpbGUubWFlPic=

> <r_lp_tautomer_probability>
1

> <r_epik_Ionization_Penalty>
4.61473e-05

> <r_epik_Ionization_Penalty_Charging>
0

> <r_epik_Ionization_Penalty_Neutral>
4.61473e-05

> <r_epik_State_Penalty>
-0

> <r_epik_Charging_Adjusted_Penalty>
0

> <i_epik_Tot_Q>
0

> <i_epik_Tot_abs_Q>
0

> <r_epik_Metal_State_Penalty>
0.0410325

> <b_epik_Metal_Only>
0

> <s_lp_Force_Field>
OPLS_2005

> <r_lp_Energy>
11.2452

> <b_lp_Chiralities_Consistent>
1

> <s_lp_Variant>
AV-unprocessed.smi:574-1

> <Gold.Version>
5.8.1

> <Gold.Id.Protein>
6NUR|6NUR_protein|mol2

> <Gold.PLP.Fitness>
43.0767

> <Gold.PLP.PLP>
-36.8232

> <Gold.PLP.part.hbond>
-3.8765

> <Gold.PLP.part.metal>
0.0000

> <Gold.PLP.part.buried>
-4.5898

> <Gold.PLP.part.nonpolar>
-31.6199

> <Gold.PLP.part.repulsive>
4.4632

> <Gold.PLP.ligand.clash>
0.0000

> <Gold.PLP.ligand.torsion>
0.5375

> <Gold.PLP.Chemscore.Hbond>
2.3753

> <Gold.PLP.Chemscore.CHOScore>
0.0000

> <Gold.PLP.Chemscore.Metal>
0.0000

> <Gold.Chemscore.Hbonds>
donor molecule, donor type, donor heavy atom, donor atom, acceptor molecule, acceptor atom, score
      L1  H     4    26       P1 10175  1.00
      P1  H  7989  7998       L1     9  0.36
      P1  H  8011  8017       L1     9  0.98

> <Gold.PLP.Chemscore.Internal.Correction>
0.2029

> <Gold.Rescore>
     Score         DG    S(hbond)    S(metal)    S(lipo)     H(rot)  DE(clash)    DE(int)     intcor
     13.79     -17.37       2.06        0.00      79.93       1.70       1.80       1.78       ----

> <Gold.Chemscore.Fitness>
13.7931

> <Gold.Chemscore.DG>
-17.3730

> <Gold.Chemscore.ZeroCoef>
-5.4800

> <Gold.Chemscore.Hbond>
2.0604

> <Gold.Chemscore.Metal>
0.0000

> <Gold.Chemscore.Lipo>
79.9346

> <Gold.Chemscore.Internal_Hbond>
0.0000

> <Gold.Chemscore.DEClash>
1.7994

> <Gold.Chemscore.DEInternal>
1.7805

> <Gold.Chemscore.Rot>
1.6957

> <Gold.Chemscore.Internal.Correction>
   9.000000E+99

> <Gold.Chemscore.Hbonds>
donor molecule, donor type, donor heavy atom, donor atom, acceptor molecule, acceptor atom, score
      L1  H     4    26       P1 10175  0.96
      P1  H  7989  7998       L1     9  0.15
      P1  H  8011  8017       L1     9  0.76

> <Gold.Chemscore.Hbond.Weighted>
-6.8817

> <Gold.Chemscore.Metal.Weighted>
-0.0000

> <Gold.Chemscore.Lipo.Weighted>
-9.3524

> <Gold.Chemscore.Internal_Hbond.Weighted>
0.0000

> <Gold.Chemscore.DEClash.Weighted>
1.7994

> <Gold.Chemscore.DEInternal.Weighted>
1.7805

> <Gold.Chemscore.Rot.Weighted>
4.3410

> <Gold.Chemscore.Internal.Correction.Weighted>
   9.000000E+99

> <Gold.Protein.RotatedTorsions>
[ 6907 6896 6895 6894 ] final  100.61 input  -60.11 | X-H torsion
[ 7974 7965 7964 7962 ] final -177.52 input  175.53 | X-H torsion
[ 8008 7997 7996 7995 ] final  160.75 input   59.86 | X-H torsion
[ 10167 10162 10161 10158 ] final  -15.60 input  -65.29 | X-H torsion
[ 10718 10713 10712 10709 ] final  -81.78 input   66.30 | X-H torsion
[ 10763 10752 10751 10750 ] final -147.09 input  -60.55 | X-H torsion
[ 11005 11000 10999 10996 ] final   85.88 input  -57.11 | X-H torsion

> <Gold.Protein.ActiveResidues>
 VAL166  LYS551  ARG553  GLY616  TRP617  ASP618  TYR619  PRO620  LYS621  CYS622 
 ASP623  PHE694  ASN695  SER759  ASP760  ASP761  ALA762  ILE779  LEU786  VAL792 
 PHE793  MET794  SER795  GLU796  ALA797  LYS798  CYS799  TRP800  GLU811  SER814 

> <Gold.Protein.RotatedAtoms>
  152.5368  134.0250  159.7998 H   0  0  0  0  0  0  0  0  0  0  0  0  # atno 6907 bound_to 6896
  151.0430  133.5681  159.2656 H   0  0  0  0  0  0  0  0  0  0  0  0  # atno 6908 bound_to 6896
  151.2644  135.0672  159.9164 H   0  0  0  0  0  0  0  0  0  0  0  0  # atno 6909 bound_to 6896
  144.7128  140.1008  143.6416 H   0  0  0  0  0  0  0  0  0  0  0  0  # atno 7974 bound_to 7965
  156.2151  140.1796  156.7608 H   0  0  0  0  0  0  0  0  0  0  0  0  # atno 8008 bound_to 7997
  154.5779  140.0671  156.9090 H   0  0  0  0  0  0  0  0  0  0  0  0  # atno 8009 bound_to 7997
  155.2555  140.3332  155.4280 H   0  0  0  0  0  0  0  0  0  0  0  0  # atno 8010 bound_to 7997
  140.7221  143.5201  150.9643 H   0  0  0  0  0  0  0  0  0  0  0  0  # atno 10167 bound_to 10162
  156.0044  130.4614  150.4004 H   0  0  0  0  0  0  0  0  0  0  0  0  # atno 10718 bound_to 10713
  154.8303  135.3369  154.6763 H   0  0  0  0  0  0  0  0  0  0  0  0  # atno 10763 bound_to 10752
  153.7384  135.6947  153.4977 H   0  0  0  0  0  0  0  0  0  0  0  0  # atno 10764 bound_to 10752
  153.2262  135.4432  155.0495 H   0  0  0  0  0  0  0  0  0  0  0  0  # atno 10765 bound_to 10752
  139.8959  134.8317  156.2643 H   0  0  0  0  0  0  0  0  0  0  0  0  # atno 11005 bound_to 11000
  145.9540  139.2753  143.1195 LP  0  0  0  0  0  0  0  0  0  0  0  0  # atno 17320 bound_to 7965
  145.9293  140.9060  143.0365 LP  0  0  0  0  0  0  0  0  0  0  0  0  # atno 17321 bound_to 7965
  139.8918  143.6943  152.3144 LP  0  0  0  0  0  0  0  0  0  0  0  0  # atno 17342 bound_to 10162
  139.7262  144.7592  151.0875 LP  0  0  0  0  0  0  0  0  0  0  0  0  # atno 17343 bound_to 10162
  157.2073  131.0452  151.2618 LP  0  0  0  0  0  0  0  0  0  0  0  0  # atno 17370 bound_to 10713
  157.3920  130.7287  149.6704 LP  0  0  0  0  0  0  0  0  0  0  0  0  # atno 17371 bound_to 10713
  141.0142  133.7078  156.1161 LP  0  0  0  0  0  0  0  0  0  0  0  0  # atno 17394 bound_to 11000
  140.7325  134.4239  157.5564 LP  0  0  0  0  0  0  0  0  0  0  0  0  # atno 17395 bound_to 11000

$$$$
