AV-unprocessed.smi:3336|AV-procd|sdf|12853|dock10
  -GOLD-   2272019243D 1   1.00000     0.00000
 Structure written by MMmdl.
 42 43  0  0  0  0  0  0  0  0  2 V2000
  145.7342  137.3495  153.6574 C   0  0  0  0  0  0  0  0  0  0  0  0
  146.2941  138.0983  152.4364 C   0  0  2  0  0  0  0  0  0  0  0  0
  146.0915  137.3120  151.1205 C   0  0  0  0  0  0  0  0  0  0  0  0
  145.4783  136.0126  151.3257 N   0  0  0  0  0  0  0  0  0  0  0  0
  146.0190  134.8907  151.9186 C   0  0  0  0  0  0  0  0  0  0  0  0
  145.0687  133.9114  151.8743 C   0  0  0  0  0  0  0  0  0  0  0  0
  143.9696  134.5351  151.2202 C   0  0  0  0  0  0  0  0  0  0  0  0
  144.2192  135.7922  150.8901 N   0  0  0  0  0  0  0  0  0  0  0  0
  147.7301  138.3901  152.6605 N   0  3  0  0  0  0  0  0  0  0  0  0
  148.0913  138.9387  153.9918 C   0  0  2  0  0  0  0  0  0  0  0  0
  147.3426  140.2650  154.2050 C   0  0  0  0  0  0  0  0  0  0  0  0
  149.6144  139.1585  154.1266 C   0  0  0  0  0  0  0  0  0  0  0  0
  150.0449  140.3066  154.0007 O   0  0  0  0  0  0  0  0  0  0  0  0
  150.4374  138.1103  154.3823 N   0  0  0  0  0  0  0  0  0  0  0  0
  151.8917  138.2559  154.5114 C   0  0  0  0  0  0  0  0  0  0  0  0
  152.3033  137.8605  155.9403 C   0  0  0  0  0  0  0  0  0  0  0  0
  151.8898  136.5226  156.2010 O   0  0  0  0  0  0  0  0  0  0  0  0
  150.4838  136.3395  156.0656 C   0  0  0  0  0  0  0  0  0  0  0  0
  150.0415  136.7204  154.6405 C   0  0  0  0  0  0  0  0  0  0  0  0
  144.6562  137.2053  153.5810 H   0  0  0  0  0  0  0  0  0  0  0  0
  145.9180  137.9077  154.5763 H   0  0  0  0  0  0  0  0  0  0  0  0
  146.1948  136.3670  153.7671 H   0  0  0  0  0  0  0  0  0  0  0  0
  145.7555  139.0445  152.3686 H   0  0  0  0  0  0  0  0  0  0  0  0
  145.4641  137.8668  150.4228 H   0  0  0  0  0  0  0  0  0  0  0  0
  147.0504  137.1629  150.6224 H   0  0  0  0  0  0  0  0  0  0  0  0
  147.0216  134.8824  152.3205 H   0  0  0  0  0  0  0  0  0  0  0  0
  145.1475  132.9019  152.2498 H   0  0  0  0  0  0  0  0  0  0  0  0
  143.0052  134.1144  150.9762 H   0  0  0  0  0  0  0  0  0  0  0  0
  148.2479  137.5299  152.5468 H   0  0  0  0  0  0  0  0  0  0  0  0
  147.7510  138.2196  154.7336 H   0  0  0  0  0  0  0  0  0  0  0  0
  147.5501  140.6963  155.1841 H   0  0  0  0  0  0  0  0  0  0  0  0
  146.2641  140.1182  154.1400 H   0  0  0  0  0  0  0  0  0  0  0  0
  147.6205  141.0055  153.4537 H   0  0  0  0  0  0  0  0  0  0  0  0
  152.3847  137.6064  153.7862 H   0  0  0  0  0  0  0  0  0  0  0  0
  152.2436  139.2655  154.2967 H   0  0  0  0  0  0  0  0  0  0  0  0
  153.3856  137.9231  156.0528 H   0  0  0  0  0  0  0  0  0  0  0  0
  151.8646  138.5383  156.6745 H   0  0  0  0  0  0  0  0  0  0  0  0
  150.2439  135.2958  156.2684 H   0  0  0  0  0  0  0  0  0  0  0  0
  149.9575  136.9386  156.8103 H   0  0  0  0  0  0  0  0  0  0  0  0
  148.9753  136.5316  154.5444 H   0  0  0  0  0  0  0  0  0  0  0  0
  150.5271  136.0696  153.9118 H   0  0  0  0  0  0  0  0  0  0  0  0
  148.0292  139.0389  151.9471 H   0  0  0  0  0  0  0  0  0  0  0  0
  1  2  1  0  0  0  0
  1 20  1  0  0  0  0
  1 21  1  0  0  0  0
  1 22  1  0  0  0  0
  2  3  1  0  0  0  0
  2  9  1  0  0  0  0
  2 23  1  0  0  0  0
  3  4  1  0  0  0  0
  3 24  1  0  0  0  0
  3 25  1  0  0  0  0
  4  8  1  0  0  0  0
  4  5  1  0  0  0  0
  5  6  2  0  0  0  0
  5 26  1  0  0  0  0
  6  7  1  0  0  0  0
  6 27  1  0  0  0  0
  7  8  2  0  0  0  0
  7 28  1  0  0  0  0
  9 10  1  0  0  0  0
  9 29  1  0  0  0  0
  9 42  1  0  0  0  0
 10 11  1  0  0  0  0
 10 12  1  0  0  0  0
 10 30  1  0  0  0  0
 11 31  1  0  0  0  0
 11 32  1  0  0  0  0
 11 33  1  0  0  0  0
 12 13  2  0  0  0  0
 12 14  1  0  0  0  0
 14 19  1  0  0  0  0
 14 15  1  0  0  0  0
 15 16  1  0  0  0  0
 15 34  1  0  0  0  0
 15 35  1  0  0  0  0
 16 17  1  0  0  0  0
 16 36  1  0  0  0  0
 16 37  1  0  0  0  0
 17 18  1  0  0  0  0
 18 19  1  0  0  0  0
 18 38  1  0  0  0  0
 18 39  1  0  0  0  0
 19 40  1  0  0  0  0
 19 41  1  0  0  0  0
M  CHG  1   9   1
M  END
> <s_m_source_file>
AV-unprocessed.smi

> <i_m_source_file_index>
3336

> <i_lp_mmshare_version>
43012

> <i_f3d_flags>
0

> <s_epik_input>
bjFbY0hdW2NIXVtjSF1uMVtDSDJdW0NAQEhdKFtDSDNdKVtOSF1bQ0BIXShbQ0gzXSlDKD1PKU4yW0NIMl1bQ0gyXU9bQ0gyXVtDSDJdMg==

> <s_epik_cmdline>
J2VwaWtfcHl0aG9uJywgJy1waCcsICc3LjAnLCAnLXRuJywgJzgnLCAnLW1hJywgJzIwMCcsICctbWV0YWxfYmluZGluZycsICctaW1hZScsICc8aW5maWxlLm1hZT4nLCAnLW9tYWUnLCAnPG91dGZpbGUubWFlPic=

> <r_lp_tautomer_probability>
1

> <r_epik_Ionization_Penalty>
0.200288

> <r_epik_Ionization_Penalty_Charging>
0.200285

> <r_epik_Ionization_Penalty_Neutral>
3.37705e-06

> <r_epik_State_Penalty>
0.190126

> <r_epik_Charging_Adjusted_Penalty>
0.39041

> <i_epik_Tot_Q>
1

> <i_epik_Tot_abs_Q>
1

> <r_epik_Metal_State_Penalty>
0.190133

> <b_epik_Metal_Only>
0

> <s_lp_Force_Field>
OPLS_2005

> <r_lp_Energy>
27.4401

> <b_lp_Chiralities_Consistent>
1

> <s_lp_Variant>
AV-unprocessed.smi:3336-1

> <Gold.Version>
5.8.1

> <Gold.Id.Protein>
6NUR|6NUR_protein|mol2

> <Gold.PLP.Fitness>
46.5521

> <Gold.PLP.PLP>
-28.9182

> <Gold.PLP.part.hbond>
-4.0000

> <Gold.PLP.part.metal>
0.0000

> <Gold.PLP.part.buried>
1.4007

> <Gold.PLP.part.nonpolar>
-29.1461

> <Gold.PLP.part.repulsive>
2.2478

> <Gold.PLP.ligand.clash>
0.0000

> <Gold.PLP.ligand.torsion>
1.4506

> <Gold.PLP.Chemscore.Hbond>
4.8240

> <Gold.PLP.Chemscore.CHOScore>
2.0000

> <Gold.PLP.Chemscore.Metal>
0.0000

> <Gold.Chemscore.Hbonds>
donor molecule, donor type, donor heavy atom, donor atom, acceptor molecule, acceptor atom, score
      L1  H     9    29       P1  7948  2.00
      L1  H     9    42       P1  7957  0.93
      P1  H  7989  7998       L1    13  0.82
      P1  H 10752 10763       L1    17  0.94
      L1  C     5    26       P1  7948  1.00
      L1  C     7    28       P1 10186  1.00

> <Gold.PLP.Chemscore.Internal.Correction>
0.0632

> <Gold.Rescore>
     Score         DG    S(hbond)    S(metal)    S(lipo)     H(rot)  DE(clash)    DE(int)     intcor
     15.84     -19.86       3.41        0.00      66.22       1.85       2.37       1.65       ----

> <Gold.Chemscore.Fitness>
15.8413

> <Gold.Chemscore.DG>
-19.8596

> <Gold.Chemscore.ZeroCoef>
-5.4800

> <Gold.Chemscore.Hbond>
3.4066

> <Gold.Chemscore.Metal>
0.0000

> <Gold.Chemscore.Lipo>
66.2232

> <Gold.Chemscore.Internal_Hbond>
0.0000

> <Gold.Chemscore.DEClash>
2.3694

> <Gold.Chemscore.DEInternal>
1.6489

> <Gold.Chemscore.Rot>
1.8541

> <Gold.Chemscore.Internal.Correction>
   9.000000E+99

> <Gold.Chemscore.Hbonds>
donor molecule, donor type, donor heavy atom, donor atom, acceptor molecule, acceptor atom, score
      L1  H     9    29       P1  7948  0.98
      L1  H     9    42       P1  7957  0.85
      P1  H  7989  7998       L1    13  0.81
      P1  H 10752 10763       L1    17  0.30

> <Gold.Chemscore.Hbond.Weighted>
-11.3780

> <Gold.Chemscore.Metal.Weighted>
-0.0000

> <Gold.Chemscore.Lipo.Weighted>
-7.7481

> <Gold.Chemscore.Internal_Hbond.Weighted>
0.0000

> <Gold.Chemscore.DEClash.Weighted>
2.3694

> <Gold.Chemscore.DEInternal.Weighted>
1.6489

> <Gold.Chemscore.Rot.Weighted>
4.7465

> <Gold.Chemscore.Internal.Correction.Weighted>
   9.000000E+99

> <Gold.Protein.RotatedTorsions>
[ 6907 6896 6895 6894 ] final  144.94 input  -60.11 | X-H torsion
[ 7974 7965 7964 7962 ] final   34.23 input  175.53 | X-H torsion
[ 8008 7997 7996 7995 ] final  -26.53 input   59.86 | X-H torsion
[ 10167 10162 10161 10158 ] final  -22.57 input  -65.29 | X-H torsion
[ 10718 10713 10712 10709 ] final   41.53 input   66.30 | X-H torsion
[ 10763 10752 10751 10750 ] final  104.24 input  -60.55 | X-H torsion
[ 11005 11000 10999 10996 ] final  -43.93 input  -57.11 | X-H torsion

> <Gold.Protein.ActiveResidues>
 VAL166  LYS551  ARG553  GLY616  TRP617  ASP618  TYR619  PRO620  LYS621  CYS622 
 ASP623  PHE694  ASN695  SER759  ASP760  ASP761  ALA762  ILE779  LEU786  VAL792 
 PHE793  MET794  SER795  GLU796  ALA797  LYS798  CYS799  TRP800  GLU811  SER814 

> <Gold.Protein.RotatedAtoms>
  152.1872  133.4748  159.4988 H   0  0  0  0  0  0  0  0  0  0  0  0  # atno 6907 bound_to 6896
  150.6944  134.1758  159.4239 H   0  0  0  0  0  0  0  0  0  0  0  0  # atno 6908 bound_to 6896
  151.9672  135.0094  160.0601 H   0  0  0  0  0  0  0  0  0  0  0  0  # atno 6909 bound_to 6896
  146.1367  139.6296  142.9190 H   0  0  0  0  0  0  0  0  0  0  0  0  # atno 7974 bound_to 7965
  154.4420  140.1897  156.0790 H   0  0  0  0  0  0  0  0  0  0  0  0  # atno 8008 bound_to 7997
  156.0453  140.3315  155.7263 H   0  0  0  0  0  0  0  0  0  0  0  0  # atno 8009 bound_to 7997
  155.5639  140.0606  157.2813 H   0  0  0  0  0  0  0  0  0  0  0  0  # atno 8010 bound_to 7997
  140.7286  143.4523  151.0499 H   0  0  0  0  0  0  0  0  0  0  0  0  # atno 10167 bound_to 10162
  157.3946  130.7825  149.7297 H   0  0  0  0  0  0  0  0  0  0  0  0  # atno 10718 bound_to 10713
  153.3633  135.3949  155.1735 H   0  0  0  0  0  0  0  0  0  0  0  0  # atno 10763 bound_to 10752
  154.8683  135.3685  154.5071 H   0  0  0  0  0  0  0  0  0  0  0  0  # atno 10764 bound_to 10752
  153.5532  135.7082  153.5642 H   0  0  0  0  0  0  0  0  0  0  0  0  # atno 10765 bound_to 10752
  141.0417  133.6777  156.2802 H   0  0  0  0  0  0  0  0  0  0  0  0  # atno 11005 bound_to 11000
  145.5140  141.0434  143.2472 LP  0  0  0  0  0  0  0  0  0  0  0  0  # atno 17320 bound_to 7965
  144.7747  139.6655  143.7180 LP  0  0  0  0  0  0  0  0  0  0  0  0  # atno 17321 bound_to 7965
  139.8200  143.7833  152.3176 LP  0  0  0  0  0  0  0  0  0  0  0  0  # atno 17342 bound_to 10162
  139.7912  144.7409  150.9952 LP  0  0  0  0  0  0  0  0  0  0  0  0  # atno 17343 bound_to 10162
  155.9807  130.4027  150.3514 LP  0  0  0  0  0  0  0  0  0  0  0  0  # atno 17370 bound_to 10713
  157.1634  131.0351  151.2830 LP  0  0  0  0  0  0  0  0  0  0  0  0  # atno 17371 bound_to 10713
  140.6222  134.5349  157.5549 LP  0  0  0  0  0  0  0  0  0  0  0  0  # atno 17394 bound_to 11000
  139.9280  134.8017  156.1011 LP  0  0  0  0  0  0  0  0  0  0  0  0  # atno 17395 bound_to 11000

$$$$
