#       Name:                AV-unprocessed.smi:1450
#       Creating user name   scv26
#       Creation time:       Fri Mar 27 05:58:12 2020


#       File generated by GOLD software.
#

@<TRIPOS>MOLECULE
AV-unprocessed.smi:1450
    36    37     1
SMALL
NO_CHARGES


@<TRIPOS>ATOM
      1 ****         0.2210   1.5097   0.7314 O.2            1 S1                 0.0000
      2 ****        -0.2905   0.3951   0.8376 C.2            1 S1                 0.0000
      3 ****         0.4183  -0.7402   0.9065 N.am           1 S1                 0.0000
      4 ****         1.8742  -0.8227   0.8624 C.3            1 S1                 0.0000
      5 ****         2.4064  -0.8094  -0.5825 C.3            1 S1                 0.0000
      6 ****         1.9475  -1.9737  -1.4391 C.3            1 S1                 0.0000
      7 ****         2.9805  -1.9661  -2.5616 C.3            1 S1                 0.0000
      8 ****         4.1848  -1.4744  -1.9806 O.3            1 S1                 0.0000
      9 ****         3.9251  -0.9487  -0.6823 C.3            1 S1                 0.0000
     10 ****        -1.6106   0.1457   0.8763 N.am           1 S1                 0.0000
     11 ****        -2.6856   1.0746   0.8566 C.ar           1 S1                 0.0000
     12 ****        -2.5740   2.4296   1.2525 C.ar           1 S1                 0.0000
     13 ****        -3.7203   3.2465   1.2088 C.ar           1 S1                 0.0000
     14 ****        -4.9352   2.6790   0.7779 C.ar           1 S1                 0.0000
     15 ****        -5.0589   1.3861   0.4109 N.ar           1 S1                 0.0000
     16 ****        -3.9560   0.6086   0.4566 C.ar           1 S1                 0.0000
     17 ****        -0.0845  -1.6118   0.9876 H              1 S1                 0.0000
     18 ****         2.3149  -0.0041   1.4340 H              1 S1                 0.0000
     19 ****         2.1747  -1.7426   1.3645 H              1 S1                 0.0000
     20 ****         2.1132   0.1206  -1.0732 H              1 S1                 0.0000
     21 ****         2.0112  -2.9077  -0.8789 H              1 S1                 0.0000
     22 ****         0.9261  -1.8627  -1.8047 H              1 S1                 0.0000
     23 ****         3.1241  -2.9533  -3.0016 H              1 S1                 0.0000
     24 ****         2.6747  -1.2827  -3.3547 H              1 S1                 0.0000
     25 ****         4.4410  -0.0008  -0.5269 H              1 S1                 0.0000
     26 ****         4.2990  -1.6607   0.0549 H              1 S1                 0.0000
     27 ****        -1.8796  -0.8273   0.8691 H              1 S1                 0.0000
     28 ****        -1.6442   2.8515   1.6011 H              1 S1                 0.0000
     29 ****        -3.6704   4.2842   1.5038 H              1 S1                 0.0000
     30 ****        -5.8332   3.2775   0.7335 H              1 S1                 0.0000
     31 ****        -4.0929  -0.4209   0.1590 H              1 S1                 0.0000
     32 ****         1.2160   1.6016   0.6923 LP             1 S1                 0.0000
     33 ****        -0.3585   2.3234   0.6843 LP             1 S1                 0.0000
     34 ****         4.5604  -0.7516  -2.5606 LP             1 S1                 0.0000
     35 ****         4.8458  -2.2212  -1.9085 LP             1 S1                 0.0000
     36 ****        -5.9393   1.0159   0.1146 LP             1 S1                 0.0000
@<TRIPOS>BOND
    1    1    2 2     
    2    2    3 am    
    3    2   10 am    
    4    3    4 1     
    5    3   17 1     
    6    4    5 1     
    7    4   18 1     
    8    4   19 1     
    9    5    9 1     
   10    5    6 1     
   11    5   20 1     
   12    6    7 1     
   13    6   21 1     
   14    6   22 1     
   15    7    8 1     
   16    7   23 1     
   17    7   24 1     
   18    8    9 1     
   19    9   25 1     
   20    9   26 1     
   21   10   11 1     
   22   10   27 1     
   23   11   16 ar    
   24   11   12 ar    
   25   12   13 ar    
   26   12   28 1     
   27   13   14 ar    
   28   13   29 1     
   29   14   15 ar    
   30   14   30 1     
   31   15   16 ar    
   32   16   31 1     
   33    1   32 1     
   34    1   33 1     
   35    8   34 1     
   36    8   35 1     
   37   15   36 1     
@<TRIPOS>SUBSTRUCTURE
      1 S1             1
@<TRIPOS>SET
LONE_PAIRS      STATIC     ATOMS    <user>   **** ""
5 32 33 34 35 36
DONOR_HYDROGENS      STATIC     ATOMS    <user>   **** ""
2 17 27
ATOM$BLUE        STATIC     ATOMS    COLORGROUP SYSTEM
5 32 33 34 35 36
ATOM$RED        STATIC     ATOMS    COLORGROUP SYSTEM
2 17 27
