AV-unprocessed.smi:2171|AV-procd|sdf|8831|dock3
  -GOLD-   2272012 23D 1   1.00000     0.00000
 Structure written by MMmdl.
 39 41  0  0  0  0  0  0  0  0  2 V2000
  151.6960  137.4815  159.7388 O   0  0  0  0  0  0  0  0  0  0  0  0
  152.4328  137.8490  158.8241 C   0  0  0  0  0  0  0  0  0  0  0  0
  152.7283  136.9089  157.6556 C   0  0  0  0  0  0  0  0  0  0  0  0
  152.1484  137.4176  156.4254 N   0  0  0  0  0  0  0  0  0  0  0  0
  152.2723  138.6765  155.8739 C   0  0  0  0  0  0  0  0  0  0  0  0
  151.5445  138.6883  154.7187 C   0  0  0  0  0  0  0  0  0  0  0  0
  151.0061  137.3733  154.6453 C   0  0  0  0  0  0  0  0  0  0  0  0
  151.3685  136.6160  155.6681 N   0  0  0  0  0  0  0  0  0  0  0  0
  152.9982  139.0652  158.7734 N   0  0  0  0  0  0  0  0  0  0  0  0
  152.7968  140.1253  159.7562 C   0  0  1  0  0  0  0  0  0  0  0  0
  154.0378  140.3821  160.6288 C   0  0  0  0  0  0  0  0  0  0  0  0
  154.0736  141.9081  160.8474 C   0  0  0  0  0  0  0  0  0  0  0  0
  152.8598  142.4276  160.1883 N   0  3  1  0  0  0  0  0  0  0  0  0
  152.8851  143.8376  159.7415 C   0  0  0  0  0  0  0  0  0  0  0  0
  151.5069  144.2111  159.1595 C   0  0  0  0  0  0  0  0  0  0  0  0
  151.0637  143.2240  158.0603 C   0  0  0  0  0  0  0  0  0  0  0  0
  151.1462  141.7669  158.5542 C   0  0  0  0  0  0  0  0  0  0  0  0
  152.5569  141.4869  159.0992 C   0  0  2  0  0  0  0  0  0  0  0  0
  153.8043  136.7943  157.5165 H   0  0  0  0  0  0  0  0  0  0  0  0
  152.3250  135.9173  157.8685 H   0  0  0  0  0  0  0  0  0  0  0  0
  152.8589  139.4507  156.3456 H   0  0  0  0  0  0  0  0  0  0  0  0
  151.4163  139.5106  154.0306 H   0  0  0  0  0  0  0  0  0  0  0  0
  150.3665  136.9495  153.8853 H   0  0  0  0  0  0  0  0  0  0  0  0
  153.5955  139.2767  157.9871 H   0  0  0  0  0  0  0  0  0  0  0  0
  151.9591  139.8862  160.4151 H   0  0  0  0  0  0  0  0  0  0  0  0
  153.9763  139.8367  161.5713 H   0  0  0  0  0  0  0  0  0  0  0  0
  154.9514  140.0621  160.1252 H   0  0  0  0  0  0  0  0  0  0  0  0
  154.0820  142.1768  161.9042 H   0  0  0  0  0  0  0  0  0  0  0  0
  154.9656  142.3320  160.3830 H   0  0  0  0  0  0  0  0  0  0  0  0
  153.1252  144.4853  160.5852 H   0  0  0  0  0  0  0  0  0  0  0  0
  153.6671  143.9773  158.9934 H   0  0  0  0  0  0  0  0  0  0  0  0
  150.7660  144.2116  159.9600 H   0  0  0  0  0  0  0  0  0  0  0  0
  151.5308  145.2267  158.7631 H   0  0  0  0  0  0  0  0  0  0  0  0
  150.0483  143.4540  157.7365 H   0  0  0  0  0  0  0  0  0  0  0  0
  151.7022  143.3473  157.1846 H   0  0  0  0  0  0  0  0  0  0  0  0
  150.4008  141.5940  159.3314 H   0  0  0  0  0  0  0  0  0  0  0  0
  150.9114  141.0849  157.7366 H   0  0  0  0  0  0  0  0  0  0  0  0
  153.2886  141.6324  158.3010 H   0  0  0  0  0  0  0  0  0  0  0  0
  152.1090  142.3381  160.8580 H   0  0  0  0  0  0  0  0  0  0  0  0
  1  2  2  0  0  0  0
  2  3  1  0  0  0  0
  2  9  1  0  0  0  0
  3  4  1  0  0  0  0
  3 19  1  0  0  0  0
  3 20  1  0  0  0  0
  4  8  1  0  0  0  0
  4  5  1  0  0  0  0
  5  6  2  0  0  0  0
  5 21  1  0  0  0  0
  6  7  1  0  0  0  0
  6 22  1  0  0  0  0
  7  8  2  0  0  0  0
  7 23  1  0  0  0  0
  9 10  1  0  0  0  0
  9 24  1  0  0  0  0
 10 18  1  0  0  0  0
 10 11  1  0  0  0  0
 10 25  1  0  0  0  0
 11 12  1  0  0  0  0
 11 26  1  0  0  0  0
 11 27  1  0  0  0  0
 12 13  1  0  0  0  0
 12 28  1  0  0  0  0
 12 29  1  0  0  0  0
 13 18  1  0  0  0  0
 13 14  1  0  0  0  0
 13 39  1  0  0  0  0
 14 15  1  0  0  0  0
 14 30  1  0  0  0  0
 14 31  1  0  0  0  0
 15 16  1  0  0  0  0
 15 32  1  0  0  0  0
 15 33  1  0  0  0  0
 16 17  1  0  0  0  0
 16 34  1  0  0  0  0
 16 35  1  0  0  0  0
 17 18  1  0  0  0  0
 17 36  1  0  0  0  0
 17 37  1  0  0  0  0
 18 38  1  0  0  0  0
M  CHG  1  13   1
M  END
> <s_m_source_file>
AV-unprocessed.smi

> <i_m_source_file_index>
2171

> <i_lp_mmshare_version>
43012

> <i_f3d_flags>
0

> <s_epik_input>
bjFbY0hdW2NIXVtjSF1uMVtDSDJdQyg9TylbTkhdW0NASF0oW0NIMl1bQ0gyXTIpW0NAQEhdKE4yMylbQ0gyXVtDSDJdW0NIMl1bQ0gyXTM=

> <s_epik_cmdline>
J2VwaWtfcHl0aG9uJywgJy1waCcsICc3LjAnLCAnLXRuJywgJzgnLCAnLW1hJywgJzIwMCcsICctbWV0YWxfYmluZGluZycsICctaW1hZScsICc8aW5maWxlLm1hZT4nLCAnLW9tYWUnLCAnPG91dGZpbGUubWFlPic=

> <r_lp_tautomer_probability>
1

> <r_epik_Ionization_Penalty>
0.00204179

> <r_epik_Ionization_Penalty_Charging>
0.00203239

> <r_epik_Ionization_Penalty_Neutral>
9.40205e-06

> <r_epik_State_Penalty>
0.00138983

> <r_epik_Charging_Adjusted_Penalty>
0.00342221

> <i_epik_Tot_Q>
1

> <i_epik_Tot_abs_Q>
1

> <r_epik_Metal_State_Penalty>
-0

> <b_epik_Metal_Only>
0

> <s_lp_Force_Field>
OPLS_2005

> <r_lp_Energy>
34.4486

> <b_lp_Chiralities_Consistent>
1

> <s_lp_Variant>
AV-unprocessed.smi:2171-6

> <Gold.Version>
5.8.1

> <Gold.Id.Protein>
6NUR|6NUR_protein|mol2

> <Gold.PLP.Fitness>
40.9992

> <Gold.PLP.PLP>
-35.1140

> <Gold.PLP.part.hbond>
-1.1319

> <Gold.PLP.part.metal>
0.0000

> <Gold.PLP.part.buried>
-5.2057

> <Gold.PLP.part.nonpolar>
-28.8150

> <Gold.PLP.part.repulsive>
0.2240

> <Gold.PLP.ligand.clash>
0.0000

> <Gold.PLP.ligand.torsion>
0.2668

> <Gold.PLP.Chemscore.Hbond>
1.0000

> <Gold.PLP.Chemscore.CHOScore>
1.1354

> <Gold.PLP.Chemscore.Metal>
0.0000

> <Gold.Chemscore.Hbonds>
donor molecule, donor type, donor heavy atom, donor atom, acceptor molecule, acceptor atom, score
      P1  H 10752 10764       L1     8  0.54
      L1  C     7    23       P1  7948  0.81
      L1  C     7    23       P1  7949  0.22

> <Gold.PLP.Chemscore.Internal.Correction>
0.0125

> <Gold.Rescore>
     Score         DG    S(hbond)    S(metal)    S(lipo)     H(rot)  DE(clash)    DE(int)     intcor
     14.46     -14.59       0.00        0.00     109.36       1.44       0.02       0.10       ----

> <Gold.Chemscore.Fitness>
14.4614

> <Gold.Chemscore.DG>
-14.5862

> <Gold.Chemscore.ZeroCoef>
-5.4800

> <Gold.Chemscore.Hbond>
0.0000

> <Gold.Chemscore.Metal>
0.0000

> <Gold.Chemscore.Lipo>
109.3606

> <Gold.Chemscore.Internal_Hbond>
0.0000

> <Gold.Chemscore.DEClash>
0.0203

> <Gold.Chemscore.DEInternal>
0.1045

> <Gold.Chemscore.Rot>
1.4410

> <Gold.Chemscore.Internal.Correction>
   9.000000E+99

> <Gold.Chemscore.Hbonds>
donor molecule, donor type, donor heavy atom, donor atom, acceptor molecule, acceptor atom, score
      P1  H 10752 10764       L1     8  0.02

> <Gold.Chemscore.Hbond.Weighted>
-0.0000

> <Gold.Chemscore.Metal.Weighted>
-0.0000

> <Gold.Chemscore.Lipo.Weighted>
-12.7952

> <Gold.Chemscore.Internal_Hbond.Weighted>
0.0000

> <Gold.Chemscore.DEClash.Weighted>
0.0203

> <Gold.Chemscore.DEInternal.Weighted>
0.1045

> <Gold.Chemscore.Rot.Weighted>
3.6889

> <Gold.Chemscore.Internal.Correction.Weighted>
   9.000000E+99

> <Gold.Protein.RotatedTorsions>
[ 6907 6896 6895 6894 ] final  161.64 input  -60.11 | X-H torsion
[ 7974 7965 7964 7962 ] final  163.18 input  175.53 | X-H torsion
[ 8008 7997 7996 7995 ] final  -28.42 input   59.86 | X-H torsion
[ 10167 10162 10161 10158 ] final -142.63 input  -65.29 | X-H torsion
[ 10718 10713 10712 10709 ] final  -74.48 input   66.30 | X-H torsion
[ 10763 10752 10751 10750 ] final  -52.68 input  -60.55 | X-H torsion
[ 11005 11000 10999 10996 ] final  102.15 input  -57.11 | X-H torsion

> <Gold.Protein.ActiveResidues>
 VAL166  LYS551  ARG553  GLY616  TRP617  ASP618  TYR619  PRO620  LYS621  CYS622 
 ASP623  PHE694  ASN695  SER759  ASP760  ASP761  ALA762  ILE779  LEU786  VAL792 
 PHE793  MET794  SER795  GLU796  ALA797  LYS798  CYS799  TRP800  GLU811  SER814 

> <Gold.Protein.RotatedAtoms>
  151.9525  133.3670  159.4004 H   0  0  0  0  0  0  0  0  0  0  0  0  # atno 6907 bound_to 6896
  150.6978  134.4325  159.5264 H   0  0  0  0  0  0  0  0  0  0  0  0  # atno 6908 bound_to 6896
  152.2001  134.8595  160.0559 H   0  0  0  0  0  0  0  0  0  0  0  0  # atno 6909 bound_to 6896
  144.7602  139.8145  143.6335 H   0  0  0  0  0  0  0  0  0  0  0  0  # atno 7974 bound_to 7965
  154.4333  140.1846  156.1087 H   0  0  0  0  0  0  0  0  0  0  0  0  # atno 8008 bound_to 7997
  156.0235  140.3338  155.7038 H   0  0  0  0  0  0  0  0  0  0  0  0  # atno 8009 bound_to 7997
  155.5942  140.0634  157.2741 H   0  0  0  0  0  0  0  0  0  0  0  0  # atno 8010 bound_to 7997
  139.8070  143.7755  152.2661 H   0  0  0  0  0  0  0  0  0  0  0  0  # atno 10167 bound_to 10162
  156.0241  130.4418  150.2899 H   0  0  0  0  0  0  0  0  0  0  0  0  # atno 10718 bound_to 10713
  154.1467  135.6496  153.4954 H   0  0  0  0  0  0  0  0  0  0  0  0  # atno 10763 bound_to 10752
  153.0150  135.5328  154.6850 H   0  0  0  0  0  0  0  0  0  0  0  0  # atno 10764 bound_to 10752
  154.6126  135.2955  155.0386 H   0  0  0  0  0  0  0  0  0  0  0  0  # atno 10765 bound_to 10752
  139.8776  134.9212  156.5014 H   0  0  0  0  0  0  0  0  0  0  0  0  # atno 11005 bound_to 11000
  146.1656  139.4786  142.9960 LP  0  0  0  0  0  0  0  0  0  0  0  0  # atno 17320 bound_to 7965
  145.6645  141.0232  143.1691 LP  0  0  0  0  0  0  0  0  0  0  0  0  # atno 17321 bound_to 7965
  139.7892  144.7416  150.9978 LP  0  0  0  0  0  0  0  0  0  0  0  0  # atno 17342 bound_to 10162
  140.7819  143.4460  151.0482 LP  0  0  0  0  0  0  0  0  0  0  0  0  # atno 17343 bound_to 10162
  157.1002  131.0193  151.3088 LP  0  0  0  0  0  0  0  0  0  0  0  0  # atno 17370 bound_to 10713
  157.4785  130.7751  149.7391 LP  0  0  0  0  0  0  0  0  0  0  0  0  # atno 17371 bound_to 10713
  140.8587  133.8076  155.9242 LP  0  0  0  0  0  0  0  0  0  0  0  0  # atno 17394 bound_to 11000
  140.9072  134.2306  157.5007 LP  0  0  0  0  0  0  0  0  0  0  0  0  # atno 17395 bound_to 11000

$$$$
