AV-unprocessed.smi:1047|AV-procd|sdf|4601|dock2
  -GOLD-   22720 3 93D 1   1.00000     0.00000
 Structure written by MMmdl.
 57 59  0  0  0  0  0  0  0  0  3 V2000
  146.5978  132.6855  163.2507 C   0  0  0  0  0  0  0  0  0  0  0  0
  146.9123  133.3826  161.9191 C   0  0  0  0  0  0  0  0  0  0  0  0
  148.2556  134.0212  161.9134 N   0  3  2  0  0  0  0  0  0  0  0  0
  148.5552  134.7804  163.1519 C   0  0  0  0  0  0  0  0  0  0  0  0
  147.8489  136.1479  163.1509 C   0  0  0  0  0  0  0  0  0  0  0  0
  148.2275  136.8770  161.9891 O   0  0  0  0  0  0  0  0  0  0  0  0
  147.8411  136.2250  160.7841 C   0  0  1  0  0  0  0  0  0  0  0  0
  148.2333  137.1392  159.6131 C   0  0  0  0  0  0  0  0  0  0  0  0
  149.6639  137.4288  159.6239 N   0  0  0  0  0  0  0  0  0  0  0  0
  150.1387  138.0624  158.3981 C   0  0  0  0  0  0  0  0  0  0  0  0
  151.5829  138.5676  158.5509 C   0  0  1  0  0  0  0  0  0  0  0  0
  152.4247  137.4396  158.6740 O   0  0  0  0  0  0  0  0  0  0  0  0
  152.0442  139.4284  157.3557 C   0  0  0  0  0  0  0  0  0  0  0  0
  151.4226  140.7603  157.3412 N   0  0  0  0  0  0  0  0  0  0  0  0
  150.5529  141.2997  156.4447 C   0  0  0  0  0  0  0  0  0  0  0  0
  150.2640  142.5633  156.8611 N   0  3  0  0  0  0  0  0  0  0  0  0
  150.9560  142.8338  158.0436 C   0  0  0  0  0  0  0  0  0  0  0  0
  150.9833  143.9719  158.8408 C   0  0  0  0  0  0  0  0  0  0  0  0
  151.7959  143.9307  159.9961 C   0  0  0  0  0  0  0  0  0  0  0  0
  151.8482  145.1581  160.8897 C   0  0  0  0  0  0  0  0  0  0  0  0
  152.5479  142.7714  160.3186 C   0  0  0  0  0  0  0  0  0  0  0  0
  153.4173  142.7376  161.5642 C   0  0  0  0  0  0  0  0  0  0  0  0
  152.5072  141.6243  159.4941 C   0  0  0  0  0  0  0  0  0  0  0  0
  151.7019  141.6811  158.3584 C   0  0  0  0  0  0  0  0  0  0  0  0
  148.5479  134.8510  160.7165 C   0  0  0  0  0  0  0  0  0  0  0  0
  145.5701  132.3212  163.2574 H   0  0  0  0  0  0  0  0  0  0  0  0
  146.7095  133.3714  164.0911 H   0  0  0  0  0  0  0  0  0  0  0  0
  147.2437  131.8260  163.4277 H   0  0  0  0  0  0  0  0  0  0  0  0
  146.8080  132.6825  161.0904 H   0  0  0  0  0  0  0  0  0  0  0  0
  146.1553  134.1525  161.7642 H   0  0  0  0  0  0  0  0  0  0  0  0
  148.2833  134.2025  164.0361 H   0  0  0  0  0  0  0  0  0  0  0  0
  149.6338  134.9338  163.2076 H   0  0  0  0  0  0  0  0  0  0  0  0
  146.7646  136.0354  163.1918 H   0  0  0  0  0  0  0  0  0  0  0  0
  148.1406  136.7182  164.0330 H   0  0  0  0  0  0  0  0  0  0  0  0
  146.7566  136.1039  160.7850 H   0  0  0  0  0  0  0  0  0  0  0  0
  147.9736  136.6475  158.6749 H   0  0  0  0  0  0  0  0  0  0  0  0
  147.6543  138.0629  159.6494 H   0  0  0  0  0  0  0  0  0  0  0  0
  150.1844  136.5724  159.7859 H   0  0  0  0  0  0  0  0  0  0  0  0
  150.0947  137.3418  157.5798 H   0  0  0  0  0  0  0  0  0  0  0  0
  149.4823  138.8882  158.1203 H   0  0  0  0  0  0  0  0  0  0  0  0
  151.6720  139.1438  159.4730 H   0  0  0  0  0  0  0  0  0  0  0  0
  152.7227  137.3825  159.5688 H   0  0  0  0  0  0  0  0  0  0  0  0
  153.1290  139.5325  157.3346 H   0  0  0  0  0  0  0  0  0  0  0  0
  151.7693  138.9442  156.4179 H   0  0  0  0  0  0  0  0  0  0  0  0
  150.1622  140.8138  155.5624 H   0  0  0  0  0  0  0  0  0  0  0  0
  150.4065  144.8499  158.5893 H   0  0  0  0  0  0  0  0  0  0  0  0
  152.8664  145.5436  160.9508 H   0  0  0  0  0  0  0  0  0  0  0  0
  151.5079  144.9146  161.8966 H   0  0  0  0  0  0  0  0  0  0  0  0
  151.2119  145.9571  160.5077 H   0  0  0  0  0  0  0  0  0  0  0  0
  153.9239  141.7778  161.6715 H   0  0  0  0  0  0  0  0  0  0  0  0
  152.8132  142.8963  162.4577 H   0  0  0  0  0  0  0  0  0  0  0  0
  154.1811  143.5142  161.5187 H   0  0  0  0  0  0  0  0  0  0  0  0
  153.0777  140.7427  159.7446 H   0  0  0  0  0  0  0  0  0  0  0  0
  149.6270  135.0040  160.6715 H   0  0  0  0  0  0  0  0  0  0  0  0
  148.2842  134.3219  159.8019 H   0  0  0  0  0  0  0  0  0  0  0  0
  148.9107  133.2524  161.8968 H   0  0  0  0  0  0  0  0  0  0  0  0
  149.6398  143.1923  156.3726 H   0  0  0  0  0  0  0  0  0  0  0  0
  1  2  1  0  0  0  0
  1 26  1  0  0  0  0
  1 27  1  0  0  0  0
  1 28  1  0  0  0  0
  2  3  1  0  0  0  0
  2 29  1  0  0  0  0
  2 30  1  0  0  0  0
  3 25  1  0  0  0  0
  3  4  1  0  0  0  0
  3 56  1  0  0  0  0
  4  5  1  0  0  0  0
  4 31  1  0  0  0  0
  4 32  1  0  0  0  0
  5  6  1  0  0  0  0
  5 33  1  0  0  0  0
  5 34  1  0  0  0  0
  6  7  1  0  0  0  0
  7  8  1  0  0  0  0
  7 25  1  0  0  0  0
  7 35  1  0  0  0  0
  8  9  1  0  0  0  0
  8 36  1  0  0  0  0
  8 37  1  0  0  0  0
  9 10  1  0  0  0  0
  9 38  1  0  0  0  0
 10 11  1  0  0  0  0
 10 39  1  0  0  0  0
 10 40  1  0  0  0  0
 11 12  1  0  0  0  0
 11 13  1  0  0  0  0
 11 41  1  0  0  0  0
 12 42  1  0  0  0  0
 13 14  1  0  0  0  0
 13 43  1  0  0  0  0
 13 44  1  0  0  0  0
 14 24  1  0  0  0  0
 14 15  1  0  0  0  0
 15 16  2  0  0  0  0
 15 45  1  0  0  0  0
 16 17  1  0  0  0  0
 16 57  1  0  0  0  0
 17 24  2  0  0  0  0
 17 18  1  0  0  0  0
 18 19  2  0  0  0  0
 18 46  1  0  0  0  0
 19 20  1  0  0  0  0
 19 21  1  0  0  0  0
 20 47  1  0  0  0  0
 20 48  1  0  0  0  0
 20 49  1  0  0  0  0
 21 22  1  0  0  0  0
 21 23  2  0  0  0  0
 22 50  1  0  0  0  0
 22 51  1  0  0  0  0
 22 52  1  0  0  0  0
 23 24  1  0  0  0  0
 23 53  1  0  0  0  0
 25 54  1  0  0  0  0
 25 55  1  0  0  0  0
M  CHG  1   3   1
M  CHG  1  16   1
M  END
> <s_m_source_file>
AV-unprocessed.smi

> <i_m_source_file_index>
1047

> <i_lp_mmshare_version>
43012

> <i_f3d_flags>
0

> <s_epik_input>
W0NIM11bQ0gyXU4xW0NIMl1bQ0gyXU9bQ0BIXShbQ0gyXTEpW0NIMl1bTkhdW0NIMl1bQ0BIXShbT0hdKVtDSDJdbihbY0hdbjIpYyhjMjMpW2NIXWMoW0NIM10pYyhbY0hdMylbQ0gzXQ==

> <s_epik_cmdline>
J2VwaWtfcHl0aG9uJywgJy1waCcsICc3LjAnLCAnLXRuJywgJzgnLCAnLW1hJywgJzIwMCcsICctbWV0YWxfYmluZGluZycsICctaW1hZScsICc8aW5maWxlLm1hZT4nLCAnLW9tYWUnLCAnPG91dGZpbGUubWFlPic=

> <r_epik_Ionization_Penalty>
2.03028

> <r_epik_Ionization_Penalty_Charging>
1.21256

> <r_epik_Ionization_Penalty_Neutral>
0.817715

> <r_epik_State_Penalty>
2.54959

> <r_epik_Charging_Adjusted_Penalty>
3.76215

> <i_epik_Tot_Q>
2

> <i_epik_Tot_abs_Q>
2

> <r_epik_Metal_State_Penalty>
6.52811

> <b_epik_Metal_Only>
0

> <s_lp_Force_Field>
OPLS_2005

> <r_lp_Energy>
33.7029

> <b_lp_Chiralities_Consistent>
1

> <s_lp_Variant>
AV-unprocessed.smi:1047-42

> <Gold.Version>
5.8.1

> <Gold.Id.Protein>
6NUR|6NUR_protein|mol2

> <Gold.PLP.Fitness>
64.9207

> <Gold.PLP.PLP>
-53.8237

> <Gold.PLP.part.hbond>
-3.4203

> <Gold.PLP.part.metal>
0.0000

> <Gold.PLP.part.buried>
-7.9892

> <Gold.PLP.part.nonpolar>
-42.7749

> <Gold.PLP.part.repulsive>
0.1251

> <Gold.PLP.ligand.clash>
0.0000

> <Gold.PLP.ligand.torsion>
0.2780

> <Gold.PLP.Chemscore.Hbond>
3.8080

> <Gold.PLP.Chemscore.CHOScore>
0.0000

> <Gold.PLP.Chemscore.Metal>
0.0000

> <Gold.Chemscore.Hbonds>
donor molecule, donor type, donor heavy atom, donor atom, acceptor molecule, acceptor atom, score
      L1  H    16    57       P1  8028  2.00
      P1  H  6931  6943       L1     6  1.00

> <Gold.PLP.Chemscore.Internal.Correction>
0.2291

> <Gold.Rescore>
     Score         DG    S(hbond)    S(metal)    S(lipo)     H(rot)  DE(clash)    DE(int)     intcor
     21.43     -21.85       2.19        0.00     136.74       2.71       0.06       0.36       ----

> <Gold.Chemscore.Fitness>
21.4347

> <Gold.Chemscore.DG>
-21.8537

> <Gold.Chemscore.ZeroCoef>
-5.4800

> <Gold.Chemscore.Hbond>
2.1886

> <Gold.Chemscore.Metal>
0.0000

> <Gold.Chemscore.Lipo>
136.7375

> <Gold.Chemscore.Internal_Hbond>
0.0000

> <Gold.Chemscore.DEClash>
0.0588

> <Gold.Chemscore.DEInternal>
0.3602

> <Gold.Chemscore.Rot>
2.7088

> <Gold.Chemscore.Internal.Correction>
   9.000000E+99

> <Gold.Chemscore.Hbonds>
donor molecule, donor type, donor heavy atom, donor atom, acceptor molecule, acceptor atom, score
      L1  H    16    57       P1  8028  1.00
      P1  H  6931  6943       L1     6  0.96

> <Gold.Chemscore.Hbond.Weighted>
-7.3100

> <Gold.Chemscore.Metal.Weighted>
-0.0000

> <Gold.Chemscore.Lipo.Weighted>
-15.9983

> <Gold.Chemscore.Internal_Hbond.Weighted>
0.0000

> <Gold.Chemscore.DEClash.Weighted>
0.0588

> <Gold.Chemscore.DEInternal.Weighted>
0.3602

> <Gold.Chemscore.Rot.Weighted>
6.9346

> <Gold.Chemscore.Internal.Correction.Weighted>
   9.000000E+99

> <Gold.Protein.RotatedTorsions>
[ 6907 6896 6895 6894 ] final   45.72 input  -60.11 | X-H torsion
[ 7974 7965 7964 7962 ] final  157.43 input  175.53 | X-H torsion
[ 8008 7997 7996 7995 ] final -154.67 input   59.86 | X-H torsion
[ 10167 10162 10161 10158 ] final   17.06 input  -65.29 | X-H torsion
[ 10718 10713 10712 10709 ] final  165.44 input   66.30 | X-H torsion
[ 10763 10752 10751 10750 ] final  176.08 input  -60.55 | X-H torsion
[ 11005 11000 10999 10996 ] final  -35.01 input  -57.11 | X-H torsion

> <Gold.Protein.ActiveResidues>
 VAL166  LYS551  ARG553  GLY616  TRP617  ASP618  TYR619  PRO620  LYS621  CYS622 
 ASP623  PHE694  ASN695  SER759  ASP760  ASP761  ALA762  ILE779  LEU786  VAL792 
 PHE793  MET794  SER795  GLU796  ALA797  LYS798  CYS799  TRP800  GLU811  SER814 

> <Gold.Protein.RotatedAtoms>
  152.2480  134.8162  160.0450 H   0  0  0  0  0  0  0  0  0  0  0  0  # atno 6907 bound_to 6896
  151.8853  133.3499  159.3788 H   0  0  0  0  0  0  0  0  0  0  0  0  # atno 6908 bound_to 6896
  150.7074  134.4905  159.5557 H   0  0  0  0  0  0  0  0  0  0  0  0  # atno 6909 bound_to 6896
  144.7904  139.7340  143.6224 H   0  0  0  0  0  0  0  0  0  0  0  0  # atno 7974 bound_to 7965
  155.6900  140.0754  157.2452 H   0  0  0  0  0  0  0  0  0  0  0  0  # atno 8008 bound_to 7997
  154.4090  140.1666  156.2128 H   0  0  0  0  0  0  0  0  0  0  0  0  # atno 8009 bound_to 7997
  155.9460  140.3381  155.6371 H   0  0  0  0  0  0  0  0  0  0  0  0  # atno 8010 bound_to 7997
  140.5753  143.9085  150.6745 H   0  0  0  0  0  0  0  0  0  0  0  0  # atno 10167 bound_to 10162
  157.0802  131.0390  151.2578 H   0  0  0  0  0  0  0  0  0  0  0  0  # atno 10718 bound_to 10713
  154.4763  135.2773  155.1604 H   0  0  0  0  0  0  0  0  0  0  0  0  # atno 10763 bound_to 10752
  154.3332  135.6185  153.5565 H   0  0  0  0  0  0  0  0  0  0  0  0  # atno 10764 bound_to 10752
  152.9870  135.5770  154.5155 H   0  0  0  0  0  0  0  0  0  0  0  0  # atno 10765 bound_to 10752
  140.9762  133.7082  156.1606 H   0  0  0  0  0  0  0  0  0  0  0  0  # atno 11005 bound_to 11000
  146.2153  139.5538  142.9654 LP  0  0  0  0  0  0  0  0  0  0  0  0  # atno 17320 bound_to 7965
  145.5811  141.0382  143.2122 LP  0  0  0  0  0  0  0  0  0  0  0  0  # atno 17321 bound_to 7965
  140.2570  143.3551  152.1356 LP  0  0  0  0  0  0  0  0  0  0  0  0  # atno 17342 bound_to 10162
  139.5139  144.6940  151.5682 LP  0  0  0  0  0  0  0  0  0  0  0  0  # atno 17343 bound_to 10162
  157.4807  130.7763  149.7411 LP  0  0  0  0  0  0  0  0  0  0  0  0  # atno 17370 bound_to 10713
  155.9926  130.3930  150.2936 LP  0  0  0  0  0  0  0  0  0  0  0  0  # atno 17371 bound_to 10713
  140.7255  134.4311  157.5571 LP  0  0  0  0  0  0  0  0  0  0  0  0  # atno 17394 bound_to 11000
  139.8931  134.8738  156.2237 LP  0  0  0  0  0  0  0  0  0  0  0  0  # atno 17395 bound_to 11000

$$$$
