AV-unprocessed.smi:582|AV-procd|sdf|2995|dock1
  -GOLD-   2262023503D 1   1.00000     0.00000
 Structure written by MMmdl.
 26 27  0  0  0  0  0  0  0  0  2 V2000
  154.2196  135.3954  157.2396 O   0  0  0  0  0  0  0  0  0  0  0  0
  154.0778  135.9511  158.3517 C   0  0  0  0  0  0  0  0  0  0  0  0
  154.3068  135.3600  159.4304 O   0  5  0  0  0  0  0  0  0  0  0  0
  153.6153  137.3805  158.3923 C   0  0  0  0  0  0  0  0  0  0  0  0
  153.3315  138.0227  159.6182 C   0  0  0  0  0  0  0  0  0  0  0  0
  152.9014  139.3636  159.6077 C   0  0  0  0  0  0  0  0  0  0  0  0
  152.7672  140.0230  158.3691 C   0  0  0  0  0  0  0  0  0  0  0  0
  152.3411  141.3585  158.3530 N   0  0  0  0  0  0  0  0  0  0  0  0
  150.9097  141.5115  158.5804 C   0  0  0  0  0  0  0  0  0  0  0  0
  150.5073  142.9879  158.4230 C   0  0  0  0  0  0  0  0  0  0  0  0
  151.2860  143.7926  159.3043 O   0  0  0  0  0  0  0  0  0  0  0  0
  152.6807  143.6928  159.0293 C   0  0  0  0  0  0  0  0  0  0  0  0
  153.1378  142.2343  159.2035 C   0  0  0  0  0  0  0  0  0  0  0  0
  153.0361  139.4177  157.1881 N   0  0  0  0  0  0  0  0  0  0  0  0
  153.4486  138.1314  157.2062 C   0  0  0  0  0  0  0  0  0  0  0  0
  153.4385  137.5048  160.5602 H   0  0  0  0  0  0  0  0  0  0  0  0
  152.6797  139.8728  160.5341 H   0  0  0  0  0  0  0  0  0  0  0  0
  150.3549  140.8937  157.8729 H   0  0  0  0  0  0  0  0  0  0  0  0
  150.6552  141.1635  159.5825 H   0  0  0  0  0  0  0  0  0  0  0  0
  150.6446  143.3206  157.3929 H   0  0  0  0  0  0  0  0  0  0  0  0
  149.4518  143.1178  158.6620 H   0  0  0  0  0  0  0  0  0  0  0  0
  152.8893  144.0476  158.0188 H   0  0  0  0  0  0  0  0  0  0  0  0
  153.2256  144.3424  159.7144 H   0  0  0  0  0  0  0  0  0  0  0  0
  153.0299  141.9355  160.2472 H   0  0  0  0  0  0  0  0  0  0  0  0
  154.1934  142.1383  158.9466 H   0  0  0  0  0  0  0  0  0  0  0  0
  153.6490  137.6985  156.2370 H   0  0  0  0  0  0  0  0  0  0  0  0
  1  2  2  0  0  0  0
  2  3  1  0  0  0  0
  2  4  1  0  0  0  0
  4 15  1  0  0  0  0
  4  5  2  0  0  0  0
  5  6  1  0  0  0  0
  5 16  1  0  0  0  0
  6  7  2  0  0  0  0
  6 17  1  0  0  0  0
  7  8  1  0  0  0  0
  7 14  1  0  0  0  0
  8 13  1  0  0  0  0
  8  9  1  0  0  0  0
  9 10  1  0  0  0  0
  9 18  1  0  0  0  0
  9 19  1  0  0  0  0
 10 11  1  0  0  0  0
 10 20  1  0  0  0  0
 10 21  1  0  0  0  0
 11 12  1  0  0  0  0
 12 13  1  0  0  0  0
 12 22  1  0  0  0  0
 12 23  1  0  0  0  0
 13 24  1  0  0  0  0
 13 25  1  0  0  0  0
 14 15  2  0  0  0  0
 15 26  1  0  0  0  0
M  CHG  1   3  -1
M  END
> <s_m_source_file>
AV-unprocessed.smi

> <i_m_source_file_index>
582

> <i_lp_mmshare_version>
43012

> <i_f3d_flags>
0

> <s_epik_input>
Tz1DKFtPSF0pYzFbY0hdW2NIXWMobltjSF0xKU4yW0NIMl1bQ0gyXU9bQ0gyXVtDSDJdMg==

> <s_epik_cmdline>
J2VwaWtfcHl0aG9uJywgJy1waCcsICc3LjAnLCAnLXRuJywgJzgnLCAnLW1hJywgJzIwMCcsICctbWV0YWxfYmluZGluZycsICctaW1hZScsICc8aW5maWxlLm1hZT4nLCAnLW9tYWUnLCAnPG91dGZpbGUubWFlPic=

> <r_epik_Ionization_Penalty>
0.00875305

> <r_epik_Ionization_Penalty_Charging>
0.000191694

> <r_epik_Ionization_Penalty_Neutral>
0.00856136

> <r_epik_State_Penalty>
0.00645777

> <r_epik_Charging_Adjusted_Penalty>
0.00664946

> <i_epik_Tot_Q>
-1

> <i_epik_Tot_abs_Q>
1

> <r_epik_Metal_State_Penalty>
6.49305e-06

> <b_epik_Metal_Only>
0

> <s_lp_Force_Field>
OPLS_2005

> <r_lp_Energy>
18.8372

> <b_lp_Chiralities_Consistent>
1

> <s_lp_Variant>
AV-unprocessed.smi:582-1

> <Gold.Version>
5.8.1

> <Gold.Id.Protein>
6NUR|6NUR_protein|mol2

> <Gold.PLP.Fitness>
35.4504

> <Gold.PLP.PLP>
-20.8935

> <Gold.PLP.part.hbond>
-3.0000

> <Gold.PLP.part.metal>
0.0000

> <Gold.PLP.part.buried>
-2.0154

> <Gold.PLP.part.nonpolar>
-15.0274

> <Gold.PLP.part.repulsive>
0.0528

> <Gold.PLP.ligand.clash>
0.0000

> <Gold.PLP.ligand.torsion>
0.2723

> <Gold.PLP.Chemscore.Hbond>
5.0000

> <Gold.PLP.Chemscore.CHOScore>
0.0000

> <Gold.PLP.Chemscore.Metal>
0.0000

> <Gold.Chemscore.Hbonds>
donor molecule, donor type, donor heavy atom, donor atom, acceptor molecule, acceptor atom, score
      P1  H  6896  6909       L1     3  1.92
      P1  H  7997  8008       L1    14  0.95
      P1  H 10752 10764       L1     1  2.00

> <Gold.PLP.Chemscore.Internal.Correction>
0.1015

> <Gold.Rescore>
     Score         DG    S(hbond)    S(metal)    S(lipo)     H(rot)  DE(clash)    DE(int)     intcor
     16.64     -16.83       2.11        0.00      58.64       1.00       0.02       0.17       ----

> <Gold.Chemscore.Fitness>
16.6358

> <Gold.Chemscore.DG>
-16.8257

> <Gold.Chemscore.ZeroCoef>
-5.4800

> <Gold.Chemscore.Hbond>
2.1091

> <Gold.Chemscore.Metal>
0.0000

> <Gold.Chemscore.Lipo>
58.6437

> <Gold.Chemscore.Internal_Hbond>
0.0000

> <Gold.Chemscore.DEClash>
0.0215

> <Gold.Chemscore.DEInternal>
0.1685

> <Gold.Chemscore.Rot>
1.0000

> <Gold.Chemscore.Internal.Correction>
   9.000000E+99

> <Gold.Chemscore.Hbonds>
donor molecule, donor type, donor heavy atom, donor atom, acceptor molecule, acceptor atom, score
      P1  H  6896  6909       L1     3  0.41
      P1  H  7997  8008       L1    14  0.15
      P1  H 10752 10764       L1     1  1.00

> <Gold.Chemscore.Hbond.Weighted>
-7.0444

> <Gold.Chemscore.Metal.Weighted>
-0.0000

> <Gold.Chemscore.Lipo.Weighted>
-6.8613

> <Gold.Chemscore.Internal_Hbond.Weighted>
0.0000

> <Gold.Chemscore.DEClash.Weighted>
0.0215

> <Gold.Chemscore.DEInternal.Weighted>
0.1685

> <Gold.Chemscore.Rot.Weighted>
2.5600

> <Gold.Chemscore.Internal.Correction.Weighted>
   9.000000E+99

> <Gold.Protein.RotatedTorsions>
[ 6907 6896 6895 6894 ] final -178.46 input  -60.11 | X-H torsion
[ 7974 7965 7964 7962 ] final  -34.54 input  175.53 | X-H torsion
[ 8008 7997 7996 7995 ] final  -53.01 input   59.86 | X-H torsion
[ 10167 10162 10161 10158 ] final  -28.99 input  -65.29 | X-H torsion
[ 10718 10713 10712 10709 ] final  -27.47 input   66.30 | X-H torsion
[ 10763 10752 10751 10750 ] final   31.28 input  -60.55 | X-H torsion
[ 11005 11000 10999 10996 ] final  -14.08 input  -57.11 | X-H torsion

> <Gold.Protein.ActiveResidues>
 VAL166  LYS551  ARG553  GLY616  TRP617  ASP618  TYR619  PRO620  LYS621  CYS622 
 ASP623  PHE694  ASN695  SER759  ASP760  ASP761  ALA762  ILE779  LEU786  VAL792 
 PHE793  MET794  SER795  GLU796  ALA797  LYS798  CYS799  TRP800  GLU811  SER814 

> <Gold.Protein.RotatedAtoms>
  151.6376  133.3328  159.3122 H   0  0  0  0  0  0  0  0  0  0  0  0  # atno 6907 bound_to 6896
  150.8024  134.7131  159.6624 H   0  0  0  0  0  0  0  0  0  0  0  0  # atno 6908 bound_to 6896
  152.4117  134.6116  160.0078 H   0  0  0  0  0  0  0  0  0  0  0  0  # atno 6909 bound_to 6896
  146.0821  140.6050  142.8903 H   0  0  0  0  0  0  0  0  0  0  0  0  # atno 7974 bound_to 7965
  154.4122  140.1210  156.5085 H   0  0  0  0  0  0  0  0  0  0  0  0  # atno 8008 bound_to 7997
  155.6823  140.3496  155.4841 H   0  0  0  0  0  0  0  0  0  0  0  0  # atno 8009 bound_to 7997
  155.9541  140.1110  157.0942 H   0  0  0  0  0  0  0  0  0  0  0  0  # atno 8010 bound_to 7997
  140.7265  143.3965  151.1339 H   0  0  0  0  0  0  0  0  0  0  0  0  # atno 10167 bound_to 10162
  156.4377  130.4458  149.7074 H   0  0  0  0  0  0  0  0  0  0  0  0  # atno 10718 bound_to 10713
  153.0324  135.6443  154.1176 H   0  0  0  0  0  0  0  0  0  0  0  0  # atno 10763 bound_to 10752
  154.0896  135.2867  155.3276 H   0  0  0  0  0  0  0  0  0  0  0  0  # atno 10764 bound_to 10752
  154.6474  135.5438  153.7924 H   0  0  0  0  0  0  0  0  0  0  0  0  # atno 10765 bound_to 10752
  140.7827  133.8350  155.9307 H   0  0  0  0  0  0  0  0  0  0  0  0  # atno 11005 bound_to 11000
  144.7300  140.4644  143.6944 LP  0  0  0  0  0  0  0  0  0  0  0  0  # atno 17320 bound_to 7965
  145.6198  139.1523  143.3029 LP  0  0  0  0  0  0  0  0  0  0  0  0  # atno 17321 bound_to 7965
  139.7578  143.8681  152.3093 LP  0  0  0  0  0  0  0  0  0  0  0  0  # atno 17342 bound_to 10162
  139.8556  144.7142  150.9161 LP  0  0  0  0  0  0  0  0  0  0  0  0  # atno 17343 bound_to 10162
  156.3951  130.7647  151.2650 LP  0  0  0  0  0  0  0  0  0  0  0  0  # atno 17370 bound_to 10713
  157.7507  131.0256  150.3927 LP  0  0  0  0  0  0  0  0  0  0  0  0  # atno 17371 bound_to 10713
  140.9467  134.1832  157.4758 LP  0  0  0  0  0  0  0  0  0  0  0  0  # atno 17394 bound_to 11000
  139.8740  134.9893  156.5451 LP  0  0  0  0  0  0  0  0  0  0  0  0  # atno 17395 bound_to 11000

$$$$
