AV-unprocessed.smi:102|AV-procd|sdf|959|dock4
  -GOLD-   2262017493D 1   1.00000     0.00000
 Structure written by MMmdl.
 44 45  0  0  0  0  0  0  0  0  1 V2000
  147.8242  134.8934  161.3737 C   0  0  0  0  0  0  0  0  0  0  0  0
  148.2372  136.0752  160.5066 C   0  0  0  0  0  0  0  0  0  0  0  0
  147.9615  137.2332  160.8196 O   0  0  0  0  0  0  0  0  0  0  0  0
  148.9046  135.6919  159.4119 O   0  0  0  0  0  0  0  0  0  0  0  0
  149.3766  136.6603  158.4903 C   0  0  0  0  0  0  0  0  0  0  0  0
  150.1868  135.9985  157.3587 C   0  0  2  0  0  0  0  0  0  0  0  0
  151.5146  135.7689  157.8233 O   0  0  0  0  0  0  0  0  0  0  0  0
  152.4508  136.3732  156.9808 C   0  0  2  0  0  0  0  0  0  0  0  0
  153.5412  137.0059  157.8180 N   0  0  0  0  0  0  0  0  0  0  0  0
  153.2555  137.8574  158.8782 C   0  0  0  0  0  0  0  0  0  0  0  0
  154.2168  138.4658  159.6118 C   0  0  0  0  0  0  0  0  0  0  0  0
  153.8646  139.2826  160.6188 F   0  0  0  0  0  0  0  0  0  0  0  0
  155.6299  138.2505  159.3133 C   0  0  0  0  0  0  0  0  0  0  0  0
  156.5716  138.7532  159.9229 O   0  0  0  0  0  0  0  0  0  0  0  0
  155.8680  137.3970  158.2319 N   0  0  0  0  0  0  0  0  0  0  0  0
  154.8864  136.7691  157.4633 C   0  0  0  0  0  0  0  0  0  0  0  0
  155.2068  136.0520  156.5165 O   0  0  0  0  0  0  0  0  0  0  0  0
  151.7072  137.4012  156.1103 C   0  0  2  0  0  0  0  0  0  0  0  0
  151.7196  138.6876  156.7290 O   0  0  0  0  0  0  0  0  0  0  0  0
  151.2894  139.7736  156.0673 C   0  0  0  0  0  0  0  0  0  0  0  0
  151.2061  141.0003  156.9650 C   0  0  0  0  0  0  0  0  0  0  0  0
  150.9783  139.8240  154.8775 O   0  0  0  0  0  0  0  0  0  0  0  0
  150.3162  136.7853  156.0421 C   0  0  2  0  0  0  0  0  0  0  0  0
  149.3010  137.7577  155.8126 O   0  0  0  0  0  0  0  0  0  0  0  0
  148.0100  137.3917  155.7519 C   0  0  0  0  0  0  0  0  0  0  0  0
  147.0916  138.5630  155.4319 C   0  0  0  0  0  0  0  0  0  0  0  0
  147.5686  136.2575  155.9364 O   0  0  0  0  0  0  0  0  0  0  0  0
  156.8314  137.2260  157.9826 H   0  0  0  0  0  0  0  0  0  0  0  0
  147.4915  134.0615  160.7519 H   0  0  0  0  0  0  0  0  0  0  0  0
  147.0075  135.1746  162.0387 H   0  0  0  0  0  0  0  0  0  0  0  0
  148.6661  134.5588  161.9799 H   0  0  0  0  0  0  0  0  0  0  0  0
  148.5347  137.2071  158.0633 H   0  0  0  0  0  0  0  0  0  0  0  0
  149.9955  137.3860  159.0192 H   0  0  0  0  0  0  0  0  0  0  0  0
  149.7317  135.0314  157.1439 H   0  0  0  0  0  0  0  0  0  0  0  0
  152.9239  135.5824  156.3951 H   0  0  0  0  0  0  0  0  0  0  0  0
  152.2291  138.0648  159.1404 H   0  0  0  0  0  0  0  0  0  0  0  0
  152.1830  137.4365  155.1290 H   0  0  0  0  0  0  0  0  0  0  0  0
  150.2989  140.9642  157.5684 H   0  0  0  0  0  0  0  0  0  0  0  0
  151.1886  141.9115  156.3667 H   0  0  0  0  0  0  0  0  0  0  0  0
  152.0662  141.0432  157.6337 H   0  0  0  0  0  0  0  0  0  0  0  0
  150.3318  136.0690  155.2189 H   0  0  0  0  0  0  0  0  0  0  0  0
  147.4075  139.0512  154.5097 H   0  0  0  0  0  0  0  0  0  0  0  0
  147.1181  139.2950  156.2393 H   0  0  0  0  0  0  0  0  0  0  0  0
  146.0635  138.2218  155.3078 H   0  0  0  0  0  0  0  0  0  0  0  0
  1  2  1  0  0  0  0
  1 29  1  0  0  0  0
  1 30  1  0  0  0  0
  1 31  1  0  0  0  0
  2  3  2  0  0  0  0
  2  4  1  0  0  0  0
  4  5  1  0  0  0  0
  5  6  1  0  0  0  0
  5 32  1  0  0  0  0
  5 33  1  0  0  0  0
  6 23  1  0  0  0  0
  6  7  1  0  0  0  0
  6 34  1  0  0  0  0
  7  8  1  0  0  0  0
  8  9  1  0  0  0  0
  8 18  1  0  0  0  0
  8 35  1  0  0  0  0
  9 16  1  0  0  0  0
  9 10  1  0  0  0  0
 10 11  2  0  0  0  0
 10 36  1  0  0  0  0
 11 12  1  0  0  0  0
 11 13  1  0  0  0  0
 13 14  2  0  0  0  0
 13 15  1  0  0  0  0
 15 28  1  0  0  0  0
 15 16  1  0  0  0  0
 16 17  2  0  0  0  0
 18 19  1  0  0  0  0
 18 23  1  0  0  0  0
 18 37  1  0  0  0  0
 19 20  1  0  0  0  0
 20 21  1  0  0  0  0
 20 22  2  0  0  0  0
 21 38  1  0  0  0  0
 21 39  1  0  0  0  0
 21 40  1  0  0  0  0
 23 24  1  0  0  0  0
 23 41  1  0  0  0  0
 24 25  1  0  0  0  0
 25 26  1  0  0  0  0
 25 27  2  0  0  0  0
 26 42  1  0  0  0  0
 26 43  1  0  0  0  0
 26 44  1  0  0  0  0
M  END
> <s_m_source_file>
AV-unprocessed.smi

> <i_m_source_file_index>
102

> <i_lp_mmshare_version>
43012

> <i_f3d_flags>
0

> <s_epik_input>
W0NIM11DKD1PKU9bQ0gyXVtDQEBIXTFPW0NASF0oW0NAQEhdKE9DKD1PKVtDSDNdKVtDQEhdMU9DKD1PKVtDSDNdKW4yW2NIXWMoRiljKD1PKVtuSF1jMj1P

> <s_epik_cmdline>
J2VwaWtfcHl0aG9uJywgJy1waCcsICc3LjAnLCAnLXRuJywgJzgnLCAnLW1hJywgJzIwMCcsICctbWV0YWxfYmluZGluZycsICctaW1hZScsICc8aW5maWxlLm1hZT4nLCAnLW9tYWUnLCAnPG91dGZpbGUubWFlPic=

> <r_lp_tautomer_probability>
0.999537

> <r_epik_Ionization_Penalty>
0.058267

> <r_epik_Ionization_Penalty_Charging>
0.058267

> <r_epik_Ionization_Penalty_Neutral>
6.57791e-16

> <r_epik_State_Penalty>
0.0503774

> <r_epik_Charging_Adjusted_Penalty>
0.108644

> <i_epik_Tot_Q>
0

> <i_epik_Tot_abs_Q>
0

> <r_epik_Metal_State_Penalty>
2.6644

> <b_epik_Metal_Only>
0

> <s_epik_Chemistry_Notes>
This compound has an ester and may undergo hydrolysis at high or low pH. This compound contains an acetal/aminal-like group ( X-CH(R)-Y where X, Y are N, S, or O) that may be acid/base labile, releasing an aldehyde.

> <s_lp_Force_Field>
OPLS_2005

> <r_lp_Energy>
17.4488

> <b_lp_Chiralities_Consistent>
1

> <s_lp_Variant>
AV-unprocessed.smi:102-15

> <Gold.Version>
5.8.1

> <Gold.Id.Protein>
6NUR|6NUR_protein|mol2

> <Gold.PLP.Fitness>
35.1316

> <Gold.PLP.PLP>
-24.6286

> <Gold.PLP.part.hbond>
-5.6133

> <Gold.PLP.part.metal>
0.0000

> <Gold.PLP.part.buried>
-4.9618

> <Gold.PLP.part.nonpolar>
-14.8434

> <Gold.PLP.part.repulsive>
0.2406

> <Gold.PLP.ligand.clash>
0.0000

> <Gold.PLP.ligand.torsion>
0.5911

> <Gold.PLP.Chemscore.Hbond>
3.8253

> <Gold.PLP.Chemscore.CHOScore>
0.0000

> <Gold.PLP.Chemscore.Metal>
0.0000

> <Gold.Chemscore.Hbonds>
donor molecule, donor type, donor heavy atom, donor atom, acceptor molecule, acceptor atom, score
      P1  H  6896  6909       L1     7  0.13
      P1  H  6931  6943       L1     3  0.85
      P1  H  6934  6947       L1     3  0.77
      P1  H  7989  7998       L1    22  1.00
      P1  H 10752 10764       L1    17  1.00

> <Gold.PLP.Chemscore.Internal.Correction>
0.2092

> <Gold.Rescore>
     Score         DG    S(hbond)    S(metal)    S(lipo)     H(rot)  DE(clash)    DE(int)     intcor
      7.74     -12.41       3.88        0.00      37.02       4.05       0.01       4.66       ----

> <Gold.Chemscore.Fitness>
7.7415

> <Gold.Chemscore.DG>
-12.4093

> <Gold.Chemscore.ZeroCoef>
-5.4800

> <Gold.Chemscore.Hbond>
3.8835

> <Gold.Chemscore.Metal>
0.0000

> <Gold.Chemscore.Lipo>
37.0212

> <Gold.Chemscore.Internal_Hbond>
0.0000

> <Gold.Chemscore.DEClash>
0.0073

> <Gold.Chemscore.DEInternal>
4.6604

> <Gold.Chemscore.Rot>
4.0520

> <Gold.Chemscore.Internal.Correction>
   9.000000E+99

> <Gold.Chemscore.Hbonds>
donor molecule, donor type, donor heavy atom, donor atom, acceptor molecule, acceptor atom, score
      P1  H  6896  6909       L1     7  0.03
      P1  H  6931  6943       L1     3  0.84
      P1  H  6934  6947       L1     3  0.75
      P1  H  7989  7998       L1    22  1.00
      P1  H 10752 10764       L1    17  0.98

> <Gold.Chemscore.Hbond.Weighted>
-12.9709

> <Gold.Chemscore.Metal.Weighted>
-0.0000

> <Gold.Chemscore.Lipo.Weighted>
-4.3315

> <Gold.Chemscore.Internal_Hbond.Weighted>
0.0000

> <Gold.Chemscore.DEClash.Weighted>
0.0073

> <Gold.Chemscore.DEInternal.Weighted>
4.6604

> <Gold.Chemscore.Rot.Weighted>
10.3732

> <Gold.Chemscore.Internal.Correction.Weighted>
   9.000000E+99

> <Gold.Protein.RotatedTorsions>
[ 6907 6896 6895 6894 ] final   81.49 input  -60.11 | X-H torsion
[ 7974 7965 7964 7962 ] final  -16.84 input  175.53 | X-H torsion
[ 8008 7997 7996 7995 ] final  -25.23 input   59.86 | X-H torsion
[ 10167 10162 10161 10158 ] final -115.39 input  -65.29 | X-H torsion
[ 10718 10713 10712 10709 ] final  102.54 input   66.30 | X-H torsion
[ 10763 10752 10751 10750 ] final   60.79 input  -60.55 | X-H torsion
[ 11005 11000 10999 10996 ] final  172.65 input  -57.11 | X-H torsion

> <Gold.Protein.ActiveResidues>
 VAL166  LYS551  ARG553  GLY616  TRP617  ASP618  TYR619  PRO620  LYS621  CYS622 
 ASP623  PHE694  ASN695  SER759  ASP760  ASP761  ALA762  ILE779  LEU786  VAL792 
 PHE793  MET794  SER795  GLU796  ALA797  LYS798  CYS799  TRP800  GLU811  SER814 

> <Gold.Protein.RotatedAtoms>
  152.5270  134.3196  159.9143 H   0  0  0  0  0  0  0  0  0  0  0  0  # atno 6907 bound_to 6896
  151.3145  133.4060  159.2657 H   0  0  0  0  0  0  0  0  0  0  0  0  # atno 6908 bound_to 6896
  151.0010  134.9339  159.8011 H   0  0  0  0  0  0  0  0  0  0  0  0  # atno 6909 bound_to 6896
  146.1969  140.3693  142.8437 H   0  0  0  0  0  0  0  0  0  0  0  0  # atno 7974 bound_to 7965
  154.4486  140.1932  156.0588 H   0  0  0  0  0  0  0  0  0  0  0  0  # atno 8008 bound_to 7997
  156.0599  140.3298  155.7422 H   0  0  0  0  0  0  0  0  0  0  0  0  # atno 8009 bound_to 7997
  155.5428  140.0588  157.2857 H   0  0  0  0  0  0  0  0  0  0  0  0  # atno 8010 bound_to 7997
  140.0906  143.4703  152.1872 H   0  0  0  0  0  0  0  0  0  0  0  0  # atno 10167 bound_to 10162
  157.6799  131.0756  150.5420 H   0  0  0  0  0  0  0  0  0  0  0  0  # atno 10718 bound_to 10713
  152.9931  135.5523  154.5931 H   0  0  0  0  0  0  0  0  0  0  0  0  # atno 10763 bound_to 10752
  154.5288  135.2812  155.1200 H   0  0  0  0  0  0  0  0  0  0  0  0  # atno 10764 bound_to 10752
  154.2524  135.6396  153.5298 H   0  0  0  0  0  0  0  0  0  0  0  0  # atno 10765 bound_to 10752
  140.3320  134.7349  157.4141 H   0  0  0  0  0  0  0  0  0  0  0  0  # atno 11005 bound_to 11000
  144.8599  140.7125  143.6114 LP  0  0  0  0  0  0  0  0  0  0  0  0  # atno 17320 bound_to 7965
  145.3614  139.1681  143.4381 LP  0  0  0  0  0  0  0  0  0  0  0  0  # atno 17321 bound_to 7965
  139.5727  144.7471  151.3849 LP  0  0  0  0  0  0  0  0  0  0  0  0  # atno 17342 bound_to 10162
  140.7030  143.7584  150.7435 LP  0  0  0  0  0  0  0  0  0  0  0  0  # atno 17343 bound_to 10162
  156.5727  130.4284  149.6012 LP  0  0  0  0  0  0  0  0  0  0  0  0  # atno 17370 bound_to 10713
  156.2727  130.7026  151.1828 LP  0  0  0  0  0  0  0  0  0  0  0  0  # atno 17371 bound_to 10713
  140.0852  134.5676  155.8499 LP  0  0  0  0  0  0  0  0  0  0  0  0  # atno 17394 bound_to 11000
  141.2061  133.6652  156.6220 LP  0  0  0  0  0  0  0  0  0  0  0  0  # atno 17395 bound_to 11000

$$$$
