AV-unprocessed.smi:1527|AV-procd|sdf|6147|dock9
  -GOLD-   22720 6293D 1   1.00000     0.00000
 Structure written by MMmdl.
 30 30  0  0  0  0  0  0  0  0  2 V2000
  153.0508  142.5252  161.3391 C   0  0  0  0  0  0  0  0  0  0  0  0
  152.5349  143.6582  160.4401 C   0  0  0  0  0  0  0  0  0  0  0  0
  152.6643  143.3623  158.9338 C   0  0  2  0  0  0  0  0  0  0  0  0
  152.1744  144.5449  158.0824 C   0  0  0  0  0  0  0  0  0  0  0  0
  151.9177  142.1542  158.5905 N   0  0  0  0  0  0  0  0  0  0  0  0
  152.4220  140.9114  158.5474 C   0  0  0  0  0  0  0  0  0  0  0  0
  153.5994  140.6532  158.8028 O   0  0  0  0  0  0  0  0  0  0  0  0
  151.4276  139.8022  158.1699 C   0  0  0  0  0  0  0  0  0  0  0  0
  151.5084  139.3777  156.7645 N   0  0  0  0  0  0  0  0  0  0  0  0
  152.8485  138.9775  156.3444 N   0  5  0  0  0  0  0  0  0  0  0  0
  153.0505  138.5875  155.0578 C   0  0  0  0  0  0  0  0  0  0  0  0
  154.1525  138.2546  154.6275 O   0  0  0  0  0  0  0  0  0  0  0  0
  151.9056  138.5622  154.1627 C   0  0  0  0  0  0  0  0  0  0  0  0
  150.6745  138.9116  154.5851 C   0  0  0  0  0  0  0  0  0  0  0  0
  150.4126  139.3411  155.9534 C   0  0  0  0  0  0  0  0  0  0  0  0
  149.2884  139.6511  156.3490 O   0  0  0  0  0  0  0  0  0  0  0  0
  152.9790  142.8034  162.3906 H   0  0  0  0  0  0  0  0  0  0  0  0
  154.0960  142.3000  161.1262 H   0  0  0  0  0  0  0  0  0  0  0  0
  152.4754  141.6093  161.2018 H   0  0  0  0  0  0  0  0  0  0  0  0
  151.4938  143.8692  160.6879 H   0  0  0  0  0  0  0  0  0  0  0  0
  153.0912  144.5664  160.6745 H   0  0  0  0  0  0  0  0  0  0  0  0
  153.7217  143.2007  158.7162 H   0  0  0  0  0  0  0  0  0  0  0  0
  152.7325  145.4521  158.3146 H   0  0  0  0  0  0  0  0  0  0  0  0
  151.1178  144.7498  158.2577 H   0  0  0  0  0  0  0  0  0  0  0  0
  152.3026  144.3461  157.0178 H   0  0  0  0  0  0  0  0  0  0  0  0
  150.9390  142.2713  158.3723 H   0  0  0  0  0  0  0  0  0  0  0  0
  151.6014  138.9551  158.8357 H   0  0  0  0  0  0  0  0  0  0  0  0
  150.4128  140.1404  158.3865 H   0  0  0  0  0  0  0  0  0  0  0  0
  152.0448  138.2537  153.1371 H   0  0  0  0  0  0  0  0  0  0  0  0
  149.8523  138.8760  153.8861 H   0  0  0  0  0  0  0  0  0  0  0  0
  1  2  1  0  0  0  0
  1 17  1  0  0  0  0
  1 18  1  0  0  0  0
  1 19  1  0  0  0  0
  2  3  1  0  0  0  0
  2 20  1  0  0  0  0
  2 21  1  0  0  0  0
  3  4  1  0  0  0  0
  3  5  1  0  0  0  0
  3 22  1  0  0  0  0
  4 23  1  0  0  0  0
  4 24  1  0  0  0  0
  4 25  1  0  0  0  0
  5  6  1  0  0  0  0
  5 26  1  0  0  0  0
  6  7  2  0  0  0  0
  6  8  1  0  0  0  0
  8 27  1  0  0  0  0
  8 28  1  0  0  0  0
  8  9  1  0  0  0  0
  9 10  1  0  0  0  0
  9 15  1  0  0  0  0
 10 11  1  0  0  0  0
 11 12  2  0  0  0  0
 11 13  1  0  0  0  0
 13 29  1  0  0  0  0
 13 14  2  0  0  0  0
 14 30  1  0  0  0  0
 14 15  1  0  0  0  0
 15 16  2  0  0  0  0
M  CHG  1  10  -1
M  END
> <s_m_source_file>
AV-unprocessed.smi

> <i_m_source_file_index>
1527

> <i_lp_mmshare_version>
43012

> <i_f3d_flags>
0

> <s_epik_input>
W0NIM11bQ0gyXVtDQEhdKFtDSDNdKVtOSF1DKD1PKVtDSDJdbjFbbkhdYyg9TylbY0hdW2NIXWMxPU8=

> <s_epik_cmdline>
J2VwaWtfcHl0aG9uJywgJy1waCcsICc3LjAnLCAnLXRuJywgJzgnLCAnLW1hJywgJzIwMCcsICctbWV0YWxfYmluZGluZycsICctaW1hZScsICc8aW5maWxlLm1hZT4nLCAnLW9tYWUnLCAnPG91dGZpbGUubWFlPic=

> <r_lp_tautomer_probability>
1

> <r_epik_Ionization_Penalty>
0.0984334

> <r_epik_Ionization_Penalty_Charging>
0.0984334

> <r_epik_Ionization_Penalty_Neutral>
1.93017e-08

> <r_epik_State_Penalty>
0.0346952

> <r_epik_Charging_Adjusted_Penalty>
0.133129

> <i_epik_Tot_Q>
-1

> <i_epik_Tot_abs_Q>
1

> <r_epik_Metal_State_Penalty>
0.0346952

> <b_epik_Metal_Only>
0

> <s_lp_Force_Field>
OPLS_2005

> <r_lp_Energy>
18.7632

> <b_lp_Chiralities_Consistent>
1

> <s_lp_Variant>
AV-unprocessed.smi:1527-1

> <Gold.Version>
5.8.1

> <Gold.Id.Protein>
6NUR|6NUR_protein|mol2

> <Gold.PLP.Fitness>
39.7643

> <Gold.PLP.PLP>
-35.1191

> <Gold.PLP.part.hbond>
-3.9410

> <Gold.PLP.part.metal>
0.0000

> <Gold.PLP.part.buried>
-3.2326

> <Gold.PLP.part.nonpolar>
-28.0740

> <Gold.PLP.part.repulsive>
0.0737

> <Gold.PLP.ligand.clash>
0.0000

> <Gold.PLP.ligand.torsion>
0.6841

> <Gold.PLP.Chemscore.Hbond>
2.0000

> <Gold.PLP.Chemscore.CHOScore>
0.0000

> <Gold.PLP.Chemscore.Metal>
0.0000

> <Gold.Chemscore.Hbonds>
donor molecule, donor type, donor heavy atom, donor atom, acceptor molecule, acceptor atom, score
      P1  H  7997  8009       L1    10  1.92

> <Gold.PLP.Chemscore.Internal.Correction>
0.0133

> <Gold.Rescore>
     Score         DG    S(hbond)    S(metal)    S(lipo)     H(rot)  DE(clash)    DE(int)     intcor
      9.45     -10.13       0.29        0.00      73.89       1.94       0.11       0.56       ----

> <Gold.Chemscore.Fitness>
9.4510

> <Gold.Chemscore.DG>
-10.1293

> <Gold.Chemscore.ZeroCoef>
-5.4800

> <Gold.Chemscore.Hbond>
0.2943

> <Gold.Chemscore.Metal>
0.0000

> <Gold.Chemscore.Lipo>
73.8923

> <Gold.Chemscore.Internal_Hbond>
0.0000

> <Gold.Chemscore.DEClash>
0.1133

> <Gold.Chemscore.DEInternal>
0.5649

> <Gold.Chemscore.Rot>
1.9449

> <Gold.Chemscore.Internal.Correction>
   9.000000E+99

> <Gold.Chemscore.Hbonds>
donor molecule, donor type, donor heavy atom, donor atom, acceptor molecule, acceptor atom, score
      P1  H  7997  8009       L1    10  0.36

> <Gold.Chemscore.Hbond.Weighted>
-0.9829

> <Gold.Chemscore.Metal.Weighted>
-0.0000

> <Gold.Chemscore.Lipo.Weighted>
-8.6454

> <Gold.Chemscore.Internal_Hbond.Weighted>
0.0000

> <Gold.Chemscore.DEClash.Weighted>
0.1133

> <Gold.Chemscore.DEInternal.Weighted>
0.5649

> <Gold.Chemscore.Rot.Weighted>
4.9791

> <Gold.Chemscore.Internal.Correction.Weighted>
   9.000000E+99

> <Gold.Protein.RotatedTorsions>
[ 6907 6896 6895 6894 ] final -101.92 input  -60.11 | X-H torsion
[ 7974 7965 7964 7962 ] final   -8.17 input  175.53 | X-H torsion
[ 8008 7997 7996 7995 ] final  171.73 input   59.86 | X-H torsion
[ 10167 10162 10161 10158 ] final -173.37 input  -65.29 | X-H torsion
[ 10718 10713 10712 10709 ] final -177.96 input   66.30 | X-H torsion
[ 10763 10752 10751 10750 ] final -162.05 input  -60.55 | X-H torsion
[ 11005 11000 10999 10996 ] final  163.71 input  -57.11 | X-H torsion

> <Gold.Protein.ActiveResidues>
 VAL166  LYS551  ARG553  GLY616  TRP617  ASP618  TYR619  PRO620  LYS621  CYS622 
 ASP623  PHE694  ASN695  SER759  ASP760  ASP761  ALA762  ILE779  LEU786  VAL792 
 PHE793  MET794  SER795  GLU796  ALA797  LYS798  CYS799  TRP800  GLU811  SER814 

> <Gold.Protein.RotatedAtoms>
  150.7174  134.0661  159.3847 H   0  0  0  0  0  0  0  0  0  0  0  0  # atno 6907 bound_to 6896
  151.8642  135.0511  160.0482 H   0  0  0  0  0  0  0  0  0  0  0  0  # atno 6908 bound_to 6896
  152.2694  133.5333  159.5466 H   0  0  0  0  0  0  0  0  0  0  0  0  # atno 6909 bound_to 6896
  146.2288  140.2428  142.8344 H   0  0  0  0  0  0  0  0  0  0  0  0  # atno 7974 bound_to 7965
  156.1243  140.1504  156.9159 H   0  0  0  0  0  0  0  0  0  0  0  0  # atno 8008 bound_to 7997
  154.4860  140.0865  156.7527 H   0  0  0  0  0  0  0  0  0  0  0  0  # atno 8009 bound_to 7997
  155.4371  140.3429  155.4288 H   0  0  0  0  0  0  0  0  0  0  0  0  # atno 8010 bound_to 7997
  139.5692  144.1682  152.1358 H   0  0  0  0  0  0  0  0  0  0  0  0  # atno 10167 bound_to 10162
  156.8372  130.9674  151.3102 H   0  0  0  0  0  0  0  0  0  0  0  0  # atno 10718 bound_to 10713
  154.7249  135.3033  154.8987 H   0  0  0  0  0  0  0  0  0  0  0  0  # atno 10763 bound_to 10752
  153.9847  135.6726  153.4755 H   0  0  0  0  0  0  0  0  0  0  0  0  # atno 10764 bound_to 10752
  153.0866  135.4981  154.8528 H   0  0  0  0  0  0  0  0  0  0  0  0  # atno 10765 bound_to 10752
  140.2385  134.8069  157.3388 H   0  0  0  0  0  0  0  0  0  0  0  0  # atno 11005 bound_to 11000
  144.9471  140.8140  143.5594 LP  0  0  0  0  0  0  0  0  0  0  0  0  # atno 17320 bound_to 7965
  145.2385  139.2083  143.5005 LP  0  0  0  0  0  0  0  0  0  0  0  0  # atno 17321 bound_to 7965
  140.1211  144.5372  150.6862 LP  0  0  0  0  0  0  0  0  0  0  0  0  # atno 17342 bound_to 10162
  140.6976  143.2414  151.4956 LP  0  0  0  0  0  0  0  0  0  0  0  0  # atno 17343 bound_to 10162
  157.6375  130.8778  149.9386 LP  0  0  0  0  0  0  0  0  0  0  0  0  # atno 17370 bound_to 10713
  156.0901  130.3664  150.0412 LP  0  0  0  0  0  0  0  0  0  0  0  0  # atno 17371 bound_to 10713
  140.1677  134.4648  155.7852 LP  0  0  0  0  0  0  0  0  0  0  0  0  # atno 17394 bound_to 11000
  141.2212  133.6928  156.7654 LP  0  0  0  0  0  0  0  0  0  0  0  0  # atno 17395 bound_to 11000

$$$$
