AV-unprocessed.smi:2954|AV-procd|sdf|11298|dock7
  -GOLD-   2272016193D 1   1.00000     0.00000
 Structure written by MMmdl.
 42 44  0  0  0  0  0  0  0  0  1 V2000
  149.0807  140.9269  155.9133 C   0  0  0  0  0  0  0  0  0  0  0  0
  149.5788  139.6771  156.6505 C   0  0  1  0  0  0  0  0  0  0  0  0
  150.0563  138.6813  155.6944 N   0  0  0  0  0  0  0  0  0  0  0  0
  151.0811  138.8723  154.8534 C   0  0  0  0  0  0  0  0  0  0  0  0
  151.7285  139.9151  154.8080 O   0  0  0  0  0  0  0  0  0  0  0  0
  150.6896  139.9976  157.6202 C   0  0  0  0  0  0  0  0  0  0  0  0
  151.1976  141.2280  157.7347 N   0  0  0  0  0  0  0  0  0  0  0  0
  152.1754  141.0703  158.6959 C   0  0  0  0  0  0  0  0  0  0  0  0
  153.0779  142.0062  159.2497 C   0  0  0  0  0  0  0  0  0  0  0  0
  154.0078  141.6062  160.2314 C   0  0  0  0  0  0  0  0  0  0  0  0
  154.0477  140.2680  160.6728 C   0  0  0  0  0  0  0  0  0  0  0  0
  153.1550  139.3208  160.1358 C   0  0  0  0  0  0  0  0  0  0  0  0
  152.2279  139.7252  159.1563 C   0  0  0  0  0  0  0  0  0  0  0  0
  151.2379  139.0612  158.4373 N   0  0  0  0  0  0  0  0  0  0  0  0
  150.9059  137.6473  158.5544 C   0  0  0  0  0  0  0  0  0  0  0  0
  149.4440  137.4332  158.9747 C   0  0  0  0  0  0  0  0  0  0  0  0
  149.2568  136.0640  159.3067 O   0  0  0  0  0  0  0  0  0  0  0  0
  148.4164  135.7487  160.3517 C   0  0  0  0  0  0  0  0  0  0  0  0
  148.0909  136.6463  161.4000 C   0  0  0  0  0  0  0  0  0  0  0  0
  147.2218  136.2498  162.4345 C   0  0  0  0  0  0  0  0  0  0  0  0
  146.6704  134.9556  162.4368 C   0  0  0  0  0  0  0  0  0  0  0  0
  146.9905  134.0565  161.4030 C   0  0  0  0  0  0  0  0  0  0  0  0
  147.8594  134.4507  160.3666 C   0  0  0  0  0  0  0  0  0  0  0  0
  148.2319  133.3327  159.1030 Cl  0  0  0  0  0  0  0  0  0  0  0  0
  148.7025  141.6684  156.6177 H   0  0  0  0  0  0  0  0  0  0  0  0
  148.2707  140.6815  155.2258 H   0  0  0  0  0  0  0  0  0  0  0  0
  149.8793  141.3939  155.3357 H   0  0  0  0  0  0  0  0  0  0  0  0
  148.7301  139.2454  157.1791 H   0  0  0  0  0  0  0  0  0  0  0  0
  149.5754  137.7939  155.6710 H   0  0  0  0  0  0  0  0  0  0  0  0
  151.2673  137.9891  154.2233 H   0  0  0  0  0  0  0  0  0  0  0  0
  153.0566  143.0332  158.9162 H   0  0  0  0  0  0  0  0  0  0  0  0
  154.6946  142.3292  160.6464 H   0  0  0  0  0  0  0  0  0  0  0  0
  154.7647  139.9682  161.4229 H   0  0  0  0  0  0  0  0  0  0  0  0
  153.1881  138.2944  160.4687 H   0  0  0  0  0  0  0  0  0  0  0  0
  151.0814  137.1717  157.5892 H   0  0  0  0  0  0  0  0  0  0  0  0
  151.5906  137.1678  159.2542 H   0  0  0  0  0  0  0  0  0  0  0  0
  149.2052  138.0663  159.8302 H   0  0  0  0  0  0  0  0  0  0  0  0
  148.7840  137.7172  158.1549 H   0  0  0  0  0  0  0  0  0  0  0  0
  148.5001  137.6445  161.4345 H   0  0  0  0  0  0  0  0  0  0  0  0
  146.9789  136.9403  163.2287 H   0  0  0  0  0  0  0  0  0  0  0  0
  146.0034  134.6529  163.2304 H   0  0  0  0  0  0  0  0  0  0  0  0
  146.5671  133.0628  161.4051 H   0  0  0  0  0  0  0  0  0  0  0  0
  1  2  1  0  0  0  0
  1 25  1  0  0  0  0
  1 26  1  0  0  0  0
  1 27  1  0  0  0  0
  2  3  1  0  0  0  0
  2  6  1  0  0  0  0
  2 28  1  0  0  0  0
  3  4  1  0  0  0  0
  3 29  1  0  0  0  0
  4  5  2  0  0  0  0
  4 30  1  0  0  0  0
  6 14  1  0  0  0  0
  6  7  2  0  0  0  0
  7  8  1  0  0  0  0
  8 13  2  0  0  0  0
  8  9  1  0  0  0  0
  9 10  2  0  0  0  0
  9 31  1  0  0  0  0
 10 11  1  0  0  0  0
 10 32  1  0  0  0  0
 11 12  2  0  0  0  0
 11 33  1  0  0  0  0
 12 13  1  0  0  0  0
 12 34  1  0  0  0  0
 13 14  1  0  0  0  0
 14 15  1  0  0  0  0
 15 16  1  0  0  0  0
 15 35  1  0  0  0  0
 15 36  1  0  0  0  0
 16 17  1  0  0  0  0
 16 37  1  0  0  0  0
 16 38  1  0  0  0  0
 17 18  1  0  0  0  0
 18 23  1  0  0  0  0
 18 19  2  0  0  0  0
 19 20  1  0  0  0  0
 19 39  1  0  0  0  0
 20 21  2  0  0  0  0
 20 40  1  0  0  0  0
 21 22  1  0  0  0  0
 21 41  1  0  0  0  0
 22 23  2  0  0  0  0
 22 42  1  0  0  0  0
 23 24  1  0  0  0  0
M  END
> <s_m_source_file>
AV-unprocessed.smi

> <i_m_source_file_index>
2954

> <i_lp_mmshare_version>
43012

> <i_f3d_flags>
0

> <s_epik_input>
Tz1bQ0hdW05IXVtDQEBIXShbQ0gzXSljKG4xKW4oYyhjMTIpW2NIXVtjSF1bY0hdW2NIXTIpW0NIMl1bQ0gyXU9jM1tjSF1bY0hdW2NIXVtjSF1jM0Ns

> <s_epik_cmdline>
J2VwaWtfcHl0aG9uJywgJy1waCcsICc3LjAnLCAnLXRuJywgJzgnLCAnLW1hJywgJzIwMCcsICctbWV0YWxfYmluZGluZycsICctaW1hZScsICc8aW5maWxlLm1hZT4nLCAnLW9tYWUnLCAnPG91dGZpbGUubWFlPic=

> <r_lp_tautomer_probability>
1

> <r_epik_Ionization_Penalty>
0.0861383

> <r_epik_Ionization_Penalty_Charging>
0

> <r_epik_Ionization_Penalty_Neutral>
0.0861383

> <r_epik_State_Penalty>
0.0766841

> <r_epik_Charging_Adjusted_Penalty>
0.0766841

> <i_epik_Tot_Q>
0

> <i_epik_Tot_abs_Q>
0

> <r_epik_Metal_State_Penalty>
0.0668745

> <b_epik_Metal_Only>
0

> <s_lp_Force_Field>
OPLS_2005

> <r_lp_Energy>
11.8377

> <b_lp_Chiralities_Consistent>
1

> <s_lp_Variant>
AV-unprocessed.smi:2954-2

> <Gold.Version>
5.8.1

> <Gold.Id.Protein>
6NUR|6NUR_protein|mol2

> <Gold.PLP.Fitness>
48.3396

> <Gold.PLP.PLP>
-43.5258

> <Gold.PLP.part.hbond>
-2.0000

> <Gold.PLP.part.metal>
0.0000

> <Gold.PLP.part.buried>
-4.9032

> <Gold.PLP.part.nonpolar>
-37.1960

> <Gold.PLP.part.repulsive>
0.0968

> <Gold.PLP.ligand.clash>
0.0000

> <Gold.PLP.ligand.torsion>
0.6222

> <Gold.PLP.Chemscore.Hbond>
2.0000

> <Gold.PLP.Chemscore.CHOScore>
0.0000

> <Gold.PLP.Chemscore.Metal>
0.0000

> <Gold.Chemscore.Hbonds>
donor molecule, donor type, donor heavy atom, donor atom, acceptor molecule, acceptor atom, score
      P1  H  6896  6907       L1    17  1.00
      P1  H  7989  7998       L1     5  1.00

> <Gold.PLP.Chemscore.Internal.Correction>
0.0582

> <Gold.Rescore>
     Score         DG    S(hbond)    S(metal)    S(lipo)     H(rot)  DE(clash)    DE(int)     intcor
     16.38     -18.33       1.79        0.00     108.86       2.28       0.05       1.90       ----

> <Gold.Chemscore.Fitness>
16.3806

> <Gold.Chemscore.DG>
-18.3302

> <Gold.Chemscore.ZeroCoef>
-5.4800

> <Gold.Chemscore.Hbond>
1.7854

> <Gold.Chemscore.Metal>
0.0000

> <Gold.Chemscore.Lipo>
108.8579

> <Gold.Chemscore.Internal_Hbond>
0.0000

> <Gold.Chemscore.DEClash>
0.0456

> <Gold.Chemscore.DEInternal>
1.9040

> <Gold.Chemscore.Rot>
2.2849

> <Gold.Chemscore.Internal.Correction>
   9.000000E+99

> <Gold.Chemscore.Hbonds>
donor molecule, donor type, donor heavy atom, donor atom, acceptor molecule, acceptor atom, score
      P1  H  6896  6907       L1    17  0.24
      P1  H  7989  7998       L1     5  0.94

> <Gold.Chemscore.Hbond.Weighted>
-5.9633

> <Gold.Chemscore.Metal.Weighted>
-0.0000

> <Gold.Chemscore.Lipo.Weighted>
-12.7364

> <Gold.Chemscore.Internal_Hbond.Weighted>
0.0000

> <Gold.Chemscore.DEClash.Weighted>
0.0456

> <Gold.Chemscore.DEInternal.Weighted>
1.9040

> <Gold.Chemscore.Rot.Weighted>
5.8495

> <Gold.Chemscore.Internal.Correction.Weighted>
   9.000000E+99

> <Gold.Protein.RotatedTorsions>
[ 6907 6896 6895 6894 ] final  -57.53 input  -60.11 | X-H torsion
[ 7974 7965 7964 7962 ] final  146.34 input  175.53 | X-H torsion
[ 8008 7997 7996 7995 ] final  -65.59 input   59.86 | X-H torsion
[ 10167 10162 10161 10158 ] final -134.58 input  -65.29 | X-H torsion
[ 10718 10713 10712 10709 ] final    1.82 input   66.30 | X-H torsion
[ 10763 10752 10751 10750 ] final  -57.37 input  -60.55 | X-H torsion
[ 11005 11000 10999 10996 ] final  110.67 input  -57.11 | X-H torsion

> <Gold.Protein.ActiveResidues>
 VAL166  LYS551  ARG553  GLY616  TRP617  ASP618  TYR619  PRO620  LYS621  CYS622 
 ASP623  PHE694  ASN695  SER759  ASP760  ASP761  ALA762  ILE779  LEU786  VAL792 
 PHE793  MET794  SER795  GLU796  ALA797  LYS798  CYS799  TRP800  GLU811  SER814 

> <Gold.Protein.RotatedAtoms>
  150.8079  134.7216  159.6660 H   0  0  0  0  0  0  0  0  0  0  0  0  # atno 6907 bound_to 6896
  152.4199  134.5971  160.0000 H   0  0  0  0  0  0  0  0  0  0  0  0  # atno 6908 bound_to 6896
  151.6190  133.3303  159.3120 H   0  0  0  0  0  0  0  0  0  0  0  0  # atno 6909 bound_to 6896
  144.8679  139.5893  143.5900 H   0  0  0  0  0  0  0  0  0  0  0  0  # atno 7974 bound_to 7965
  154.4681  140.0930  156.7074 H   0  0  0  0  0  0  0  0  0  0  0  0  # atno 8008 bound_to 7997
  155.4800  140.3467  155.4320 H   0  0  0  0  0  0  0  0  0  0  0  0  # atno 8009 bound_to 7997
  156.0992  140.1417  156.9479 H   0  0  0  0  0  0  0  0  0  0  0  0  # atno 8010 bound_to 7997
  139.8866  143.6774  152.2619 H   0  0  0  0  0  0  0  0  0  0  0  0  # atno 10167 bound_to 10162
  156.8539  130.5563  149.5667 H   0  0  0  0  0  0  0  0  0  0  0  0  # atno 10718 bound_to 10713
  154.2213  135.6377  153.5145 H   0  0  0  0  0  0  0  0  0  0  0  0  # atno 10763 bound_to 10752
  152.9968  135.5497  154.6111 H   0  0  0  0  0  0  0  0  0  0  0  0  # atno 10764 bound_to 10752
  154.5572  135.2906  155.0927 H   0  0  0  0  0  0  0  0  0  0  0  0  # atno 10765 bound_to 10752
  139.8887  134.9489  156.6314 H   0  0  0  0  0  0  0  0  0  0  0  0  # atno 11005 bound_to 11000
  146.2909  139.7136  142.9162 LP  0  0  0  0  0  0  0  0  0  0  0  0  # atno 17320 bound_to 7965
  145.4187  141.0404  143.2976 LP  0  0  0  0  0  0  0  0  0  0  0  0  # atno 17321 bound_to 7965
  139.7148  144.7614  151.1052 LP  0  0  0  0  0  0  0  0  0  0  0  0  # atno 17342 bound_to 10162
  140.7734  143.5284  150.9453 LP  0  0  0  0  0  0  0  0  0  0  0  0  # atno 17343 bound_to 10162
  156.0813  130.5823  150.9568 LP  0  0  0  0  0  0  0  0  0  0  0  0  # atno 17370 bound_to 10713
  157.6288  131.0923  150.8482 LP  0  0  0  0  0  0  0  0  0  0  0  0  # atno 17371 bound_to 10713
  140.7663  133.8775  155.8457 LP  0  0  0  0  0  0  0  0  0  0  0  0  # atno 17394 bound_to 11000
  140.9879  134.1317  157.4435 LP  0  0  0  0  0  0  0  0  0  0  0  0  # atno 17395 bound_to 11000

$$$$
