AV-unprocessed.smi:2997|AV-procd|sdf|11412|dock3
  -GOLD-   2272016333D 1   1.00000     0.00000
 Structure written by MMmdl.
 38 40  0  0  0  0  0  0  0  0  1 V2000
  152.6500  143.1336  161.4528 C   0  0  0  0  0  0  0  0  0  0  0  0
  152.1453  142.7484  160.0734 C   0  0  0  0  0  0  0  0  0  0  0  0
  152.6169  141.5572  159.4771 C   0  0  0  0  0  0  0  0  0  0  0  0
  152.1692  141.1611  158.1977 C   0  0  0  0  0  0  0  0  0  0  0  0
  152.4921  140.0510  157.4359 N   0  0  0  0  0  0  0  0  0  0  0  0
  151.7493  140.2464  156.3498 C   0  0  0  0  0  0  0  0  0  0  0  0
  150.9842  141.3546  156.3175 N   0  0  0  0  0  0  0  0  0  0  0  0
  150.0962  141.7779  155.2500 C   0  0  0  0  0  0  0  0  0  0  0  0
  149.2269  140.6240  154.7166 C   0  0  2  0  0  0  0  0  0  0  0  0
  150.0253  139.7455  153.9455 O   0  0  0  0  0  0  0  0  0  0  0  0
  148.0465  141.1367  153.8700 C   0  0  0  0  0  0  0  0  0  0  0  0
  147.0939  141.9037  154.6536 N   0  0  0  0  0  0  0  0  0  0  0  0
  146.0183  142.6418  154.2063 C   0  0  0  0  0  0  0  0  0  0  0  0
  145.4170  143.1896  155.3029 C   0  0  0  0  0  0  0  0  0  0  0  0
  146.2075  142.7230  156.3902 C   0  0  0  0  0  0  0  0  0  0  0  0
  147.2103  141.9537  155.9984 N   0  0  0  0  0  0  0  0  0  0  0  0
  151.2295  141.9964  157.5260 C   0  0  0  0  0  0  0  0  0  0  0  0
  150.7540  143.1847  158.1080 C   0  0  0  0  0  0  0  0  0  0  0  0
  151.2122  143.5661  159.3865 C   0  0  0  0  0  0  0  0  0  0  0  0
  150.6956  144.8529  160.0055 C   0  0  0  0  0  0  0  0  0  0  0  0
  153.3665  142.4046  161.8327 H   0  0  0  0  0  0  0  0  0  0  0  0
  151.8222  143.1887  162.1603 H   0  0  0  0  0  0  0  0  0  0  0  0
  153.1449  144.1043  161.4223 H   0  0  0  0  0  0  0  0  0  0  0  0
  153.3284  140.9348  159.9996 H   0  0  0  0  0  0  0  0  0  0  0  0
  151.7586  139.5420  155.5307 H   0  0  0  0  0  0  0  0  0  0  0  0
  149.4641  142.5796  155.6335 H   0  0  0  0  0  0  0  0  0  0  0  0
  150.6949  142.2102  154.4468 H   0  0  0  0  0  0  0  0  0  0  0  0
  148.8329  140.0576  155.5616 H   0  0  0  0  0  0  0  0  0  0  0  0
  149.6092  139.6217  153.1057 H   0  0  0  0  0  0  0  0  0  0  0  0
  148.4138  141.7776  153.0676 H   0  0  0  0  0  0  0  0  0  0  0  0
  147.5281  140.3046  153.3905 H   0  0  0  0  0  0  0  0  0  0  0  0
  145.7747  142.7158  153.1566 H   0  0  0  0  0  0  0  0  0  0  0  0
  144.5455  143.8270  155.3251 H   0  0  0  0  0  0  0  0  0  0  0  0
  146.0831  142.9198  157.4449 H   0  0  0  0  0  0  0  0  0  0  0  0
  150.0425  143.7966  157.5735 H   0  0  0  0  0  0  0  0  0  0  0  0
  149.9699  145.3433  159.3560 H   0  0  0  0  0  0  0  0  0  0  0  0
  151.5162  145.5502  160.1763 H   0  0  0  0  0  0  0  0  0  0  0  0
  150.2080  144.6512  160.9594 H   0  0  0  0  0  0  0  0  0  0  0  0
  1  2  1  0  0  0  0
  1 21  1  0  0  0  0
  1 22  1  0  0  0  0
  1 23  1  0  0  0  0
  2 19  1  0  0  0  0
  2  3  2  0  0  0  0
  3  4  1  0  0  0  0
  3 24  1  0  0  0  0
  4 17  2  0  0  0  0
  4  5  1  0  0  0  0
  5  6  2  0  0  0  0
  6  7  1  0  0  0  0
  6 25  1  0  0  0  0
  7  8  1  0  0  0  0
  7 17  1  0  0  0  0
  8  9  1  0  0  0  0
  8 26  1  0  0  0  0
  8 27  1  0  0  0  0
  9 10  1  0  0  0  0
  9 11  1  0  0  0  0
  9 28  1  0  0  0  0
 10 29  1  0  0  0  0
 11 12  1  0  0  0  0
 11 30  1  0  0  0  0
 11 31  1  0  0  0  0
 12 16  1  0  0  0  0
 12 13  1  0  0  0  0
 13 14  2  0  0  0  0
 13 32  1  0  0  0  0
 14 15  1  0  0  0  0
 14 33  1  0  0  0  0
 15 16  2  0  0  0  0
 15 34  1  0  0  0  0
 17 18  1  0  0  0  0
 18 19  2  0  0  0  0
 18 35  1  0  0  0  0
 19 20  1  0  0  0  0
 20 36  1  0  0  0  0
 20 37  1  0  0  0  0
 20 38  1  0  0  0  0
M  END
> <s_m_source_file>
AV-unprocessed.smi

> <i_m_source_file_index>
2997

> <i_lp_mmshare_version>
43012

> <i_f3d_flags>
0

> <s_epik_input>
W0NIM11jKFtjSF0xKWMoW0NIM10pW2NIXWMoYzEyKW4oW2NIXW4yKVtDSDJdW0NASF0oW09IXSlbQ0gyXW4zW2NIXVtjSF1bY0hdbjM=

> <s_epik_cmdline>
J2VwaWtfcHl0aG9uJywgJy1waCcsICc3LjAnLCAnLXRuJywgJzgnLCAnLW1hJywgJzIwMCcsICctbWV0YWxfYmluZGluZycsICctaW1hZScsICc8aW5maWxlLm1hZT4nLCAnLW9tYWUnLCAnPG91dGZpbGUubWFlPic=

> <r_lp_tautomer_probability>
1

> <r_epik_Ionization_Penalty>
0.102113

> <r_epik_Ionization_Penalty_Charging>
0

> <r_epik_Ionization_Penalty_Neutral>
0.102113

> <r_epik_State_Penalty>
0.0920694

> <r_epik_Charging_Adjusted_Penalty>
0.0920694

> <i_epik_Tot_Q>
0

> <i_epik_Tot_abs_Q>
0

> <r_epik_Metal_State_Penalty>
0.0784306

> <b_epik_Metal_Only>
0

> <s_lp_Force_Field>
OPLS_2005

> <r_lp_Energy>
8.0564

> <b_lp_Chiralities_Consistent>
1

> <s_lp_Variant>
AV-unprocessed.smi:2997-1

> <Gold.Version>
5.8.1

> <Gold.Id.Protein>
6NUR|6NUR_protein|mol2

> <Gold.PLP.Fitness>
54.1827

> <Gold.PLP.PLP>
-46.0883

> <Gold.PLP.part.hbond>
-3.0000

> <Gold.PLP.part.metal>
0.0000

> <Gold.PLP.part.buried>
-4.8551

> <Gold.PLP.part.nonpolar>
-38.4654

> <Gold.PLP.part.repulsive>
0.1368

> <Gold.PLP.ligand.clash>
0.0000

> <Gold.PLP.ligand.torsion>
0.3731

> <Gold.PLP.Chemscore.Hbond>
2.9440

> <Gold.PLP.Chemscore.CHOScore>
0.0000

> <Gold.PLP.Chemscore.Metal>
0.0000

> <Gold.Chemscore.Hbonds>
donor molecule, donor type, donor heavy atom, donor atom, acceptor molecule, acceptor atom, score
      L1  H    10    29       P1  7957  0.94
      P1  H  7989  7998       L1    10  0.96
      P1  H  7997  8010       L1     5  0.93

> <Gold.PLP.Chemscore.Internal.Correction>
0.0086

> <Gold.Rescore>
     Score         DG    S(hbond)    S(metal)    S(lipo)     H(rot)  DE(clash)    DE(int)     intcor
     17.93     -19.70       2.31        0.00     102.72       2.15       0.12       1.65       ----

> <Gold.Chemscore.Fitness>
17.9290

> <Gold.Chemscore.DG>
-19.7006

> <Gold.Chemscore.ZeroCoef>
-5.4800

> <Gold.Chemscore.Hbond>
2.3100

> <Gold.Chemscore.Metal>
0.0000

> <Gold.Chemscore.Lipo>
102.7176

> <Gold.Chemscore.Internal_Hbond>
0.0000

> <Gold.Chemscore.DEClash>
0.1239

> <Gold.Chemscore.DEInternal>
1.6477

> <Gold.Chemscore.Rot>
2.1534

> <Gold.Chemscore.Internal.Correction>
   9.000000E+99

> <Gold.Chemscore.Hbonds>
donor molecule, donor type, donor heavy atom, donor atom, acceptor molecule, acceptor atom, score
      L1  H    10    29       P1  7957  0.89
      P1  H  7989  7998       L1    10  0.12
      P1  H  7997  8010       L1     5  0.46

> <Gold.Chemscore.Hbond.Weighted>
-7.7153

> <Gold.Chemscore.Metal.Weighted>
-0.0000

> <Gold.Chemscore.Lipo.Weighted>
-12.0180

> <Gold.Chemscore.Internal_Hbond.Weighted>
0.0000

> <Gold.Chemscore.DEClash.Weighted>
0.1239

> <Gold.Chemscore.DEInternal.Weighted>
1.6477

> <Gold.Chemscore.Rot.Weighted>
5.5127

> <Gold.Chemscore.Internal.Correction.Weighted>
   9.000000E+99

> <Gold.Protein.RotatedTorsions>
[ 6907 6896 6895 6894 ] final  146.49 input  -60.11 | X-H torsion
[ 7974 7965 7964 7962 ] final   99.55 input  175.53 | X-H torsion
[ 8008 7997 7996 7995 ] final   45.89 input   59.86 | X-H torsion
[ 10167 10162 10161 10158 ] final  -17.35 input  -65.29 | X-H torsion
[ 10718 10713 10712 10709 ] final -110.05 input   66.30 | X-H torsion
[ 10763 10752 10751 10750 ] final -172.83 input  -60.55 | X-H torsion
[ 11005 11000 10999 10996 ] final  -53.07 input  -57.11 | X-H torsion

> <Gold.Protein.ActiveResidues>
 VAL166  LYS551  ARG553  GLY616  TRP617  ASP618  TYR619  PRO620  LYS621  CYS622 
 ASP623  PHE694  ASN695  SER759  ASP760  ASP761  ALA762  ILE779  LEU786  VAL792 
 PHE793  MET794  SER795  GLU796  ALA797  LYS798  CYS799  TRP800  GLU811  SER814 

> <Gold.Protein.RotatedAtoms>
  152.1672  133.4619  159.4890 H   0  0  0  0  0  0  0  0  0  0  0  0  # atno 6907 bound_to 6896
  150.6914  134.1999  159.4327 H   0  0  0  0  0  0  0  0  0  0  0  0  # atno 6908 bound_to 6896
  151.9904  134.9982  160.0612 H   0  0  0  0  0  0  0  0  0  0  0  0  # atno 6909 bound_to 6896
  145.3973  139.2353  143.3319 H   0  0  0  0  0  0  0  0  0  0  0  0  # atno 7974 bound_to 7965
  155.3434  140.3409  155.4239 H   0  0  0  0  0  0  0  0  0  0  0  0  # atno 8008 bound_to 7997
  156.1801  140.1661  156.8325 H   0  0  0  0  0  0  0  0  0  0  0  0  # atno 8009 bound_to 7997
  154.5325  140.0742  156.8352 H   0  0  0  0  0  0  0  0  0  0  0  0  # atno 8010 bound_to 7997
  140.7246  143.5024  150.9852 H   0  0  0  0  0  0  0  0  0  0  0  0  # atno 10167 bound_to 10162
  156.0570  130.5795  150.8185 H   0  0  0  0  0  0  0  0  0  0  0  0  # atno 10718 bound_to 10713
  154.6148  135.2868  155.0392 H   0  0  0  0  0  0  0  0  0  0  0  0  # atno 10763 bound_to 10752
  154.1609  135.6488  153.4989 H   0  0  0  0  0  0  0  0  0  0  0  0  # atno 10764 bound_to 10752
  153.0210  135.5378  154.6915 H   0  0  0  0  0  0  0  0  0  0  0  0  # atno 10765 bound_to 10752
  141.0957  133.6625  156.4118 H   0  0  0  0  0  0  0  0  0  0  0  0  # atno 11005 bound_to 11000
  146.2769  140.4666  142.8792 LP  0  0  0  0  0  0  0  0  0  0  0  0  # atno 17320 bound_to 7965
  144.8398  140.6839  143.6237 LP  0  0  0  0  0  0  0  0  0  0  0  0  # atno 17321 bound_to 7965
  139.8734  143.7163  152.3164 LP  0  0  0  0  0  0  0  0  0  0  0  0  # atno 17342 bound_to 10162
  139.7420  144.7557  151.0638 LP  0  0  0  0  0  0  0  0  0  0  0  0  # atno 17343 bound_to 10162
  157.5548  131.0944  150.9644 LP  0  0  0  0  0  0  0  0  0  0  0  0  # atno 17370 bound_to 10713
  156.9896  130.5558  149.5302 LP  0  0  0  0  0  0  0  0  0  0  0  0  # atno 17371 bound_to 10713
  140.5145  134.6363  157.5296 LP  0  0  0  0  0  0  0  0  0  0  0  0  # atno 17394 bound_to 11000
  139.9793  134.7163  155.9889 LP  0  0  0  0  0  0  0  0  0  0  0  0  # atno 17395 bound_to 11000

$$$$
