#       Name:                AV-unprocessed.smi:1561
#       Creating user name   scv26
#       Creation time:       Fri Mar 27 06:48:25 2020


#       File generated by GOLD software.
#

@<TRIPOS>MOLECULE
AV-unprocessed.smi:1561
    38    39     1
SMALL
NO_CHARGES


@<TRIPOS>ATOM
      1 ****        -2.2096  -1.4969  -2.8982 C.3            1 S1                 0.0000
      2 ****        -1.8211  -0.5231  -1.7665 C.3            1 S1                 0.0000
      3 ****        -0.3124  -0.2359  -1.7155 C.2            1 S1                 0.0000
      4 ****         0.4987  -1.0282  -2.1964 O.2            1 S1                 0.0000
      5 ****         0.0498   0.9032  -1.1051 N.am           1 S1                 0.0000
      6 ****         1.4233   1.3160  -0.8431 C.3            1 S1                 0.0000
      7 ****         2.0000   0.6108   0.3997 C.3            1 S1                 0.0000
      8 ****         3.4085   1.0591   0.7719 C.3            1 S1                 0.0000
      9 ****         3.4021   1.1018   2.3042 C.3            1 S1                 0.0000
     10 ****         2.1607   0.5323   2.6952 O.3            1 S1                 0.0000
     11 ****         1.2156   0.8507   1.6892 C.3            1 S1                 0.0000
     12 ****        -2.2840  -0.9772  -0.4595 N.pl3          1 S1                 0.0000
     13 ****        -2.8757  -0.2275   0.5373 C.2            1 S1                 0.0000
     14 ****        -3.0910  -1.0548   1.6017 C.2            1 S1                 0.0000
     15 ****        -2.5798  -2.3078   1.1641 C.2            1 S1                 0.0000
     16 ****        -2.0901  -2.2570  -0.0634 N.2            1 S1                 0.0000
     17 ****        -1.9099  -1.1066  -3.8713 H              1 S1                 0.0000
     18 ****        -3.2892  -1.6477  -2.9261 H              1 S1                 0.0000
     19 ****        -1.7432  -2.4755  -2.7777 H              1 S1                 0.0000
     20 ****        -2.3237   0.4234  -1.9726 H              1 S1                 0.0000
     21 ****        -0.6810   1.5004  -0.7462 H              1 S1                 0.0000
     22 ****         2.0484   1.1203  -1.7159 H              1 S1                 0.0000
     23 ****         1.4270   2.3965  -0.6965 H              1 S1                 0.0000
     24 ****         2.0288  -0.4659   0.2232 H              1 S1                 0.0000
     25 ****         4.1529   0.3598   0.3893 H              1 S1                 0.0000
     26 ****         3.6433   2.0457   0.3697 H              1 S1                 0.0000
     27 ****         4.2369   0.5542   2.7421 H              1 S1                 0.0000
     28 ****         3.4498   2.1328   2.6577 H              1 S1                 0.0000
     29 ****         0.9155   1.8956   1.7849 H              1 S1                 0.0000
     30 ****         0.3247   0.2260   1.7638 H              1 S1                 0.0000
     31 ****        -3.0898   0.8233   0.4083 H              1 S1                 0.0000
     32 ****        -3.5397  -0.8022   2.5509 H              1 S1                 0.0000
     33 ****        -2.5451  -3.2448   1.7000 H              1 S1                 0.0000
     34 ****         0.1783  -1.8718  -2.6274 LP             1 S1                 0.0000
     35 ****         1.4776  -0.8280  -2.1558 LP             1 S1                 0.0000
     36 ****         1.8695   0.9153   3.5719 LP             1 S1                 0.0000
     37 ****         2.2506  -0.4602   2.7785 LP             1 S1                 0.0000
     38 ****        -1.6695  -3.0000  -0.5840 LP             1 S1                 0.0000
@<TRIPOS>BOND
    1    1    2 1     
    2    1   17 1     
    3    1   18 1     
    4    1   19 1     
    5    2    3 1     
    6    2   12 1     
    7    2   20 1     
    8    3    4 2     
    9    3    5 am    
   10    5    6 1     
   11    5   21 1     
   12    6    7 1     
   13    6   22 1     
   14    6   23 1     
   15    7   11 1     
   16    7    8 1     
   17    7   24 1     
   18    8    9 1     
   19    8   25 1     
   20    8   26 1     
   21    9   10 1     
   22    9   27 1     
   23    9   28 1     
   24   10   11 1     
   25   11   29 1     
   26   11   30 1     
   27   12   16 1     
   28   12   13 1     
   29   13   14 2     
   30   13   31 1     
   31   14   15 1     
   32   14   32 1     
   33   15   16 2     
   34   15   33 1     
   35    4   34 1     
   36    4   35 1     
   37   10   36 1     
   38   10   37 1     
   39   16   38 1     
@<TRIPOS>SUBSTRUCTURE
      1 S1             1
@<TRIPOS>SET
LONE_PAIRS      STATIC     ATOMS    <user>   **** ""
5 34 35 36 37 38
DONOR_HYDROGENS      STATIC     ATOMS    <user>   **** ""
1 21
ATOM$BLUE        STATIC     ATOMS    COLORGROUP SYSTEM
5 34 35 36 37 38
ATOM$RED        STATIC     ATOMS    COLORGROUP SYSTEM
1 21
