AV-unprocessed.smi:2329|AV-procd|sdf|9305|dock10
  -GOLD-   2272012523D 1   1.00000     0.00000
 Structure written by MMmdl.
 45 48  0  0  0  0  0  0  0  0  1 V2000
  152.9827  142.3646  161.6439 C   0  0  0  0  0  0  0  0  0  0  0  0
  152.3075  143.3675  160.7326 C   0  0  0  0  0  0  0  0  0  0  0  0
  152.4211  144.7520  160.9668 C   0  0  0  0  0  0  0  0  0  0  0  0
  151.7712  145.6296  160.0807 C   0  0  0  0  0  0  0  0  0  0  0  0
  151.0397  145.0907  159.0051 C   0  0  0  0  0  0  0  0  0  0  0  0
  150.9746  143.6887  158.8425 C   0  0  0  0  0  0  0  0  0  0  0  0
  150.2115  143.2489  157.7301 N   0  0  0  0  0  0  0  0  0  0  0  0
  149.9692  141.9872  157.3243 C   0  0  0  0  0  0  0  0  0  0  0  0
  150.3903  140.9759  157.8830 O   0  0  0  0  0  0  0  0  0  0  0  0
  149.1901  141.9064  156.2311 N   0  0  0  0  0  0  0  0  0  0  0  0
  148.7440  140.6935  155.5430 C   0  0  1  0  0  0  0  0  0  0  0  0
  148.5152  140.9351  154.0421 C   0  0  2  0  0  0  0  0  0  0  0  0
  147.1279  140.8305  153.4702 C   0  0  0  0  0  0  0  0  0  0  0  0
  147.0854  139.3948  152.9401 C   0  0  0  0  0  0  0  0  0  0  0  0
  148.1008  138.7119  153.6718 O   0  0  0  0  0  0  0  0  0  0  0  0
  149.2067  139.6018  153.8038 C   0  0  2  0  0  0  0  0  0  0  0  0
  149.8689  139.6870  155.1955 C   0  0  0  0  0  0  0  0  0  0  0  0
  151.3272  140.1517  155.1969 C   0  0  0  0  0  0  0  0  0  0  0  0
  152.1777  138.8898  155.0609 C   0  0  0  0  0  0  0  0  0  0  0  0
  151.3502  137.7769  155.7103 C   0  0  0  0  0  0  0  0  0  0  0  0
  149.9720  138.3873  155.9936 C   0  0  0  0  0  0  0  0  0  0  0  0
  151.6057  142.8502  159.7014 N   0  0  0  0  0  0  0  0  0  0  0  0
  153.4471  142.8565  162.4989 H   0  0  0  0  0  0  0  0  0  0  0  0
  153.7569  141.8215  161.1010 H   0  0  0  0  0  0  0  0  0  0  0  0
  152.2561  141.6436  162.0199 H   0  0  0  0  0  0  0  0  0  0  0  0
  152.9900  145.1342  161.8016 H   0  0  0  0  0  0  0  0  0  0  0  0
  151.8321  146.6984  160.2232 H   0  0  0  0  0  0  0  0  0  0  0  0
  150.5336  145.7509  158.3156 H   0  0  0  0  0  0  0  0  0  0  0  0
  149.7870  143.9804  157.1793 H   0  0  0  0  0  0  0  0  0  0  0  0
  148.8480  142.7788  155.8547 H   0  0  0  0  0  0  0  0  0  0  0  0
  147.8828  140.2057  156.0058 H   0  0  0  0  0  0  0  0  0  0  0  0
  149.1075  141.7659  153.6539 H   0  0  0  0  0  0  0  0  0  0  0  0
  146.3752  140.9813  154.2449 H   0  0  0  0  0  0  0  0  0  0  0  0
  146.9439  141.5570  152.6784 H   0  0  0  0  0  0  0  0  0  0  0  0
  146.1103  138.9253  153.0715 H   0  0  0  0  0  0  0  0  0  0  0  0
  147.3370  139.3707  151.8788 H   0  0  0  0  0  0  0  0  0  0  0  0
  149.8806  139.5948  152.9457 H   0  0  0  0  0  0  0  0  0  0  0  0
  151.5423  140.8673  154.4026 H   0  0  0  0  0  0  0  0  0  0  0  0
  151.5746  140.6394  156.1403 H   0  0  0  0  0  0  0  0  0  0  0  0
  152.3310  138.6624  154.0053 H   0  0  0  0  0  0  0  0  0  0  0  0
  153.1599  139.0036  155.5203 H   0  0  0  0  0  0  0  0  0  0  0  0
  151.2680  136.9239  155.0357 H   0  0  0  0  0  0  0  0  0  0  0  0
  151.8117  137.4223  156.6325 H   0  0  0  0  0  0  0  0  0  0  0  0
  149.8870  138.5959  157.0601 H   0  0  0  0  0  0  0  0  0  0  0  0
  149.1748  137.6832  155.7547 H   0  0  0  0  0  0  0  0  0  0  0  0
  1  2  1  0  0  0  0
  1 23  1  0  0  0  0
  1 24  1  0  0  0  0
  1 25  1  0  0  0  0
  2 22  1  0  0  0  0
  2  3  2  0  0  0  0
  3  4  1  0  0  0  0
  3 26  1  0  0  0  0
  4  5  2  0  0  0  0
  4 27  1  0  0  0  0
  5  6  1  0  0  0  0
  5 28  1  0  0  0  0
  6  7  1  0  0  0  0
  6 22  2  0  0  0  0
  7  8  1  0  0  0  0
  7 29  1  0  0  0  0
  8  9  2  0  0  0  0
  8 10  1  0  0  0  0
 10 11  1  0  0  0  0
 10 30  1  0  0  0  0
 11 17  1  0  0  0  0
 11 12  1  0  0  0  0
 11 31  1  0  0  0  0
 12 16  1  0  0  0  0
 12 13  1  0  0  0  0
 12 32  1  0  0  0  0
 13 14  1  0  0  0  0
 13 33  1  0  0  0  0
 13 34  1  0  0  0  0
 14 15  1  0  0  0  0
 14 35  1  0  0  0  0
 14 36  1  0  0  0  0
 15 16  1  0  0  0  0
 16 17  1  0  0  0  0
 16 37  1  0  0  0  0
 17 21  1  0  0  0  0
 17 18  1  0  0  0  0
 18 19  1  0  0  0  0
 18 38  1  0  0  0  0
 18 39  1  0  0  0  0
 19 20  1  0  0  0  0
 19 40  1  0  0  0  0
 19 41  1  0  0  0  0
 20 21  1  0  0  0  0
 20 42  1  0  0  0  0
 20 43  1  0  0  0  0
 21 44  1  0  0  0  0
 21 45  1  0  0  0  0
M  END
> <s_m_source_file>
AV-unprocessed.smi

> <i_m_source_file_index>
2329

> <i_lp_mmshare_version>
43012

> <i_f3d_flags>
0

> <s_epik_input>
W0NIM11jMVtjSF1bY0hdW2NIXWMobjEpW05IXUMoPU8pW05IXVtDQEBIXTJbQ0BASF0oW0NIMl1bQ0gyXU8zKVtDQEhdM0MyNFtDSDJdW0NIMl1bQ0gyXVtDSDJdNA==

> <s_epik_cmdline>
J2VwaWtfcHl0aG9uJywgJy1waCcsICc3LjAnLCAnLXRuJywgJzgnLCAnLW1hJywgJzIwMCcsICctbWV0YWxfYmluZGluZycsICctaW1hZScsICc8aW5maWxlLm1hZT4nLCAnLW9tYWUnLCAnPG91dGZpbGUubWFlPic=

> <r_lp_tautomer_probability>
1

> <r_epik_Ionization_Penalty>
8.97002e-05

> <r_epik_Ionization_Penalty_Charging>
0

> <r_epik_Ionization_Penalty_Neutral>
8.97002e-05

> <r_epik_State_Penalty>
-0

> <r_epik_Charging_Adjusted_Penalty>
0

> <i_epik_Tot_Q>
0

> <i_epik_Tot_abs_Q>
0

> <r_epik_Metal_State_Penalty>
-0

> <b_epik_Metal_Only>
0

> <s_lp_Force_Field>
OPLS_2005

> <r_lp_Energy>
64.4638

> <b_lp_Chiralities_Consistent>
1

> <s_lp_Variant>
AV-unprocessed.smi:2329-4

> <Gold.Version>
5.8.1

> <Gold.Id.Protein>
6NUR|6NUR_protein|mol2

> <Gold.PLP.Fitness>
48.0124

> <Gold.PLP.PLP>
-42.2866

> <Gold.PLP.part.hbond>
-2.0169

> <Gold.PLP.part.metal>
0.0000

> <Gold.PLP.part.buried>
-1.3235

> <Gold.PLP.part.nonpolar>
-39.2358

> <Gold.PLP.part.repulsive>
0.3147

> <Gold.PLP.ligand.clash>
0.0000

> <Gold.PLP.ligand.torsion>
0.2290

> <Gold.PLP.Chemscore.Hbond>
2.0000

> <Gold.PLP.Chemscore.CHOScore>
0.0000

> <Gold.PLP.Chemscore.Metal>
0.0000

> <Gold.Chemscore.Hbonds>
donor molecule, donor type, donor heavy atom, donor atom, acceptor molecule, acceptor atom, score
      L1  H     7    29       P1  8028  1.00
      L1  H    10    30       P1  8028  1.00

> <Gold.PLP.Chemscore.Internal.Correction>
0.1838

> <Gold.Rescore>
     Score         DG    S(hbond)    S(metal)    S(lipo)     H(rot)  DE(clash)    DE(int)     intcor
     19.89     -23.08       1.78        0.00     121.44       1.00       1.74       1.45       ----

> <Gold.Chemscore.Fitness>
19.8893

> <Gold.Chemscore.DG>
-23.0828

> <Gold.Chemscore.ZeroCoef>
-5.4800

> <Gold.Chemscore.Hbond>
1.7829

> <Gold.Chemscore.Metal>
0.0000

> <Gold.Chemscore.Lipo>
121.4369

> <Gold.Chemscore.Internal_Hbond>
0.0000

> <Gold.Chemscore.DEClash>
1.7430

> <Gold.Chemscore.DEInternal>
1.4506

> <Gold.Chemscore.Rot>
1.0000

> <Gold.Chemscore.Internal.Correction>
   9.000000E+99

> <Gold.Chemscore.Hbonds>
donor molecule, donor type, donor heavy atom, donor atom, acceptor molecule, acceptor atom, score
      L1  H     7    29       P1  8028  0.73
      L1  H    10    30       P1  8028  0.97

> <Gold.Chemscore.Hbond.Weighted>
-5.9547

> <Gold.Chemscore.Metal.Weighted>
-0.0000

> <Gold.Chemscore.Lipo.Weighted>
-14.2081

> <Gold.Chemscore.Internal_Hbond.Weighted>
0.0000

> <Gold.Chemscore.DEClash.Weighted>
1.7430

> <Gold.Chemscore.DEInternal.Weighted>
1.4506

> <Gold.Chemscore.Rot.Weighted>
2.5600

> <Gold.Chemscore.Internal.Correction.Weighted>
   9.000000E+99

> <Gold.Protein.RotatedTorsions>
[ 6907 6896 6895 6894 ] final   74.81 input  -60.11 | X-H torsion
[ 7974 7965 7964 7962 ] final  148.41 input  175.53 | X-H torsion
[ 8008 7997 7996 7995 ] final   78.21 input   59.86 | X-H torsion
[ 10167 10162 10161 10158 ] final   51.95 input  -65.29 | X-H torsion
[ 10718 10713 10712 10709 ] final  170.06 input   66.30 | X-H torsion
[ 10763 10752 10751 10750 ] final  164.39 input  -60.55 | X-H torsion
[ 11005 11000 10999 10996 ] final  142.44 input  -57.11 | X-H torsion

> <Gold.Protein.ActiveResidues>
 VAL166  LYS551  ARG553  GLY616  TRP617  ASP618  TYR619  PRO620  LYS621  CYS622 
 ASP623  PHE694  ASN695  SER759  ASP760  ASP761  ALA762  ILE779  LEU786  VAL792 
 PHE793  MET794  SER795  GLU796  ALA797  LYS798  CYS799  TRP800  GLU811  SER814 

> <Gold.Protein.RotatedAtoms>
  152.4995  134.4215  159.9481 H   0  0  0  0  0  0  0  0  0  0  0  0  # atno 6907 bound_to 6896
  151.4188  133.3698  159.2761 H   0  0  0  0  0  0  0  0  0  0  0  0  # atno 6908 bound_to 6896
  150.9237  134.8677  159.7565 H   0  0  0  0  0  0  0  0  0  0  0  0  # atno 6909 bound_to 6896
  144.8516  139.6151  143.5971 H   0  0  0  0  0  0  0  0  0  0  0  0  # atno 7974 bound_to 7965
  155.8525  140.3457  155.5702 H   0  0  0  0  0  0  0  0  0  0  0  0  # atno 8008 bound_to 7997
  155.8022  140.0887  157.1970 H   0  0  0  0  0  0  0  0  0  0  0  0  # atno 8009 bound_to 7997
  154.4008  140.1463  156.3275 H   0  0  0  0  0  0  0  0  0  0  0  0  # atno 8010 bound_to 7997
  140.2565  144.3420  150.6331 H   0  0  0  0  0  0  0  0  0  0  0  0  # atno 10167 bound_to 10162
  157.0136  131.0211  151.2796 H   0  0  0  0  0  0  0  0  0  0  0  0  # atno 10718 bound_to 10713
  154.3082  135.2758  155.2579 H   0  0  0  0  0  0  0  0  0  0  0  0  # atno 10763 bound_to 10752
  154.4985  135.5814  153.6517 H   0  0  0  0  0  0  0  0  0  0  0  0  # atno 10764 bound_to 10752
  152.9891  135.6152  154.3257 H   0  0  0  0  0  0  0  0  0  0  0  0  # atno 10765 bound_to 10752
  140.0477  134.9272  157.0960 H   0  0  0  0  0  0  0  0  0  0  0  0  # atno 11005 bound_to 11000
  146.2789  139.6825  142.9243 LP  0  0  0  0  0  0  0  0  0  0  0  0  # atno 17320 bound_to 7965
  145.4489  141.0427  143.2815 LP  0  0  0  0  0  0  0  0  0  0  0  0  # atno 17321 bound_to 7965
  140.5999  143.2167  151.7092 LP  0  0  0  0  0  0  0  0  0  0  0  0  # atno 17342 bound_to 10162
  139.5030  144.3809  152.0377 LP  0  0  0  0  0  0  0  0  0  0  0  0  # atno 17343 bound_to 10162
  157.5302  130.8054  149.7908 LP  0  0  0  0  0  0  0  0  0  0  0  0  # atno 17370 bound_to 10713
  156.0127  130.3826  150.2211 LP  0  0  0  0  0  0  0  0  0  0  0  0  # atno 17371 bound_to 10713
  140.3967  134.2127  155.7164 LP  0  0  0  0  0  0  0  0  0  0  0  0  # atno 17394 bound_to 11000
  141.1915  133.8193  157.0876 LP  0  0  0  0  0  0  0  0  0  0  0  0  # atno 17395 bound_to 11000

$$$$
