AV-unprocessed.smi:2583|AV-procd|sdf|10137|dock2
  -GOLD-   2272014153D 1   1.00000     0.00000
 Structure written by MMmdl.
 55 57  0  0  0  0  0  0  0  0  3 V2000
  151.4443  143.8207  158.3527 C   0  0  0  0  0  0  0  0  0  0  0  0
  152.2941  142.6750  158.8614 C   0  0  0  0  0  0  0  0  0  0  0  0
  152.5248  141.5321  158.0683 C   0  0  0  0  0  0  0  0  0  0  0  0
  153.2870  140.4934  158.4706 N   0  0  0  0  0  0  0  0  0  0  0  0
  153.8467  140.5580  159.6974 C   0  0  0  0  0  0  0  0  0  0  0  0
  153.6698  141.6429  160.5817 C   0  0  0  0  0  0  0  0  0  0  0  0
  154.3276  141.5972  161.8401 N   0  0  0  0  0  0  0  0  0  0  0  0
  153.9320  142.1474  163.0008 C   0  0  0  0  0  0  0  0  0  0  0  0
  152.8809  142.7646  163.1724 O   0  0  0  0  0  0  0  0  0  0  0  0
  154.8211  141.9188  163.9785 N   0  0  0  0  0  0  0  0  0  0  0  0
  154.6733  142.3621  165.3620 C   0  0  2  0  0  0  0  0  0  0  0  0
  155.1013  143.8280  165.4996 C   0  0  0  0  0  0  0  0  0  0  0  0
  155.0249  144.2998  166.9627 C   0  0  0  0  0  0  0  0  0  0  0  0
  155.8488  143.4445  167.8677 N   0  3  1  0  0  0  0  0  0  0  0  0
  155.9109  143.8968  169.2994 C   0  0  2  0  0  0  0  0  0  0  0  0
  156.4635  145.3269  169.5274 C   0  0  0  0  0  0  0  0  0  0  0  0
  157.9750  145.4279  169.2465 C   0  0  0  0  0  0  0  0  0  0  0  0
  158.7356  144.4604  170.0741 N   0  3  2  0  0  0  0  0  0  0  0  0
  160.1977  144.5938  169.8968 C   0  0  0  0  0  0  0  0  0  0  0  0
  158.2654  143.0672  169.8759 C   0  0  0  0  0  0  0  0  0  0  0  0
  156.7595  142.9424  170.1740 C   0  0  0  0  0  0  0  0  0  0  0  0
  155.4320  142.0160  167.7511 C   0  0  0  0  0  0  0  0  0  0  0  0
  155.5286  141.5040  166.3057 C   0  0  0  0  0  0  0  0  0  0  0  0
  152.8810  142.7326  160.1414 C   0  0  0  0  0  0  0  0  0  0  0  0
  150.9201  143.5485  157.4361 H   0  0  0  0  0  0  0  0  0  0  0  0
  152.0697  144.6894  158.1450 H   0  0  0  0  0  0  0  0  0  0  0  0
  150.7009  144.1027  159.0987 H   0  0  0  0  0  0  0  0  0  0  0  0
  152.0938  141.4492  157.0814 H   0  0  0  0  0  0  0  0  0  0  0  0
  154.4522  139.7106  159.9841 H   0  0  0  0  0  0  0  0  0  0  0  0
  155.1633  141.0318  161.8726 H   0  0  0  0  0  0  0  0  0  0  0  0
  155.6569  141.4006  163.7489 H   0  0  0  0  0  0  0  0  0  0  0  0
  153.6244  142.2832  165.6555 H   0  0  0  0  0  0  0  0  0  0  0  0
  156.1205  143.9544  165.1310 H   0  0  0  0  0  0  0  0  0  0  0  0
  154.4678  144.4611  164.8769 H   0  0  0  0  0  0  0  0  0  0  0  0
  155.3723  145.3310  166.9729 H   0  0  0  0  0  0  0  0  0  0  0  0
  153.9892  144.3042  167.3062 H   0  0  0  0  0  0  0  0  0  0  0  0
  154.8863  143.8924  169.6753 H   0  0  0  0  0  0  0  0  0  0  0  0
  155.9080  146.0784  168.9673 H   0  0  0  0  0  0  0  0  0  0  0  0
  156.2969  145.5949  170.5720 H   0  0  0  0  0  0  0  0  0  0  0  0
  158.1845  145.2484  168.1913 H   0  0  0  0  0  0  0  0  0  0  0  0
  158.3172  146.4396  169.4683 H   0  0  0  0  0  0  0  0  0  0  0  0
  160.4924  144.3559  168.8737 H   0  0  0  0  0  0  0  0  0  0  0  0
  160.7305  143.9226  170.5713 H   0  0  0  0  0  0  0  0  0  0  0  0
  160.5213  145.6113  170.1181 H   0  0  0  0  0  0  0  0  0  0  0  0
  158.4777  142.7482  168.8543 H   0  0  0  0  0  0  0  0  0  0  0  0
  158.8218  142.4014  170.5367 H   0  0  0  0  0  0  0  0  0  0  0  0
  156.5931  143.1870  171.2243 H   0  0  0  0  0  0  0  0  0  0  0  0
  156.4491  141.9041  170.0750 H   0  0  0  0  0  0  0  0  0  0  0  0
  156.0486  141.3729  168.3754 H   0  0  0  0  0  0  0  0  0  0  0  0
  154.4080  141.9067  168.1125 H   0  0  0  0  0  0  0  0  0  0  0  0
  155.2035  140.4635  166.2652 H   0  0  0  0  0  0  0  0  0  0  0  0
  156.5709  141.5153  165.9825 H   0  0  0  0  0  0  0  0  0  0  0  0
  152.7310  143.6100  160.7516 H   0  0  0  0  0  0  0  0  0  0  0  0
  156.7921  143.5016  167.5115 H   0  0  0  0  0  0  0  0  0  0  0  0
  158.5453  144.6941  171.0386 H   0  0  0  0  0  0  0  0  0  0  0  0
  1  2  1  0  0  0  0
  1 25  1  0  0  0  0
  1 26  1  0  0  0  0
  1 27  1  0  0  0  0
  2 24  1  0  0  0  0
  2  3  2  0  0  0  0
  3  4  1  0  0  0  0
  3 28  1  0  0  0  0
  4  5  2  0  0  0  0
  5  6  1  0  0  0  0
  5 29  1  0  0  0  0
  6  7  1  0  0  0  0
  6 24  2  0  0  0  0
  7  8  1  0  0  0  0
  7 30  1  0  0  0  0
  8  9  2  0  0  0  0
  8 10  1  0  0  0  0
 10 11  1  0  0  0  0
 10 31  1  0  0  0  0
 11 23  1  0  0  0  0
 11 12  1  0  0  0  0
 11 32  1  0  0  0  0
 12 13  1  0  0  0  0
 12 33  1  0  0  0  0
 12 34  1  0  0  0  0
 13 14  1  0  0  0  0
 13 35  1  0  0  0  0
 13 36  1  0  0  0  0
 14 15  1  0  0  0  0
 14 22  1  0  0  0  0
 14 54  1  0  0  0  0
 15 21  1  0  0  0  0
 15 16  1  0  0  0  0
 15 37  1  0  0  0  0
 16 17  1  0  0  0  0
 16 38  1  0  0  0  0
 16 39  1  0  0  0  0
 17 18  1  0  0  0  0
 17 40  1  0  0  0  0
 17 41  1  0  0  0  0
 18 19  1  0  0  0  0
 18 20  1  0  0  0  0
 18 55  1  0  0  0  0
 19 42  1  0  0  0  0
 19 43  1  0  0  0  0
 19 44  1  0  0  0  0
 20 21  1  0  0  0  0
 20 45  1  0  0  0  0
 20 46  1  0  0  0  0
 21 47  1  0  0  0  0
 21 48  1  0  0  0  0
 22 23  1  0  0  0  0
 22 49  1  0  0  0  0
 22 50  1  0  0  0  0
 23 51  1  0  0  0  0
 23 52  1  0  0  0  0
 24 53  1  0  0  0  0
M  CHG  1  14   1
M  CHG  1  18   1
M  END
> <s_m_source_file>
AV-unprocessed.smi

> <i_m_source_file_index>
2583

> <i_lp_mmshare_version>
43012

> <i_f3d_flags>
0

> <s_epik_input>
W0NIM11jMVtjSF1uW2NIXWMoW2NIXTEpW05IXUMoPU8pW05IXVtDSF0yW0NIMl1bQ0gyXU4oW0NIMl1bQ0gyXTIpW0NIXTNbQ0gyXVtDSDJdTihbQ0gzXSlbQ0gyXVtDSDJdMw==

> <s_epik_cmdline>
J2VwaWtfcHl0aG9uJywgJy1waCcsICc3LjAnLCAnLXRuJywgJzgnLCAnLW1hJywgJzIwMCcsICctbWV0YWxfYmluZGluZycsICctaW1hZScsICc8aW5maWxlLm1hZT4nLCAnLW9tYWUnLCAnPG91dGZpbGUubWFlPic=

> <r_epik_Ionization_Penalty>
0.188357

> <r_epik_Ionization_Penalty_Charging>
0.180787

> <r_epik_Ionization_Penalty_Neutral>
0.00756971

> <r_epik_State_Penalty>
0.157948

> <r_epik_Charging_Adjusted_Penalty>
0.338735

> <i_epik_Tot_Q>
2

> <i_epik_Tot_abs_Q>
2

> <r_epik_Metal_State_Penalty>
0.153874

> <b_epik_Metal_Only>
0

> <s_lp_Force_Field>
OPLS_2005

> <r_lp_Energy>
48.801

> <b_lp_Chiralities_Consistent>
1

> <s_lp_Variant>
AV-unprocessed.smi:2583-3

> <Gold.Version>
5.8.1

> <Gold.Id.Protein>
6NUR|6NUR_protein|mol2

> <Gold.PLP.Fitness>
46.3898

> <Gold.PLP.PLP>
-45.6229

> <Gold.PLP.part.hbond>
-3.0000

> <Gold.PLP.part.metal>
0.0000

> <Gold.PLP.part.buried>
-3.6747

> <Gold.PLP.part.nonpolar>
-36.7236

> <Gold.PLP.part.repulsive>
0.2503

> <Gold.PLP.ligand.clash>
0.0000

> <Gold.PLP.ligand.torsion>
0.5392

> <Gold.PLP.Chemscore.Hbond>
0.6037

> <Gold.PLP.Chemscore.CHOScore>
0.0000

> <Gold.PLP.Chemscore.Metal>
0.0000

> <Gold.Chemscore.Hbonds>
donor molecule, donor type, donor heavy atom, donor atom, acceptor molecule, acceptor atom, score
      P1  H  7997  8010       L1     4  0.78

> <Gold.PLP.Chemscore.Internal.Correction>
0.0341

> <Gold.Rescore>
     Score         DG    S(hbond)    S(metal)    S(lipo)     H(rot)  DE(clash)    DE(int)     intcor
     14.55     -16.72       0.00        0.00     122.50       1.21       0.71       1.46       ----

> <Gold.Chemscore.Fitness>
14.5522

> <Gold.Chemscore.DG>
-16.7168

> <Gold.Chemscore.ZeroCoef>
-5.4800

> <Gold.Chemscore.Hbond>
0.0000

> <Gold.Chemscore.Metal>
0.0000

> <Gold.Chemscore.Lipo>
122.4984

> <Gold.Chemscore.Internal_Hbond>
0.0000

> <Gold.Chemscore.DEClash>
0.7066

> <Gold.Chemscore.DEInternal>
1.4581

> <Gold.Chemscore.Rot>
1.2092

> <Gold.Chemscore.Internal.Correction>
   9.000000E+99

> <Gold.Chemscore.Hbonds>
donor molecule, donor type, donor heavy atom, donor atom, acceptor molecule, acceptor atom, score
      P1  H  7997  8010       L1     4  0.43

> <Gold.Chemscore.Hbond.Weighted>
-0.0000

> <Gold.Chemscore.Metal.Weighted>
-0.0000

> <Gold.Chemscore.Lipo.Weighted>
-14.3323

> <Gold.Chemscore.Internal_Hbond.Weighted>
0.0000

> <Gold.Chemscore.DEClash.Weighted>
0.7066

> <Gold.Chemscore.DEInternal.Weighted>
1.4581

> <Gold.Chemscore.Rot.Weighted>
3.0955

> <Gold.Chemscore.Internal.Correction.Weighted>
   9.000000E+99

> <Gold.Protein.RotatedTorsions>
[ 6907 6896 6895 6894 ] final  144.35 input  -60.11 | X-H torsion
[ 7974 7965 7964 7962 ] final  161.67 input  175.53 | X-H torsion
[ 8008 7997 7996 7995 ] final   33.01 input   59.86 | X-H torsion
[ 10167 10162 10161 10158 ] final -138.93 input  -65.29 | X-H torsion
[ 10718 10713 10712 10709 ] final    4.44 input   66.30 | X-H torsion
[ 10763 10752 10751 10750 ] final  109.77 input  -60.55 | X-H torsion
[ 11005 11000 10999 10996 ] final  -27.76 input  -57.11 | X-H torsion

> <Gold.Protein.ActiveResidues>
 VAL166  LYS551  ARG553  GLY616  TRP617  ASP618  TYR619  PRO620  LYS621  CYS622 
 ASP623  PHE694  ASN695  SER759  ASP760  ASP761  ALA762  ILE779  LEU786  VAL792 
 PHE793  MET794  SER795  GLU796  ALA797  LYS798  CYS799  TRP800  GLU811  SER814 

> <Gold.Protein.RotatedAtoms>
  152.1948  133.4799  159.5026 H   0  0  0  0  0  0  0  0  0  0  0  0  # atno 6907 bound_to 6896
  150.6958  134.1666  159.4205 H   0  0  0  0  0  0  0  0  0  0  0  0  # atno 6908 bound_to 6896
  151.9582  135.0136  160.0596 H   0  0  0  0  0  0  0  0  0  0  0  0  # atno 6909 bound_to 6896
  144.7674  139.7930  143.6310 H   0  0  0  0  0  0  0  0  0  0  0  0  # atno 7974 bound_to 7965
  155.1317  140.3258  155.4472 H   0  0  0  0  0  0  0  0  0  0  0  0  # atno 8008 bound_to 7997
  156.2632  140.2009  156.6385 H   0  0  0  0  0  0  0  0  0  0  0  0  # atno 8009 bound_to 7997
  154.6608  140.0547  157.0046 H   0  0  0  0  0  0  0  0  0  0  0  0  # atno 8010 bound_to 7997
  139.8429  143.7298  152.2662 H   0  0  0  0  0  0  0  0  0  0  0  0  # atno 10167 bound_to 10162
  156.8926  130.5693  149.5649 H   0  0  0  0  0  0  0  0  0  0  0  0  # atno 10718 bound_to 10713
  153.4394  135.3769  155.2219 H   0  0  0  0  0  0  0  0  0  0  0  0  # atno 10763 bound_to 10752
  154.8753  135.3859  154.4171 H   0  0  0  0  0  0  0  0  0  0  0  0  # atno 10764 bound_to 10752
  153.4714  135.7087  153.6054 H   0  0  0  0  0  0  0  0  0  0  0  0  # atno 10765 bound_to 10752
  140.9148  133.7437  156.0719 H   0  0  0  0  0  0  0  0  0  0  0  0  # atno 11005 bound_to 11000
  146.1793  139.4979  142.9876 LP  0  0  0  0  0  0  0  0  0  0  0  0  # atno 17320 bound_to 7965
  145.6427  141.0281  143.1803 LP  0  0  0  0  0  0  0  0  0  0  0  0  # atno 17321 bound_to 7965
  139.7541  144.7526  151.0462 LP  0  0  0  0  0  0  0  0  0  0  0  0  # atno 17342 bound_to 10162
  140.7796  143.4826  150.9998 LP  0  0  0  0  0  0  0  0  0  0  0  0  # atno 17343 bound_to 10162
  156.0621  130.5672  150.9215 LP  0  0  0  0  0  0  0  0  0  0  0  0  # atno 17370 bound_to 10713
  157.6075  131.0938  150.8854 LP  0  0  0  0  0  0  0  0  0  0  0  0  # atno 17371 bound_to 10713
  140.8064  134.3450  157.5425 LP  0  0  0  0  0  0  0  0  0  0  0  0  # atno 17394 bound_to 11000
  139.8764  134.9228  156.3310 LP  0  0  0  0  0  0  0  0  0  0  0  0  # atno 17395 bound_to 11000

$$$$
