AV-unprocessed.smi:753|AV-procd|sdf|3606|dock2
  -GOLD-   22720 1 03D 1   1.00000     0.00000
 Structure written by MMmdl.
 44 46  0  0  0  0  0  0  0  0  2 V2000
  145.4127  136.3393  151.6263 C   0  0  0  0  0  0  0  0  0  0  0  0
  145.9448  137.6363  152.1979 C   0  0  0  0  0  0  0  0  0  0  0  0
  146.5911  138.6043  151.3995 C   0  0  0  0  0  0  0  0  0  0  0  0
  147.0627  139.7894  152.0010 C   0  0  0  0  0  0  0  0  0  0  0  0
  146.8774  139.9835  153.3875 C   0  0  0  0  0  0  0  0  0  0  0  0
  147.3776  141.2450  154.0621 C   0  0  0  0  0  0  0  0  0  0  0  0
  148.8889  141.1928  154.3369 C   0  0  0  0  0  0  0  0  0  0  0  0
  149.2780  142.1623  155.3528 N   0  0  0  0  0  0  0  0  0  0  0  0
  149.8167  141.8537  156.5443 C   0  0  0  0  0  0  0  0  0  0  0  0
  150.0245  140.6994  156.9137 O   0  0  0  0  0  0  0  0  0  0  0  0
  150.1207  142.9125  157.3153 N   0  0  0  0  0  0  0  0  0  0  0  0
  150.7140  142.9131  158.6549 C   0  0  1  0  0  0  0  0  0  0  0  0
  152.0459  142.1316  158.6899 C   0  0  0  0  0  0  0  0  0  0  0  0
  153.0468  143.1792  159.2120 C   0  0  2  0  0  0  0  0  0  0  0  0
  152.7458  143.4888  160.6915 C   0  0  0  0  0  0  0  0  0  0  0  0
  151.4404  144.3045  160.6119 C   0  0  0  0  0  0  0  0  0  0  0  0
  151.1527  144.3293  159.0994 C   0  0  1  0  0  0  0  0  0  0  0  0
  152.5599  144.4455  158.5216 C   0  0  0  0  0  0  0  0  0  0  0  0
  146.2250  138.9806  154.1358 C   0  0  0  0  0  0  0  0  0  0  0  0
  145.7890  137.8586  153.5224 N   0  3  0  0  0  0  0  0  0  0  0  0
  145.5524  136.2991  150.5456 H   0  0  0  0  0  0  0  0  0  0  0  0
  144.3471  136.2405  151.8355 H   0  0  0  0  0  0  0  0  0  0  0  0
  145.9315  135.4885  152.0688 H   0  0  0  0  0  0  0  0  0  0  0  0
  146.7260  138.4443  150.3397 H   0  0  0  0  0  0  0  0  0  0  0  0
  147.5619  140.5385  151.4036 H   0  0  0  0  0  0  0  0  0  0  0  0
  147.1360  142.1017  153.4313 H   0  0  0  0  0  0  0  0  0  0  0  0
  146.8322  141.3882  154.9959 H   0  0  0  0  0  0  0  0  0  0  0  0
  149.1704  140.2005  154.6900 H   0  0  0  0  0  0  0  0  0  0  0  0
  149.4521  141.3676  153.4185 H   0  0  0  0  0  0  0  0  0  0  0  0
  149.1384  143.1382  155.1338 H   0  0  0  0  0  0  0  0  0  0  0  0
  149.9010  143.8217  156.9349 H   0  0  0  0  0  0  0  0  0  0  0  0
  150.0077  142.4769  159.3638 H   0  0  0  0  0  0  0  0  0  0  0  0
  151.9939  141.2544  159.3360 H   0  0  0  0  0  0  0  0  0  0  0  0
  152.3388  141.7903  157.6955 H   0  0  0  0  0  0  0  0  0  0  0  0
  154.0889  142.9213  159.0212 H   0  0  0  0  0  0  0  0  0  0  0  0
  152.6364  142.5832  161.2892 H   0  0  0  0  0  0  0  0  0  0  0  0
  153.5436  144.0873  161.1331 H   0  0  0  0  0  0  0  0  0  0  0  0
  150.6294  143.8535  161.1848 H   0  0  0  0  0  0  0  0  0  0  0  0
  151.5974  145.3146  160.9925 H   0  0  0  0  0  0  0  0  0  0  0  0
  150.4696  145.1274  158.8069 H   0  0  0  0  0  0  0  0  0  0  0  0
  153.0885  145.3449  158.8432 H   0  0  0  0  0  0  0  0  0  0  0  0
  152.5892  144.3838  157.4326 H   0  0  0  0  0  0  0  0  0  0  0  0
  146.0422  139.0389  155.1989 H   0  0  0  0  0  0  0  0  0  0  0  0
  145.3215  137.1468  154.0844 H   0  0  0  0  0  0  0  0  0  0  0  0
  1  2  1  0  0  0  0
  1 21  1  0  0  0  0
  1 22  1  0  0  0  0
  1 23  1  0  0  0  0
  2 20  1  0  0  0  0
  2  3  2  0  0  0  0
  3  4  1  0  0  0  0
  3 24  1  0  0  0  0
  4  5  2  0  0  0  0
  4 25  1  0  0  0  0
  5  6  1  0  0  0  0
  5 19  1  0  0  0  0
  6  7  1  0  0  0  0
  6 26  1  0  0  0  0
  6 27  1  0  0  0  0
  7  8  1  0  0  0  0
  7 28  1  0  0  0  0
  7 29  1  0  0  0  0
  8  9  1  0  0  0  0
  8 30  1  0  0  0  0
  9 10  2  0  0  0  0
  9 11  1  0  0  0  0
 11 12  1  0  0  0  0
 11 31  1  0  0  0  0
 12 17  1  0  0  0  0
 12 13  1  0  0  0  0
 12 32  1  0  0  0  0
 13 14  1  0  0  0  0
 13 33  1  0  0  0  0
 13 34  1  0  0  0  0
 14 18  1  0  0  0  0
 14 15  1  0  0  0  0
 14 35  1  0  0  0  0
 15 16  1  0  0  0  0
 15 36  1  0  0  0  0
 15 37  1  0  0  0  0
 16 17  1  0  0  0  0
 16 38  1  0  0  0  0
 16 39  1  0  0  0  0
 17 18  1  0  0  0  0
 17 40  1  0  0  0  0
 18 41  1  0  0  0  0
 18 42  1  0  0  0  0
 19 20  2  0  0  0  0
 19 43  1  0  0  0  0
 20 44  1  0  0  0  0
M  CHG  1  20   1
M  END
> <s_m_source_file>
AV-unprocessed.smi

> <i_m_source_file_index>
753

> <i_lp_mmshare_version>
43012

> <i_f3d_flags>
0

> <s_epik_input>
W0NIM11jMVtjSF1bY0hdYyhbY0hdbjEpW0NIMl1bQ0gyXVtOSF1DKD1PKVtOSF1bQ0BIXShbQ0gyXVtDQEBIXTIzKVtDQEBIXShbQ0gyXTMpW0NIMl1bQ0gyXTI=

> <s_epik_cmdline>
J2VwaWtfcHl0aG9uJywgJy1waCcsICc3LjAnLCAnLXRuJywgJzgnLCAnLW1hJywgJzIwMCcsICctbWV0YWxfYmluZGluZycsICctaW1hZScsICc8aW5maWxlLm1hZT4nLCAnLW9tYWUnLCAnPG91dGZpbGUubWFlPic=

> <r_epik_Ionization_Penalty>
1.41708

> <r_epik_Ionization_Penalty_Charging>
1.41702

> <r_epik_Ionization_Penalty_Neutral>
5.73163e-05

> <r_epik_State_Penalty>
1.50048

> <r_epik_Charging_Adjusted_Penalty>
2.9175

> <i_epik_Tot_Q>
1

> <i_epik_Tot_abs_Q>
1

> <r_epik_Metal_State_Penalty>
1.55295

> <b_epik_Metal_Only>
0

> <s_lp_Force_Field>
OPLS_2005

> <r_lp_Energy>
57.1024

> <b_lp_Chiralities_Consistent>
1

> <s_lp_Variant>
AV-unprocessed.smi:753-8

> <Gold.Version>
5.8.1

> <Gold.Id.Protein>
6NUR|6NUR_protein|mol2

> <Gold.PLP.Fitness>
49.4277

> <Gold.PLP.PLP>
-44.5360

> <Gold.PLP.part.hbond>
-2.0000

> <Gold.PLP.part.metal>
0.0000

> <Gold.PLP.part.buried>
-1.0518

> <Gold.PLP.part.nonpolar>
-44.1971

> <Gold.PLP.part.repulsive>
0.2227

> <Gold.PLP.ligand.clash>
0.0000

> <Gold.PLP.ligand.torsion>
0.4257

> <Gold.PLP.Chemscore.Hbond>
1.9040

> <Gold.PLP.Chemscore.CHOScore>
0.0000

> <Gold.PLP.Chemscore.Metal>
0.0000

> <Gold.Chemscore.Hbonds>
donor molecule, donor type, donor heavy atom, donor atom, acceptor molecule, acceptor atom, score
      L1  H     8    30       P1  8028  1.00
      L1  H    11    31       P1  8028  0.91

> <Gold.PLP.Chemscore.Internal.Correction>
0.0312

> <Gold.Rescore>
     Score         DG    S(hbond)    S(metal)    S(lipo)     H(rot)  DE(clash)    DE(int)     intcor
     22.32     -24.12       1.80        0.00     140.92       1.50       1.47       0.33       ----

> <Gold.Chemscore.Fitness>
22.3197

> <Gold.Chemscore.DG>
-24.1208

> <Gold.Chemscore.ZeroCoef>
-5.4800

> <Gold.Chemscore.Hbond>
1.7963

> <Gold.Chemscore.Metal>
0.0000

> <Gold.Chemscore.Lipo>
140.9235

> <Gold.Chemscore.Internal_Hbond>
0.0000

> <Gold.Chemscore.DEClash>
1.4729

> <Gold.Chemscore.DEInternal>
0.3281

> <Gold.Chemscore.Rot>
1.5027

> <Gold.Chemscore.Internal.Correction>
   9.000000E+99

> <Gold.Chemscore.Hbonds>
donor molecule, donor type, donor heavy atom, donor atom, acceptor molecule, acceptor atom, score
      L1  H     8    30       P1  8028  0.94
      L1  H    11    31       P1  8028  0.85

> <Gold.Chemscore.Hbond.Weighted>
-5.9995

> <Gold.Chemscore.Metal.Weighted>
-0.0000

> <Gold.Chemscore.Lipo.Weighted>
-16.4880

> <Gold.Chemscore.Internal_Hbond.Weighted>
0.0000

> <Gold.Chemscore.DEClash.Weighted>
1.4729

> <Gold.Chemscore.DEInternal.Weighted>
0.3281

> <Gold.Chemscore.Rot.Weighted>
3.8468

> <Gold.Chemscore.Internal.Correction.Weighted>
   9.000000E+99

> <Gold.Protein.RotatedTorsions>
[ 6907 6896 6895 6894 ] final  -94.74 input  -60.11 | X-H torsion
[ 7974 7965 7964 7962 ] final   -0.24 input  175.53 | X-H torsion
[ 8008 7997 7996 7995 ] final  -82.73 input   59.86 | X-H torsion
[ 10167 10162 10161 10158 ] final   64.47 input  -65.29 | X-H torsion
[ 10718 10713 10712 10709 ] final  169.20 input   66.30 | X-H torsion
[ 10763 10752 10751 10750 ] final  -32.04 input  -60.55 | X-H torsion
[ 11005 11000 10999 10996 ] final  166.52 input  -57.11 | X-H torsion

> <Gold.Protein.ActiveResidues>
 VAL166  LYS551  ARG553  GLY616  TRP617  ASP618  TYR619  PRO620  LYS621  CYS622 
 ASP623  PHE694  ASN695  SER759  ASP760  ASP761  ALA762  ILE779  LEU786  VAL792 
 PHE793  MET794  SER795  GLU796  ALA797  LYS798  CYS799  TRP800  GLU811  SER814 

> <Gold.Protein.RotatedAtoms>
  150.6948  134.1766  159.4232 H   0  0  0  0  0  0  0  0  0  0  0  0  # atno 6907 bound_to 6896
  151.9742  135.0059  160.0563 H   0  0  0  0  0  0  0  0  0  0  0  0  # atno 6908 bound_to 6896
  152.1814  133.4675  159.4997 H   0  0  0  0  0  0  0  0  0  0  0  0  # atno 6909 bound_to 6896
  146.2429  140.1239  142.8339 H   0  0  0  0  0  0  0  0  0  0  0  0  # atno 7974 bound_to 7965
  154.6117  140.0629  156.9502 H   0  0  0  0  0  0  0  0  0  0  0  0  # atno 8008 bound_to 7997
  155.1963  140.3311  155.4332 H   0  0  0  0  0  0  0  0  0  0  0  0  # atno 8009 bound_to 7997
  156.2380  140.1872  156.7049 H   0  0  0  0  0  0  0  0  0  0  0  0  # atno 8010 bound_to 7997
  140.1218  144.4724  150.6916 H   0  0  0  0  0  0  0  0  0  0  0  0  # atno 10167 bound_to 10162
  157.0261  131.0246  151.2759 H   0  0  0  0  0  0  0  0  0  0  0  0  # atno 10718 bound_to 10713
  153.8073  135.6885  153.4846 H   0  0  0  0  0  0  0  0  0  0  0  0  # atno 10763 bound_to 10752
  153.1650  135.4565  154.9823 H   0  0  0  0  0  0  0  0  0  0  0  0  # atno 10764 bound_to 10752
  154.7982  135.3327  154.7557 H   0  0  0  0  0  0  0  0  0  0  0  0  # atno 10765 bound_to 10752
  140.2673  134.7855  157.3643 H   0  0  0  0  0  0  0  0  0  0  0  0  # atno 11005 bound_to 11000
  145.0383  140.8925  143.5068 LP  0  0  0  0  0  0  0  0  0  0  0  0  # atno 17320 bound_to 7965
  145.1315  139.2629  143.5537 LP  0  0  0  0  0  0  0  0  0  0  0  0  # atno 17321 bound_to 7965
  140.6867  143.2354  151.5240 LP  0  0  0  0  0  0  0  0  0  0  0  0  # atno 17342 bound_to 10162
  139.5564  144.2264  152.1620 LP  0  0  0  0  0  0  0  0  0  0  0  0  # atno 17343 bound_to 10162
  157.5213  130.8000  149.7812 LP  0  0  0  0  0  0  0  0  0  0  0  0  # atno 17370 bound_to 10713
  156.0085  130.3844  150.2345 LP  0  0  0  0  0  0  0  0  0  0  0  0  # atno 17371 bound_to 10713
  140.1407  134.4975  155.8034 LP  0  0  0  0  0  0  0  0  0  0  0  0  # atno 17394 bound_to 11000
  141.2182  133.6824  156.7205 LP  0  0  0  0  0  0  0  0  0  0  0  0  # atno 17395 bound_to 11000

$$$$
