AV-unprocessed.smi:706|AV-procd|sdf|3452|dock2
  -GOLD-   22720 0433D 1   1.00000     0.00000
 Structure written by MMmdl.
 27 27  0  0  0  0  0  0  0  0  1 V2000
  152.6243  142.6853  160.5199 C   0  0  0  0  0  0  0  0  0  0  0  0
  151.9027  143.8014  159.7615 C   0  0  0  0  0  0  0  0  0  0  0  0
  150.5721  143.3845  159.4931 O   0  0  0  0  0  0  0  0  0  0  0  0
  150.4803  142.2298  158.6711 C   0  0  0  0  0  0  0  0  0  0  0  0
  150.8986  142.5339  157.2206 C   0  0  0  0  0  0  0  0  0  0  0  0
  150.8630  141.3574  156.3777 N   0  0  0  0  0  0  0  0  0  0  0  0
  150.0512  141.2359  155.2470 C   0  0  0  0  0  0  0  0  0  0  0  0
  149.2281  142.2882  154.8869 N   0  0  0  0  0  0  0  0  0  0  0  0
  150.0605  140.1138  154.4830 C   0  0  0  0  0  0  0  0  0  0  0  0
  150.9243  138.9824  154.8022 C   0  0  0  0  0  0  0  0  0  0  0  0
  150.9821  137.9330  154.1654 O   0  0  0  0  0  0  0  0  0  0  0  0
  151.7280  139.1668  155.9272 N   0  0  0  0  0  0  0  0  0  0  0  0
  151.7485  140.3074  156.7272 C   0  0  0  0  0  0  0  0  0  0  0  0
  152.5205  140.3612  157.6854 O   0  0  0  0  0  0  0  0  0  0  0  0
  152.3518  138.4138  156.1788 H   0  0  0  0  0  0  0  0  0  0  0  0
  153.6525  142.9685  160.7456 H   0  0  0  0  0  0  0  0  0  0  0  0
  152.6515  141.7675  159.9323 H   0  0  0  0  0  0  0  0  0  0  0  0
  152.1232  142.4656  161.4631 H   0  0  0  0  0  0  0  0  0  0  0  0
  151.8978  144.7123  160.3619 H   0  0  0  0  0  0  0  0  0  0  0  0
  152.4364  144.0184  158.8363 H   0  0  0  0  0  0  0  0  0  0  0  0
  151.1569  141.4824  159.0866 H   0  0  0  0  0  0  0  0  0  0  0  0
  149.4791  141.7985  158.7189 H   0  0  0  0  0  0  0  0  0  0  0  0
  150.2784  143.2973  156.7491 H   0  0  0  0  0  0  0  0  0  0  0  0
  151.9140  142.9261  157.1779 H   0  0  0  0  0  0  0  0  0  0  0  0
  149.1956  143.1464  155.4188 H   0  0  0  0  0  0  0  0  0  0  0  0
  148.6082  142.2318  154.0914 H   0  0  0  0  0  0  0  0  0  0  0  0
  149.4211  140.0451  153.6138 H   0  0  0  0  0  0  0  0  0  0  0  0
  1  2  1  0  0  0  0
  1 16  1  0  0  0  0
  1 17  1  0  0  0  0
  1 18  1  0  0  0  0
  2  3  1  0  0  0  0
  2 19  1  0  0  0  0
  2 20  1  0  0  0  0
  3  4  1  0  0  0  0
  4  5  1  0  0  0  0
  4 21  1  0  0  0  0
  4 22  1  0  0  0  0
  5  6  1  0  0  0  0
  5 23  1  0  0  0  0
  5 24  1  0  0  0  0
  6 13  1  0  0  0  0
  6  7  1  0  0  0  0
  7  8  1  0  0  0  0
  7  9  2  0  0  0  0
  8 25  1  0  0  0  0
  8 26  1  0  0  0  0
  9 10  1  0  0  0  0
  9 27  1  0  0  0  0
 10 11  2  0  0  0  0
 10 12  1  0  0  0  0
 12 15  1  0  0  0  0
 12 13  1  0  0  0  0
 13 14  2  0  0  0  0
M  END
> <s_m_source_file>
AV-unprocessed.smi

> <i_m_source_file_index>
706

> <i_lp_mmshare_version>
43012

> <i_f3d_flags>
0

> <s_epik_input>
W0NIM11bQ0gyXU9bQ0gyXVtDSDJdbjFjKFtOSDJdKVtjSF1jKD1PKVtuSF1jMT1P

> <s_epik_cmdline>
J2VwaWtfcHl0aG9uJywgJy1waCcsICc3LjAnLCAnLXRuJywgJzgnLCAnLW1hJywgJzIwMCcsICctbWV0YWxfYmluZGluZycsICctaW1hZScsICc8aW5maWxlLm1hZT4nLCAnLW9tYWUnLCAnPG91dGZpbGUubWFlPic=

> <r_lp_tautomer_probability>
1

> <r_epik_Ionization_Penalty>
6.92057e-06

> <r_epik_Ionization_Penalty_Charging>
2.18399e-06

> <r_epik_Ionization_Penalty_Neutral>
4.73657e-06

> <r_epik_State_Penalty>
-0

> <r_epik_Charging_Adjusted_Penalty>
2.18399e-06

> <i_epik_Tot_Q>
0

> <i_epik_Tot_abs_Q>
0

> <r_epik_Metal_State_Penalty>
-0

> <b_epik_Metal_Only>
0

> <s_epik_Chemistry_Notes>
This compound has an imine and may undergo hydrolysis.

> <s_lp_Force_Field>
OPLS_2005

> <r_lp_Energy>
11.2939

> <b_lp_Chiralities_Consistent>
1

> <s_lp_Variant>
AV-unprocessed.smi:706-1

> <Gold.Version>
5.8.1

> <Gold.Id.Protein>
6NUR|6NUR_protein|mol2

> <Gold.PLP.Fitness>
35.0197

> <Gold.PLP.PLP>
-29.0766

> <Gold.PLP.part.hbond>
-2.0000

> <Gold.PLP.part.metal>
0.0000

> <Gold.PLP.part.buried>
-2.3638

> <Gold.PLP.part.nonpolar>
-24.4894

> <Gold.PLP.part.repulsive>
0.6599

> <Gold.PLP.ligand.clash>
0.0000

> <Gold.PLP.ligand.torsion>
0.0333

> <Gold.PLP.Chemscore.Hbond>
2.0000

> <Gold.PLP.Chemscore.CHOScore>
0.0000

> <Gold.PLP.Chemscore.Metal>
0.0000

> <Gold.Chemscore.Hbonds>
donor molecule, donor type, donor heavy atom, donor atom, acceptor molecule, acceptor atom, score
      L1  H     8    25       P1  8028  1.00
      P1  H  7997  8010       L1    14  0.71

> <Gold.PLP.Chemscore.Internal.Correction>
0.0096

> <Gold.Rescore>
     Score         DG    S(hbond)    S(metal)    S(lipo)     H(rot)  DE(clash)    DE(int)     intcor
     11.66     -12.09       1.90        0.00      48.77       2.12       0.02       0.41       ----

> <Gold.Chemscore.Fitness>
11.6633

> <Gold.Chemscore.DG>
-12.0919

> <Gold.Chemscore.ZeroCoef>
-5.4800

> <Gold.Chemscore.Hbond>
1.8999

> <Gold.Chemscore.Metal>
0.0000

> <Gold.Chemscore.Lipo>
48.7705

> <Gold.Chemscore.Internal_Hbond>
0.0000

> <Gold.Chemscore.DEClash>
0.0195

> <Gold.Chemscore.DEInternal>
0.4091

> <Gold.Chemscore.Rot>
2.1250

> <Gold.Chemscore.Internal.Correction>
   9.000000E+99

> <Gold.Chemscore.Hbonds>
donor molecule, donor type, donor heavy atom, donor atom, acceptor molecule, acceptor atom, score
      L1  H     8    25       P1  8028  0.97
      P1  H  7997  8010       L1    14  0.24

> <Gold.Chemscore.Hbond.Weighted>
-6.3457

> <Gold.Chemscore.Metal.Weighted>
-0.0000

> <Gold.Chemscore.Lipo.Weighted>
-5.7062

> <Gold.Chemscore.Internal_Hbond.Weighted>
0.0000

> <Gold.Chemscore.DEClash.Weighted>
0.0195

> <Gold.Chemscore.DEInternal.Weighted>
0.4091

> <Gold.Chemscore.Rot.Weighted>
5.4399

> <Gold.Chemscore.Internal.Correction.Weighted>
   9.000000E+99

> <Gold.Protein.RotatedTorsions>
[ 6907 6896 6895 6894 ] final    9.09 input  -60.11 | X-H torsion
[ 7974 7965 7964 7962 ] final -147.61 input  175.53 | X-H torsion
[ 8008 7997 7996 7995 ] final   53.48 input   59.86 | X-H torsion
[ 10167 10162 10161 10158 ] final -120.84 input  -65.29 | X-H torsion
[ 10718 10713 10712 10709 ] final   90.08 input   66.30 | X-H torsion
[ 10763 10752 10751 10750 ] final  -73.07 input  -60.55 | X-H torsion
[ 11005 11000 10999 10996 ] final   81.05 input  -57.11 | X-H torsion

> <Gold.Protein.ActiveResidues>
 VAL166  LYS551  ARG553  GLY616  TRP617  ASP618  TYR619  PRO620  LYS621  CYS622 
 ASP623  PHE694  ASN695  SER759  ASP760  ASP761  ALA762  ILE779  LEU786  VAL792 
 PHE793  MET794  SER795  GLU796  ALA797  LYS798  CYS799  TRP800  GLU811  SER814 

> <Gold.Protein.RotatedAtoms>
  151.7166  135.0902  160.0276 H   0  0  0  0  0  0  0  0  0  0  0  0  # atno 6907 bound_to 6896
  152.3628  133.6315  159.6036 H   0  0  0  0  0  0  0  0  0  0  0  0  # atno 6908 bound_to 6896
  150.7617  133.9312  159.3469 H   0  0  0  0  0  0  0  0  0  0  0  0  # atno 6909 bound_to 6896
  144.8082  140.5304  143.5660 H   0  0  0  0  0  0  0  0  0  0  0  0  # atno 7974 bound_to 7965
  155.4690  140.3464  155.4323 H   0  0  0  0  0  0  0  0  0  0  0  0  # atno 8008 bound_to 7997
  156.1113  140.1461  156.9364 H   0  0  0  0  0  0  0  0  0  0  0  0  # atno 8009 bound_to 7997
  154.4758  140.0885  156.7237 H   0  0  0  0  0  0  0  0  0  0  0  0  # atno 8010 bound_to 7997
  140.0315  143.5244  152.2174 H   0  0  0  0  0  0  0  0  0  0  0  0  # atno 10167 bound_to 10162
  157.6958  131.0357  150.3523 H   0  0  0  0  0  0  0  0  0  0  0  0  # atno 10718 bound_to 10713
  154.4544  135.5909  153.6213 H   0  0  0  0  0  0  0  0  0  0  0  0  # atno 10763 bound_to 10752
  152.9817  135.6029  154.3564 H   0  0  0  0  0  0  0  0  0  0  0  0  # atno 10764 bound_to 10752
  154.3429  135.2841  155.2392 H   0  0  0  0  0  0  0  0  0  0  0  0  # atno 10765 bound_to 10752
  139.9112  134.7967  156.1990 H   0  0  0  0  0  0  0  0  0  0  0  0  # atno 11005 bound_to 11000
  145.5387  139.1475  143.3459 LP  0  0  0  0  0  0  0  0  0  0  0  0  # atno 17320 bound_to 7965
  146.2377  140.5526  142.8947 LP  0  0  0  0  0  0  0  0  0  0  0  0  # atno 17321 bound_to 7965
  139.6073  144.7599  151.3032 LP  0  0  0  0  0  0  0  0  0  0  0  0  # atno 17342 bound_to 10162
  140.7300  143.6892  150.7936 LP  0  0  0  0  0  0  0  0  0  0  0  0  # atno 17343 bound_to 10162
  156.3970  130.3908  149.6988 LP  0  0  0  0  0  0  0  0  0  0  0  0  # atno 17370 bound_to 10713
  156.4318  130.7819  151.2839 LP  0  0  0  0  0  0  0  0  0  0  0  0  # atno 17371 bound_to 10713
  141.0537  133.6876  156.1819 LP  0  0  0  0  0  0  0  0  0  0  0  0  # atno 17394 bound_to 11000
  140.6771  134.4807  157.5588 LP  0  0  0  0  0  0  0  0  0  0  0  0  # atno 17395 bound_to 11000

$$$$
