#       Name:                AV-unprocessed.smi:1718
#       Creating user name   scv26
#       Creation time:       Fri Mar 27 08:13:49 2020


#       File generated by GOLD software.
#

@<TRIPOS>MOLECULE
AV-unprocessed.smi:1718
    48    49     1
SMALL
NO_CHARGES


@<TRIPOS>ATOM
      1 ****        -1.0444  -2.6817   1.6449 C.3            1 S1                 0.0000
      2 ****        -0.5997  -1.8519   0.4314 C.3            1 S1                 0.0000
      3 ****         0.8246  -1.8209   0.4333 O.3            1 S1                 0.0000
      4 ****         1.4272  -1.3828  -0.7802 C.3            1 S1                 0.0000
      5 ****         2.9550  -1.4166  -0.6386 C.3            1 S1                 0.0000
      6 ****         3.5253  -0.5950   0.5247 C.3            1 S1                 0.0000
      7 ****         4.6678  -1.4505   1.0568 C.3            1 S1                 0.0000
      8 ****         4.7421  -2.6262   0.0842 C.3            1 S1                 0.0000
      9 ****         3.4187  -2.7390  -0.4120 O.3            1 S1                 0.0000
     10 ****        -1.1613  -0.4223   0.4950 C.2            1 S1                 0.0000
     11 ****        -0.9662   0.2575   1.5024 O.2            1 S1                 0.0000
     12 ****        -1.8146  -0.0116  -0.6099 N.am           1 S1                 0.0000
     13 ****        -2.4413   1.2168  -0.8817 C.2            1 S1                 0.0000
     14 ****        -2.7304   2.1697   0.0477 C.2            1 S1                 0.0000
     15 ****        -3.3946   3.4204  -0.2969 C.2            1 S1                 0.0000
     16 ****        -3.6365   4.5454   0.6938 C.3            1 S1                 0.0000
     17 ****        -3.5244   5.7362   0.1048 F              1 S1                 0.0000
     18 ****        -4.8643   4.4466   1.2012 F              1 S1                 0.0000
     19 ****        -2.7647   4.4905   1.7008 F              1 S1                 0.0000
     20 ****        -3.6772   3.5097  -1.6461 C.2            1 S1                 0.0000
     21 ****        -3.4520   2.6050  -2.6238 N.pl3          1 S1                -1.0000
     22 ****        -2.8264   1.4408  -2.2908 C.2            1 S1                 0.0000
     23 ****        -2.5795   0.5784  -3.1349 O.2            1 S1                 0.0000
     24 ****        -2.1317  -2.7344   1.7117 H              1 S1                 0.0000
     25 ****        -0.6700  -2.2610   2.5792 H              1 S1                 0.0000
     26 ****        -0.6694  -3.7027   1.5716 H              1 S1                 0.0000
     27 ****        -0.9516  -2.3528  -0.4727 H              1 S1                 0.0000
     28 ****         1.1173  -2.0271  -1.6040 H              1 S1                 0.0000
     29 ****         1.1147  -0.3676  -1.0264 H              1 S1                 0.0000
     30 ****         3.4058  -1.0688  -1.5698 H              1 S1                 0.0000
     31 ****         3.8673   0.3831   0.1847 H              1 S1                 0.0000
     32 ****         2.7875  -0.4304   1.3109 H              1 S1                 0.0000
     33 ****         5.6109  -0.9068   1.1159 H              1 S1                 0.0000
     34 ****         4.4240  -1.8087   2.0576 H              1 S1                 0.0000
     35 ****         5.4209  -2.4048  -0.7411 H              1 S1                 0.0000
     36 ****         5.0729  -3.5484   0.5628 H              1 S1                 0.0000
     37 ****        -1.8384  -0.6651  -1.3794 H              1 S1                 0.0000
     38 ****        -2.4923   2.0230   1.0878 H              1 S1                 0.0000
     39 ****        -4.1500   4.4531  -1.9934 H              1 S1                 0.0000
     40 ****         1.1531  -2.7458   0.6246 LP             1 S1                 0.0000
     41 ****         1.1189  -1.2048   1.1639 LP             1 S1                 0.0000
     42 ****         3.4141  -3.2573  -1.2672 LP             1 S1                 0.0000
     43 ****         2.8367  -3.1982   0.2591 LP             1 S1                 0.0000
     44 ****        -0.4471  -0.1214   2.2684 LP             1 S1                 0.0000
     45 ****        -1.3269   1.1888   1.5547 LP             1 S1                 0.0000
     46 ****        -3.7364   2.7845  -3.5656 LP             1 S1                 0.0000
     47 ****        -2.1207  -0.2682  -2.8654 LP             1 S1                 0.0000
     48 ****        -2.8379   0.7249  -4.0898 LP             1 S1                 0.0000
@<TRIPOS>BOND
    1    1    2 1     
    2    1   24 1     
    3    1   25 1     
    4    1   26 1     
    5    2    3 1     
    6    2   10 1     
    7    2   27 1     
    8    3    4 1     
    9    4    5 1     
   10    4   28 1     
   11    4   29 1     
   12    5    9 1     
   13    5    6 1     
   14    5   30 1     
   15    6    7 1     
   16    6   31 1     
   17    6   32 1     
   18    7    8 1     
   19    7   33 1     
   20    7   34 1     
   21    8    9 1     
   22    8   35 1     
   23    8   36 1     
   24   10   11 2     
   25   10   12 am    
   26   12   13 1     
   27   12   37 1     
   28   13   22 1     
   29   13   14 2     
   30   14   15 1     
   31   14   38 1     
   32   15   16 1     
   33   15   20 2     
   34   16   17 1     
   35   16   18 1     
   36   16   19 1     
   37   20   21 1     
   38   20   39 1     
   39   21   22 1     
   40   22   23 2     
   41    3   40 1     
   42    3   41 1     
   43    9   42 1     
   44    9   43 1     
   45   11   44 1     
   46   11   45 1     
   47   21   46 1     
   48   23   47 1     
   49   23   48 1     
@<TRIPOS>SUBSTRUCTURE
      1 S1             1
@<TRIPOS>SET
LONE_PAIRS      STATIC     ATOMS    <user>   **** ""
9 40 41 42 43 44 45 46 47 48
DONOR_HYDROGENS      STATIC     ATOMS    <user>   **** ""
1 37
ATOM$BLUE        STATIC     ATOMS    COLORGROUP SYSTEM
9 40 41 42 43 44 45 46 47 48
ATOM$RED        STATIC     ATOMS    COLORGROUP SYSTEM
1 37
