AV-unprocessed.smi:2001|AV-procd|sdf|8111|dock10
  -GOLD-   2272010343D 1   1.00000     0.00000
 Structure written by MMmdl.
 50 51  0  0  0  0  0  0  0  0  3 V2000
  153.0300  141.8852  160.2553 C   0  0  0  0  0  0  0  0  0  0  0  0
  152.6464  142.4664  159.0221 O   0  0  0  0  0  0  0  0  0  0  0  0
  151.6814  141.6899  158.3314 C   0  0  0  0  0  0  0  0  0  0  0  0
  151.3518  142.3471  156.9814 C   0  0  0  0  0  0  0  0  0  0  0  0
  150.9177  141.3587  155.9883 N   0  0  0  0  0  0  0  0  0  0  0  0
  149.7384  141.6942  155.3460 N   0  0  0  0  0  0  0  0  0  0  0  0
  149.2422  140.9199  154.4361 C   0  0  0  0  0  0  0  0  0  0  0  0
  147.9659  141.2863  153.7426 C   0  0  0  0  0  0  0  0  0  0  0  0
  147.4619  142.3597  154.1016 O   0  0  0  0  0  0  0  0  0  0  0  0
  147.4570  140.4432  152.7938 N   0  5  0  0  0  0  0  0  0  0  0  0
  147.2031  139.0172  152.9860 C   0  0  0  0  0  0  0  0  0  0  0  0
  146.7066  138.3951  151.6669 C   0  0  0  0  0  0  0  0  0  0  0  0
  146.4345  136.9402  151.8093 N   0  3  1  0  0  0  0  0  0  0  0  0
  145.6670  136.6080  153.0324 C   0  0  0  0  0  0  0  0  0  0  0  0
  145.5412  135.0814  153.1877 C   0  0  1  0  0  0  0  0  0  0  0  0
  144.6756  134.6954  154.3919 C   0  0  0  0  0  0  0  0  0  0  0  0
  144.9377  134.5296  152.0200 O   0  0  0  0  0  0  0  0  0  0  0  0
  145.6252  134.8080  150.7998 C   0  0  2  0  0  0  0  0  0  0  0  0
  146.9508  134.0341  150.6851 C   0  0  0  0  0  0  0  0  0  0  0  0
  145.7863  136.3291  150.6193 C   0  0  0  0  0  0  0  0  0  0  0  0
  149.9192  139.6809  154.0732 C   0  0  0  0  0  0  0  0  0  0  0  0
  151.0717  139.3689  154.7053 C   0  0  0  0  0  0  0  0  0  0  0  0
  151.6499  140.2326  155.7352 C   0  0  0  0  0  0  0  0  0  0  0  0
  152.7012  139.9699  156.3192 O   0  0  0  0  0  0  0  0  0  0  0  0
  153.7835  142.5101  160.7348 H   0  0  0  0  0  0  0  0  0  0  0  0
  153.4587  140.8929  160.1083 H   0  0  0  0  0  0  0  0  0  0  0  0
  152.1798  141.8031  160.9337 H   0  0  0  0  0  0  0  0  0  0  0  0
  152.0810  140.6895  158.1599 H   0  0  0  0  0  0  0  0  0  0  0  0
  150.7764  141.5777  158.9311 H   0  0  0  0  0  0  0  0  0  0  0  0
  150.6119  143.1379  157.1163 H   0  0  0  0  0  0  0  0  0  0  0  0
  152.2437  142.8526  156.6064 H   0  0  0  0  0  0  0  0  0  0  0  0
  148.0959  138.4813  153.3107 H   0  0  0  0  0  0  0  0  0  0  0  0
  146.4558  138.8460  153.7616 H   0  0  0  0  0  0  0  0  0  0  0  0
  145.7921  138.9131  151.3732 H   0  0  0  0  0  0  0  0  0  0  0  0
  147.4210  138.5645  150.8595 H   0  0  0  0  0  0  0  0  0  0  0  0
  146.1719  137.0204  153.9071 H   0  0  0  0  0  0  0  0  0  0  0  0
  144.6806  137.0720  152.9805 H   0  0  0  0  0  0  0  0  0  0  0  0
  146.5303  134.6457  153.3306 H   0  0  0  0  0  0  0  0  0  0  0  0
  145.0981  135.0816  155.3198 H   0  0  0  0  0  0  0  0  0  0  0  0
  144.6020  133.6116  154.4870 H   0  0  0  0  0  0  0  0  0  0  0  0
  143.6640  135.0905  154.2942 H   0  0  0  0  0  0  0  0  0  0  0  0
  144.9788  134.4455  150.0000 H   0  0  0  0  0  0  0  0  0  0  0  0
  147.3828  134.1555  149.6916 H   0  0  0  0  0  0  0  0  0  0  0  0
  146.7936  132.9675  150.8477 H   0  0  0  0  0  0  0  0  0  0  0  0
  147.6947  134.3769  151.4039 H   0  0  0  0  0  0  0  0  0  0  0  0
  144.8059  136.7859  150.4745 H   0  0  0  0  0  0  0  0  0  0  0  0
  146.3622  136.5355  149.7164 H   0  0  0  0  0  0  0  0  0  0  0  0
  149.5257  139.0180  153.3170 H   0  0  0  0  0  0  0  0  0  0  0  0
  151.5839  138.4546  154.4431 H   0  0  0  0  0  0  0  0  0  0  0  0
  147.3376  136.5002  151.9158 H   0  0  0  0  0  0  0  0  0  0  0  0
  1  2  1  0  0  0  0
  1 25  1  0  0  0  0
  1 26  1  0  0  0  0
  1 27  1  0  0  0  0
  2  3  1  0  0  0  0
  3  4  1  0  0  0  0
  3 28  1  0  0  0  0
  3 29  1  0  0  0  0
  4  5  1  0  0  0  0
  4 30  1  0  0  0  0
  4 31  1  0  0  0  0
  5 23  1  0  0  0  0
  5  6  1  0  0  0  0
  6  7  2  0  0  0  0
  7  8  1  0  0  0  0
  7 21  1  0  0  0  0
  8  9  2  0  0  0  0
  8 10  1  0  0  0  0
 10 11  1  0  0  0  0
 11 12  1  0  0  0  0
 11 32  1  0  0  0  0
 11 33  1  0  0  0  0
 12 13  1  0  0  0  0
 12 34  1  0  0  0  0
 12 35  1  0  0  0  0
 13 20  1  0  0  0  0
 13 14  1  0  0  0  0
 13 50  1  0  0  0  0
 14 15  1  0  0  0  0
 14 36  1  0  0  0  0
 14 37  1  0  0  0  0
 15 16  1  0  0  0  0
 15 17  1  0  0  0  0
 15 38  1  0  0  0  0
 16 39  1  0  0  0  0
 16 40  1  0  0  0  0
 16 41  1  0  0  0  0
 17 18  1  0  0  0  0
 18 19  1  0  0  0  0
 18 20  1  0  0  0  0
 18 42  1  0  0  0  0
 19 43  1  0  0  0  0
 19 44  1  0  0  0  0
 19 45  1  0  0  0  0
 20 46  1  0  0  0  0
 20 47  1  0  0  0  0
 21 22  2  0  0  0  0
 21 48  1  0  0  0  0
 22 23  1  0  0  0  0
 22 49  1  0  0  0  0
 23 24  2  0  0  0  0
M  CHG  1  10  -1
M  CHG  1  13   1
M  END
> <s_m_source_file>
AV-unprocessed.smi

> <i_m_source_file_index>
2001

> <i_lp_mmshare_version>
43012

> <i_f3d_flags>
0

> <s_epik_input>
W0NIM11PW0NIMl1bQ0gyXW4xbmMoW2NIXVtjSF1jMT1PKUMoPU8pW05IXVtDSDJdW0NIMl1OMltDSDJdW0NAQEhdKFtDSDNdKU9bQ0BASF0oW0NIM10pW0NIMl0y

> <s_epik_cmdline>
J2VwaWtfcHl0aG9uJywgJy1waCcsICc3LjAnLCAnLXRuJywgJzgnLCAnLW1hJywgJzIwMCcsICctbWV0YWxfYmluZGluZycsICctaW1hZScsICc8aW5maWxlLm1hZT4nLCAnLW9tYWUnLCAnPG91dGZpbGUubWFlPic=

> <r_lp_tautomer_probability>
1

> <r_epik_Ionization_Penalty>
6.90846

> <r_epik_Ionization_Penalty_Charging>
6.90846

> <r_epik_Ionization_Penalty_Neutral>
1.08445e-11

> <r_epik_State_Penalty>
7.54671

> <r_epik_Charging_Adjusted_Penalty>
14.4552

> <i_epik_Tot_Q>
0

> <i_epik_Tot_abs_Q>
2

> <r_epik_Metal_State_Penalty>
3.46181

> <b_epik_Metal_Only>
1

> <s_lp_Force_Field>
OPLS_2005

> <r_lp_Energy>
43.982

> <b_lp_Chiralities_Consistent>
1

> <s_lp_Variant>
AV-unprocessed.smi:2001-10

> <Gold.Version>
5.8.1

> <Gold.Id.Protein>
6NUR|6NUR_protein|mol2

> <Gold.PLP.Fitness>
50.9315

> <Gold.PLP.PLP>
-43.3363

> <Gold.PLP.part.hbond>
-2.0000

> <Gold.PLP.part.metal>
0.0000

> <Gold.PLP.part.buried>
-5.2764

> <Gold.PLP.part.nonpolar>
-37.2914

> <Gold.PLP.part.repulsive>
2.1482

> <Gold.PLP.ligand.clash>
0.0017

> <Gold.PLP.ligand.torsion>
0.7960

> <Gold.PLP.Chemscore.Hbond>
3.0000

> <Gold.PLP.Chemscore.CHOScore>
0.0000

> <Gold.PLP.Chemscore.Metal>
0.0000

> <Gold.Chemscore.Hbonds>
donor molecule, donor type, donor heavy atom, donor atom, acceptor molecule, acceptor atom, score
      L1  H    13    50       P1  7948  2.00
      P1  H  7997  8009       L1    24  1.00

> <Gold.PLP.Chemscore.Internal.Correction>
0.1889

> <Gold.Rescore>
     Score         DG    S(hbond)    S(metal)    S(lipo)     H(rot)  DE(clash)    DE(int)     intcor
     13.88     -16.63       1.93        0.00      84.47       2.02       0.15       2.60       ----

> <Gold.Chemscore.Fitness>
13.8849

> <Gold.Chemscore.DG>
-16.6288

> <Gold.Chemscore.ZeroCoef>
-5.4800

> <Gold.Chemscore.Hbond>
1.9256

> <Gold.Chemscore.Metal>
0.0000

> <Gold.Chemscore.Lipo>
84.4706

> <Gold.Chemscore.Internal_Hbond>
0.0000

> <Gold.Chemscore.DEClash>
0.1489

> <Gold.Chemscore.DEInternal>
2.5950

> <Gold.Chemscore.Rot>
2.0179

> <Gold.Chemscore.Internal.Correction>
   9.000000E+99

> <Gold.Chemscore.Hbonds>
donor molecule, donor type, donor heavy atom, donor atom, acceptor molecule, acceptor atom, score
      L1  H    13    50       P1  7948  0.99
      P1  H  7997  8009       L1    24  0.94

> <Gold.Chemscore.Hbond.Weighted>
-6.4316

> <Gold.Chemscore.Metal.Weighted>
-0.0000

> <Gold.Chemscore.Lipo.Weighted>
-9.8831

> <Gold.Chemscore.Internal_Hbond.Weighted>
0.0000

> <Gold.Chemscore.DEClash.Weighted>
0.1489

> <Gold.Chemscore.DEInternal.Weighted>
2.5950

> <Gold.Chemscore.Rot.Weighted>
5.1659

> <Gold.Chemscore.Internal.Correction.Weighted>
   9.000000E+99

> <Gold.Protein.RotatedTorsions>
[ 6907 6896 6895 6894 ] final -175.97 input  -60.11 | X-H torsion
[ 7974 7965 7964 7962 ] final -178.65 input  175.53 | X-H torsion
[ 8008 7997 7996 7995 ] final -179.63 input   59.86 | X-H torsion
[ 10167 10162 10161 10158 ] final  -56.12 input  -65.29 | X-H torsion
[ 10718 10713 10712 10709 ] final  -90.55 input   66.30 | X-H torsion
[ 10763 10752 10751 10750 ] final -171.99 input  -60.55 | X-H torsion
[ 11005 11000 10999 10996 ] final -179.44 input  -57.11 | X-H torsion

> <Gold.Protein.ActiveResidues>
 VAL166  LYS551  ARG553  GLY616  TRP617  ASP618  TYR619  PRO620  LYS621  CYS622 
 ASP623  PHE694  ASN695  SER759  ASP760  ASP761  ALA762  ILE779  LEU786  VAL792 
 PHE793  MET794  SER795  GLU796  ALA797  LYS798  CYS799  TRP800  GLU811  SER814 

> <Gold.Protein.RotatedAtoms>
  151.5973  133.3360  159.3039 H   0  0  0  0  0  0  0  0  0  0  0  0  # atno 6907 bound_to 6896
  150.8227  134.7446  159.6797 H   0  0  0  0  0  0  0  0  0  0  0  0  # atno 6908 bound_to 6896
  152.4319  134.5766  159.9988 H   0  0  0  0  0  0  0  0  0  0  0  0  # atno 6909 bound_to 6896
  144.7132  140.0837  143.6424 H   0  0  0  0  0  0  0  0  0  0  0  0  # atno 7974 bound_to 7965
  156.0328  140.1286  157.0240 H   0  0  0  0  0  0  0  0  0  0  0  0  # atno 8008 bound_to 7997
  154.4357  140.1046  156.6194 H   0  0  0  0  0  0  0  0  0  0  0  0  # atno 8009 bound_to 7997
  155.5782  140.3467  155.4535 H   0  0  0  0  0  0  0  0  0  0  0  0  # atno 8010 bound_to 7997
  140.6336  143.2471  151.5178 H   0  0  0  0  0  0  0  0  0  0  0  0  # atno 10167 bound_to 10162
  155.9988  130.4914  150.5340 H   0  0  0  0  0  0  0  0  0  0  0  0  # atno 10718 bound_to 10713
  154.6243  135.2879  155.0290 H   0  0  0  0  0  0  0  0  0  0  0  0  # atno 10763 bound_to 10752
  154.1473  135.6509  153.4959 H   0  0  0  0  0  0  0  0  0  0  0  0  # atno 10764 bound_to 10752
  153.0250  135.5347  154.7045 H   0  0  0  0  0  0  0  0  0  0  0  0  # atno 10765 bound_to 10752
  140.4186  134.6626  157.4652 H   0  0  0  0  0  0  0  0  0  0  0  0  # atno 11005 bound_to 11000
  145.9680  139.2849  143.1116 LP  0  0  0  0  0  0  0  0  0  0  0  0  # atno 17320 bound_to 7965
  145.9147  140.9156  143.0435 LP  0  0  0  0  0  0  0  0  0  0  0  0  # atno 17321 bound_to 7965
  139.5548  144.2304  152.1593 LP  0  0  0  0  0  0  0  0  0  0  0  0  # atno 17342 bound_to 10162
  140.1555  144.5075  150.6663 LP  0  0  0  0  0  0  0  0  0  0  0  0  # atno 17343 bound_to 10162
  157.3285  131.0695  151.1878 LP  0  0  0  0  0  0  0  0  0  0  0  0  # atno 17370 bound_to 10713
  157.2767  130.6730  149.6046 LP  0  0  0  0  0  0  0  0  0  0  0  0  # atno 17371 bound_to 10713
  140.0216  134.6538  155.9231 LP  0  0  0  0  0  0  0  0  0  0  0  0  # atno 17394 bound_to 11000
  141.1793  133.6544  156.4955 LP  0  0  0  0  0  0  0  0  0  0  0  0  # atno 17395 bound_to 11000

$$$$
