AV-unprocessed.smi:2340|AV-procd|sdf|9349|dock10
  -GOLD-   2272012573D 1   1.00000     0.00000
 Structure written by MMmdl.
 40 41  0  0  0  0  0  0  0  0  1 V2000
  145.7454  132.1037  149.3303 C   0  0  0  0  0  0  0  0  0  0  0  0
  145.8856  133.0303  150.4967 C   0  0  0  0  0  0  0  0  0  0  0  0
  146.7157  132.8779  151.5789 C   0  0  0  0  0  0  0  0  0  0  0  0
  146.5622  134.1975  152.7056 S   0  0  0  0  0  0  0  0  0  0  0  0
  145.3539  134.9218  151.6475 C   0  0  0  0  0  0  0  0  0  0  0  0
  144.6742  136.2272  151.9349 C   0  0  1  0  0  0  0  0  0  0  0  0
  144.1614  136.2982  153.3801 C   0  0  0  0  0  0  0  0  0  0  0  0
  145.5393  137.4511  151.5603 C   0  0  0  0  0  0  0  0  0  0  0  0
  146.7824  137.5220  152.3234 N   0  0  0  0  0  0  0  0  0  0  0  0
  146.9920  138.3215  153.3775 C   0  0  0  0  0  0  0  0  0  0  0  0
  146.1411  139.0733  153.8528 O   0  0  0  0  0  0  0  0  0  0  0  0
  148.2419  138.2035  153.8461 N   0  0  0  0  0  0  0  0  0  0  0  0
  148.7993  138.9508  154.9734 C   0  0  2  0  0  0  0  0  0  0  0  0
  148.5238  140.4449  154.8126 C   0  0  0  0  0  0  0  0  0  0  0  0
  149.8818  141.1014  155.0367 C   0  0  0  0  0  0  0  0  0  0  0  0
  150.7968  140.1204  154.5824 O   0  0  0  0  0  0  0  0  0  0  0  0
  150.3405  138.8672  155.0701 C   0  0  2  0  0  0  0  0  0  0  0  0
  151.0395  137.7222  154.3192 C   0  0  0  0  0  0  0  0  0  0  0  0
  145.1177  134.1965  150.5503 N   0  0  0  0  0  0  0  0  0  0  0  0
  146.3670  131.2158  149.4489 H   0  0  0  0  0  0  0  0  0  0  0  0
  146.0429  132.5926  148.4022 H   0  0  0  0  0  0  0  0  0  0  0  0
  144.7141  131.7699  149.2141 H   0  0  0  0  0  0  0  0  0  0  0  0
  147.4068  132.0731  151.7811 H   0  0  0  0  0  0  0  0  0  0  0  0
  143.7887  136.2622  151.2980 H   0  0  0  0  0  0  0  0  0  0  0  0
  143.4823  135.4729  153.5960 H   0  0  0  0  0  0  0  0  0  0  0  0
  143.6188  137.2270  153.5581 H   0  0  0  0  0  0  0  0  0  0  0  0
  144.9814  136.2509  154.0968 H   0  0  0  0  0  0  0  0  0  0  0  0
  145.7548  137.4553  150.4906 H   0  0  0  0  0  0  0  0  0  0  0  0
  144.9843  138.3673  151.7641 H   0  0  0  0  0  0  0  0  0  0  0  0
  147.5445  136.9398  152.0081 H   0  0  0  0  0  0  0  0  0  0  0  0
  148.8613  137.5530  153.3858 H   0  0  0  0  0  0  0  0  0  0  0  0
  148.3633  138.6017  155.9113 H   0  0  0  0  0  0  0  0  0  0  0  0
  148.1775  140.6730  153.8034 H   0  0  0  0  0  0  0  0  0  0  0  0
  147.7696  140.8108  155.5096 H   0  0  0  0  0  0  0  0  0  0  0  0
  149.9918  142.0394  154.4921 H   0  0  0  0  0  0  0  0  0  0  0  0
  150.0509  141.2959  156.0971 H   0  0  0  0  0  0  0  0  0  0  0  0
  150.6165  138.8105  156.1246 H   0  0  0  0  0  0  0  0  0  0  0  0
  150.6893  136.7510  154.6696 H   0  0  0  0  0  0  0  0  0  0  0  0
  152.1174  137.7598  154.4762 H   0  0  0  0  0  0  0  0  0  0  0  0
  150.8639  137.7791  153.2448 H   0  0  0  0  0  0  0  0  0  0  0  0
  1  2  1  0  0  0  0
  1 20  1  0  0  0  0
  1 21  1  0  0  0  0
  1 22  1  0  0  0  0
  2 19  1  0  0  0  0
  2  3  2  0  0  0  0
  3  4  1  0  0  0  0
  3 23  1  0  0  0  0
  4  5  1  0  0  0  0
  5  6  1  0  0  0  0
  5 19  2  0  0  0  0
  6  7  1  0  0  0  0
  6  8  1  0  0  0  0
  6 24  1  0  0  0  0
  7 25  1  0  0  0  0
  7 26  1  0  0  0  0
  7 27  1  0  0  0  0
  8  9  1  0  0  0  0
  8 28  1  0  0  0  0
  8 29  1  0  0  0  0
  9 10  1  0  0  0  0
  9 30  1  0  0  0  0
 10 11  2  0  0  0  0
 10 12  1  0  0  0  0
 12 13  1  0  0  0  0
 12 31  1  0  0  0  0
 13 17  1  0  0  0  0
 13 14  1  0  0  0  0
 13 32  1  0  0  0  0
 14 15  1  0  0  0  0
 14 33  1  0  0  0  0
 14 34  1  0  0  0  0
 15 16  1  0  0  0  0
 15 35  1  0  0  0  0
 15 36  1  0  0  0  0
 16 17  1  0  0  0  0
 17 18  1  0  0  0  0
 17 37  1  0  0  0  0
 18 38  1  0  0  0  0
 18 39  1  0  0  0  0
 18 40  1  0  0  0  0
M  END
> <s_m_source_file>
AV-unprocessed.smi

> <i_m_source_file_index>
2340

> <i_lp_mmshare_version>
43012

> <i_f3d_flags>
0

> <s_epik_input>
W0NIM11jMVtjSF1zYyhuMSlbQ0BIXShbQ0gzXSlbQ0gyXVtOSF1DKD1PKVtOSF1bQ0BASF0yW0NIMl1bQ0gyXU9bQ0BIXTJbQ0gzXQ==

> <s_epik_cmdline>
J2VwaWtfcHl0aG9uJywgJy1waCcsICc3LjAnLCAnLXRuJywgJzgnLCAnLW1hJywgJzIwMCcsICctbWV0YWxfYmluZGluZycsICctaW1hZScsICc8aW5maWxlLm1hZT4nLCAnLW9tYWUnLCAnPG91dGZpbGUubWFlPic=

> <r_epik_Ionization_Penalty>
0.00156622

> <r_epik_Ionization_Penalty_Charging>
0

> <r_epik_Ionization_Penalty_Neutral>
0.00156622

> <r_epik_State_Penalty>
0.00101902

> <r_epik_Charging_Adjusted_Penalty>
0.00101902

> <i_epik_Tot_Q>
0

> <i_epik_Tot_abs_Q>
0

> <r_epik_Metal_State_Penalty>
-0

> <b_epik_Metal_Only>
0

> <s_lp_Force_Field>
OPLS_2005

> <r_lp_Energy>
5.61614

> <b_lp_Chiralities_Consistent>
1

> <s_lp_Variant>
AV-unprocessed.smi:2340-6

> <Gold.Version>
5.8.1

> <Gold.Id.Protein>
6NUR|6NUR_protein|mol2

> <Gold.PLP.Fitness>
39.9244

> <Gold.PLP.PLP>
-29.6371

> <Gold.PLP.part.hbond>
-2.9691

> <Gold.PLP.part.metal>
0.0000

> <Gold.PLP.part.buried>
-0.3645

> <Gold.PLP.part.nonpolar>
-27.0118

> <Gold.PLP.part.repulsive>
0.5012

> <Gold.PLP.ligand.clash>
0.0000

> <Gold.PLP.ligand.torsion>
0.7194

> <Gold.PLP.Chemscore.Hbond>
2.8800

> <Gold.PLP.Chemscore.CHOScore>
1.0000

> <Gold.PLP.Chemscore.Metal>
0.0000

> <Gold.Chemscore.Hbonds>
donor molecule, donor type, donor heavy atom, donor atom, acceptor molecule, acceptor atom, score
      L1  H     9    30       P1  7948  1.00
      L1  H    12    31       P1  7948  0.86
      P1  H  7989  7998       L1    16  1.00
      L1  C     3    23       P1 10747  1.00

> <Gold.PLP.Chemscore.Internal.Correction>
0.0861

> <Gold.Rescore>
     Score         DG    S(hbond)    S(metal)    S(lipo)     H(rot)  DE(clash)    DE(int)     intcor
     17.02     -20.42       2.73        0.00      83.30       1.53       1.47       1.93       ----

> <Gold.Chemscore.Fitness>
17.0187

> <Gold.Chemscore.DG>
-20.4229

> <Gold.Chemscore.ZeroCoef>
-5.4800

> <Gold.Chemscore.Hbond>
2.7306

> <Gold.Chemscore.Metal>
0.0000

> <Gold.Chemscore.Lipo>
83.2986

> <Gold.Chemscore.Internal_Hbond>
0.0000

> <Gold.Chemscore.DEClash>
1.4718

> <Gold.Chemscore.DEInternal>
1.9324

> <Gold.Chemscore.Rot>
1.5325

> <Gold.Chemscore.Internal.Correction>
   9.000000E+99

> <Gold.Chemscore.Hbonds>
donor molecule, donor type, donor heavy atom, donor atom, acceptor molecule, acceptor atom, score
      L1  H     9    30       P1  7948  0.97
      L1  H    12    31       P1  7948  0.82
      P1  H  7989  7998       L1    16  0.43

> <Gold.Chemscore.Hbond.Weighted>
-9.1203

> <Gold.Chemscore.Metal.Weighted>
-0.0000

> <Gold.Chemscore.Lipo.Weighted>
-9.7459

> <Gold.Chemscore.Internal_Hbond.Weighted>
0.0000

> <Gold.Chemscore.DEClash.Weighted>
1.4718

> <Gold.Chemscore.DEInternal.Weighted>
1.9324

> <Gold.Chemscore.Rot.Weighted>
3.9233

> <Gold.Chemscore.Internal.Correction.Weighted>
   9.000000E+99

> <Gold.Protein.RotatedTorsions>
[ 6907 6896 6895 6894 ] final  115.55 input  -60.11 | X-H torsion
[ 7974 7965 7964 7962 ] final -167.98 input  175.53 | X-H torsion
[ 8008 7997 7996 7995 ] final -154.28 input   59.86 | X-H torsion
[ 10167 10162 10161 10158 ] final   80.36 input  -65.29 | X-H torsion
[ 10718 10713 10712 10709 ] final    5.58 input   66.30 | X-H torsion
[ 10763 10752 10751 10750 ] final -140.19 input  -60.55 | X-H torsion
[ 11005 11000 10999 10996 ] final -160.92 input  -57.11 | X-H torsion

> <Gold.Protein.ActiveResidues>
 VAL166  LYS551  ARG553  GLY616  TRP617  ASP618  TYR619  PRO620  LYS621  CYS622 
 ASP623  PHE694  ASN695  SER759  ASP760  ASP761  ALA762  ILE779  LEU786  VAL792 
 PHE793  MET794  SER795  GLU796  ALA797  LYS798  CYS799  TRP800  GLU811  SER814 

> <Gold.Protein.RotatedAtoms>
  152.4734  133.8082  159.6989 H   0  0  0  0  0  0  0  0  0  0  0  0  # atno 6907 bound_to 6896
  150.8736  133.7460  159.2960 H   0  0  0  0  0  0  0  0  0  0  0  0  # atno 6908 bound_to 6896
  151.4987  135.1064  159.9875 H   0  0  0  0  0  0  0  0  0  0  0  0  # atno 6909 bound_to 6896
  144.7212  140.2438  143.6288 H   0  0  0  0  0  0  0  0  0  0  0  0  # atno 7974 bound_to 7965
  155.6839  140.0747  157.2474 H   0  0  0  0  0  0  0  0  0  0  0  0  # atno 8008 bound_to 7997
  154.4100  140.1677  156.2065 H   0  0  0  0  0  0  0  0  0  0  0  0  # atno 8009 bound_to 7997
  155.9511  140.3377  155.6411 H   0  0  0  0  0  0  0  0  0  0  0  0  # atno 8010 bound_to 7997
  139.9506  144.6029  150.8165 H   0  0  0  0  0  0  0  0  0  0  0  0  # atno 10167 bound_to 10162
  156.9095  130.5751  149.5647 H   0  0  0  0  0  0  0  0  0  0  0  0  # atno 10718 bound_to 10713
  154.8586  135.3560  154.5668 H   0  0  0  0  0  0  0  0  0  0  0  0  # atno 10763 bound_to 10752
  153.6281  135.7003  153.5290 H   0  0  0  0  0  0  0  0  0  0  0  0  # atno 10764 bound_to 10752
  153.3072  135.4189  155.1264 H   0  0  0  0  0  0  0  0  0  0  0  0  # atno 10765 bound_to 10752
  140.6261  134.4700  157.5227 H   0  0  0  0  0  0  0  0  0  0  0  0  # atno 11005 bound_to 11000
  145.8294  139.2079  143.1892 LP  0  0  0  0  0  0  0  0  0  0  0  0  # atno 17320 bound_to 7965
  146.0444  140.8132  142.9812 LP  0  0  0  0  0  0  0  0  0  0  0  0  # atno 17321 bound_to 7965
  140.7584  143.3106  151.2854 LP  0  0  0  0  0  0  0  0  0  0  0  0  # atno 17342 bound_to 10162
  139.6632  144.0152  152.2706 LP  0  0  0  0  0  0  0  0  0  0  0  0  # atno 17343 bound_to 10162
  156.0543  130.5607  150.9057 LP  0  0  0  0  0  0  0  0  0  0  0  0  # atno 17370 bound_to 10713
  157.5976  131.0942  150.9015 LP  0  0  0  0  0  0  0  0  0  0  0  0  # atno 17371 bound_to 10713
  139.9134  134.8297  156.1449 LP  0  0  0  0  0  0  0  0  0  0  0  0  # atno 17394 bound_to 11000
  141.0708  133.6797  156.2137 LP  0  0  0  0  0  0  0  0  0  0  0  0  # atno 17395 bound_to 11000

$$$$
