AV-unprocessed.smi:1368|AV-procd|sdf|5578|dock9
  -GOLD-   22720 5173D 1   1.00000     0.00000
 Structure written by MMmdl.
 47 49  0  0  0  0  0  0  0  0  2 V2000
  151.9619  143.8712  157.7369 C   0  0  0  0  0  0  0  0  0  0  0  0
  151.3732  142.6452  157.0462 C   0  0  0  0  0  0  0  0  0  0  0  0
  151.8531  141.5349  157.2713 O   0  0  0  0  0  0  0  0  0  0  0  0
  150.3532  142.8875  156.2026 N   0  0  0  0  0  0  0  0  0  0  0  0
  149.6106  141.9600  155.4226 C   0  0  0  0  0  0  0  0  0  0  0  0
  150.2285  140.7323  155.1120 C   0  0  0  0  0  0  0  0  0  0  0  0
  149.5569  139.7724  154.3314 C   0  0  0  0  0  0  0  0  0  0  0  0
  148.2621  140.0227  153.8348 C   0  0  0  0  0  0  0  0  0  0  0  0
  147.6771  139.0282  153.0806 O   0  0  0  0  0  0  0  0  0  0  0  0
  146.4460  139.3140  152.4297 C   0  0  0  0  0  0  0  0  0  0  0  0
  145.9378  138.0361  151.7441 C   0  0  1  0  0  0  0  0  0  0  0  0
  146.7922  137.7435  150.6560 O   0  0  0  0  0  0  0  0  0  0  0  0
  145.9174  136.8370  152.7131 C   0  0  0  0  0  0  0  0  0  0  0  0
  144.8391  135.8784  152.4202 N   0  0  0  0  0  0  0  0  0  0  0  0
  143.5107  135.9382  152.7222 C   0  0  0  0  0  0  0  0  0  0  0  0
  142.8103  137.0375  153.4476 C   0  0  0  0  0  0  0  0  0  0  0  0
  142.9342  134.8010  152.2408 N   0  3  0  0  0  0  0  0  0  0  0  0
  143.9011  134.0068  151.6231 C   0  0  0  0  0  0  0  0  0  0  0  0
  143.7963  132.7705  150.9930 C   0  0  0  0  0  0  0  0  0  0  0  0
  144.9839  132.2303  150.4576 C   0  0  0  0  0  0  0  0  0  0  0  0
  146.2123  132.9149  150.5588 C   0  0  0  0  0  0  0  0  0  0  0  0
  146.3065  134.1667  151.2019 C   0  0  0  0  0  0  0  0  0  0  0  0
  145.1281  134.6937  151.7310 C   0  0  0  0  0  0  0  0  0  0  0  0
  147.6485  141.2655  154.1305 C   0  0  0  0  0  0  0  0  0  0  0  0
  148.3179  142.2263  154.9130 C   0  0  0  0  0  0  0  0  0  0  0  0
  152.1340  144.6736  157.0187 H   0  0  0  0  0  0  0  0  0  0  0  0
  152.9144  143.6296  158.2102 H   0  0  0  0  0  0  0  0  0  0  0  0
  151.2803  144.2353  158.5061 H   0  0  0  0  0  0  0  0  0  0  0  0
  150.1286  143.8597  156.0494 H   0  0  0  0  0  0  0  0  0  0  0  0
  151.2213  140.5165  155.4792 H   0  0  0  0  0  0  0  0  0  0  0  0
  150.0423  138.8330  154.1104 H   0  0  0  0  0  0  0  0  0  0  0  0
  145.6997  139.7020  153.1256 H   0  0  0  0  0  0  0  0  0  0  0  0
  146.6287  140.0802  151.6743 H   0  0  0  0  0  0  0  0  0  0  0  0
  144.9288  138.2016  151.3644 H   0  0  0  0  0  0  0  0  0  0  0  0
  147.3839  137.0546  150.9191 H   0  0  0  0  0  0  0  0  0  0  0  0
  146.8745  136.3151  152.7179 H   0  0  0  0  0  0  0  0  0  0  0  0
  145.7629  137.1889  153.7337 H   0  0  0  0  0  0  0  0  0  0  0  0
  141.7385  136.8432  153.4956 H   0  0  0  0  0  0  0  0  0  0  0  0
  142.9671  137.9871  152.9360 H   0  0  0  0  0  0  0  0  0  0  0  0
  143.1935  137.1210  154.4646 H   0  0  0  0  0  0  0  0  0  0  0  0
  142.8558  132.2453  150.9130 H   0  0  0  0  0  0  0  0  0  0  0  0
  144.9514  131.2730  149.9579 H   0  0  0  0  0  0  0  0  0  0  0  0
  147.1013  132.4717  150.1334 H   0  0  0  0  0  0  0  0  0  0  0  0
  147.2521  134.6839  151.2670 H   0  0  0  0  0  0  0  0  0  0  0  0
  146.6633  141.5110  153.7648 H   0  0  0  0  0  0  0  0  0  0  0  0
  147.8243  143.1679  155.0977 H   0  0  0  0  0  0  0  0  0  0  0  0
  141.9495  134.5860  152.3294 H   0  0  0  0  0  0  0  0  0  0  0  0
  1  2  1  0  0  0  0
  1 26  1  0  0  0  0
  1 27  1  0  0  0  0
  1 28  1  0  0  0  0
  2  3  2  0  0  0  0
  2  4  1  0  0  0  0
  4  5  1  0  0  0  0
  4 29  1  0  0  0  0
  5 25  1  0  0  0  0
  5  6  2  0  0  0  0
  6  7  1  0  0  0  0
  6 30  1  0  0  0  0
  7  8  2  0  0  0  0
  7 31  1  0  0  0  0
  8  9  1  0  0  0  0
  8 24  1  0  0  0  0
  9 10  1  0  0  0  0
 10 11  1  0  0  0  0
 10 32  1  0  0  0  0
 10 33  1  0  0  0  0
 11 12  1  0  0  0  0
 11 13  1  0  0  0  0
 11 34  1  0  0  0  0
 12 35  1  0  0  0  0
 13 14  1  0  0  0  0
 13 36  1  0  0  0  0
 13 37  1  0  0  0  0
 14 23  1  0  0  0  0
 14 15  1  0  0  0  0
 15 16  1  0  0  0  0
 15 17  2  0  0  0  0
 16 38  1  0  0  0  0
 16 39  1  0  0  0  0
 16 40  1  0  0  0  0
 17 18  1  0  0  0  0
 17 47  1  0  0  0  0
 18 23  2  0  0  0  0
 18 19  1  0  0  0  0
 19 20  2  0  0  0  0
 19 41  1  0  0  0  0
 20 21  1  0  0  0  0
 20 42  1  0  0  0  0
 21 22  2  0  0  0  0
 21 43  1  0  0  0  0
 22 23  1  0  0  0  0
 22 44  1  0  0  0  0
 24 25  2  0  0  0  0
 24 45  1  0  0  0  0
 25 46  1  0  0  0  0
M  CHG  1  17   1
M  END
> <s_m_source_file>
AV-unprocessed.smi

> <i_m_source_file_index>
1368

> <i_lp_mmshare_version>
43012

> <i_f3d_flags>
0

> <s_epik_input>
W0NIM11DKD1PKVtOSF1jMVtjSF1bY0hdYyhbY0hdW2NIXTEpT1tDSDJdW0NASF0oW09IXSlbQ0gyXW4oYyhuMilbQ0gzXSljKGMyMylbY0hdW2NIXVtjSF1bY0hdMw==

> <s_epik_cmdline>
J2VwaWtfcHl0aG9uJywgJy1waCcsICc3LjAnLCAnLXRuJywgJzgnLCAnLW1hJywgJzIwMCcsICctbWV0YWxfYmluZGluZycsICctaW1hZScsICc8aW5maWxlLm1hZT4nLCAnLW9tYWUnLCAnPG91dGZpbGUubWFlPic=

> <r_lp_tautomer_probability>
1

> <r_epik_Ionization_Penalty>
1.00673

> <r_epik_Ionization_Penalty_Charging>
1.00673

> <r_epik_Ionization_Penalty_Neutral>
2.60899e-06

> <r_epik_State_Penalty>
1.05579

> <r_epik_Charging_Adjusted_Penalty>
2.06252

> <i_epik_Tot_Q>
1

> <i_epik_Tot_abs_Q>
1

> <r_epik_Metal_State_Penalty>
1.15682

> <b_epik_Metal_Only>
0

> <s_lp_Force_Field>
OPLS_2005

> <r_lp_Energy>
24.3516

> <b_lp_Chiralities_Consistent>
1

> <s_lp_Variant>
AV-unprocessed.smi:1368-4

> <Gold.Version>
5.8.1

> <Gold.Id.Protein>
6NUR|6NUR_protein|mol2

> <Gold.PLP.Fitness>
50.8034

> <Gold.PLP.PLP>
-46.4201

> <Gold.PLP.part.hbond>
-4.3705

> <Gold.PLP.part.metal>
0.0000

> <Gold.PLP.part.buried>
-0.1274

> <Gold.PLP.part.nonpolar>
-43.3528

> <Gold.PLP.part.repulsive>
1.2900

> <Gold.PLP.ligand.clash>
0.0000

> <Gold.PLP.ligand.torsion>
0.8860

> <Gold.PLP.Chemscore.Hbond>
1.9920

> <Gold.PLP.Chemscore.CHOScore>
0.0000

> <Gold.PLP.Chemscore.Metal>
0.0000

> <Gold.Chemscore.Hbonds>
donor molecule, donor type, donor heavy atom, donor atom, acceptor molecule, acceptor atom, score
      L1  H     4    29       P1  8028  0.80
      L1  H    12    35       P1  7948  1.00

> <Gold.PLP.Chemscore.Internal.Correction>
0.1794

> <Gold.Rescore>
     Score         DG    S(hbond)    S(metal)    S(lipo)     H(rot)  DE(clash)    DE(int)     intcor
     15.06     -18.35       1.88        0.00     110.53       2.47       0.67       2.62       ----

> <Gold.Chemscore.Fitness>
15.0630

> <Gold.Chemscore.DG>
-18.3504

> <Gold.Chemscore.ZeroCoef>
-5.4800

> <Gold.Chemscore.Hbond>
1.8760

> <Gold.Chemscore.Metal>
0.0000

> <Gold.Chemscore.Lipo>
110.5268

> <Gold.Chemscore.Internal_Hbond>
0.0000

> <Gold.Chemscore.DEClash>
0.6716

> <Gold.Chemscore.DEInternal>
2.6158

> <Gold.Chemscore.Rot>
2.4715

> <Gold.Chemscore.Internal.Correction>
   9.000000E+99

> <Gold.Chemscore.Hbonds>
donor molecule, donor type, donor heavy atom, donor atom, acceptor molecule, acceptor atom, score
      L1  H     4    29       P1  8028  0.76
      L1  H    12    35       P1  7948  0.97

> <Gold.Chemscore.Hbond.Weighted>
-6.2659

> <Gold.Chemscore.Metal.Weighted>
-0.0000

> <Gold.Chemscore.Lipo.Weighted>
-12.9316

> <Gold.Chemscore.Internal_Hbond.Weighted>
0.0000

> <Gold.Chemscore.DEClash.Weighted>
0.6716

> <Gold.Chemscore.DEInternal.Weighted>
2.6158

> <Gold.Chemscore.Rot.Weighted>
6.3271

> <Gold.Chemscore.Internal.Correction.Weighted>
   9.000000E+99

> <Gold.Protein.RotatedTorsions>
[ 6907 6896 6895 6894 ] final -144.33 input  -60.11 | X-H torsion
[ 7974 7965 7964 7962 ] final -130.70 input  175.53 | X-H torsion
[ 8008 7997 7996 7995 ] final  -98.42 input   59.86 | X-H torsion
[ 10167 10162 10161 10158 ] final   78.84 input  -65.29 | X-H torsion
[ 10718 10713 10712 10709 ] final   -8.99 input   66.30 | X-H torsion
[ 10763 10752 10751 10750 ] final  151.95 input  -60.55 | X-H torsion
[ 11005 11000 10999 10996 ] final  -43.82 input  -57.11 | X-H torsion

> <Gold.Protein.ActiveResidues>
 VAL166  LYS551  ARG553  GLY616  TRP617  ASP618  TYR619  PRO620  LYS621  CYS622 
 ASP623  PHE694  ASN695  SER759  ASP760  ASP761  ALA762  ILE779  LEU786  VAL792 
 PHE793  MET794  SER795  GLU796  ALA797  LYS798  CYS799  TRP800  GLU811  SER814 

> <Gold.Protein.RotatedAtoms>
  151.1126  133.5162  159.2604 H   0  0  0  0  0  0  0  0  0  0  0  0  # atno 6907 bound_to 6896
  151.1951  135.0418  159.8858 H   0  0  0  0  0  0  0  0  0  0  0  0  # atno 6908 bound_to 6896
  152.5451  134.0961  159.8351 H   0  0  0  0  0  0  0  0  0  0  0  0  # atno 6909 bound_to 6896
  144.9449  140.7280  143.4823 H   0  0  0  0  0  0  0  0  0  0  0  0  # atno 7974 bound_to 7965
  154.8009  140.0455  157.1272 H   0  0  0  0  0  0  0  0  0  0  0  0  # atno 8008 bound_to 7997
  154.9480  140.3061  155.5069 H   0  0  0  0  0  0  0  0  0  0  0  0  # atno 8009 bound_to 7997
  156.2961  140.2293  156.4555 H   0  0  0  0  0  0  0  0  0  0  0  0  # atno 8010 bound_to 7997
  139.9667  144.5923  150.8023 H   0  0  0  0  0  0  0  0  0  0  0  0  # atno 10167 bound_to 10162
  156.6945  130.5075  149.5934 H   0  0  0  0  0  0  0  0  0  0  0  0  # atno 10718 bound_to 10713
  154.1120  135.2838  155.3228 H   0  0  0  0  0  0  0  0  0  0  0  0  # atno 10763 bound_to 10752
  154.6483  135.5378  153.7874 H   0  0  0  0  0  0  0  0  0  0  0  0  # atno 10764 bound_to 10752
  153.0342  135.6503  154.1279 H   0  0  0  0  0  0  0  0  0  0  0  0  # atno 10765 bound_to 10752
  141.0409  133.6780  156.2787 H   0  0  0  0  0  0  0  0  0  0  0  0  # atno 11005 bound_to 11000
  145.2933  139.1876  143.4729 LP  0  0  0  0  0  0  0  0  0  0  0  0  # atno 17320 bound_to 7965
  146.3300  140.2913  142.8615 LP  0  0  0  0  0  0  0  0  0  0  0  0  # atno 17321 bound_to 7965
  140.7535  143.3010  151.3080 LP  0  0  0  0  0  0  0  0  0  0  0  0  # atno 17342 bound_to 10162
  139.6512  144.0358  152.2628 LP  0  0  0  0  0  0  0  0  0  0  0  0  # atno 17343 bound_to 10162
  156.1773  130.6476  151.0910 LP  0  0  0  0  0  0  0  0  0  0  0  0  # atno 17370 bound_to 10713
  157.6996  131.0781  150.6861 LP  0  0  0  0  0  0  0  0  0  0  0  0  # atno 17371 bound_to 10713
  140.6235  134.5337  157.5550 LP  0  0  0  0  0  0  0  0  0  0  0  0  # atno 17394 bound_to 11000
  139.9275  134.8027  156.1025 LP  0  0  0  0  0  0  0  0  0  0  0  0  # atno 17395 bound_to 11000

$$$$
