AV-unprocessed.smi:2589|AV-procd|sdf|10151|dock7
  -GOLD-   2272014163D 1   1.00000     0.00000
 Structure written by MMmdl.
 41 42  0  0  0  0  0  0  0  0  1 V2000
  148.3523  134.4256  161.4926 C   0  0  0  0  0  0  0  0  0  0  0  0
  148.5080  135.7735  160.7979 C   0  0  0  0  0  0  0  0  0  0  0  0
  148.1376  136.8045  161.3585 O   0  0  0  0  0  0  0  0  0  0  0  0
  149.0612  135.7514  159.5756 N   0  0  0  0  0  0  0  0  0  0  0  0
  149.3220  136.9281  158.7505 C   0  0  0  0  0  0  0  0  0  0  0  0
  150.7650  137.4302  158.8764 C   0  0  0  0  0  0  0  0  0  0  0  0
  151.6976  136.6348  158.9987 O   0  0  0  0  0  0  0  0  0  0  0  0
  150.9347  138.7596  158.8208 N   0  0  0  0  0  0  0  0  0  0  0  0
  152.2232  139.4378  158.9033 C   0  0  0  0  0  0  0  0  0  0  0  0
  152.1088  140.9587  158.8233 C   0  0  0  0  0  0  0  0  0  0  0  0
  152.6519  141.7500  159.8593 C   0  0  0  0  0  0  0  0  0  0  0  0
  152.5582  143.1510  159.7799 C   0  0  0  0  0  0  0  0  0  0  0  0
  151.9239  143.7133  158.6577 C   0  0  0  0  0  0  0  0  0  0  0  0
  151.4025  142.9741  157.6575 N   0  0  0  0  0  0  0  0  0  0  0  0
  151.4901  141.6235  157.7314 C   0  0  0  0  0  0  0  0  0  0  0  0
  150.9164  140.8894  156.6814 N   0  0  0  0  0  0  0  0  0  0  0  0
  151.8354  140.0083  155.9719 C   0  0  0  0  0  0  0  0  0  0  0  0
  151.0547  139.1465  154.9648 C   0  0  0  0  0  0  0  0  0  0  0  0
  150.3203  139.9904  154.0815 O   0  0  0  0  0  0  0  0  0  0  0  0
  149.3774  140.8040  154.7751 C   0  0  0  0  0  0  0  0  0  0  0  0
  150.1145  141.7056  155.7798 C   0  0  0  0  0  0  0  0  0  0  0  0
  149.3305  134.0011  161.7187 H   0  0  0  0  0  0  0  0  0  0  0  0
  147.8101  133.7264  160.8557 H   0  0  0  0  0  0  0  0  0  0  0  0
  147.8017  134.5323  162.4276 H   0  0  0  0  0  0  0  0  0  0  0  0
  149.3431  134.8586  159.1977 H   0  0  0  0  0  0  0  0  0  0  0  0
  149.1387  136.6637  157.7092 H   0  0  0  0  0  0  0  0  0  0  0  0
  148.6197  137.7259  158.9995 H   0  0  0  0  0  0  0  0  0  0  0  0
  150.1159  139.3414  158.7174 H   0  0  0  0  0  0  0  0  0  0  0  0
  152.6711  139.1871  159.8649 H   0  0  0  0  0  0  0  0  0  0  0  0
  152.8946  139.0280  158.1483 H   0  0  0  0  0  0  0  0  0  0  0  0
  153.1386  141.2898  160.7069 H   0  0  0  0  0  0  0  0  0  0  0  0
  152.9645  143.7790  160.5590 H   0  0  0  0  0  0  0  0  0  0  0  0
  151.8330  144.7850  158.5600 H   0  0  0  0  0  0  0  0  0  0  0  0
  152.5871  140.5997  155.4472 H   0  0  0  0  0  0  0  0  0  0  0  0
  152.3617  139.3722  156.6844 H   0  0  0  0  0  0  0  0  0  0  0  0
  151.7415  138.5328  154.3820 H   0  0  0  0  0  0  0  0  0  0  0  0
  150.3759  138.4649  155.4805 H   0  0  0  0  0  0  0  0  0  0  0  0
  148.8328  141.4124  154.0531 H   0  0  0  0  0  0  0  0  0  0  0  0
  148.6429  140.1768  155.2831 H   0  0  0  0  0  0  0  0  0  0  0  0
  149.3980  142.2984  156.3489 H   0  0  0  0  0  0  0  0  0  0  0  0
  150.7602  142.4054  155.2475 H   0  0  0  0  0  0  0  0  0  0  0  0
  1  2  1  0  0  0  0
  1 22  1  0  0  0  0
  1 23  1  0  0  0  0
  1 24  1  0  0  0  0
  2  3  2  0  0  0  0
  2  4  1  0  0  0  0
  4  5  1  0  0  0  0
  4 25  1  0  0  0  0
  5  6  1  0  0  0  0
  5 26  1  0  0  0  0
  5 27  1  0  0  0  0
  6  7  2  0  0  0  0
  6  8  1  0  0  0  0
  8  9  1  0  0  0  0
  8 28  1  0  0  0  0
  9 10  1  0  0  0  0
  9 29  1  0  0  0  0
  9 30  1  0  0  0  0
 10 15  1  0  0  0  0
 10 11  2  0  0  0  0
 11 12  1  0  0  0  0
 11 31  1  0  0  0  0
 12 13  2  0  0  0  0
 12 32  1  0  0  0  0
 13 14  1  0  0  0  0
 13 33  1  0  0  0  0
 14 15  2  0  0  0  0
 15 16  1  0  0  0  0
 16 21  1  0  0  0  0
 16 17  1  0  0  0  0
 17 18  1  0  0  0  0
 17 34  1  0  0  0  0
 17 35  1  0  0  0  0
 18 19  1  0  0  0  0
 18 36  1  0  0  0  0
 18 37  1  0  0  0  0
 19 20  1  0  0  0  0
 20 21  1  0  0  0  0
 20 38  1  0  0  0  0
 20 39  1  0  0  0  0
 21 40  1  0  0  0  0
 21 41  1  0  0  0  0
M  END
> <s_m_source_file>
AV-unprocessed.smi

> <i_m_source_file_index>
2589

> <i_lp_mmshare_version>
43012

> <i_f3d_flags>
0

> <s_epik_input>
W0NIM11DKD1PKVtOSF1bQ0gyXUMoPU8pW05IXVtDSDJdYzFbY0hdW2NIXVtjSF1uYzFOMltDSDJdW0NIMl1PW0NIMl1bQ0gyXTI=

> <s_epik_cmdline>
J2VwaWtfcHl0aG9uJywgJy1waCcsICc3LjAnLCAnLXRuJywgJzgnLCAnLW1hJywgJzIwMCcsICctbWV0YWxfYmluZGluZycsICctaW1hZScsICc8aW5maWxlLm1hZT4nLCAnLW9tYWUnLCAnPG91dGZpbGUubWFlPic=

> <r_lp_tautomer_probability>
1

> <r_epik_Ionization_Penalty>
0.00462917

> <r_epik_Ionization_Penalty_Charging>
0

> <r_epik_Ionization_Penalty_Neutral>
0.00462917

> <r_epik_State_Penalty>
0.00334737

> <r_epik_Charging_Adjusted_Penalty>
0.00334737

> <i_epik_Tot_Q>
0

> <i_epik_Tot_abs_Q>
0

> <r_epik_Metal_State_Penalty>
-0

> <b_epik_Metal_Only>
0

> <s_lp_Force_Field>
OPLS_2005

> <r_lp_Energy>
14.0488

> <b_lp_Chiralities_Consistent>
1

> <s_lp_Variant>
AV-unprocessed.smi:2589-1

> <Gold.Version>
5.8.1

> <Gold.Id.Protein>
6NUR|6NUR_protein|mol2

> <Gold.PLP.Fitness>
52.4010

> <Gold.PLP.PLP>
-42.0678

> <Gold.PLP.part.hbond>
-4.0000

> <Gold.PLP.part.metal>
0.0000

> <Gold.PLP.part.buried>
-5.2583

> <Gold.PLP.part.nonpolar>
-32.7599

> <Gold.PLP.part.repulsive>
1.1659

> <Gold.PLP.ligand.clash>
0.0000

> <Gold.PLP.ligand.torsion>
0.6190

> <Gold.PLP.Chemscore.Hbond>
3.8080

> <Gold.PLP.Chemscore.CHOScore>
0.0000

> <Gold.PLP.Chemscore.Metal>
0.0000

> <Gold.Chemscore.Hbonds>
donor molecule, donor type, donor heavy atom, donor atom, acceptor molecule, acceptor atom, score
      P1  H  6896  6909       L1     7  0.80
      P1  H  6931  6943       L1     3  1.00
      P1  H  7989  7998       L1    19  0.90

> <Gold.PLP.Chemscore.Internal.Correction>
0.1473

> <Gold.Rescore>
     Score         DG    S(hbond)    S(metal)    S(lipo)     H(rot)  DE(clash)    DE(int)     intcor
     18.45     -20.42       3.37        0.00      81.25       2.28       0.05       1.92       ----

> <Gold.Chemscore.Fitness>
18.4465

> <Gold.Chemscore.DG>
-20.4200

> <Gold.Chemscore.ZeroCoef>
-5.4800

> <Gold.Chemscore.Hbond>
3.3719

> <Gold.Chemscore.Metal>
0.0000

> <Gold.Chemscore.Lipo>
81.2467

> <Gold.Chemscore.Internal_Hbond>
0.0000

> <Gold.Chemscore.DEClash>
0.0486

> <Gold.Chemscore.DEInternal>
1.9249

> <Gold.Chemscore.Rot>
2.2766

> <Gold.Chemscore.Internal.Correction>
   9.000000E+99

> <Gold.Chemscore.Hbonds>
donor molecule, donor type, donor heavy atom, donor atom, acceptor molecule, acceptor atom, score
      P1  H  6896  6909       L1     7  0.70
      P1  H  6931  6943       L1     3  1.00
      P1  H  6934  6947       L1     3  0.04
      P1  H  7989  7998       L1    19  0.15

> <Gold.Chemscore.Hbond.Weighted>
-11.2623

> <Gold.Chemscore.Metal.Weighted>
-0.0000

> <Gold.Chemscore.Lipo.Weighted>
-9.5059

> <Gold.Chemscore.Internal_Hbond.Weighted>
0.0000

> <Gold.Chemscore.DEClash.Weighted>
0.0486

> <Gold.Chemscore.DEInternal.Weighted>
1.9249

> <Gold.Chemscore.Rot.Weighted>
5.8281

> <Gold.Chemscore.Internal.Correction.Weighted>
   9.000000E+99

> <Gold.Protein.RotatedTorsions>
[ 6907 6896 6895 6894 ] final  100.39 input  -60.11 | X-H torsion
[ 7974 7965 7964 7962 ] final -160.29 input  175.53 | X-H torsion
[ 8008 7997 7996 7995 ] final   -2.93 input   59.86 | X-H torsion
[ 10167 10162 10161 10158 ] final   54.04 input  -65.29 | X-H torsion
[ 10718 10713 10712 10709 ] final -167.93 input   66.30 | X-H torsion
[ 10763 10752 10751 10750 ] final  -45.33 input  -60.55 | X-H torsion
[ 11005 11000 10999 10996 ] final  104.61 input  -57.11 | X-H torsion

> <Gold.Protein.ActiveResidues>
 VAL166  LYS551  ARG553  GLY616  TRP617  ASP618  TYR619  PRO620  LYS621  CYS622 
 ASP623  PHE694  ASN695  SER759  ASP760  ASP761  ALA762  ILE779  LEU786  VAL792 
 PHE793  MET794  SER795  GLU796  ALA797  LYS798  CYS799  TRP800  GLU811  SER814 

> <Gold.Protein.RotatedAtoms>
  152.5373  134.0284  159.8013 H   0  0  0  0  0  0  0  0  0  0  0  0  # atno 6907 bound_to 6896
  151.0459  133.5658  159.2654 H   0  0  0  0  0  0  0  0  0  0  0  0  # atno 6908 bound_to 6896
  151.2611  135.0661  159.9152 H   0  0  0  0  0  0  0  0  0  0  0  0  # atno 6909 bound_to 6896
  144.7433  140.3563  143.6105 H   0  0  0  0  0  0  0  0  0  0  0  0  # atno 7974 bound_to 7965
  154.6304  140.2522  155.7441 H   0  0  0  0  0  0  0  0  0  0  0  0  # atno 8008 bound_to 7997
  156.2476  140.2908  156.0573 H   0  0  0  0  0  0  0  0  0  0  0  0  # atno 8009 bound_to 7997
  155.1754  140.0387  157.2862 H   0  0  0  0  0  0  0  0  0  0  0  0  # atno 8010 bound_to 7997
  140.2344  144.3652  150.6402 H   0  0  0  0  0  0  0  0  0  0  0  0  # atno 10167 bound_to 10162
  156.6896  130.9154  151.3067 H   0  0  0  0  0  0  0  0  0  0  0  0  # atno 10718 bound_to 10713
  154.0268  135.6662  153.4777 H   0  0  0  0  0  0  0  0  0  0  0  0  # atno 10763 bound_to 10752
  153.0557  135.5057  154.7971 H   0  0  0  0  0  0  0  0  0  0  0  0  # atno 10764 bound_to 10752
  154.6903  135.3060  154.9454 H   0  0  0  0  0  0  0  0  0  0  0  0  # atno 10765 bound_to 10752
  139.8793  134.9307  156.5388 H   0  0  0  0  0  0  0  0  0  0  0  0  # atno 11005 bound_to 11000
  145.7224  139.1713  143.2477 LP  0  0  0  0  0  0  0  0  0  0  0  0  # atno 17320 bound_to 7965
  146.1267  140.7238  142.9431 LP  0  0  0  0  0  0  0  0  0  0  0  0  # atno 17321 bound_to 7965
  140.6161  143.2172  151.6789 LP  0  0  0  0  0  0  0  0  0  0  0  0  # atno 17342 bound_to 10162
  139.5099  144.3562  152.0605 LP  0  0  0  0  0  0  0  0  0  0  0  0  # atno 17343 bound_to 10162
  157.7014  130.9337  150.0796 LP  0  0  0  0  0  0  0  0  0  0  0  0  # atno 17370 bound_to 10713
  156.1807  130.3650  149.9039 LP  0  0  0  0  0  0  0  0  0  0  0  0  # atno 17371 bound_to 10713
  140.8326  133.8267  155.8998 LP  0  0  0  0  0  0  0  0  0  0  0  0  # atno 17394 bound_to 11000
  140.9314  134.2016  157.4861 LP  0  0  0  0  0  0  0  0  0  0  0  0  # atno 17395 bound_to 11000

$$$$
