#       Name:                AV-unprocessed.smi:1241
#       Creating user name   scv26
#       Creation time:       Fri Mar 27 04:31:05 2020


#       File generated by GOLD software.
#

@<TRIPOS>MOLECULE
AV-unprocessed.smi:1241
    41    42     1
SMALL
NO_CHARGES


@<TRIPOS>ATOM
      1 ****        -3.3267   3.0348   0.7125 C.3            1 S1                 0.0000
      2 ****        -4.6694   1.7788   0.6535 S.o2           1 S1                 0.0000
      3 ****        -5.3656   1.7901   1.9493 O.2            1 S1                 0.0000
      4 ****        -5.4341   1.9813  -0.5867 O.2            1 S1                 0.0000
      5 ****        -3.8246   0.2635   0.5168 N.pl3          1 S1                 0.0000
      6 ****        -3.2421  -0.1433  -0.7783 C.3            1 S1                 0.0000
      7 ****        -1.7215   0.0905  -0.8207 C.3            1 S1                 0.0000
      8 ****        -1.0163  -0.5805   0.3698 C.3            1 S1                 0.0000
      9 ****         0.4149  -0.2897   0.3578 N.am           1 S1                 0.0000
     10 ****         1.3343  -0.9707  -0.3422 C.2            1 S1                 0.0000
     11 ****         1.0620  -1.9286  -1.0665 O.2            1 S1                 0.0000
     12 ****         2.5661  -0.4659  -0.1500 N.am           1 S1                 0.0000
     13 ****         3.7979  -0.9317  -0.6833 C.ar           1 S1                 0.0000
     14 ****         4.9323  -0.1665  -0.3292 C.ar           1 S1                 0.0000
     15 ****         6.2022  -0.5501  -0.8025 C.ar           1 S1                 0.0000
     16 ****         6.3054  -1.6913  -1.6177 C.ar           1 S1                 0.0000
     17 ****         5.1269  -2.3969  -1.9230 C.ar           1 S1                 0.0000
     18 ****         3.9089  -2.0304  -1.4713 N.ar           1 S1                 0.0000
     19 ****        -1.6422  -0.0772   1.6784 C.3            1 S1                 0.0000
     20 ****        -3.1617  -0.3192   1.7008 C.3            1 S1                 0.0000
     21 ****        -3.7717   4.0272   0.7803 H              1 S1                 0.0000
     22 ****        -2.7255   2.9787  -0.1931 H              1 S1                 0.0000
     23 ****        -2.7009   2.8679   1.5874 H              1 S1                 0.0000
     24 ****        -3.4506  -1.2029  -0.9306 H              1 S1                 0.0000
     25 ****        -3.7288   0.3851  -1.5976 H              1 S1                 0.0000
     26 ****        -1.3241  -0.2987  -1.7588 H              1 S1                 0.0000
     27 ****        -1.5094   1.1592  -0.8233 H              1 S1                 0.0000
     28 ****        -1.1653  -1.6605   0.3119 H              1 S1                 0.0000
     29 ****         0.7261   0.4846   0.9256 H              1 S1                 0.0000
     30 ****         2.6325   0.3385   0.4556 H              1 S1                 0.0000
     31 ****         4.8355   0.7070   0.2993 H              1 S1                 0.0000
     32 ****         7.0812   0.0212  -0.5431 H              1 S1                 0.0000
     33 ****         7.2617  -2.0175  -1.9988 H              1 S1                 0.0000
     34 ****         5.1624  -3.2794  -2.5445 H              1 S1                 0.0000
     35 ****        -1.1829  -0.5825   2.5288 H              1 S1                 0.0000
     36 ****        -1.4330   0.9843   1.8069 H              1 S1                 0.0000
     37 ****        -3.5958   0.0827   2.6158 H              1 S1                 0.0000
     38 ****        -3.3595  -1.3916   1.7124 H              1 S1                 0.0000
     39 ****         0.1143  -2.2350  -1.1551 LP             1 S1                 0.0000
     40 ****         1.7887  -2.4001  -1.5662 LP             1 S1                 0.0000
     41 ****         3.0980  -2.5625  -1.7147 LP             1 S1                 0.0000
@<TRIPOS>BOND
    1    1    2 1     
    2    1   21 1     
    3    1   22 1     
    4    1   23 1     
    5    2    3 2     
    6    2    4 2     
    7    2    5 1     
    8    5   20 1     
    9    5    6 1     
   10    6    7 1     
   11    6   24 1     
   12    6   25 1     
   13    7    8 1     
   14    7   26 1     
   15    7   27 1     
   16    8    9 1     
   17    8   19 1     
   18    8   28 1     
   19    9   10 am    
   20    9   29 1     
   21   10   11 2     
   22   10   12 am    
   23   12   13 1     
   24   12   30 1     
   25   13   18 ar    
   26   13   14 ar    
   27   14   15 ar    
   28   14   31 1     
   29   15   16 ar    
   30   15   32 1     
   31   16   17 ar    
   32   16   33 1     
   33   17   18 ar    
   34   17   34 1     
   35   19   20 1     
   36   19   35 1     
   37   19   36 1     
   38   20   37 1     
   39   20   38 1     
   40   11   39 1     
   41   11   40 1     
   42   18   41 1     
@<TRIPOS>SUBSTRUCTURE
      1 S1             1
@<TRIPOS>SET
LONE_PAIRS      STATIC     ATOMS    <user>   **** ""
5 3 4 39 40 41
DONOR_HYDROGENS      STATIC     ATOMS    <user>   **** ""
2 29 30
ATOM$BLUE        STATIC     ATOMS    COLORGROUP SYSTEM
5 3 4 39 40 41
ATOM$RED        STATIC     ATOMS    COLORGROUP SYSTEM
2 29 30
