AV-unprocessed.smi:3225|AV-procd|sdf|12312|dock7
  -GOLD-   2272018153D 1   1.00000     0.00000
 Structure written by MMmdl.
 41 42  0  0  0  0  0  0  0  0  2 V2000
  146.2847  141.8123  155.5937 C   0  0  0  0  0  0  0  0  0  0  0  0
  147.6835  141.1905  155.4502 C   0  0  1  0  0  0  0  0  0  0  0  0
  148.0284  140.8155  153.9944 C   0  0  0  0  0  0  0  0  0  0  0  0
  147.2329  139.7107  153.4894 N   0  0  0  0  0  0  0  0  0  0  0  0
  147.0545  139.3064  152.1827 C   0  0  0  0  0  0  0  0  0  0  0  0
  146.2287  138.2192  152.2037 C   0  0  0  0  0  0  0  0  0  0  0  0
  145.9571  138.0267  153.5871 C   0  0  0  0  0  0  0  0  0  0  0  0
  146.5613  138.9201  154.3541 N   0  0  0  0  0  0  0  0  0  0  0  0
  148.7030  142.1214  155.9815 N   0  3  0  0  0  0  0  0  0  0  0  0
  150.0917  141.6253  155.9062 C   0  0  0  0  0  0  0  0  0  0  0  0
  151.0184  142.4345  156.8220 C   0  0  0  0  0  0  0  0  0  0  0  0
  150.7094  142.2079  158.3115 C   0  0  0  0  0  0  0  0  0  0  0  0
  151.9291  142.0349  159.0964 N   0  0  0  0  0  0  0  0  0  0  0  0
  152.2400  142.9351  160.1946 C   0  0  0  0  0  0  0  0  0  0  0  0
  153.4814  142.3343  160.8711 C   0  0  0  0  0  0  0  0  0  0  0  0
  153.9732  141.2190  159.9417 C   0  0  0  0  0  0  0  0  0  0  0  0
  152.8511  141.0798  158.9280 C   0  0  0  0  0  0  0  0  0  0  0  0
  152.8279  140.1937  158.0749 O   0  0  0  0  0  0  0  0  0  0  0  0
  145.5044  141.1183  155.2801 H   0  0  0  0  0  0  0  0  0  0  0  0
  146.1880  142.7163  154.9916 H   0  0  0  0  0  0  0  0  0  0  0  0
  146.0797  142.0792  156.6312 H   0  0  0  0  0  0  0  0  0  0  0  0
  147.6957  140.2763  156.0463 H   0  0  0  0  0  0  0  0  0  0  0  0
  147.8799  141.6739  153.3375 H   0  0  0  0  0  0  0  0  0  0  0  0
  149.0812  140.5404  153.9140 H   0  0  0  0  0  0  0  0  0  0  0  0
  147.5217  139.8207  151.3558 H   0  0  0  0  0  0  0  0  0  0  0  0
  145.8745  137.6468  151.3591 H   0  0  0  0  0  0  0  0  0  0  0  0
  145.3443  137.2693  154.0535 H   0  0  0  0  0  0  0  0  0  0  0  0
  148.6446  142.9865  155.4634 H   0  0  0  0  0  0  0  0  0  0  0  0
  150.1119  140.5728  156.1923 H   0  0  0  0  0  0  0  0  0  0  0  0
  150.4388  141.6896  154.8738 H   0  0  0  0  0  0  0  0  0  0  0  0
  152.0548  142.1645  156.6144 H   0  0  0  0  0  0  0  0  0  0  0  0
  150.9231  143.4967  156.5912 H   0  0  0  0  0  0  0  0  0  0  0  0
  150.1427  143.0523  158.7060 H   0  0  0  0  0  0  0  0  0  0  0  0
  150.0744  141.3291  158.4353 H   0  0  0  0  0  0  0  0  0  0  0  0
  152.4500  143.9297  159.7990 H   0  0  0  0  0  0  0  0  0  0  0  0
  151.4038  143.0130  160.8906 H   0  0  0  0  0  0  0  0  0  0  0  0
  154.2508  143.0893  161.0366 H   0  0  0  0  0  0  0  0  0  0  0  0
  153.2169  141.9196  161.8445 H   0  0  0  0  0  0  0  0  0  0  0  0
  154.8942  141.5014  159.4309 H   0  0  0  0  0  0  0  0  0  0  0  0
  154.1411  140.2836  160.4763 H   0  0  0  0  0  0  0  0  0  0  0  0
  148.4851  142.3130  156.9490 H   0  0  0  0  0  0  0  0  0  0  0  0
  1  2  1  0  0  0  0
  1 19  1  0  0  0  0
  1 20  1  0  0  0  0
  1 21  1  0  0  0  0
  2  3  1  0  0  0  0
  2  9  1  0  0  0  0
  2 22  1  0  0  0  0
  3  4  1  0  0  0  0
  3 23  1  0  0  0  0
  3 24  1  0  0  0  0
  4  8  1  0  0  0  0
  4  5  1  0  0  0  0
  5  6  2  0  0  0  0
  5 25  1  0  0  0  0
  6  7  1  0  0  0  0
  6 26  1  0  0  0  0
  7  8  2  0  0  0  0
  7 27  1  0  0  0  0
  9 10  1  0  0  0  0
  9 28  1  0  0  0  0
  9 41  1  0  0  0  0
 10 11  1  0  0  0  0
 10 29  1  0  0  0  0
 10 30  1  0  0  0  0
 11 12  1  0  0  0  0
 11 31  1  0  0  0  0
 11 32  1  0  0  0  0
 12 13  1  0  0  0  0
 12 33  1  0  0  0  0
 12 34  1  0  0  0  0
 13 17  1  0  0  0  0
 13 14  1  0  0  0  0
 14 15  1  0  0  0  0
 14 35  1  0  0  0  0
 14 36  1  0  0  0  0
 15 16  1  0  0  0  0
 15 37  1  0  0  0  0
 15 38  1  0  0  0  0
 16 17  1  0  0  0  0
 16 39  1  0  0  0  0
 16 40  1  0  0  0  0
 17 18  2  0  0  0  0
M  CHG  1   9   1
M  END
> <s_m_source_file>
AV-unprocessed.smi

> <i_m_source_file_index>
3225

> <i_lp_mmshare_version>
43012

> <i_f3d_flags>
0

> <s_epik_input>
bjFbY0hdW2NIXVtjSF1uMVtDSDJdW0NAQEhdKFtDSDNdKVtOSF1bQ0gyXVtDSDJdW0NIMl1OMltDSDJdW0NIMl1bQ0gyXUMyPU8=

> <s_epik_cmdline>
J2VwaWtfcHl0aG9uJywgJy1waCcsICc3LjAnLCAnLXRuJywgJzgnLCAnLW1hJywgJzIwMCcsICctbWV0YWxfYmluZGluZycsICctaW1hZScsICc8aW5maWxlLm1hZT4nLCAnLW9tYWUnLCAnPG91dGZpbGUubWFlPic=

> <r_lp_tautomer_probability>
1

> <r_epik_Ionization_Penalty>
0.00490443

> <r_epik_Ionization_Penalty_Charging>
0.00490019

> <r_epik_Ionization_Penalty_Neutral>
4.24076e-06

> <r_epik_State_Penalty>
0.00355741

> <r_epik_Charging_Adjusted_Penalty>
0.0084576

> <i_epik_Tot_Q>
1

> <i_epik_Tot_abs_Q>
1

> <r_epik_Metal_State_Penalty>
-0

> <b_epik_Metal_Only>
0

> <s_lp_Force_Field>
OPLS_2005

> <r_lp_Energy>
22.636

> <b_lp_Chiralities_Consistent>
1

> <s_lp_Variant>
AV-unprocessed.smi:3225-2

> <Gold.Version>
5.8.1

> <Gold.Id.Protein>
6NUR|6NUR_protein|mol2

> <Gold.PLP.Fitness>
45.8993

> <Gold.PLP.PLP>
-36.4642

> <Gold.PLP.part.hbond>
-2.0000

> <Gold.PLP.part.metal>
0.0000

> <Gold.PLP.part.buried>
-0.8593

> <Gold.PLP.part.nonpolar>
-35.1957

> <Gold.PLP.part.repulsive>
0.2056

> <Gold.PLP.ligand.clash>
0.0000

> <Gold.PLP.ligand.torsion>
0.6583

> <Gold.PLP.Chemscore.Hbond>
2.7520

> <Gold.PLP.Chemscore.CHOScore>
0.8122

> <Gold.PLP.Chemscore.Metal>
0.0000

> <Gold.Chemscore.Hbonds>
donor molecule, donor type, donor heavy atom, donor atom, acceptor molecule, acceptor atom, score
      L1  H     9    28       P1  8028  1.70
      P1  H  7997  8009       L1    18  0.97
      L1  C     5    25       P1  7957  0.90

> <Gold.PLP.Chemscore.Internal.Correction>
0.0591

> <Gold.Rescore>
     Score         DG    S(hbond)    S(metal)    S(lipo)     H(rot)  DE(clash)    DE(int)     intcor
     14.60     -16.93       1.83        0.00      93.47       2.19       1.67       0.67       ----

> <Gold.Chemscore.Fitness>
14.5965

> <Gold.Chemscore.DG>
-16.9348

> <Gold.Chemscore.ZeroCoef>
-5.4800

> <Gold.Chemscore.Hbond>
1.8327

> <Gold.Chemscore.Metal>
0.0000

> <Gold.Chemscore.Lipo>
93.4697

> <Gold.Chemscore.Internal_Hbond>
0.0000

> <Gold.Chemscore.DEClash>
1.6677

> <Gold.Chemscore.DEInternal>
0.6707

> <Gold.Chemscore.Rot>
2.1884

> <Gold.Chemscore.Internal.Correction>
   9.000000E+99

> <Gold.Chemscore.Hbonds>
donor molecule, donor type, donor heavy atom, donor atom, acceptor molecule, acceptor atom, score
      L1  H     9    28       P1  8028  0.83
      P1  H  7997  8009       L1    18  0.76

> <Gold.Chemscore.Hbond.Weighted>
-6.1211

> <Gold.Chemscore.Metal.Weighted>
-0.0000

> <Gold.Chemscore.Lipo.Weighted>
-10.9360

> <Gold.Chemscore.Internal_Hbond.Weighted>
0.0000

> <Gold.Chemscore.DEClash.Weighted>
1.6677

> <Gold.Chemscore.DEInternal.Weighted>
0.6707

> <Gold.Chemscore.Rot.Weighted>
5.6023

> <Gold.Chemscore.Internal.Correction.Weighted>
   9.000000E+99

> <Gold.Protein.RotatedTorsions>
[ 6907 6896 6895 6894 ] final  172.58 input  -60.11 | X-H torsion
[ 7974 7965 7964 7962 ] final  -85.96 input  175.53 | X-H torsion
[ 8008 7997 7996 7995 ] final  160.19 input   59.86 | X-H torsion
[ 10167 10162 10161 10158 ] final  -51.20 input  -65.29 | X-H torsion
[ 10718 10713 10712 10709 ] final -168.37 input   66.30 | X-H torsion
[ 10763 10752 10751 10750 ] final   57.54 input  -60.55 | X-H torsion
[ 11005 11000 10999 10996 ] final  155.84 input  -57.11 | X-H torsion

> <Gold.Protein.ActiveResidues>
 VAL166  LYS551  ARG553  GLY616  TRP617  ASP618  TYR619  PRO620  LYS621  CYS622 
 ASP623  PHE694  ASN695  SER759  ASP760  ASP761  ALA762  ILE779  LEU786  VAL792 
 PHE793  MET794  SER795  GLU796  ALA797  LYS798  CYS799  TRP800  GLU811  SER814 

> <Gold.Protein.RotatedAtoms>
  151.7820  133.3350  159.3474 H   0  0  0  0  0  0  0  0  0  0  0  0  # atno 6907 bound_to 6896
  150.7423  134.5922  159.6002 H   0  0  0  0  0  0  0  0  0  0  0  0  # atno 6908 bound_to 6896
  152.3269  134.7310  160.0351 H   0  0  0  0  0  0  0  0  0  0  0  0  # atno 6909 bound_to 6896
  145.4862  140.9555  143.1837 H   0  0  0  0  0  0  0  0  0  0  0  0  # atno 7974 bound_to 7965
  156.2189  140.1811  156.7524 H   0  0  0  0  0  0  0  0  0  0  0  0  # atno 8008 bound_to 7997
  154.5834  140.0662  156.9165 H   0  0  0  0  0  0  0  0  0  0  0  0  # atno 8009 bound_to 7997
  155.2462  140.3325  155.4289 H   0  0  0  0  0  0  0  0  0  0  0  0  # atno 8010 bound_to 7997
  140.6600  143.2629  151.4469 H   0  0  0  0  0  0  0  0  0  0  0  0  # atno 10167 bound_to 10162
  156.6959  130.9178  151.3074 H   0  0  0  0  0  0  0  0  0  0  0  0  # atno 10718 bound_to 10713
  152.9852  135.5638  154.5408 H   0  0  0  0  0  0  0  0  0  0  0  0  # atno 10763 bound_to 10752
  154.4863  135.2791  155.1534 H   0  0  0  0  0  0  0  0  0  0  0  0  # atno 10764 bound_to 10752
  154.3022  135.6305  153.5482 H   0  0  0  0  0  0  0  0  0  0  0  0  # atno 10765 bound_to 10752
  140.1619  134.8604  157.2584 H   0  0  0  0  0  0  0  0  0  0  0  0  # atno 11005 bound_to 11000
  144.7860  139.6426  143.7134 LP  0  0  0  0  0  0  0  0  0  0  0  0  # atno 17320 bound_to 7965
  146.2311  139.5816  142.9554 LP  0  0  0  0  0  0  0  0  0  0  0  0  # atno 17321 bound_to 7965
  139.5832  144.1663  152.1995 LP  0  0  0  0  0  0  0  0  0  0  0  0  # atno 17342 bound_to 10162
  140.0995  144.5552  150.6999 LP  0  0  0  0  0  0  0  0  0  0  0  0  # atno 17343 bound_to 10162
  157.6991  130.9314  150.0732 LP  0  0  0  0  0  0  0  0  0  0  0  0  # atno 17370 bound_to 10713
  156.1763  130.3648  149.9095 LP  0  0  0  0  0  0  0  0  0  0  0  0  # atno 17371 bound_to 10713
  140.2480  134.3717  155.7453 LP  0  0  0  0  0  0  0  0  0  0  0  0  # atno 17394 bound_to 11000
  141.2210  133.7301  156.8892 LP  0  0  0  0  0  0  0  0  0  0  0  0  # atno 17395 bound_to 11000

$$$$
