AV-unprocessed.smi:9|AV-procd|sdf|52|dock2
  -GOLD-   2262015173D 1   1.00000     0.00000
 Structure written by MMmdl.
 35 37  0  0  0  0  0  0  0  0  1 V2000
  150.3712  140.7791  155.1178 O   0  0  0  0  0  0  0  0  0  0  0  0
  150.9611  140.9117  156.1879 C   0  0  0  0  0  0  0  0  0  0  0  0
  150.9181  142.0420  156.9345 N   0  0  0  0  0  0  0  0  0  0  0  0
  151.5996  142.1886  158.1699 C   0  0  0  0  0  0  0  0  0  0  0  0
  151.3594  143.5652  158.7695 C   0  0  0  0  0  0  0  0  0  0  0  0
  151.7960  144.5280  157.9562 F   0  0  0  0  0  0  0  0  0  0  0  0
  150.0575  143.7602  158.9812 F   0  0  0  0  0  0  0  0  0  0  0  0
  151.9987  143.6857  159.9334 F   0  0  0  0  0  0  0  0  0  0  0  0
  152.3455  141.2824  158.7483 N   0  0  0  0  0  0  0  0  0  0  0  0
  152.4063  140.1237  158.0000 C   0  0  0  0  0  0  0  0  0  0  0  0
  151.7982  139.8518  156.8022 C   0  0  0  0  0  0  0  0  0  0  0  0
  152.0936  138.5661  156.3660 N   0  0  0  0  0  0  0  0  0  0  0  0
  152.8835  138.1122  157.3371 C   0  0  0  0  0  0  0  0  0  0  0  0
  153.1255  138.9817  158.3373 N   0  0  0  0  0  0  0  0  0  0  0  0
  153.9488  138.7551  159.5173 C   0  0  0  0  0  0  0  0  0  0  0  0
  153.7459  137.3686  160.1815 C   0  0  2  0  0  0  0  0  0  0  0  0
  152.3666  137.0592  160.1025 O   0  0  0  0  0  0  0  0  0  0  0  0
  154.1849  137.3634  161.6628 C   0  0  0  0  0  0  0  0  0  0  0  0
  154.2340  135.9437  162.2363 C   0  0  0  0  0  0  0  0  0  0  0  0
  155.0684  135.0349  161.3270 C   0  0  0  0  0  0  0  0  0  0  0  0
  154.4914  135.0202  160.0288 O   0  0  0  0  0  0  0  0  0  0  0  0
  154.5052  136.2874  159.3758 C   0  0  0  0  0  0  0  0  0  0  0  0
  150.3699  142.8164  156.5890 H   0  0  0  0  0  0  0  0  0  0  0  0
  153.3053  137.1178  157.3176 H   0  0  0  0  0  0  0  0  0  0  0  0
  154.9946  138.8944  159.2397 H   0  0  0  0  0  0  0  0  0  0  0  0
  153.7228  139.5444  160.2357 H   0  0  0  0  0  0  0  0  0  0  0  0
  151.9228  137.7830  159.6873 H   0  0  0  0  0  0  0  0  0  0  0  0
  155.1798  137.8035  161.7425 H   0  0  0  0  0  0  0  0  0  0  0  0
  153.5250  137.9838  162.2704 H   0  0  0  0  0  0  0  0  0  0  0  0
  154.6553  135.9606  163.2418 H   0  0  0  0  0  0  0  0  0  0  0  0
  153.2239  135.5429  162.3276 H   0  0  0  0  0  0  0  0  0  0  0  0
  156.1060  135.3691  161.2784 H   0  0  0  0  0  0  0  0  0  0  0  0
  155.0775  134.0182  161.7199 H   0  0  0  0  0  0  0  0  0  0  0  0
  154.0770  136.1765  158.3787 H   0  0  0  0  0  0  0  0  0  0  0  0
  155.5447  136.5864  159.2319 H   0  0  0  0  0  0  0  0  0  0  0  0
  1  2  2  0  0  0  0
  2 11  1  0  0  0  0
  2  3  1  0  0  0  0
  3 23  1  0  0  0  0
  3  4  1  0  0  0  0
  4  5  1  0  0  0  0
  4  9  2  0  0  0  0
  5  6  1  0  0  0  0
  5  7  1  0  0  0  0
  5  8  1  0  0  0  0
  9 10  1  0  0  0  0
 10 14  1  0  0  0  0
 10 11  2  0  0  0  0
 11 12  1  0  0  0  0
 12 13  2  0  0  0  0
 13 14  1  0  0  0  0
 13 24  1  0  0  0  0
 14 15  1  0  0  0  0
 15 16  1  0  0  0  0
 15 25  1  0  0  0  0
 15 26  1  0  0  0  0
 16 22  1  0  0  0  0
 16 17  1  0  0  0  0
 16 18  1  0  0  0  0
 17 27  1  0  0  0  0
 18 19  1  0  0  0  0
 18 28  1  0  0  0  0
 18 29  1  0  0  0  0
 19 20  1  0  0  0  0
 19 30  1  0  0  0  0
 19 31  1  0  0  0  0
 20 21  1  0  0  0  0
 20 32  1  0  0  0  0
 20 33  1  0  0  0  0
 21 22  1  0  0  0  0
 22 34  1  0  0  0  0
 22 35  1  0  0  0  0
M  END
> <s_m_source_file>
AV-unprocessed.smi

> <i_m_source_file_index>
9

> <i_lp_mmshare_version>
43012

> <i_f3d_flags>
0

> <s_epik_input>
RkMoRikoRiljKG4xKVtuSF1jKD1PKWMoYzEyKW5bY0hdbjJbQ0gyXVtDQEBdMyhbT0hdKVtDSDJdW0NIMl1bQ0gyXU9bQ0gyXTM=

> <s_epik_cmdline>
J2VwaWtfcHl0aG9uJywgJy1waCcsICc3LjAnLCAnLXRuJywgJzgnLCAnLW1hJywgJzIwMCcsICctbWV0YWxfYmluZGluZycsICctaW1hZScsICc8aW5maWxlLm1hZT4nLCAnLW9tYWUnLCAnPG91dGZpbGUubWFlPic=

> <r_lp_tautomer_probability>
0.85571

> <r_epik_Ionization_Penalty>
0.770127

> <r_epik_Ionization_Penalty_Charging>
0.770101

> <r_epik_Ionization_Penalty_Neutral>
2.64604e-05

> <r_epik_State_Penalty>
2.30539

> <r_epik_Charging_Adjusted_Penalty>
3.07549

> <i_epik_Tot_Q>
0

> <i_epik_Tot_abs_Q>
0

> <r_epik_Metal_State_Penalty>
2.4903

> <b_epik_Metal_Only>
0

> <s_lp_Force_Field>
OPLS_2005

> <r_lp_Energy>
27.1686

> <b_lp_Chiralities_Consistent>
1

> <s_lp_Variant>
AV-unprocessed.smi:9-4

> <Gold.Version>
5.8.1

> <Gold.Id.Protein>
6NUR|6NUR_protein|mol2

> <Gold.PLP.Fitness>
39.5515

> <Gold.PLP.PLP>
-35.2574

> <Gold.PLP.part.hbond>
-2.7651

> <Gold.PLP.part.metal>
0.0000

> <Gold.PLP.part.buried>
-4.1848

> <Gold.PLP.part.nonpolar>
-27.7321

> <Gold.PLP.part.repulsive>
0.1458

> <Gold.PLP.ligand.clash>
0.0000

> <Gold.PLP.ligand.torsion>
0.5180

> <Gold.PLP.Chemscore.Hbond>
1.7743

> <Gold.PLP.Chemscore.CHOScore>
0.0000

> <Gold.PLP.Chemscore.Metal>
0.0000

> <Gold.Chemscore.Hbonds>
donor molecule, donor type, donor heavy atom, donor atom, acceptor molecule, acceptor atom, score
      P1  H  6896  6907       L1    17  1.00
      P1  H  7989  7998       L1     1  0.80

> <Gold.PLP.Chemscore.Internal.Correction>
0.0073

> <Gold.Rescore>
     Score         DG    S(hbond)    S(metal)    S(lipo)     H(rot)  DE(clash)    DE(int)     intcor
     12.66     -13.00       2.30        0.00      45.48       2.14       0.00       0.34       ----

> <Gold.Chemscore.Fitness>
12.6566

> <Gold.Chemscore.DG>
-13.0016

> <Gold.Chemscore.ZeroCoef>
-5.4800

> <Gold.Chemscore.Hbond>
2.2969

> <Gold.Chemscore.Metal>
0.0000

> <Gold.Chemscore.Lipo>
45.4830

> <Gold.Chemscore.Internal_Hbond>
0.0000

> <Gold.Chemscore.DEClash>
0.0048

> <Gold.Chemscore.DEInternal>
0.3402

> <Gold.Chemscore.Rot>
2.1373

> <Gold.Chemscore.Internal.Correction>
   9.000000E+99

> <Gold.Chemscore.Hbonds>
donor molecule, donor type, donor heavy atom, donor atom, acceptor molecule, acceptor atom, score
      P1  H  6896  6907       L1    17  0.93
      P1  H  7989  7998       L1     1  0.65

> <Gold.Chemscore.Hbond.Weighted>
-7.6715

> <Gold.Chemscore.Metal.Weighted>
-0.0000

> <Gold.Chemscore.Lipo.Weighted>
-5.3215

> <Gold.Chemscore.Internal_Hbond.Weighted>
0.0000

> <Gold.Chemscore.DEClash.Weighted>
0.0048

> <Gold.Chemscore.DEInternal.Weighted>
0.3402

> <Gold.Chemscore.Rot.Weighted>
5.4714

> <Gold.Chemscore.Internal.Correction.Weighted>
   9.000000E+99

> <Gold.Protein.RotatedTorsions>
[ 6907 6896 6895 6894 ] final   14.05 input  -60.11 | X-H torsion
[ 7974 7965 7964 7962 ] final   28.71 input  175.53 | X-H torsion
[ 8008 7997 7996 7995 ] final -166.95 input   59.86 | X-H torsion
[ 10167 10162 10161 10158 ] final  110.25 input  -65.29 | X-H torsion
[ 10718 10713 10712 10709 ] final  113.04 input   66.30 | X-H torsion
[ 10763 10752 10751 10750 ] final -100.38 input  -60.55 | X-H torsion
[ 11005 11000 10999 10996 ] final   -1.80 input  -57.11 | X-H torsion

> <Gold.Protein.ActiveResidues>
 VAL166  LYS551  ARG553  GLY616  TRP617  ASP618  TYR619  PRO620  LYS621  CYS622 
 ASP623  PHE694  ASN695  SER759  ASP760  ASP761  ALA762  ILE779  LEU786  VAL792 
 PHE793  MET794  SER795  GLU796  ALA797  LYS798  CYS799  TRP800  GLU811  SER814 

> <Gold.Protein.RotatedAtoms>
  151.7960  135.0722  160.0393 H   0  0  0  0  0  0  0  0  0  0  0  0  # atno 6907 bound_to 6896
  152.3123  133.5761  159.5697 H   0  0  0  0  0  0  0  0  0  0  0  0  # atno 6908 bound_to 6896
  150.7326  134.0051  159.3693 H   0  0  0  0  0  0  0  0  0  0  0  0  # atno 6909 bound_to 6896
  146.1713  139.7019  142.8965 H   0  0  0  0  0  0  0  0  0  0  0  0  # atno 7974 bound_to 7965
  155.8709  140.0993  157.1551 H   0  0  0  0  0  0  0  0  0  0  0  0  # atno 8008 bound_to 7997
  154.3997  140.1347  156.4140 H   0  0  0  0  0  0  0  0  0  0  0  0  # atno 8009 bound_to 7997
  155.7752  140.3460  155.5270 H   0  0  0  0  0  0  0  0  0  0  0  0  # atno 8010 bound_to 7997
  139.6703  144.7125  151.1700 H   0  0  0  0  0  0  0  0  0  0  0  0  # atno 10167 bound_to 10162
  157.6360  131.0977  150.6983 H   0  0  0  0  0  0  0  0  0  0  0  0  # atno 10718 bound_to 10713
  154.7574  135.4937  153.9400 H   0  0  0  0  0  0  0  0  0  0  0  0  # atno 10763 bound_to 10752
  153.1212  135.6732  153.9341 H   0  0  0  0  0  0  0  0  0  0  0  0  # atno 10764 bound_to 10752
  153.9072  135.3103  155.3427 H   0  0  0  0  0  0  0  0  0  0  0  0  # atno 10765 bound_to 10752
  140.6513  133.9402  155.8382 H   0  0  0  0  0  0  0  0  0  0  0  0  # atno 11005 bound_to 11000
  145.4332  141.0417  143.2899 LP  0  0  0  0  0  0  0  0  0  0  0  0  # atno 17320 bound_to 7965
  144.8168  139.5863  143.7005 LP  0  0  0  0  0  0  0  0  0  0  0  0  # atno 17321 bound_to 7965
  140.7615  143.5855  150.8850 LP  0  0  0  0  0  0  0  0  0  0  0  0  # atno 17342 bound_to 10162
  139.9519  143.6262  152.3026 LP  0  0  0  0  0  0  0  0  0  0  0  0  # atno 17343 bound_to 10162
  156.7314  130.4711  149.5498 LP  0  0  0  0  0  0  0  0  0  0  0  0  # atno 17370 bound_to 10713
  156.1599  130.6367  151.0706 LP  0  0  0  0  0  0  0  0  0  0  0  0  # atno 17371 bound_to 10713
  141.0534  134.0451  157.3753 LP  0  0  0  0  0  0  0  0  0  0  0  0  # atno 17394 bound_to 11000
  139.9045  135.0175  156.7422 LP  0  0  0  0  0  0  0  0  0  0  0  0  # atno 17395 bound_to 11000

$$$$
