#       Name:                AV-unprocessed.smi:1817
#       Creating user name   scv26
#       Creation time:       Fri Mar 27 09:04:46 2020


#       File generated by GOLD software.
#

@<TRIPOS>MOLECULE
AV-unprocessed.smi:1817
    48    49     1
SMALL
NO_CHARGES


@<TRIPOS>ATOM
      1 ****        -5.4194   1.7455   2.3302 C.3            1 S1                 0.0000
      2 ****        -4.7823   0.3853   2.0126 C.3            1 S1                 0.0000
      3 ****        -3.3298   0.4086   1.8518 N.3            1 S1                 0.0000
      4 ****        -2.9088   1.1424   0.6593 C.3            1 S1                 0.0000
      5 ****        -1.3759   1.1510   0.5072 C.3            1 S1                 0.0000
      6 ****        -0.8088  -0.2040   0.4195 N.3            1 S1                 0.0000
      7 ****         0.6673  -0.2006   0.2783 C.3            1 S1                 0.0000
      8 ****         1.2664  -1.6295   0.2342 C.3            1 S1                 0.0000
      9 ****         1.1598   0.5983  -0.9624 C.3            1 S1                 0.0000
     10 ****         2.6173   0.6645  -1.0669 N.am           1 S1                 0.0000
     11 ****         3.3812   0.0499  -1.9825 C.2            1 S1                 0.0000
     12 ****         2.8625  -0.6711  -2.8379 O.2            1 S1                 0.0000
     13 ****         4.7031   0.3025  -1.8453 N.pl3          1 S1                -1.0000
     14 ****         5.5837  -0.2573  -2.6912 C.2            1 S1                 0.0000
     15 ****         6.0629   0.3923  -3.7643 N.2            1 S1                 0.0000
     16 ****         6.9615  -0.3642  -4.5044 N.2            1 S1                 0.0000
     17 ****         7.1453  -1.5676  -3.9621 C.2            1 S1                 0.0000
     18 ****         6.2382  -1.8862  -2.4985 S.3            1 S1                 0.0000
     19 ****        -1.2616  -0.9431   1.6081 C.3            1 S1                 0.0000
     20 ****        -2.7943  -0.9454   1.7509 C.3            1 S1                 0.0000
     21 ****        -6.4806   1.6284   2.5503 H              1 S1                 0.0000
     22 ****        -5.3374   2.4389   1.4938 H              1 S1                 0.0000
     23 ****        -4.9500   2.2061   3.1997 H              1 S1                 0.0000
     24 ****        -5.0335  -0.2912   2.8306 H              1 S1                 0.0000
     25 ****        -5.2487  -0.0364   1.1211 H              1 S1                 0.0000
     26 ****        -3.3631   0.7046  -0.2311 H              1 S1                 0.0000
     27 ****        -3.2556   2.1740   0.7110 H              1 S1                 0.0000
     28 ****        -1.1570   1.7186  -0.3948 H              1 S1                 0.0000
     29 ****        -0.9257   1.6925   1.3407 H              1 S1                 0.0000
     30 ****         1.0870   0.2903   1.1579 H              1 S1                 0.0000
     31 ****         2.3484  -1.6212   0.1124 H              1 S1                 0.0000
     32 ****         0.8479  -2.2070  -0.5908 H              1 S1                 0.0000
     33 ****         1.0964  -2.1829   1.1561 H              1 S1                 0.0000
     34 ****         0.7096   0.1959  -1.8712 H              1 S1                 0.0000
     35 ****         0.8496   1.6397  -0.9066 H              1 S1                 0.0000
     36 ****         3.0927   1.2379  -0.3857 H              1 S1                 0.0000
     37 ****         7.8203  -2.2713  -4.4258 H              1 S1                 0.0000
     38 ****        -0.9522  -1.9849   1.5527 H              1 S1                 0.0000
     39 ****        -0.8067  -0.5236   2.5068 H              1 S1                 0.0000
     40 ****        -3.0680  -1.5164   2.6389 H              1 S1                 0.0000
     41 ****        -3.2397  -1.4627   0.8994 H              1 S1                 0.0000
     42 ****        -2.9746   0.8716   2.6638 LP             1 S1                 0.0000
     43 ****        -1.1339  -0.6564  -0.4110 LP             1 S1                 0.0000
     44 ****         1.8707  -0.7985  -2.8500 LP             1 S1                 0.0000
     45 ****         3.4336  -1.1284  -3.5196 LP             1 S1                 0.0000
     46 ****         5.0243   0.9053  -1.1150 LP             1 S1                 0.0000
     47 ****         5.7992   1.3262  -4.0059 LP             1 S1                 0.0000
     48 ****         7.4132  -0.0466  -5.3382 LP             1 S1                 0.0000
@<TRIPOS>BOND
    1    1    2 1     
    2    1   21 1     
    3    1   22 1     
    4    1   23 1     
    5    2    3 1     
    6    2   24 1     
    7    2   25 1     
    8    3   20 1     
    9    3    4 1     
   10    4    5 1     
   11    4   26 1     
   12    4   27 1     
   13    5    6 1     
   14    5   28 1     
   15    5   29 1     
   16    6    7 1     
   17    6   19 1     
   18    7    8 1     
   19    7    9 1     
   20    7   30 1     
   21    8   31 1     
   22    8   32 1     
   23    8   33 1     
   24    9   10 1     
   25    9   34 1     
   26    9   35 1     
   27   10   11 am    
   28   10   36 1     
   29   11   12 2     
   30   11   13 1     
   31   13   14 1     
   32   14   18 1     
   33   14   15 2     
   34   15   16 1     
   35   16   17 2     
   36   17   18 1     
   37   17   37 1     
   38   19   20 1     
   39   19   38 1     
   40   19   39 1     
   41   20   40 1     
   42   20   41 1     
   43    3   42 1     
   44    6   43 1     
   45   12   44 1     
   46   12   45 1     
   47   13   46 1     
   48   15   47 1     
   49   16   48 1     
@<TRIPOS>SUBSTRUCTURE
      1 S1             1
@<TRIPOS>SET
LONE_PAIRS      STATIC     ATOMS    <user>   **** ""
7 42 43 44 45 46 47 48
DONOR_HYDROGENS      STATIC     ATOMS    <user>   **** ""
1 36
ATOM$BLUE        STATIC     ATOMS    COLORGROUP SYSTEM
7 42 43 44 45 46 47 48
ATOM$RED        STATIC     ATOMS    COLORGROUP SYSTEM
1 36
