AV-unprocessed.smi:21|AV-procd|sdf|162|dock2
  -GOLD-   2262015403D 1   1.00000     0.00000
 Structure written by MMmdl.
 61 64  0  0  0  0  0  0  0  0  1 V2000
  151.5634  145.3658  159.3445 C   0  0  0  0  0  0  0  0  0  0  0  0
  151.3936  144.0405  158.8676 O   0  0  0  0  0  0  0  0  0  0  0  0
  152.6001  143.2915  158.8394 C   0  0  2  0  0  0  0  0  0  0  0  0
  152.4193  141.8815  158.2468 C   0  0  0  0  0  0  0  0  0  0  0  0
  152.7961  140.9274  159.3912 C   0  0  1  0  0  0  0  0  0  0  0  0
  153.3912  139.5859  158.9079 C   0  0  0  0  0  0  0  0  0  0  0  0
  152.3841  138.5405  158.7255 N   0  0  0  0  0  0  0  0  0  0  0  0
  151.9433  137.8014  159.9078 C   0  0  0  0  0  0  0  0  0  0  0  0
  152.1163  138.0278  157.4873 C   0  0  0  0  0  0  0  0  0  0  0  0
  152.8010  138.5296  156.4228 N   0  0  0  0  0  0  0  0  0  0  0  0
  152.5789  138.0818  155.1852 C   0  0  0  0  0  0  0  0  0  0  0  0
  151.7271  137.1407  154.7820 N   0  0  0  0  0  0  0  0  0  0  0  0
  151.0399  136.6170  155.8355 C   0  0  0  0  0  0  0  0  0  0  0  0
  151.1666  136.9951  157.2054 C   0  0  0  0  0  0  0  0  0  0  0  0
  150.2941  136.2271  157.9711 N   0  0  0  0  0  0  0  0  0  0  0  0
  149.6858  135.4579  157.1124 C   0  0  0  0  0  0  0  0  0  0  0  0
  150.0884  135.6124  155.8072 N   0  0  0  0  0  0  0  0  0  0  0  0
  149.5838  134.8918  154.6519 C   0  0  0  0  0  0  0  0  0  0  0  0
  148.0416  134.7269  154.6153 C   0  0  2  0  0  0  0  0  0  0  0  0
  147.6137  133.6978  155.6873 C   0  0  0  0  0  0  0  0  0  0  0  0
  148.4395  132.5508  155.6696 O   0  0  0  0  0  0  0  0  0  0  0  0
  147.4634  134.3996  153.2068 C   0  0  1  0  0  0  0  0  0  0  0  0
  147.6721  132.9634  152.7512 C   0  0  0  0  0  0  0  0  0  0  0  0
  146.6437  132.8264  151.6390 C   0  0  0  0  0  0  0  0  0  0  0  0
  145.5161  133.5399  152.1200 O   0  0  0  0  0  0  0  0  0  0  0  0
  145.9362  134.5206  153.0643 C   0  0  0  0  0  0  0  0  0  0  0  0
  153.6780  141.7035  160.2477 N   0  0  0  0  0  0  0  0  0  0  0  0
  153.8376  141.1484  161.5853 C   0  0  0  0  0  0  0  0  0  0  0  0
  153.0682  143.0182  160.2713 C   0  0  0  0  0  0  0  0  0  0  0  0
  153.3826  143.8310  158.3024 H   0  0  0  0  0  0  0  0  0  0  0  0
  151.8811  140.7248  159.9503 H   0  0  0  0  0  0  0  0  0  0  0  0
  150.6019  145.8791  159.3424 H   0  0  0  0  0  0  0  0  0  0  0  0
  152.2481  145.9369  158.7169 H   0  0  0  0  0  0  0  0  0  0  0  0
  151.9423  145.3699  160.3673 H   0  0  0  0  0  0  0  0  0  0  0  0
  151.4025  141.6922  157.9012 H   0  0  0  0  0  0  0  0  0  0  0  0
  153.0880  141.7563  157.3943 H   0  0  0  0  0  0  0  0  0  0  0  0
  153.9074  139.7510  157.9617 H   0  0  0  0  0  0  0  0  0  0  0  0
  154.1672  139.2263  159.5803 H   0  0  0  0  0  0  0  0  0  0  0  0
  150.8666  137.6309  159.8772 H   0  0  0  0  0  0  0  0  0  0  0  0
  152.1611  138.3507  160.8238 H   0  0  0  0  0  0  0  0  0  0  0  0
  152.4470  136.8361  159.9701 H   0  0  0  0  0  0  0  0  0  0  0  0
  153.1688  138.5444  154.4077 H   0  0  0  0  0  0  0  0  0  0  0  0
  148.9339  134.7425  157.4126 H   0  0  0  0  0  0  0  0  0  0  0  0
  149.9291  135.4011  153.7514 H   0  0  0  0  0  0  0  0  0  0  0  0
  150.0624  133.9118  154.6507 H   0  0  0  0  0  0  0  0  0  0  0  0
  147.6037  135.6750  154.9295 H   0  0  0  0  0  0  0  0  0  0  0  0
  147.6598  134.1433  156.6815 H   0  0  0  0  0  0  0  0  0  0  0  0
  146.5784  133.3880  155.5449 H   0  0  0  0  0  0  0  0  0  0  0  0
  148.0187  131.8691  156.1709 H   0  0  0  0  0  0  0  0  0  0  0  0
  147.9301  135.0534  152.4680 H   0  0  0  0  0  0  0  0  0  0  0  0
  148.6864  132.7649  152.4037 H   0  0  0  0  0  0  0  0  0  0  0  0
  147.4417  132.2663  153.5583 H   0  0  0  0  0  0  0  0  0  0  0  0
  147.0020  133.3012  150.7244 H   0  0  0  0  0  0  0  0  0  0  0  0
  146.3981  131.7885  151.4142 H   0  0  0  0  0  0  0  0  0  0  0  0
  145.4290  134.3165  154.0077 H   0  0  0  0  0  0  0  0  0  0  0  0
  145.6353  135.5115  152.7261 H   0  0  0  0  0  0  0  0  0  0  0  0
  154.4644  141.7983  162.1965 H   0  0  0  0  0  0  0  0  0  0  0  0
  154.3161  140.1702  161.5492 H   0  0  0  0  0  0  0  0  0  0  0  0
  152.8749  141.0379  162.0860 H   0  0  0  0  0  0  0  0  0  0  0  0
  153.7615  143.7780  160.6335 H   0  0  0  0  0  0  0  0  0  0  0  0
  152.2054  143.0123  160.9400 H   0  0  0  0  0  0  0  0  0  0  0  0
  1  2  1  0  0  0  0
  1 32  1  0  0  0  0
  1 33  1  0  0  0  0
  1 34  1  0  0  0  0
  2  3  1  0  0  0  0
  3 30  1  0  0  0  0
  3 29  1  0  0  0  0
  3  4  1  0  0  0  0
  4  5  1  0  0  0  0
  4 35  1  0  0  0  0
  4 36  1  0  0  0  0
  5 31  1  0  0  0  0
  5  6  1  0  0  0  0
  5 27  1  0  0  0  0
  6  7  1  0  0  0  0
  6 37  1  0  0  0  0
  6 38  1  0  0  0  0
  7  8  1  0  0  0  0
  7  9  1  0  0  0  0
  8 39  1  0  0  0  0
  8 40  1  0  0  0  0
  8 41  1  0  0  0  0
  9 14  1  0  0  0  0
  9 10  2  0  0  0  0
 10 11  1  0  0  0  0
 11 12  2  0  0  0  0
 11 42  1  0  0  0  0
 12 13  1  0  0  0  0
 13 17  1  0  0  0  0
 13 14  2  0  0  0  0
 14 15  1  0  0  0  0
 15 16  2  0  0  0  0
 16 17  1  0  0  0  0
 16 43  1  0  0  0  0
 17 18  1  0  0  0  0
 18 19  1  0  0  0  0
 18 44  1  0  0  0  0
 18 45  1  0  0  0  0
 19 20  1  0  0  0  0
 19 22  1  0  0  0  0
 19 46  1  0  0  0  0
 20 21  1  0  0  0  0
 20 47  1  0  0  0  0
 20 48  1  0  0  0  0
 21 49  1  0  0  0  0
 22 26  1  0  0  0  0
 22 23  1  0  0  0  0
 22 50  1  0  0  0  0
 23 24  1  0  0  0  0
 23 51  1  0  0  0  0
 23 52  1  0  0  0  0
 24 25  1  0  0  0  0
 24 53  1  0  0  0  0
 24 54  1  0  0  0  0
 25 26  1  0  0  0  0
 26 55  1  0  0  0  0
 26 56  1  0  0  0  0
 27 28  1  0  0  0  0
 27 29  1  0  0  0  0
 28 57  1  0  0  0  0
 28 58  1  0  0  0  0
 28 59  1  0  0  0  0
 29 60  1  0  0  0  0
 29 61  1  0  0  0  0
M  END
> <s_m_source_file>
AV-unprocessed.smi

> <i_m_source_file_index>
21

> <i_lp_mmshare_version>
43012

> <i_f3d_flags>
0

> <s_epik_input>
W0NIM11PW0NASF0xW0NIMl1bQ0BIXShOKFtDSDNdKVtDSDJdMSlbQ0gyXU4oW0NIM10pYyhuW2NIXW4yKWMoYzIzKW5bY0hdbjNbQ0gyXVtDQEhdKFtDSDJdW09IXSlbQ0BASF00W0NIMl1bQ0gyXU9bQ0gyXTQ=

> <s_epik_cmdline>
J2VwaWtfcHl0aG9uJywgJy1waCcsICc3LjAnLCAnLXRuJywgJzgnLCAnLW1hJywgJzIwMCcsICctbWV0YWxfYmluZGluZycsICctaW1hZScsICc8aW5maWxlLm1hZT4nLCAnLW9tYWUnLCAnPG91dGZpbGUubWFlPic=

> <r_lp_tautomer_probability>
1

> <r_epik_Ionization_Penalty>
2.17574

> <r_epik_Ionization_Penalty_Charging>
0

> <r_epik_Ionization_Penalty_Neutral>
2.17574

> <r_epik_State_Penalty>
2.31336

> <r_epik_Charging_Adjusted_Penalty>
2.31336

> <i_epik_Tot_Q>
0

> <i_epik_Tot_abs_Q>
0

> <r_epik_Metal_State_Penalty>
2.31025

> <b_epik_Metal_Only>
0

> <s_lp_Force_Field>
OPLS_2005

> <r_lp_Energy>
68.3176

> <b_lp_Chiralities_Consistent>
1

> <s_lp_Variant>
AV-unprocessed.smi:21-42

> <Gold.Version>
5.8.1

> <Gold.Id.Protein>
6NUR|6NUR_protein|mol2

> <Gold.PLP.Fitness>
46.7824

> <Gold.PLP.PLP>
-41.8959

> <Gold.PLP.part.hbond>
-2.8642

> <Gold.PLP.part.metal>
0.0000

> <Gold.PLP.part.buried>
-3.3995

> <Gold.PLP.part.nonpolar>
-36.4647

> <Gold.PLP.part.repulsive>
0.2714

> <Gold.PLP.ligand.clash>
0.0000

> <Gold.PLP.ligand.torsion>
1.2938

> <Gold.PLP.Chemscore.Hbond>
2.1939

> <Gold.PLP.Chemscore.CHOScore>
0.0000

> <Gold.PLP.Chemscore.Metal>
0.0000

> <Gold.Chemscore.Hbonds>
donor molecule, donor type, donor heavy atom, donor atom, acceptor molecule, acceptor atom, score
      P1  H  6896  6909       L1    15  0.32
      P1  H  7997  8010       L1    10  0.59
      P1  H 10752 10763       L1    12  0.93

> <Gold.PLP.Chemscore.Internal.Correction>
0.8925

> <Gold.Rescore>
     Score         DG    S(hbond)    S(metal)    S(lipo)     H(rot)  DE(clash)    DE(int)     intcor
      9.86     -12.99       0.73        0.00     109.13       3.00       0.50       2.64       ----

> <Gold.Chemscore.Fitness>
9.8588

> <Gold.Chemscore.DG>
-12.9923

> <Gold.Chemscore.ZeroCoef>
-5.4800

> <Gold.Chemscore.Hbond>
0.7282

> <Gold.Chemscore.Metal>
0.0000

> <Gold.Chemscore.Lipo>
109.1304

> <Gold.Chemscore.Internal_Hbond>
0.0000

> <Gold.Chemscore.DEClash>
0.4967

> <Gold.Chemscore.DEInternal>
2.6368

> <Gold.Chemscore.Rot>
3.0031

> <Gold.Chemscore.Internal.Correction>
   9.000000E+99

> <Gold.Chemscore.Hbonds>
donor molecule, donor type, donor heavy atom, donor atom, acceptor molecule, acceptor atom, score
      P1  H  6896  6909       L1    15  0.08
      P1  H  7997  8010       L1    10  0.45
      P1  H 10752 10763       L1    12  0.15

> <Gold.Chemscore.Hbond.Weighted>
-2.4321

> <Gold.Chemscore.Metal.Weighted>
-0.0000

> <Gold.Chemscore.Lipo.Weighted>
-12.7683

> <Gold.Chemscore.Internal_Hbond.Weighted>
0.0000

> <Gold.Chemscore.DEClash.Weighted>
0.4967

> <Gold.Chemscore.DEInternal.Weighted>
2.6368

> <Gold.Chemscore.Rot.Weighted>
7.6880

> <Gold.Chemscore.Internal.Correction.Weighted>
   9.000000E+99

> <Gold.Protein.RotatedTorsions>
[ 6907 6896 6895 6894 ] final   57.20 input  -60.11 | X-H torsion
[ 7974 7965 7964 7962 ] final  -63.56 input  175.53 | X-H torsion
[ 8008 7997 7996 7995 ] final   72.04 input   59.86 | X-H torsion
[ 10167 10162 10161 10158 ] final  -82.92 input  -65.29 | X-H torsion
[ 10718 10713 10712 10709 ] final  -64.58 input   66.30 | X-H torsion
[ 10763 10752 10751 10750 ] final   35.47 input  -60.55 | X-H torsion
[ 11005 11000 10999 10996 ] final  124.99 input  -57.11 | X-H torsion

> <Gold.Protein.ActiveResidues>
 VAL166  LYS551  ARG553  GLY616  TRP617  ASP618  TYR619  PRO620  LYS621  CYS622 
 ASP623  PHE694  ASN695  SER759  ASP760  ASP761  ALA762  ILE779  LEU786  VAL792 
 PHE793  MET794  SER795  GLU796  ALA797  LYS798  CYS799  TRP800  GLU811  SER814 

> <Gold.Protein.RotatedAtoms>
  152.3709  134.6735  160.0176 H   0  0  0  0  0  0  0  0  0  0  0  0  # atno 6907 bound_to 6896
  151.7028  133.3306  159.3279 H   0  0  0  0  0  0  0  0  0  0  0  0  # atno 6908 bound_to 6896
  150.7673  134.6535  159.6346 H   0  0  0  0  0  0  0  0  0  0  0  0  # atno 6909 bound_to 6896
  145.7776  140.8779  143.0347 H   0  0  0  0  0  0  0  0  0  0  0  0  # atno 7974 bound_to 7965
  155.7630  140.3486  155.5207 H   0  0  0  0  0  0  0  0  0  0  0  0  # atno 8008 bound_to 7997
  155.8896  140.1015  157.1449 H   0  0  0  0  0  0  0  0  0  0  0  0  # atno 8009 bound_to 7997
  154.4032  140.1307  156.4286 H   0  0  0  0  0  0  0  0  0  0  0  0  # atno 8010 bound_to 7997
  140.4275  143.2561  151.8805 H   0  0  0  0  0  0  0  0  0  0  0  0  # atno 10167 bound_to 10162
  156.0720  130.4235  150.1441 H   0  0  0  0  0  0  0  0  0  0  0  0  # atno 10718 bound_to 10713
  153.0118  135.6332  154.1831 H   0  0  0  0  0  0  0  0  0  0  0  0  # atno 10763 bound_to 10752
  154.1573  135.2825  155.3120 H   0  0  0  0  0  0  0  0  0  0  0  0  # atno 10764 bound_to 10752
  154.6008  135.5588  153.7433 H   0  0  0  0  0  0  0  0  0  0  0  0  # atno 10765 bound_to 10752
  139.9385  134.9637  156.8492 H   0  0  0  0  0  0  0  0  0  0  0  0  # atno 11005 bound_to 11000
  144.6802  139.9943  143.7484 LP  0  0  0  0  0  0  0  0  0  0  0  0  # atno 17320 bound_to 7965
  146.0107  139.3167  143.0872 LP  0  0  0  0  0  0  0  0  0  0  0  0  # atno 17321 bound_to 7965
  139.4784  144.5371  151.8583 LP  0  0  0  0  0  0  0  0  0  0  0  0  # atno 17342 bound_to 10162
  140.4464  144.1915  150.5894 LP  0  0  0  0  0  0  0  0  0  0  0  0  # atno 17343 bound_to 10162
  156.9490  130.9768  151.3502 LP  0  0  0  0  0  0  0  0  0  0  0  0  # atno 17370 bound_to 10713
  157.5796  130.8367  149.8504 LP  0  0  0  0  0  0  0  0  0  0  0  0  # atno 17371 bound_to 10713
  140.6013  134.0169  155.7538 LP  0  0  0  0  0  0  0  0  0  0  0  0  # atno 17394 bound_to 11000
  141.1009  133.9769  157.3080 LP  0  0  0  0  0  0  0  0  0  0  0  0  # atno 17395 bound_to 11000

$$$$
