AV-unprocessed.smi:1243|AV-procd|sdf|5220|dock5
  -GOLD-   22720 4313D 1   1.00000     0.00000
 Structure written by MMmdl.
 50 51  0  0  0  0  0  0  0  0  1 V2000
  145.6696  133.1452  151.6084 C   0  0  0  0  0  0  0  0  0  0  0  0
  146.8142  133.4893  152.3814 O   0  0  0  0  0  0  0  0  0  0  0  0
  147.6003  132.4714  152.8875 C   0  0  0  0  0  0  0  0  0  0  0  0
  147.2371  131.1889  152.6342 N   0  0  0  0  0  0  0  0  0  0  0  0
  148.0014  130.1947  153.1309 C   0  0  0  0  0  0  0  0  0  0  0  0
  149.1533  130.4220  153.9057 C   0  0  0  0  0  0  0  0  0  0  0  0
  149.5321  131.7512  154.1699 C   0  0  0  0  0  0  0  0  0  0  0  0
  148.7492  132.8068  153.6418 C   0  0  0  0  0  0  0  0  0  0  0  0
  149.0302  134.1855  153.8519 N   0  0  0  0  0  0  0  0  0  0  0  0
  149.5268  134.7895  154.9446 C   0  0  0  0  0  0  0  0  0  0  0  0
  149.8034  134.2309  156.0057 O   0  0  0  0  0  0  0  0  0  0  0  0
  149.6982  136.1006  154.7278 N   0  0  0  0  0  0  0  0  0  0  0  0
  150.2032  137.0728  155.6966 C   0  0  0  0  0  0  0  0  0  0  0  0
  150.3931  138.4849  155.0712 C   0  0  0  0  0  0  0  0  0  0  0  0
  151.6636  138.4017  154.1872 C   0  0  0  0  0  0  0  0  0  0  0  0
  149.1923  138.7320  154.1267 C   0  0  0  0  0  0  0  0  0  0  0  0
  150.5384  139.5358  156.1176 N   0  0  0  0  0  0  0  0  0  0  0  0
  151.6557  139.3272  157.0527 C   0  0  0  0  0  0  0  0  0  0  0  0
  151.6545  140.3696  158.1859 C   0  0  0  0  0  0  0  0  0  0  0  0
  151.7399  141.7295  157.6625 N   0  0  0  0  0  0  0  0  0  0  0  0
  151.7512  142.7144  158.7328 C   0  0  0  0  0  0  0  0  0  0  0  0
  150.6271  141.9481  156.7437 C   0  0  0  0  0  0  0  0  0  0  0  0
  150.6263  140.9131  155.6040 C   0  0  0  0  0  0  0  0  0  0  0  0
  145.1652  134.0564  151.2873 H   0  0  0  0  0  0  0  0  0  0  0  0
  144.9563  132.5597  152.1902 H   0  0  0  0  0  0  0  0  0  0  0  0
  145.9459  132.5880  150.7123 H   0  0  0  0  0  0  0  0  0  0  0  0
  147.6824  129.1871  152.9087 H   0  0  0  0  0  0  0  0  0  0  0  0
  149.7317  129.5956  154.2916 H   0  0  0  0  0  0  0  0  0  0  0  0
  150.4039  131.9295  154.7794 H   0  0  0  0  0  0  0  0  0  0  0  0
  148.9121  134.7735  153.0397 H   0  0  0  0  0  0  0  0  0  0  0  0
  149.4381  136.4667  153.8238 H   0  0  0  0  0  0  0  0  0  0  0  0
  149.5417  137.1378  156.5623 H   0  0  0  0  0  0  0  0  0  0  0  0
  151.1403  136.6901  156.1002 H   0  0  0  0  0  0  0  0  0  0  0  0
  151.6435  137.5254  153.5379 H   0  0  0  0  0  0  0  0  0  0  0  0
  152.5701  138.3372  154.7901 H   0  0  0  0  0  0  0  0  0  0  0  0
  151.7670  139.2639  153.5285 H   0  0  0  0  0  0  0  0  0  0  0  0
  149.1194  137.9462  153.3738 H   0  0  0  0  0  0  0  0  0  0  0  0
  149.2791  139.6749  153.5873 H   0  0  0  0  0  0  0  0  0  0  0  0
  148.2431  138.7419  154.6619 H   0  0  0  0  0  0  0  0  0  0  0  0
  151.5981  138.3428  157.5129 H   0  0  0  0  0  0  0  0  0  0  0  0
  152.6086  139.3748  156.5252 H   0  0  0  0  0  0  0  0  0  0  0  0
  150.7510  140.2555  158.7872 H   0  0  0  0  0  0  0  0  0  0  0  0
  152.4975  140.1783  158.8508 H   0  0  0  0  0  0  0  0  0  0  0  0
  151.8335  143.7236  158.3280 H   0  0  0  0  0  0  0  0  0  0  0  0
  152.6013  142.5528  159.3962 H   0  0  0  0  0  0  0  0  0  0  0  0
  150.8391  142.6605  159.3288 H   0  0  0  0  0  0  0  0  0  0  0  0
  149.6798  141.8984  157.2833 H   0  0  0  0  0  0  0  0  0  0  0  0
  150.6924  142.9508  156.3199 H   0  0  0  0  0  0  0  0  0  0  0  0
  151.5285  141.0402  155.0054 H   0  0  0  0  0  0  0  0  0  0  0  0
  149.7822  141.1409  154.9560 H   0  0  0  0  0  0  0  0  0  0  0  0
  1  2  1  0  0  0  0
  1 24  1  0  0  0  0
  1 25  1  0  0  0  0
  1 26  1  0  0  0  0
  2  3  1  0  0  0  0
  3  8  1  0  0  0  0
  3  4  2  0  0  0  0
  4  5  1  0  0  0  0
  5  6  2  0  0  0  0
  5 27  1  0  0  0  0
  6  7  1  0  0  0  0
  6 28  1  0  0  0  0
  7  8  2  0  0  0  0
  7 29  1  0  0  0  0
  8  9  1  0  0  0  0
  9 10  1  0  0  0  0
  9 30  1  0  0  0  0
 10 11  2  0  0  0  0
 10 12  1  0  0  0  0
 12 13  1  0  0  0  0
 12 31  1  0  0  0  0
 13 14  1  0  0  0  0
 13 32  1  0  0  0  0
 13 33  1  0  0  0  0
 14 15  1  0  0  0  0
 14 16  1  0  0  0  0
 14 17  1  0  0  0  0
 15 34  1  0  0  0  0
 15 35  1  0  0  0  0
 15 36  1  0  0  0  0
 16 37  1  0  0  0  0
 16 38  1  0  0  0  0
 16 39  1  0  0  0  0
 17 23  1  0  0  0  0
 17 18  1  0  0  0  0
 18 19  1  0  0  0  0
 18 40  1  0  0  0  0
 18 41  1  0  0  0  0
 19 20  1  0  0  0  0
 19 42  1  0  0  0  0
 19 43  1  0  0  0  0
 20 21  1  0  0  0  0
 20 22  1  0  0  0  0
 21 44  1  0  0  0  0
 21 45  1  0  0  0  0
 21 46  1  0  0  0  0
 22 23  1  0  0  0  0
 22 47  1  0  0  0  0
 22 48  1  0  0  0  0
 23 49  1  0  0  0  0
 23 50  1  0  0  0  0
M  END
> <s_m_source_file>
AV-unprocessed.smi

> <i_m_source_file_index>
1243

> <i_lp_mmshare_version>
43012

> <i_f3d_flags>
0

> <s_epik_input>
W0NIM11PYzFuW2NIXVtjSF1bY0hdYzFbTkhdQyg9TylbTkhdW0NIMl1DKFtDSDNdKShbQ0gzXSlOMltDSDJdW0NIMl1OKFtDSDNdKVtDSDJdW0NIMl0y

> <s_epik_cmdline>
J2VwaWtfcHl0aG9uJywgJy1waCcsICc3LjAnLCAnLXRuJywgJzgnLCAnLW1hJywgJzIwMCcsICctbWV0YWxfYmluZGluZycsICctaW1hZScsICc8aW5maWxlLm1hZT4nLCAnLW9tYWUnLCAnPG91dGZpbGUubWFlPic=

> <r_lp_tautomer_probability>
1

> <r_epik_Ionization_Penalty>
3.08543

> <r_epik_Ionization_Penalty_Charging>
0

> <r_epik_Ionization_Penalty_Neutral>
3.08543

> <r_epik_State_Penalty>
2.1584

> <r_epik_Charging_Adjusted_Penalty>
2.1584

> <i_epik_Tot_Q>
0

> <i_epik_Tot_abs_Q>
0

> <r_epik_Metal_State_Penalty>
2.1584

> <b_epik_Metal_Only>
0

> <s_lp_Force_Field>
OPLS_2005

> <r_lp_Energy>
53.3534

> <b_lp_Chiralities_Consistent>
1

> <s_lp_Variant>
AV-unprocessed.smi:1243-3

> <Gold.Version>
5.8.1

> <Gold.Id.Protein>
6NUR|6NUR_protein|mol2

> <Gold.PLP.Fitness>
40.4534

> <Gold.PLP.PLP>
-35.8318

> <Gold.PLP.part.hbond>
-2.0000

> <Gold.PLP.part.metal>
0.0000

> <Gold.PLP.part.buried>
-3.6932

> <Gold.PLP.part.nonpolar>
-29.6745

> <Gold.PLP.part.repulsive>
0.6551

> <Gold.PLP.ligand.clash>
0.1358

> <Gold.PLP.ligand.torsion>
0.5044

> <Gold.PLP.Chemscore.Hbond>
1.9000

> <Gold.PLP.Chemscore.CHOScore>
0.0000

> <Gold.PLP.Chemscore.Metal>
0.0000

> <Gold.Chemscore.Hbonds>
donor molecule, donor type, donor heavy atom, donor atom, acceptor molecule, acceptor atom, score
      L1  H     9    30       P1  7948  0.75
      L1  H    12    31       P1  7948  1.00

> <Gold.PLP.Chemscore.Internal.Correction>
0.0662

> <Gold.Rescore>
     Score         DG    S(hbond)    S(metal)    S(lipo)     H(rot)  DE(clash)    DE(int)     intcor
     15.00     -16.30       1.62        0.00      82.86       1.67       0.01       1.28       ----

> <Gold.Chemscore.Fitness>
15.0017

> <Gold.Chemscore.DG>
-16.2978

> <Gold.Chemscore.ZeroCoef>
-5.4800

> <Gold.Chemscore.Hbond>
1.6192

> <Gold.Chemscore.Metal>
0.0000

> <Gold.Chemscore.Lipo>
82.8592

> <Gold.Chemscore.Internal_Hbond>
0.0000

> <Gold.Chemscore.DEClash>
0.0149

> <Gold.Chemscore.DEInternal>
1.2812

> <Gold.Chemscore.Rot>
1.6737

> <Gold.Chemscore.Internal.Correction>
   9.000000E+99

> <Gold.Chemscore.Hbonds>
donor molecule, donor type, donor heavy atom, donor atom, acceptor molecule, acceptor atom, score
      L1  H     9    30       P1  7948  0.09
      L1  H    12    31       P1  7948  0.75

> <Gold.Chemscore.Hbond.Weighted>
-5.4080

> <Gold.Chemscore.Metal.Weighted>
-0.0000

> <Gold.Chemscore.Lipo.Weighted>
-9.6945

> <Gold.Chemscore.Internal_Hbond.Weighted>
0.0000

> <Gold.Chemscore.DEClash.Weighted>
0.0149

> <Gold.Chemscore.DEInternal.Weighted>
1.2812

> <Gold.Chemscore.Rot.Weighted>
4.2848

> <Gold.Chemscore.Internal.Correction.Weighted>
   9.000000E+99

> <Gold.Protein.RotatedTorsions>
[ 6907 6896 6895 6894 ] final -142.19 input  -60.11 | X-H torsion
[ 7974 7965 7964 7962 ] final -114.94 input  175.53 | X-H torsion
[ 8008 7997 7996 7995 ] final  138.09 input   59.86 | X-H torsion
[ 10167 10162 10161 10158 ] final  -37.47 input  -65.29 | X-H torsion
[ 10718 10713 10712 10709 ] final  157.86 input   66.30 | X-H torsion
[ 10763 10752 10751 10750 ] final   65.26 input  -60.55 | X-H torsion
[ 11005 11000 10999 10996 ] final  148.91 input  -57.11 | X-H torsion

> <Gold.Protein.ActiveResidues>
 VAL166  LYS551  ARG553  GLY616  TRP617  ASP618  TYR619  PRO620  LYS621  CYS622 
 ASP623  PHE694  ASN695  SER759  ASP760  ASP761  ALA762  ILE779  LEU786  VAL792 
 PHE793  MET794  SER795  GLU796  ALA797  LYS798  CYS799  TRP800  GLU811  SER814 

> <Gold.Protein.RotatedAtoms>
  151.0837  133.5370  159.2618 H   0  0  0  0  0  0  0  0  0  0  0  0  # atno 6907 bound_to 6896
  151.2263  135.0537  159.8980 H   0  0  0  0  0  0  0  0  0  0  0  0  # atno 6908 bound_to 6896
  152.5426  134.0632  159.8215 H   0  0  0  0  0  0  0  0  0  0  0  0  # atno 6909 bound_to 6896
  145.1143  140.8630  143.3852 H   0  0  0  0  0  0  0  0  0  0  0  0  # atno 7974 bound_to 7965
  156.2999  140.2402  156.4017 H   0  0  0  0  0  0  0  0  0  0  0  0  # atno 8008 bound_to 7997
  154.8521  140.0423  157.1631 H   0  0  0  0  0  0  0  0  0  0  0  0  # atno 8009 bound_to 7997
  154.8987  140.2974  155.5333 H   0  0  0  0  0  0  0  0  0  0  0  0  # atno 8010 bound_to 7997
  140.7117  143.3340  151.2504 H   0  0  0  0  0  0  0  0  0  0  0  0  # atno 10167 bound_to 10162
  157.1858  131.0643  151.2107 H   0  0  0  0  0  0  0  0  0  0  0  0  # atno 10718 bound_to 10713
  153.0089  135.5363  154.6639 H   0  0  0  0  0  0  0  0  0  0  0  0  # atno 10763 bound_to 10752
  154.5841  135.2852  155.0705 H   0  0  0  0  0  0  0  0  0  0  0  0  # atno 10764 bound_to 10752
  154.1823  135.6514  153.5090 H   0  0  0  0  0  0  0  0  0  0  0  0  # atno 10765 bound_to 10752
  140.1000  134.8989  157.1781 H   0  0  0  0  0  0  0  0  0  0  0  0  # atno 11005 bound_to 11000
  145.0812  139.2958  143.5782 LP  0  0  0  0  0  0  0  0  0  0  0  0  # atno 17320 bound_to 7965
  146.3524  140.0319  142.8650 LP  0  0  0  0  0  0  0  0  0  0  0  0  # atno 17321 bound_to 7965
  139.6830  143.9822  152.2819 LP  0  0  0  0  0  0  0  0  0  0  0  0  # atno 17342 bound_to 10162
  139.9458  144.6652  150.8221 LP  0  0  0  0  0  0  0  0  0  0  0  0  # atno 17343 bound_to 10162
  157.3909  130.7281  149.6697 LP  0  0  0  0  0  0  0  0  0  0  0  0  # atno 17370 bound_to 10713
  155.9718  130.4147  150.4144 LP  0  0  0  0  0  0  0  0  0  0  0  0  # atno 17371 bound_to 10713
  140.3233  134.2892  155.7242 LP  0  0  0  0  0  0  0  0  0  0  0  0  # atno 17394 bound_to 11000
  141.2103  133.7724  156.9941 LP  0  0  0  0  0  0  0  0  0  0  0  0  # atno 17395 bound_to 11000

$$$$
