AV-unprocessed.smi:1872|AV-procd|sdf|7603|dock1
  -GOLD-   22720 9323D 1   1.00000     0.00000
 Structure written by MMmdl.
 39 41  0  0  0  0  0  0  0  0  1 V2000
  151.6633  139.1727  155.3715 C   0  0  0  0  0  0  0  0  0  0  0  0
  151.8258  140.0883  156.5434 C   0  0  0  0  0  0  0  0  0  0  0  0
  152.4912  139.7275  157.6408 N   0  0  0  0  0  0  0  0  0  0  0  0
  152.3832  140.8480  158.4422 C   0  0  0  0  0  0  0  0  0  0  0  0
  152.8787  141.0994  159.7419 C   0  0  0  0  0  0  0  0  0  0  0  0
  152.6369  142.3384  160.3707 C   0  0  0  0  0  0  0  0  0  0  0  0
  151.8985  143.3420  159.7108 C   0  0  0  0  0  0  0  0  0  0  0  0
  151.3970  143.1128  158.4152 C   0  0  0  0  0  0  0  0  0  0  0  0
  151.6406  141.8743  157.7919 C   0  0  0  0  0  0  0  0  0  0  0  0
  151.2991  141.3371  156.5543 N   0  0  0  0  0  0  0  0  0  0  0  0
  150.5315  141.9956  155.5061 C   0  0  0  0  0  0  0  0  0  0  0  0
  149.3724  141.1284  154.9746 C   0  0  2  0  0  0  0  0  0  0  0  0
  149.6337  140.7299  153.6423 O   0  0  0  0  0  0  0  0  0  0  0  0
  148.0422  141.8529  155.1069 C   0  0  0  0  0  0  0  0  0  0  0  0
  147.3173  142.2122  153.9518 C   0  0  0  0  0  0  0  0  0  0  0  0
  146.0785  142.8718  154.0675 C   0  0  0  0  0  0  0  0  0  0  0  0
  145.5492  143.1884  155.3350 C   0  0  0  0  0  0  0  0  0  0  0  0
  144.3287  143.8236  155.3829 O   0  0  0  0  0  0  0  0  0  0  0  0
  144.2454  145.1339  155.0288 C   0  0  0  0  0  0  0  0  0  0  0  0
  144.2622  145.2453  153.6786 F   0  0  0  0  0  0  0  0  0  0  0  0
  143.0812  145.6711  155.4692 F   0  0  0  0  0  0  0  0  0  0  0  0
  146.2707  142.8134  156.4936 C   0  0  0  0  0  0  0  0  0  0  0  0
  147.5086  142.1523  156.3787 C   0  0  0  0  0  0  0  0  0  0  0  0
  152.1415  138.2127  155.5686 H   0  0  0  0  0  0  0  0  0  0  0  0
  152.1203  139.6072  154.4829 H   0  0  0  0  0  0  0  0  0  0  0  0
  150.6062  138.9933  155.1753 H   0  0  0  0  0  0  0  0  0  0  0  0
  153.4458  140.3376  160.2558 H   0  0  0  0  0  0  0  0  0  0  0  0
  153.0192  142.5199  161.3645 H   0  0  0  0  0  0  0  0  0  0  0  0
  151.7174  144.2883  160.1992 H   0  0  0  0  0  0  0  0  0  0  0  0
  150.8340  143.8804  157.9053 H   0  0  0  0  0  0  0  0  0  0  0  0
  150.1489  142.9401  155.8936 H   0  0  0  0  0  0  0  0  0  0  0  0
  151.2105  142.2580  154.6938 H   0  0  0  0  0  0  0  0  0  0  0  0
  149.3181  140.2120  155.5630 H   0  0  0  0  0  0  0  0  0  0  0  0
  149.3734  139.8269  153.5432 H   0  0  0  0  0  0  0  0  0  0  0  0
  147.7064  141.9803  152.9713 H   0  0  0  0  0  0  0  0  0  0  0  0
  145.5312  143.1390  153.1754 H   0  0  0  0  0  0  0  0  0  0  0  0
  145.0830  145.7118  155.4203 H   0  0  0  0  0  0  0  0  0  0  0  0
  145.8821  143.0202  157.4796 H   0  0  0  0  0  0  0  0  0  0  0  0
  148.0450  141.8698  157.2730 H   0  0  0  0  0  0  0  0  0  0  0  0
  1  2  1  0  0  0  0
  1 24  1  0  0  0  0
  1 25  1  0  0  0  0
  1 26  1  0  0  0  0
  2 10  1  0  0  0  0
  2  3  2  0  0  0  0
  3  4  1  0  0  0  0
  4  9  2  0  0  0  0
  4  5  1  0  0  0  0
  5  6  2  0  0  0  0
  5 27  1  0  0  0  0
  6  7  1  0  0  0  0
  6 28  1  0  0  0  0
  7  8  2  0  0  0  0
  7 29  1  0  0  0  0
  8  9  1  0  0  0  0
  8 30  1  0  0  0  0
  9 10  1  0  0  0  0
 10 11  1  0  0  0  0
 11 12  1  0  0  0  0
 11 31  1  0  0  0  0
 11 32  1  0  0  0  0
 12 13  1  0  0  0  0
 12 14  1  0  0  0  0
 12 33  1  0  0  0  0
 13 34  1  0  0  0  0
 14 23  1  0  0  0  0
 14 15  2  0  0  0  0
 15 16  1  0  0  0  0
 15 35  1  0  0  0  0
 16 17  2  0  0  0  0
 16 36  1  0  0  0  0
 17 18  1  0  0  0  0
 17 22  1  0  0  0  0
 18 19  1  0  0  0  0
 19 20  1  0  0  0  0
 19 21  1  0  0  0  0
 19 37  1  0  0  0  0
 22 23  2  0  0  0  0
 22 38  1  0  0  0  0
 23 39  1  0  0  0  0
M  END
> <s_m_source_file>
AV-unprocessed.smi

> <i_m_source_file_index>
1872

> <i_lp_mmshare_version>
43012

> <i_f3d_flags>
0

> <s_epik_input>
W2NIXTFbY0hdW2NIXVtjSF1jKGMxMiluKGMobjIpW0NIM10pW0NIMl1bQ0BIXShbT0hdKWMzW2NIXVtjSF1jKE9bQ0hdKEYpRilbY0hdW2NIXTM=

> <s_epik_cmdline>
J2VwaWtfcHl0aG9uJywgJy1waCcsICc3LjAnLCAnLXRuJywgJzgnLCAnLW1hJywgJzIwMCcsICctbWV0YWxfYmluZGluZycsICctaW1hZScsICc8aW5maWxlLm1hZT4nLCAnLW9tYWUnLCAnPG91dGZpbGUubWFlPic=

> <r_lp_tautomer_probability>
1

> <r_epik_Ionization_Penalty>
0.129663

> <r_epik_Ionization_Penalty_Charging>
0

> <r_epik_Ionization_Penalty_Neutral>
0.129663

> <r_epik_State_Penalty>
0.119073

> <r_epik_Charging_Adjusted_Penalty>
0.119073

> <i_epik_Tot_Q>
0

> <i_epik_Tot_abs_Q>
0

> <r_epik_Metal_State_Penalty>
0.000131867

> <b_epik_Metal_Only>
0

> <s_lp_Force_Field>
OPLS_2005

> <r_lp_Energy>
11.4486

> <b_lp_Chiralities_Consistent>
1

> <s_lp_Variant>
AV-unprocessed.smi:1872-1

> <Gold.Version>
5.8.1

> <Gold.Id.Protein>
6NUR|6NUR_protein|mol2

> <Gold.PLP.Fitness>
53.0307

> <Gold.PLP.PLP>
-47.9883

> <Gold.PLP.part.hbond>
-3.9819

> <Gold.PLP.part.metal>
0.0000

> <Gold.PLP.part.buried>
-3.0373

> <Gold.PLP.part.nonpolar>
-39.3881

> <Gold.PLP.part.repulsive>
0.1108

> <Gold.PLP.ligand.clash>
0.0000

> <Gold.PLP.ligand.torsion>
1.2047

> <Gold.PLP.Chemscore.Hbond>
2.3593

> <Gold.PLP.Chemscore.CHOScore>
0.0000

> <Gold.PLP.Chemscore.Metal>
0.0000

> <Gold.Chemscore.Hbonds>
donor molecule, donor type, donor heavy atom, donor atom, acceptor molecule, acceptor atom, score
      P1  H  7989  7998       L1    13  0.43
      P1  H  7997  8009       L1     3  0.50
      P1  H  8011  8017       L1    13  0.73

> <Gold.PLP.Chemscore.Internal.Correction>
0.3741

> <Gold.Rescore>
     Score         DG    S(hbond)    S(metal)    S(lipo)     H(rot)  DE(clash)    DE(int)     intcor
     12.33     -16.31       0.98        0.00     113.99       2.25       1.23       2.75       ----

> <Gold.Chemscore.Fitness>
12.3297

> <Gold.Chemscore.DG>
-16.3072

> <Gold.Chemscore.ZeroCoef>
-5.4800

> <Gold.Chemscore.Hbond>
0.9759

> <Gold.Chemscore.Metal>
0.0000

> <Gold.Chemscore.Lipo>
113.9948

> <Gold.Chemscore.Internal_Hbond>
0.0000

> <Gold.Chemscore.DEClash>
1.2307

> <Gold.Chemscore.DEInternal>
2.7469

> <Gold.Chemscore.Rot>
2.2538

> <Gold.Chemscore.Internal.Correction>
   9.000000E+99

> <Gold.Chemscore.Hbonds>
donor molecule, donor type, donor heavy atom, donor atom, acceptor molecule, acceptor atom, score
      P1  H  7989  7998       L1    13  0.14
      P1  H  7997  8009       L1     3  0.01
      P1  H  8011  8017       L1    13  0.59

> <Gold.Chemscore.Hbond.Weighted>
-3.2595

> <Gold.Chemscore.Metal.Weighted>
-0.0000

> <Gold.Chemscore.Lipo.Weighted>
-13.3374

> <Gold.Chemscore.Internal_Hbond.Weighted>
0.0000

> <Gold.Chemscore.DEClash.Weighted>
1.2307

> <Gold.Chemscore.DEInternal.Weighted>
2.7469

> <Gold.Chemscore.Rot.Weighted>
5.7697

> <Gold.Chemscore.Internal.Correction.Weighted>
   9.000000E+99

> <Gold.Protein.RotatedTorsions>
[ 6907 6896 6895 6894 ] final -136.63 input  -60.11 | X-H torsion
[ 7974 7965 7964 7962 ] final  155.02 input  175.53 | X-H torsion
[ 8008 7997 7996 7995 ] final  173.67 input   59.86 | X-H torsion
[ 10167 10162 10161 10158 ] final  168.61 input  -65.29 | X-H torsion
[ 10718 10713 10712 10709 ] final  -47.66 input   66.30 | X-H torsion
[ 10763 10752 10751 10750 ] final -178.30 input  -60.55 | X-H torsion
[ 11005 11000 10999 10996 ] final   -2.31 input  -57.11 | X-H torsion

> <Gold.Protein.ActiveResidues>
 VAL166  LYS551  ARG553  GLY616  TRP617  ASP618  TYR619  PRO620  LYS621  CYS622 
 ASP623  PHE694  ASN695  SER759  ASP760  ASP761  ALA762  ILE779  LEU786  VAL792 
 PHE793  MET794  SER795  GLU796  ALA797  LYS798  CYS799  TRP800  GLU811  SER814 

> <Gold.Protein.RotatedAtoms>
  151.0125  133.5952  159.2680 H   0  0  0  0  0  0  0  0  0  0  0  0  # atno 6907 bound_to 6896
  151.3098  135.0790  159.9278 H   0  0  0  0  0  0  0  0  0  0  0  0  # atno 6908 bound_to 6896
  152.5303  133.9791  159.7852 H   0  0  0  0  0  0  0  0  0  0  0  0  # atno 6909 bound_to 6896
  144.8051  139.7012  143.6165 H   0  0  0  0  0  0  0  0  0  0  0  0  # atno 7974 bound_to 7965
  156.1052  140.1454  156.9413 H   0  0  0  0  0  0  0  0  0  0  0  0  # atno 8008 bound_to 7997
  154.4729  140.0904  156.7234 H   0  0  0  0  0  0  0  0  0  0  0  0  # atno 8009 bound_to 7997
  155.4691  140.3441  155.4325 H   0  0  0  0  0  0  0  0  0  0  0  0  # atno 8010 bound_to 7997
  139.4972  144.3796  151.9637 H   0  0  0  0  0  0  0  0  0  0  0  0  # atno 10167 bound_to 10162
  156.2063  130.4158  149.9173 H   0  0  0  0  0  0  0  0  0  0  0  0  # atno 10718 bound_to 10713
  154.5494  135.2812  155.1023 H   0  0  0  0  0  0  0  0  0  0  0  0  # atno 10763 bound_to 10752
  154.2474  135.6345  153.5232 H   0  0  0  0  0  0  0  0  0  0  0  0  # atno 10764 bound_to 10752
  152.9999  135.5574  154.6055 H   0  0  0  0  0  0  0  0  0  0  0  0  # atno 10765 bound_to 10752
  140.6569  133.9354  155.8413 H   0  0  0  0  0  0  0  0  0  0  0  0  # atno 11005 bound_to 11000
  146.2341  139.5871  142.9535 LP  0  0  0  0  0  0  0  0  0  0  0  0  # atno 17320 bound_to 7965
  145.5457  141.0417  143.2306 LP  0  0  0  0  0  0  0  0  0  0  0  0  # atno 17321 bound_to 7965
  140.3232  144.3403  150.6004 LP  0  0  0  0  0  0  0  0  0  0  0  0  # atno 17342 bound_to 10162
  140.5705  143.2181  151.7607 LP  0  0  0  0  0  0  0  0  0  0  0  0  # atno 17343 bound_to 10162
  156.6866  130.8879  151.3583 LP  0  0  0  0  0  0  0  0  0  0  0  0  # atno 17370 bound_to 10713
  157.7014  130.9337  150.0797 LP  0  0  0  0  0  0  0  0  0  0  0  0  # atno 17371 bound_to 10713
  141.0494  134.0506  157.3802 LP  0  0  0  0  0  0  0  0  0  0  0  0  # atno 17394 bound_to 11000
  139.9026  135.0170  156.7340 LP  0  0  0  0  0  0  0  0  0  0  0  0  # atno 17395 bound_to 11000

$$$$
