AV-unprocessed.smi:2314|AV-procd|sdf|9267|dock9
  -GOLD-   2272012493D 1   1.00000     0.00000
 Structure written by MMmdl.
 37 38  0  0  0  0  0  0  0  0  1 V2000
  145.9974  132.6771  150.1873 C   0  0  0  0  0  0  0  0  0  0  0  0
  145.0240  132.9093  151.3568 C   0  0  0  0  0  0  0  0  0  0  0  0
  143.5757  132.5692  150.9715 C   0  0  0  0  0  0  0  0  0  0  0  0
  145.1003  134.2744  151.8963 N   0  0  0  0  0  0  0  0  0  0  0  0
  144.6687  135.4382  151.1388 C   0  0  0  0  0  0  0  0  0  0  0  0
  144.6810  136.5914  152.1470 C   0  0  0  0  0  0  0  0  0  0  0  0
  145.5024  136.1133  153.3552 C   0  0  2  0  0  0  0  0  0  0  0  0
  146.8411  136.6973  153.3088 N   0  0  0  0  0  0  0  0  0  0  0  0
  147.2654  137.7196  154.0656 C   0  0  0  0  0  0  0  0  0  0  0  0
  146.5472  138.3229  154.8630 O   0  0  0  0  0  0  0  0  0  0  0  0
  148.5556  138.0042  153.8247 N   0  0  0  0  0  0  0  0  0  0  0  0
  149.3387  139.0099  154.4474 C   0  0  0  0  0  0  0  0  0  0  0  0
  148.7352  140.2572  154.7095 C   0  0  0  0  0  0  0  0  0  0  0  0
  149.5099  141.2718  155.3066 C   0  0  0  0  0  0  0  0  0  0  0  0
  150.8113  141.1187  155.6301 N   0  0  0  0  0  0  0  0  0  0  0  0
  151.3936  139.9323  155.3538 C   0  0  0  0  0  0  0  0  0  0  0  0
  150.7121  138.8519  154.7573 C   0  0  0  0  0  0  0  0  0  0  0  0
  151.3842  137.7120  154.4671 F   0  0  0  0  0  0  0  0  0  0  0  0
  145.5837  134.6091  153.1007 C   0  0  0  0  0  0  0  0  0  0  0  0
  146.0305  133.8239  153.9365 O   0  0  0  0  0  0  0  0  0  0  0  0
  145.9791  131.6339  149.8706 H   0  0  0  0  0  0  0  0  0  0  0  0
  147.0226  132.9110  150.4755 H   0  0  0  0  0  0  0  0  0  0  0  0
  145.7430  133.2844  149.3182 H   0  0  0  0  0  0  0  0  0  0  0  0
  145.3243  132.2205  152.1485 H   0  0  0  0  0  0  0  0  0  0  0  0
  143.4973  131.5441  150.6085 H   0  0  0  0  0  0  0  0  0  0  0  0
  143.2095  133.2298  150.1853 H   0  0  0  0  0  0  0  0  0  0  0  0
  142.9055  132.6652  151.8267 H   0  0  0  0  0  0  0  0  0  0  0  0
  145.3744  135.6305  150.3294 H   0  0  0  0  0  0  0  0  0  0  0  0
  143.6778  135.2928  150.7067 H   0  0  0  0  0  0  0  0  0  0  0  0
  145.0595  137.5152  151.7066 H   0  0  0  0  0  0  0  0  0  0  0  0
  143.6588  136.7938  152.4704 H   0  0  0  0  0  0  0  0  0  0  0  0
  144.9930  136.3314  154.2956 H   0  0  0  0  0  0  0  0  0  0  0  0
  147.5003  136.2681  152.6760 H   0  0  0  0  0  0  0  0  0  0  0  0
  148.9905  137.5199  153.0534 H   0  0  0  0  0  0  0  0  0  0  0  0
  147.6973  140.4343  154.4689 H   0  0  0  0  0  0  0  0  0  0  0  0
  149.0721  142.2339  155.5277 H   0  0  0  0  0  0  0  0  0  0  0  0
  152.4410  139.8456  155.6023 H   0  0  0  0  0  0  0  0  0  0  0  0
  1  2  1  0  0  0  0
  1 21  1  0  0  0  0
  1 22  1  0  0  0  0
  1 23  1  0  0  0  0
  2  3  1  0  0  0  0
  2  4  1  0  0  0  0
  2 24  1  0  0  0  0
  3 25  1  0  0  0  0
  3 26  1  0  0  0  0
  3 27  1  0  0  0  0
  4 19  1  0  0  0  0
  4  5  1  0  0  0  0
  5  6  1  0  0  0  0
  5 28  1  0  0  0  0
  5 29  1  0  0  0  0
  6  7  1  0  0  0  0
  6 30  1  0  0  0  0
  6 31  1  0  0  0  0
  7  8  1  0  0  0  0
  7 19  1  0  0  0  0
  7 32  1  0  0  0  0
  8  9  1  0  0  0  0
  8 33  1  0  0  0  0
  9 10  2  0  0  0  0
  9 11  1  0  0  0  0
 11 12  1  0  0  0  0
 11 34  1  0  0  0  0
 12 17  1  0  0  0  0
 12 13  2  0  0  0  0
 13 14  1  0  0  0  0
 13 35  1  0  0  0  0
 14 15  2  0  0  0  0
 14 36  1  0  0  0  0
 15 16  1  0  0  0  0
 16 17  2  0  0  0  0
 16 37  1  0  0  0  0
 17 18  1  0  0  0  0
 19 20  2  0  0  0  0
M  END
> <s_m_source_file>
AV-unprocessed.smi

> <i_m_source_file_index>
2314

> <i_lp_mmshare_version>
43012

> <i_f3d_flags>
0

> <s_epik_input>
W0NIM11bQ0hdKFtDSDNdKU4xW0NIMl1bQ0gyXVtDQEhdKEMxPU8pW05IXUMoPU8pW05IXWMyW2NIXVtjSF1uW2NIXWMyRg==

> <s_epik_cmdline>
J2VwaWtfcHl0aG9uJywgJy1waCcsICc3LjAnLCAnLXRuJywgJzgnLCAnLW1hJywgJzIwMCcsICctbWV0YWxfYmluZGluZycsICctaW1hZScsICc8aW5maWxlLm1hZT4nLCAnLW9tYWUnLCAnPG91dGZpbGUubWFlPic=

> <r_epik_Ionization_Penalty>
0.00267735

> <r_epik_Ionization_Penalty_Charging>
0

> <r_epik_Ionization_Penalty_Neutral>
0.00267735

> <r_epik_State_Penalty>
0.00184148

> <r_epik_Charging_Adjusted_Penalty>
0.00184148

> <i_epik_Tot_Q>
0

> <i_epik_Tot_abs_Q>
0

> <r_epik_Metal_State_Penalty>
-0

> <b_epik_Metal_Only>
0

> <s_lp_Force_Field>
OPLS_2005

> <r_lp_Energy>
28.4638

> <b_lp_Chiralities_Consistent>
1

> <s_lp_Variant>
AV-unprocessed.smi:2314-2

> <Gold.Version>
5.8.1

> <Gold.Id.Protein>
6NUR|6NUR_protein|mol2

> <Gold.PLP.Fitness>
41.4125

> <Gold.PLP.PLP>
-33.5091

> <Gold.PLP.part.hbond>
-3.0000

> <Gold.PLP.part.metal>
0.0000

> <Gold.PLP.part.buried>
-2.4073

> <Gold.PLP.part.nonpolar>
-29.1793

> <Gold.PLP.part.repulsive>
0.2262

> <Gold.PLP.ligand.clash>
0.0000

> <Gold.PLP.ligand.torsion>
0.6489

> <Gold.PLP.Chemscore.Hbond>
2.0000

> <Gold.PLP.Chemscore.CHOScore>
1.0000

> <Gold.PLP.Chemscore.Metal>
0.0000

> <Gold.Chemscore.Hbonds>
donor molecule, donor type, donor heavy atom, donor atom, acceptor molecule, acceptor atom, score
      L1  H     8    33       P1  7948  1.00
      L1  H    11    34       P1  7948  1.00
      L1  C    14    36       P1  8028  1.00

> <Gold.PLP.Chemscore.Internal.Correction>
0.2012

> <Gold.Rescore>
     Score         DG    S(hbond)    S(metal)    S(lipo)     H(rot)  DE(clash)    DE(int)     intcor
     14.89     -16.84       1.94        0.00      69.41       1.26       0.01       1.95       ----

> <Gold.Chemscore.Fitness>
14.8873

> <Gold.Chemscore.DG>
-16.8439

> <Gold.Chemscore.ZeroCoef>
-5.4800

> <Gold.Chemscore.Hbond>
1.9385

> <Gold.Chemscore.Metal>
0.0000

> <Gold.Chemscore.Lipo>
69.4138

> <Gold.Chemscore.Internal_Hbond>
0.0000

> <Gold.Chemscore.DEClash>
0.0097

> <Gold.Chemscore.DEInternal>
1.9469

> <Gold.Chemscore.Rot>
1.2626

> <Gold.Chemscore.Internal.Correction>
   9.000000E+99

> <Gold.Chemscore.Hbonds>
donor molecule, donor type, donor heavy atom, donor atom, acceptor molecule, acceptor atom, score
      L1  H     8    33       P1  7948  0.97
      L1  H    11    34       P1  7948  0.95

> <Gold.Chemscore.Hbond.Weighted>
-6.4746

> <Gold.Chemscore.Metal.Weighted>
-0.0000

> <Gold.Chemscore.Lipo.Weighted>
-8.1214

> <Gold.Chemscore.Internal_Hbond.Weighted>
0.0000

> <Gold.Chemscore.DEClash.Weighted>
0.0097

> <Gold.Chemscore.DEInternal.Weighted>
1.9469

> <Gold.Chemscore.Rot.Weighted>
3.2322

> <Gold.Chemscore.Internal.Correction.Weighted>
   9.000000E+99

> <Gold.Protein.RotatedTorsions>
[ 6907 6896 6895 6894 ] final -118.48 input  -60.11 | X-H torsion
[ 7974 7965 7964 7962 ] final -141.28 input  175.53 | X-H torsion
[ 8008 7997 7996 7995 ] final   79.53 input   59.86 | X-H torsion
[ 10167 10162 10161 10158 ] final   83.58 input  -65.29 | X-H torsion
[ 10718 10713 10712 10709 ] final  166.97 input   66.30 | X-H torsion
[ 10763 10752 10751 10750 ] final   88.08 input  -60.55 | X-H torsion
[ 11005 11000 10999 10996 ] final  -13.01 input  -57.11 | X-H torsion

> <Gold.Protein.ActiveResidues>
 VAL166  LYS551  ARG553  GLY616  TRP617  ASP618  TYR619  PRO620  LYS621  CYS622 
 ASP623  PHE694  ASN695  SER759  ASP760  ASP761  ALA762  ILE779  LEU786  VAL792 
 PHE793  MET794  SER795  GLU796  ALA797  LYS798  CYS799  TRP800  GLU811  SER814 

> <Gold.Protein.RotatedAtoms>
  150.8223  133.8231  159.3133 H   0  0  0  0  0  0  0  0  0  0  0  0  # atno 6907 bound_to 6896
  151.5986  135.1047  160.0064 H   0  0  0  0  0  0  0  0  0  0  0  0  # atno 6908 bound_to 6896
  152.4311  133.7238  159.6605 H   0  0  0  0  0  0  0  0  0  0  0  0  # atno 6909 bound_to 6896
  144.8531  140.6098  143.5377 H   0  0  0  0  0  0  0  0  0  0  0  0  # atno 7974 bound_to 7965
  155.8709  140.3449  155.5820 H   0  0  0  0  0  0  0  0  0  0  0  0  # atno 8008 bound_to 7997
  155.7828  140.0861  157.2069 H   0  0  0  0  0  0  0  0  0  0  0  0  # atno 8009 bound_to 7997
  154.4017  140.1497  156.3059 H   0  0  0  0  0  0  0  0  0  0  0  0  # atno 8010 bound_to 7997
  139.9169  144.6237  150.8479 H   0  0  0  0  0  0  0  0  0  0  0  0  # atno 10167 bound_to 10162
  157.0582  131.0332  151.2656 H   0  0  0  0  0  0  0  0  0  0  0  0  # atno 10718 bound_to 10713
  153.1732  135.4520  154.9930 H   0  0  0  0  0  0  0  0  0  0  0  0  # atno 10763 bound_to 10752
  154.7980  135.3245  154.7622 H   0  0  0  0  0  0  0  0  0  0  0  0  # atno 10764 bound_to 10752
  153.8095  135.6956  153.4898 H   0  0  0  0  0  0  0  0  0  0  0  0  # atno 10765 bound_to 10752
  140.7717  133.8433  155.9213 H   0  0  0  0  0  0  0  0  0  0  0  0  # atno 11005 bound_to 11000
  145.4460  139.1529  143.3944 LP  0  0  0  0  0  0  0  0  0  0  0  0  # atno 17320 bound_to 7965
  146.2801  140.4583  142.8780 LP  0  0  0  0  0  0  0  0  0  0  0  0  # atno 17321 bound_to 7965
  140.7672  143.3325  151.2380 LP  0  0  0  0  0  0  0  0  0  0  0  0  # atno 17342 bound_to 10162
  139.6894  143.9718  152.2851 LP  0  0  0  0  0  0  0  0  0  0  0  0  # atno 17343 bound_to 10162
  157.4976  130.7860  149.7571 LP  0  0  0  0  0  0  0  0  0  0  0  0  # atno 17370 bound_to 10713
  155.9986  130.3893  150.2693 LP  0  0  0  0  0  0  0  0  0  0  0  0  # atno 17371 bound_to 10713
  140.9567  134.1708  157.4686 LP  0  0  0  0  0  0  0  0  0  0  0  0  # atno 17394 bound_to 11000
  139.8755  134.9930  156.5622 LP  0  0  0  0  0  0  0  0  0  0  0  0  # atno 17395 bound_to 11000

$$$$
