AV-unprocessed.smi:1709|AV-procd|sdf|6896|dock3
  -GOLD-   22720 8103D 1   1.00000     0.00000
 Structure written by MMmdl.
 43 45  0  0  0  0  0  0  0  0  2 V2000
  150.9771  144.8485  159.8638 C   0  0  0  0  0  0  0  0  0  0  0  0
  151.8948  143.7492  160.3749 C   0  0  0  0  0  0  0  0  0  0  0  0
  152.6671  143.9828  161.5327 C   0  0  0  0  0  0  0  0  0  0  0  0
  153.5150  142.9688  162.0083 C   0  0  0  0  0  0  0  0  0  0  0  0
  153.5548  141.7560  161.3010 C   0  0  0  0  0  0  0  0  0  0  0  0
  152.8193  141.5244  160.1943 N   0  0  0  0  0  0  0  0  0  0  0  0
  151.9941  142.4925  159.7184 C   0  0  0  0  0  0  0  0  0  0  0  0
  151.1768  142.3330  158.5560 N   0  0  0  0  0  0  0  0  0  0  0  0
  151.3183  141.5694  157.4513 C   0  0  0  0  0  0  0  0  0  0  0  0
  152.2966  140.8384  157.3069 O   0  0  0  0  0  0  0  0  0  0  0  0
  150.3435  141.6625  156.5328 N   0  0  0  0  0  0  0  0  0  0  0  0
  150.3072  140.9609  155.2547 C   0  0  1  0  0  0  0  0  0  0  0  0
  150.8831  139.5362  155.3394 C   0  0  0  0  0  0  0  0  0  0  0  0
  149.9824  138.6758  154.4314 C   0  0  0  0  0  0  0  0  0  0  0  0
  149.0396  139.6225  153.8057 N   0  3  1  0  0  0  0  0  0  0  0  0
  147.7494  139.0751  153.3327 C   0  0  0  0  0  0  0  0  0  0  0  0
  146.9450  140.1942  152.6415 C   0  0  0  0  0  0  0  0  0  0  0  0
  146.7947  141.4340  153.5468 C   0  0  0  0  0  0  0  0  0  0  0  0
  148.1617  141.9007  154.0830 C   0  0  0  0  0  0  0  0  0  0  0  0
  148.8759  140.7229  154.7675 C   0  0  2  0  0  0  0  0  0  0  0  0
  151.0234  145.7326  160.5003 H   0  0  0  0  0  0  0  0  0  0  0  0
  149.9423  144.5050  159.8437 H   0  0  0  0  0  0  0  0  0  0  0  0
  151.2639  145.1468  158.8549 H   0  0  0  0  0  0  0  0  0  0  0  0
  152.6120  144.9274  162.0536 H   0  0  0  0  0  0  0  0  0  0  0  0
  154.1180  143.1172  162.8918 H   0  0  0  0  0  0  0  0  0  0  0  0
  154.1922  140.9494  161.6317 H   0  0  0  0  0  0  0  0  0  0  0  0
  150.3198  142.8662  158.5810 H   0  0  0  0  0  0  0  0  0  0  0  0
  149.5733  142.2853  156.7347 H   0  0  0  0  0  0  0  0  0  0  0  0
  150.8650  141.5129  154.4952 H   0  0  0  0  0  0  0  0  0  0  0  0
  151.9243  139.5147  155.0160 H   0  0  0  0  0  0  0  0  0  0  0  0
  150.8505  139.1521  156.3604 H   0  0  0  0  0  0  0  0  0  0  0  0
  150.5495  138.1363  153.6726 H   0  0  0  0  0  0  0  0  0  0  0  0
  149.4376  137.9450  155.0311 H   0  0  0  0  0  0  0  0  0  0  0  0
  147.9322  138.2569  152.6354 H   0  0  0  0  0  0  0  0  0  0  0  0
  147.1885  138.6645  154.1737 H   0  0  0  0  0  0  0  0  0  0  0  0
  147.4500  140.4834  151.7188 H   0  0  0  0  0  0  0  0  0  0  0  0
  145.9621  139.8230  152.3499 H   0  0  0  0  0  0  0  0  0  0  0  0
  146.3093  142.2429  152.9999 H   0  0  0  0  0  0  0  0  0  0  0  0
  146.1402  141.1927  154.3852 H   0  0  0  0  0  0  0  0  0  0  0  0
  148.7713  142.2869  153.2649 H   0  0  0  0  0  0  0  0  0  0  0  0
  148.0228  142.7224  154.7857 H   0  0  0  0  0  0  0  0  0  0  0  0
  148.2683  140.3665  155.6029 H   0  0  0  0  0  0  0  0  0  0  0  0
  149.5143  140.0134  153.0044 H   0  0  0  0  0  0  0  0  0  0  0  0
  1  2  1  0  0  0  0
  1 21  1  0  0  0  0
  1 22  1  0  0  0  0
  1 23  1  0  0  0  0
  2  7  1  0  0  0  0
  2  3  2  0  0  0  0
  3  4  1  0  0  0  0
  3 24  1  0  0  0  0
  4  5  2  0  0  0  0
  4 25  1  0  0  0  0
  5  6  1  0  0  0  0
  5 26  1  0  0  0  0
  6  7  2  0  0  0  0
  7  8  1  0  0  0  0
  8  9  1  0  0  0  0
  8 27  1  0  0  0  0
  9 10  2  0  0  0  0
  9 11  1  0  0  0  0
 11 12  1  0  0  0  0
 11 28  1  0  0  0  0
 12 20  1  0  0  0  0
 12 13  1  0  0  0  0
 12 29  1  0  0  0  0
 13 14  1  0  0  0  0
 13 30  1  0  0  0  0
 13 31  1  0  0  0  0
 14 15  1  0  0  0  0
 14 32  1  0  0  0  0
 14 33  1  0  0  0  0
 15 20  1  0  0  0  0
 15 16  1  0  0  0  0
 15 43  1  0  0  0  0
 16 17  1  0  0  0  0
 16 34  1  0  0  0  0
 16 35  1  0  0  0  0
 17 18  1  0  0  0  0
 17 36  1  0  0  0  0
 17 37  1  0  0  0  0
 18 19  1  0  0  0  0
 18 38  1  0  0  0  0
 18 39  1  0  0  0  0
 19 20  1  0  0  0  0
 19 40  1  0  0  0  0
 19 41  1  0  0  0  0
 20 42  1  0  0  0  0
M  CHG  1  15   1
M  END
> <s_m_source_file>
AV-unprocessed.smi

> <i_m_source_file_index>
1709

> <i_lp_mmshare_version>
43012

> <i_f3d_flags>
0

> <s_epik_input>
W0NIM11jMVtjSF1bY0hdW2NIXW5jMVtOSF1DKD1PKVtOSF1bQ0BIXShbQ0gyXVtDSDJdMilbQ0BASF0oTjIzKVtDSDJdW0NIMl1bQ0gyXVtDSDJdMw==

> <s_epik_cmdline>
J2VwaWtfcHl0aG9uJywgJy1waCcsICc3LjAnLCAnLXRuJywgJzgnLCAnLW1hJywgJzIwMCcsICctbWV0YWxfYmluZGluZycsICctaW1hZScsICc8aW5maWxlLm1hZT4nLCAnLW9tYWUnLCAnPG91dGZpbGUubWFlPic=

> <r_epik_Ionization_Penalty>
0.00101524

> <r_epik_Ionization_Penalty_Charging>
0.000974069

> <r_epik_Ionization_Penalty_Neutral>
4.11757e-05

> <r_epik_State_Penalty>
0.000633842

> <r_epik_Charging_Adjusted_Penalty>
0.00160791

> <i_epik_Tot_Q>
1

> <i_epik_Tot_abs_Q>
1

> <r_epik_Metal_State_Penalty>
-0

> <b_epik_Metal_Only>
0

> <s_lp_Force_Field>
OPLS_2005

> <r_lp_Energy>
38.4546

> <b_lp_Chiralities_Consistent>
1

> <s_lp_Variant>
AV-unprocessed.smi:1709-6

> <Gold.Version>
5.8.1

> <Gold.Id.Protein>
6NUR|6NUR_protein|mol2

> <Gold.PLP.Fitness>
42.4330

> <Gold.PLP.PLP>
-40.7542

> <Gold.PLP.part.hbond>
-1.3932

> <Gold.PLP.part.metal>
0.0000

> <Gold.PLP.part.buried>
-0.3848

> <Gold.PLP.part.nonpolar>
-36.6204

> <Gold.PLP.part.repulsive>
0.2420

> <Gold.PLP.ligand.clash>
0.0000

> <Gold.PLP.ligand.torsion>
0.5099

> <Gold.PLP.Chemscore.Hbond>
0.8960

> <Gold.PLP.Chemscore.CHOScore>
0.0000

> <Gold.PLP.Chemscore.Metal>
0.0000

> <Gold.Chemscore.Hbonds>
donor molecule, donor type, donor heavy atom, donor atom, acceptor molecule, acceptor atom, score
      L1  H    15    43       P1  7957  0.91

> <Gold.PLP.Chemscore.Internal.Correction>
0.0105

> <Gold.Rescore>
     Score         DG    S(hbond)    S(metal)    S(lipo)     H(rot)  DE(clash)    DE(int)     intcor
     16.95     -19.62       0.99        0.00     114.33       1.00       0.52       2.15       ----

> <Gold.Chemscore.Fitness>
16.9464

> <Gold.Chemscore.DG>
-19.6154

> <Gold.Chemscore.ZeroCoef>
-5.4800

> <Gold.Chemscore.Hbond>
0.9937

> <Gold.Chemscore.Metal>
0.0000

> <Gold.Chemscore.Lipo>
114.3277

> <Gold.Chemscore.Internal_Hbond>
0.0000

> <Gold.Chemscore.DEClash>
0.5185

> <Gold.Chemscore.DEInternal>
2.1504

> <Gold.Chemscore.Rot>
1.0000

> <Gold.Chemscore.Internal.Correction>
   9.000000E+99

> <Gold.Chemscore.Hbonds>
donor molecule, donor type, donor heavy atom, donor atom, acceptor molecule, acceptor atom, score
      L1  H    15    43       P1  7957  0.90

> <Gold.Chemscore.Hbond.Weighted>
-3.3190

> <Gold.Chemscore.Metal.Weighted>
-0.0000

> <Gold.Chemscore.Lipo.Weighted>
-13.3763

> <Gold.Chemscore.Internal_Hbond.Weighted>
0.0000

> <Gold.Chemscore.DEClash.Weighted>
0.5185

> <Gold.Chemscore.DEInternal.Weighted>
2.1504

> <Gold.Chemscore.Rot.Weighted>
2.5600

> <Gold.Chemscore.Internal.Correction.Weighted>
   9.000000E+99

> <Gold.Protein.RotatedTorsions>
[ 6907 6896 6895 6894 ] final   51.06 input  -60.11 | X-H torsion
[ 7974 7965 7964 7962 ] final  136.90 input  175.53 | X-H torsion
[ 8008 7997 7996 7995 ] final -119.30 input   59.86 | X-H torsion
[ 10167 10162 10161 10158 ] final  -47.75 input  -65.29 | X-H torsion
[ 10718 10713 10712 10709 ] final  148.97 input   66.30 | X-H torsion
[ 10763 10752 10751 10750 ] final  179.47 input  -60.55 | X-H torsion
[ 11005 11000 10999 10996 ] final   37.75 input  -57.11 | X-H torsion

> <Gold.Protein.ActiveResidues>
 VAL166  LYS551  ARG553  GLY616  TRP617  ASP618  TYR619  PRO620  LYS621  CYS622 
 ASP623  PHE694  ASN695  SER759  ASP760  ASP761  ALA762  ILE779  LEU786  VAL792 
 PHE793  MET794  SER795  GLU796  ALA797  LYS798  CYS799  TRP800  GLU811  SER814 

> <Gold.Protein.RotatedAtoms>
  152.3086  134.7525  160.0341 H   0  0  0  0  0  0  0  0  0  0  0  0  # atno 6907 bound_to 6896
  151.8013  133.3365  159.3536 H   0  0  0  0  0  0  0  0  0  0  0  0  # atno 6908 bound_to 6896
  150.7309  134.5681  159.5920 H   0  0  0  0  0  0  0  0  0  0  0  0  # atno 6909 bound_to 6896
  144.9520  139.4807  143.5521 H   0  0  0  0  0  0  0  0  0  0  0  0  # atno 7974 bound_to 7965
  155.1136  140.0397  157.2731 H   0  0  0  0  0  0  0  0  0  0  0  0  # atno 8008 bound_to 7997
  154.6667  140.2603  155.7025 H   0  0  0  0  0  0  0  0  0  0  0  0  # atno 8009 bound_to 7997
  156.2641  140.2806  156.1160 H   0  0  0  0  0  0  0  0  0  0  0  0  # atno 8010 bound_to 7997
  140.6761  143.2770  151.3972 H   0  0  0  0  0  0  0  0  0  0  0  0  # atno 10167 bound_to 10162
  157.3020  131.0872  151.1383 H   0  0  0  0  0  0  0  0  0  0  0  0  # atno 10718 bound_to 10713
  154.5211  135.2794  155.1261 H   0  0  0  0  0  0  0  0  0  0  0  0  # atno 10763 bound_to 10752
  154.2819  135.6284  153.5354 H   0  0  0  0  0  0  0  0  0  0  0  0  # atno 10764 bound_to 10752
  152.9937  135.5653  154.5700 H   0  0  0  0  0  0  0  0  0  0  0  0  # atno 10765 bound_to 10752
  140.2194  134.3659  155.8012 H   0  0  0  0  0  0  0  0  0  0  0  0  # atno 11005 bound_to 11000
  146.3324  139.8612  142.8856 LP  0  0  0  0  0  0  0  0  0  0  0  0  # atno 17320 bound_to 7965
  145.2829  141.0144  143.3707 LP  0  0  0  0  0  0  0  0  0  0  0  0  # atno 17321 bound_to 7965
  139.6055  144.1207  152.2244 LP  0  0  0  0  0  0  0  0  0  0  0  0  # atno 17342 bound_to 10162
  140.0604  144.5861  150.7267 LP  0  0  0  0  0  0  0  0  0  0  0  0  # atno 17343 bound_to 10162
  157.2738  130.6717  149.6032 LP  0  0  0  0  0  0  0  0  0  0  0  0  # atno 17370 bound_to 10713
  155.9672  130.4471  150.5566 LP  0  0  0  0  0  0  0  0  0  0  0  0  # atno 17371 bound_to 10713
  141.2223  133.7185  156.8550 LP  0  0  0  0  0  0  0  0  0  0  0  0  # atno 17394 bound_to 11000
  140.1866  134.8995  157.3011 LP  0  0  0  0  0  0  0  0  0  0  0  0  # atno 17395 bound_to 11000

$$$$
