AV-unprocessed.smi:2294|AV-procd|sdf|9217|dock1
  -GOLD-   2272012433D 1   1.00000     0.00000
 Structure written by MMmdl.
 34 35  0  0  0  0  0  0  0  0  1 V2000
  145.8397  141.2230  155.3517 C   0  0  0  0  0  0  0  0  0  0  0  0
  147.3448  141.0749  155.4855 C   0  0  0  0  0  0  0  0  0  0  0  0
  147.9272  141.7657  156.5522 N   0  0  0  0  0  0  0  0  0  0  0  0
  149.2049  141.7031  156.7401 C   0  0  0  0  0  0  0  0  0  0  0  0
  150.0382  140.9487  155.8983 N   0  0  0  0  0  0  0  0  0  0  0  0
  151.4766  140.9695  156.2144 C   0  0  0  0  0  0  0  0  0  0  0  0
  151.7421  140.8860  157.7341 C   0  0  1  0  0  0  0  0  0  0  0  0
  152.8890  140.0858  157.9485 O   0  0  0  0  0  0  0  0  0  0  0  0
  151.9098  142.2764  158.3341 C   0  0  0  0  0  0  0  0  0  0  0  0
  151.5068  143.4221  157.6111 C   0  0  0  0  0  0  0  0  0  0  0  0
  151.6567  144.7063  158.1688 C   0  0  0  0  0  0  0  0  0  0  0  0
  152.2059  144.8551  159.4562 C   0  0  0  0  0  0  0  0  0  0  0  0
  152.6015  143.7183  160.1862 C   0  0  0  0  0  0  0  0  0  0  0  0
  152.4527  142.4326  159.6302 C   0  0  0  0  0  0  0  0  0  0  0  0
  152.8329  141.3505  160.3513 F   0  0  0  0  0  0  0  0  0  0  0  0
  149.5521  140.2449  154.8350 C   0  0  0  0  0  0  0  0  0  0  0  0
  150.2936  139.5913  154.0986 O   0  0  0  0  0  0  0  0  0  0  0  0
  148.0969  140.3279  154.6318 C   0  0  0  0  0  0  0  0  0  0  0  0
  147.5190  139.5580  153.4506 C   0  0  0  0  0  0  0  0  0  0  0  0
  145.3523  140.2494  155.4117 H   0  0  0  0  0  0  0  0  0  0  0  0
  145.5857  141.6832  154.3963 H   0  0  0  0  0  0  0  0  0  0  0  0
  145.4300  141.8508  156.1442 H   0  0  0  0  0  0  0  0  0  0  0  0
  149.7095  142.2299  157.5519 H   0  0  0  0  0  0  0  0  0  0  0  0
  152.0324  140.1931  155.6843 H   0  0  0  0  0  0  0  0  0  0  0  0
  151.8899  141.9039  155.8294 H   0  0  0  0  0  0  0  0  0  0  0  0
  150.9099  140.3915  158.2356 H   0  0  0  0  0  0  0  0  0  0  0  0
  152.7733  139.6083  158.7559 H   0  0  0  0  0  0  0  0  0  0  0  0
  151.0785  143.3210  156.6246 H   0  0  0  0  0  0  0  0  0  0  0  0
  151.3489  145.5774  157.6092 H   0  0  0  0  0  0  0  0  0  0  0  0
  152.3209  145.8399  159.8848 H   0  0  0  0  0  0  0  0  0  0  0  0
  153.0187  143.8321  161.1760 H   0  0  0  0  0  0  0  0  0  0  0  0
  147.9680  139.9065  152.5199 H   0  0  0  0  0  0  0  0  0  0  0  0
  146.4398  139.6661  153.3535 H   0  0  0  0  0  0  0  0  0  0  0  0
  147.7346  138.4939  153.5535 H   0  0  0  0  0  0  0  0  0  0  0  0
  1  2  1  0  0  0  0
  1 20  1  0  0  0  0
  1 21  1  0  0  0  0
  1 22  1  0  0  0  0
  2 18  2  0  0  0  0
  2  3  1  0  0  0  0
  3  4  2  0  0  0  0
  4  5  1  0  0  0  0
  4 23  1  0  0  0  0
  5  6  1  0  0  0  0
  5 16  1  0  0  0  0
  6  7  1  0  0  0  0
  6 24  1  0  0  0  0
  6 25  1  0  0  0  0
  7  8  1  0  0  0  0
  7  9  1  0  0  0  0
  7 26  1  0  0  0  0
  8 27  1  0  0  0  0
  9 14  1  0  0  0  0
  9 10  2  0  0  0  0
 10 11  1  0  0  0  0
 10 28  1  0  0  0  0
 11 12  2  0  0  0  0
 11 29  1  0  0  0  0
 12 13  1  0  0  0  0
 12 30  1  0  0  0  0
 13 14  2  0  0  0  0
 13 31  1  0  0  0  0
 14 15  1  0  0  0  0
 16 17  2  0  0  0  0
 16 18  1  0  0  0  0
 18 19  1  0  0  0  0
 19 32  1  0  0  0  0
 19 33  1  0  0  0  0
 19 34  1  0  0  0  0
M  END
> <s_m_source_file>
AV-unprocessed.smi

> <i_m_source_file_index>
2294

> <i_lp_mmshare_version>
43012

> <i_f3d_flags>
0

> <s_epik_input>
W0NIM11jMW5bY0hdbihjKD1PKWMxW0NIM10pW0NIMl1bQ0BIXShbT0hdKWMyW2NIXVtjSF1bY0hdW2NIXWMyRg==

> <s_epik_cmdline>
J2VwaWtfcHl0aG9uJywgJy1waCcsICc3LjAnLCAnLXRuJywgJzgnLCAnLW1hJywgJzIwMCcsICctbWV0YWxfYmluZGluZycsICctaW1hZScsICc8aW5maWxlLm1hZT4nLCAnLW9tYWUnLCAnPG91dGZpbGUubWFlPic=

> <r_lp_tautomer_probability>
1

> <r_epik_Ionization_Penalty>
5.07259e-05

> <r_epik_Ionization_Penalty_Charging>
7.56727e-08

> <r_epik_Ionization_Penalty_Neutral>
5.06502e-05

> <r_epik_State_Penalty>
-0

> <r_epik_Charging_Adjusted_Penalty>
7.56727e-08

> <i_epik_Tot_Q>
0

> <i_epik_Tot_abs_Q>
0

> <r_epik_Metal_State_Penalty>
-0

> <b_epik_Metal_Only>
0

> <s_lp_Force_Field>
OPLS_2005

> <r_lp_Energy>
19.7062

> <b_lp_Chiralities_Consistent>
1

> <s_lp_Variant>
AV-unprocessed.smi:2294-2

> <Gold.Version>
5.8.1

> <Gold.Id.Protein>
6NUR|6NUR_protein|mol2

> <Gold.PLP.Fitness>
43.5459

> <Gold.PLP.PLP>
-39.8276

> <Gold.PLP.part.hbond>
-2.0000

> <Gold.PLP.part.metal>
0.0000

> <Gold.PLP.part.buried>
-4.3487

> <Gold.PLP.part.nonpolar>
-34.3782

> <Gold.PLP.part.repulsive>
0.8813

> <Gold.PLP.ligand.clash>
0.0000

> <Gold.PLP.ligand.torsion>
1.1487

> <Gold.PLP.Chemscore.Hbond>
2.0000

> <Gold.PLP.Chemscore.CHOScore>
0.0000

> <Gold.PLP.Chemscore.Metal>
0.0000

> <Gold.Chemscore.Hbonds>
donor molecule, donor type, donor heavy atom, donor atom, acceptor molecule, acceptor atom, score
      P1  H  7989  7998       L1    17  1.00
      P1  H  7997  8008       L1     8  1.00

> <Gold.PLP.Chemscore.Internal.Correction>
0.0159

> <Gold.Rescore>
     Score         DG    S(hbond)    S(metal)    S(lipo)     H(rot)  DE(clash)    DE(int)     intcor
     15.81     -18.56       1.85        0.00     103.07       2.02       0.28       2.48       ----

> <Gold.Chemscore.Fitness>
15.8050

> <Gold.Chemscore.DG>
-18.5578

> <Gold.Chemscore.ZeroCoef>
-5.4800

> <Gold.Chemscore.Hbond>
1.8518

> <Gold.Chemscore.Metal>
0.0000

> <Gold.Chemscore.Lipo>
103.0690

> <Gold.Chemscore.Internal_Hbond>
0.0000

> <Gold.Chemscore.DEClash>
0.2756

> <Gold.Chemscore.DEInternal>
2.4771

> <Gold.Chemscore.Rot>
2.0181

> <Gold.Chemscore.Internal.Correction>
   9.000000E+99

> <Gold.Chemscore.Hbonds>
donor molecule, donor type, donor heavy atom, donor atom, acceptor molecule, acceptor atom, score
      P1  H  7989  7998       L1    17  0.49
      P1  H  7997  8008       L1     8  0.95

> <Gold.Chemscore.Hbond.Weighted>
-6.1851

> <Gold.Chemscore.Metal.Weighted>
-0.0000

> <Gold.Chemscore.Lipo.Weighted>
-12.0591

> <Gold.Chemscore.Internal_Hbond.Weighted>
0.0000

> <Gold.Chemscore.DEClash.Weighted>
0.2756

> <Gold.Chemscore.DEInternal.Weighted>
2.4771

> <Gold.Chemscore.Rot.Weighted>
5.1663

> <Gold.Chemscore.Internal.Correction.Weighted>
   9.000000E+99

> <Gold.Protein.RotatedTorsions>
[ 6907 6896 6895 6894 ] final  155.18 input  -60.11 | X-H torsion
[ 7974 7965 7964 7962 ] final  162.91 input  175.53 | X-H torsion
[ 8008 7997 7996 7995 ] final  -72.62 input   59.86 | X-H torsion
[ 10167 10162 10161 10158 ] final  -17.44 input  -65.29 | X-H torsion
[ 10718 10713 10712 10709 ] final  143.61 input   66.30 | X-H torsion
[ 10763 10752 10751 10750 ] final  102.20 input  -60.55 | X-H torsion
[ 11005 11000 10999 10996 ] final  -87.18 input  -57.11 | X-H torsion

> <Gold.Protein.ActiveResidues>
 VAL166  LYS551  ARG553  GLY616  TRP617  ASP618  TYR619  PRO620  LYS621  CYS622 
 ASP623  PHE694  ASN695  SER759  ASP760  ASP761  ALA762  ILE779  LEU786  VAL792 
 PHE793  MET794  SER795  GLU796  ALA797  LYS798  CYS799  TRP800  GLU811  SER814 

> <Gold.Protein.RotatedAtoms>
  152.0478  133.4005  159.4363 H   0  0  0  0  0  0  0  0  0  0  0  0  # atno 6907 bound_to 6896
  150.6872  134.3342  159.4849 H   0  0  0  0  0  0  0  0  0  0  0  0  # atno 6908 bound_to 6896
  152.1148  134.9248  160.0616 H   0  0  0  0  0  0  0  0  0  0  0  0  # atno 6909 bound_to 6896
  144.7614  139.8107  143.6331 H   0  0  0  0  0  0  0  0  0  0  0  0  # atno 7974 bound_to 7965
  154.5181  140.0794  156.8119 H   0  0  0  0  0  0  0  0  0  0  0  0  # atno 8008 bound_to 7997
  155.3636  140.3419  155.4223 H   0  0  0  0  0  0  0  0  0  0  0  0  # atno 8009 bound_to 7997
  156.1650  140.1601  156.8534 H   0  0  0  0  0  0  0  0  0  0  0  0  # atno 8010 bound_to 7997
  140.7247  143.5015  150.9863 H   0  0  0  0  0  0  0  0  0  0  0  0  # atno 10167 bound_to 10162
  157.3669  131.0973  151.0864 H   0  0  0  0  0  0  0  0  0  0  0  0  # atno 10718 bound_to 10713
  153.3365  135.4018  155.1537 H   0  0  0  0  0  0  0  0  0  0  0  0  # atno 10763 bound_to 10752
  154.8634  135.3623  154.5402 H   0  0  0  0  0  0  0  0  0  0  0  0  # atno 10764 bound_to 10752
  153.5844  135.7075  153.5509 H   0  0  0  0  0  0  0  0  0  0  0  0  # atno 10765 bound_to 10752
  141.1620  133.7497  156.9269 H   0  0  0  0  0  0  0  0  0  0  0  0  # atno 11005 bound_to 11000
  146.1681  139.4820  142.9945 LP  0  0  0  0  0  0  0  0  0  0  0  0  # atno 17320 bound_to 7965
  145.6606  141.0241  143.1711 LP  0  0  0  0  0  0  0  0  0  0  0  0  # atno 17321 bound_to 7965
  139.8725  143.7174  152.3165 LP  0  0  0  0  0  0  0  0  0  0  0  0  # atno 17342 bound_to 10162
  139.7428  144.7555  151.0626 LP  0  0  0  0  0  0  0  0  0  0  0  0  # atno 17343 bound_to 10162
  157.1983  130.6383  149.5729 LP  0  0  0  0  0  0  0  0  0  0  0  0  # atno 17370 bound_to 10713
  155.9748  130.4699  150.6412 LP  0  0  0  0  0  0  0  0  0  0  0  0  # atno 17371 bound_to 10713
  140.1413  134.9292  157.2470 LP  0  0  0  0  0  0  0  0  0  0  0  0  # atno 17394 bound_to 11000
  140.2834  134.3324  155.7336 LP  0  0  0  0  0  0  0  0  0  0  0  0  # atno 17395 bound_to 11000

$$$$
