AV-unprocessed.smi:1344|AV-procd|sdf|5509|dock1
  -GOLD-   22720 5 93D 1   1.00000     0.00000
 Structure written by MMmdl.
 32 34  0  0  0  0  0  0  0  0  1 V2000
  144.4129  136.2568  152.7605 O   0  0  0  0  0  0  0  0  0  0  0  0
  145.4933  136.2223  152.1712 C   0  0  0  0  0  0  0  0  0  0  0  0
  145.5834  135.6053  150.7742 C   0  0  0  0  0  0  0  0  0  0  0  0
  145.2335  134.1462  150.8289 C   0  0  0  0  0  0  0  0  0  0  0  0
  144.1370  133.5419  150.2642 C   0  0  0  0  0  0  0  0  0  0  0  0
  144.1122  131.8246  150.5585 S   0  0  0  0  0  0  0  0  0  0  0  0
  145.6226  131.9915  151.4582 C   0  0  0  0  0  0  0  0  0  0  0  0
  146.3594  130.9394  152.0779 N   0  0  0  0  0  0  0  0  0  0  0  0
  146.0220  129.5360  151.8614 C   0  0  0  0  0  0  0  0  0  0  0  0
  147.0191  128.7812  152.7351 C   0  0  0  0  0  0  0  0  0  0  0  0
  147.7948  129.8557  153.3084 N   0  0  0  0  0  0  0  0  0  0  0  0
  147.4028  131.0715  152.9208 C   0  0  0  0  0  0  0  0  0  0  0  0
  147.9355  132.1162  153.2905 O   0  0  0  0  0  0  0  0  0  0  0  0
  146.0656  133.2520  151.5122 N   0  0  0  0  0  0  0  0  0  0  0  0
  146.6354  136.7076  152.6814 N   0  0  0  0  0  0  0  0  0  0  0  0
  146.7755  137.3450  153.9498 C   0  0  0  0  0  0  0  0  0  0  0  0
  145.9804  138.6106  154.1879 C   0  0  0  0  0  0  0  0  0  0  0  0
  147.4687  138.6897  153.9873 C   0  0  0  0  0  0  0  0  0  0  0  0
  144.9172  136.1390  150.0948 H   0  0  0  0  0  0  0  0  0  0  0  0
  146.5933  135.7450  150.3859 H   0  0  0  0  0  0  0  0  0  0  0  0
  143.3464  134.0019  149.6898 H   0  0  0  0  0  0  0  0  0  0  0  0
  144.9932  129.3346  152.1641 H   0  0  0  0  0  0  0  0  0  0  0  0
  146.1345  129.2710  150.8091 H   0  0  0  0  0  0  0  0  0  0  0  0
  146.5243  128.2066  153.5189 H   0  0  0  0  0  0  0  0  0  0  0  0
  147.6552  128.1149  152.1516 H   0  0  0  0  0  0  0  0  0  0  0  0
  148.5640  129.6896  153.9414 H   0  0  0  0  0  0  0  0  0  0  0  0
  147.4698  136.6330  152.1173 H   0  0  0  0  0  0  0  0  0  0  0  0
  146.9258  136.7047  154.8179 H   0  0  0  0  0  0  0  0  0  0  0  0
  145.3452  138.9724  153.3812 H   0  0  0  0  0  0  0  0  0  0  0  0
  145.5991  138.7817  155.1926 H   0  0  0  0  0  0  0  0  0  0  0  0
  148.0820  138.9129  154.8579 H   0  0  0  0  0  0  0  0  0  0  0  0
  147.8278  139.1043  153.0471 H   0  0  0  0  0  0  0  0  0  0  0  0
  1  2  2  0  0  0  0
  2  3  1  0  0  0  0
  2 15  1  0  0  0  0
  3  4  1  0  0  0  0
  3 19  1  0  0  0  0
  3 20  1  0  0  0  0
  4 14  1  0  0  0  0
  4  5  2  0  0  0  0
  5  6  1  0  0  0  0
  5 21  1  0  0  0  0
  6  7  1  0  0  0  0
  7  8  1  0  0  0  0
  7 14  2  0  0  0  0
  8 12  1  0  0  0  0
  8  9  1  0  0  0  0
  9 10  1  0  0  0  0
  9 22  1  0  0  0  0
  9 23  1  0  0  0  0
 10 11  1  0  0  0  0
 10 24  1  0  0  0  0
 10 25  1  0  0  0  0
 11 12  1  0  0  0  0
 11 26  1  0  0  0  0
 12 13  2  0  0  0  0
 15 16  1  0  0  0  0
 15 27  1  0  0  0  0
 16 18  1  0  0  0  0
 16 17  1  0  0  0  0
 16 28  1  0  0  0  0
 17 18  1  0  0  0  0
 17 29  1  0  0  0  0
 17 30  1  0  0  0  0
 18 31  1  0  0  0  0
 18 32  1  0  0  0  0
M  END
> <s_m_source_file>
AV-unprocessed.smi

> <i_m_source_file_index>
1344

> <i_lp_mmshare_version>
43012

> <i_f3d_flags>
0

> <s_epik_input>
W0NIMl0xW0NIMl1bQ0hdMVtOSF1DKD1PKVtDSDJdYzJbY0hdc2MobjIpTjNbQ0gyXVtDSDJdW05IXUMzPU8=

> <s_epik_cmdline>
J2VwaWtfcHl0aG9uJywgJy1waCcsICc3LjAnLCAnLXRuJywgJzgnLCAnLW1hJywgJzIwMCcsICctbWV0YWxfYmluZGluZycsICctaW1hZScsICc8aW5maWxlLm1hZT4nLCAnLW9tYWUnLCAnPG91dGZpbGUubWFlPic=

> <r_lp_tautomer_probability>
1

> <r_epik_Ionization_Penalty>
0.000119825

> <r_epik_Ionization_Penalty_Charging>
0

> <r_epik_Ionization_Penalty_Neutral>
0.000119825

> <r_epik_State_Penalty>
-0

> <r_epik_Charging_Adjusted_Penalty>
0

> <i_epik_Tot_Q>
0

> <i_epik_Tot_abs_Q>
0

> <r_epik_Metal_State_Penalty>
-0

> <b_epik_Metal_Only>
0

> <s_lp_Force_Field>
OPLS_2005

> <r_lp_Energy>
42.6691

> <b_lp_Chiralities_Consistent>
1

> <s_lp_Variant>
AV-unprocessed.smi:1344-1

> <Gold.Version>
5.8.1

> <Gold.Id.Protein>
6NUR|6NUR_protein|mol2

> <Gold.PLP.Fitness>
33.8108

> <Gold.PLP.PLP>
-28.0198

> <Gold.PLP.part.hbond>
-1.0000

> <Gold.PLP.part.metal>
0.0000

> <Gold.PLP.part.buried>
-5.9812

> <Gold.PLP.part.nonpolar>
-22.2971

> <Gold.PLP.part.repulsive>
0.3828

> <Gold.PLP.ligand.clash>
0.0000

> <Gold.PLP.ligand.torsion>
0.1303

> <Gold.PLP.Chemscore.Hbond>
1.0000

> <Gold.PLP.Chemscore.CHOScore>
1.0000

> <Gold.PLP.Chemscore.Metal>
0.0000

> <Gold.Chemscore.Hbonds>
donor molecule, donor type, donor heavy atom, donor atom, acceptor molecule, acceptor atom, score
      L1  H    15    27       P1  7948  1.00
      L1  C     5    21       P1 10186  1.00

> <Gold.PLP.Chemscore.Internal.Correction>
0.0517

> <Gold.Rescore>
     Score         DG    S(hbond)    S(metal)    S(lipo)     H(rot)  DE(clash)    DE(int)     intcor
     10.12     -11.74       0.98        0.00      60.79       1.61       0.06       1.56       ----

> <Gold.Chemscore.Fitness>
10.1151

> <Gold.Chemscore.DG>
-11.7363

> <Gold.Chemscore.ZeroCoef>
-5.4800

> <Gold.Chemscore.Hbond>
0.9752

> <Gold.Chemscore.Metal>
0.0000

> <Gold.Chemscore.Lipo>
60.7887

> <Gold.Chemscore.Internal_Hbond>
0.0000

> <Gold.Chemscore.DEClash>
0.0580

> <Gold.Chemscore.DEInternal>
1.5632

> <Gold.Chemscore.Rot>
1.6067

> <Gold.Chemscore.Internal.Correction>
   9.000000E+99

> <Gold.Chemscore.Hbonds>
donor molecule, donor type, donor heavy atom, donor atom, acceptor molecule, acceptor atom, score
      L1  H    15    27       P1  7948  0.93

> <Gold.Chemscore.Hbond.Weighted>
-3.2572

> <Gold.Chemscore.Metal.Weighted>
-0.0000

> <Gold.Chemscore.Lipo.Weighted>
-7.1123

> <Gold.Chemscore.Internal_Hbond.Weighted>
0.0000

> <Gold.Chemscore.DEClash.Weighted>
0.0580

> <Gold.Chemscore.DEInternal.Weighted>
1.5632

> <Gold.Chemscore.Rot.Weighted>
4.1132

> <Gold.Chemscore.Internal.Correction.Weighted>
   9.000000E+99

> <Gold.Protein.RotatedTorsions>
[ 6907 6896 6895 6894 ] final -103.40 input  -60.11 | X-H torsion
[ 7974 7965 7964 7962 ] final -106.06 input  175.53 | X-H torsion
[ 8008 7997 7996 7995 ] final  160.33 input   59.86 | X-H torsion
[ 10167 10162 10161 10158 ] final  -15.84 input  -65.29 | X-H torsion
[ 10718 10713 10712 10709 ] final -121.03 input   66.30 | X-H torsion
[ 10763 10752 10751 10750 ] final -122.14 input  -60.55 | X-H torsion
[ 11005 11000 10999 10996 ] final  -61.29 input  -57.11 | X-H torsion

> <Gold.Protein.ActiveResidues>
 VAL166  LYS551  ARG553  GLY616  TRP617  ASP618  TYR619  PRO620  LYS621  CYS622 
 ASP623  PHE694  ASN695  SER759  ASP760  ASP761  ALA762  ILE779  LEU786  VAL792 
 PHE793  MET794  SER795  GLU796  ALA797  LYS798  CYS799  TRP800  GLU811  SER814 

> <Gold.Protein.RotatedAtoms>
  150.7239  134.0435  159.3773 H   0  0  0  0  0  0  0  0  0  0  0  0  # atno 6907 bound_to 6896
  151.8409  135.0588  160.0457 H   0  0  0  0  0  0  0  0  0  0  0  0  # atno 6908 bound_to 6896
  152.2863  133.5482  159.5565 H   0  0  0  0  0  0  0  0  0  0  0  0  # atno 6909 bound_to 6896
  145.2227  140.9140  143.3250 H   0  0  0  0  0  0  0  0  0  0  0  0  # atno 7974 bound_to 7965
  156.2179  140.1807  156.7546 H   0  0  0  0  0  0  0  0  0  0  0  0  # atno 8008 bound_to 7997
  154.5820  140.0664  156.9146 H   0  0  0  0  0  0  0  0  0  0  0  0  # atno 8009 bound_to 7997
  155.2486  140.3327  155.4287 H   0  0  0  0  0  0  0  0  0  0  0  0  # atno 8010 bound_to 7997
  140.7225  143.5177  150.9672 H   0  0  0  0  0  0  0  0  0  0  0  0  # atno 10167 bound_to 10162
  156.1305  130.6392  150.9613 H   0  0  0  0  0  0  0  0  0  0  0  0  # atno 10718 bound_to 10713
  154.8683  135.4143  154.2733 H   0  0  0  0  0  0  0  0  0  0  0  0  # atno 10763 bound_to 10752
  153.3639  135.7004  153.6696 H   0  0  0  0  0  0  0  0  0  0  0  0  # atno 10764 bound_to 10752
  153.5585  135.3614  155.2761 H   0  0  0  0  0  0  0  0  0  0  0  0  # atno 10765 bound_to 10752
  141.1319  133.6629  156.5353 H   0  0  0  0  0  0  0  0  0  0  0  0  # atno 11005 bound_to 11000
  144.9751  139.3840  143.6290 LP  0  0  0  0  0  0  0  0  0  0  0  0  # atno 17320 bound_to 7965
  146.3372  139.8866  142.8816 LP  0  0  0  0  0  0  0  0  0  0  0  0  # atno 17321 bound_to 7965
  139.8893  143.6973  152.3147 LP  0  0  0  0  0  0  0  0  0  0  0  0  # atno 17342 bound_to 10162
  139.7283  144.7588  151.0842 LP  0  0  0  0  0  0  0  0  0  0  0  0  # atno 17343 bound_to 10162
  157.6483  131.0901  150.8105 LP  0  0  0  0  0  0  0  0  0  0  0  0  # atno 17370 bound_to 10713
  156.8191  130.4978  149.5345 LP  0  0  0  0  0  0  0  0  0  0  0  0  # atno 17371 bound_to 10713
  140.4183  134.7210  157.4875 LP  0  0  0  0  0  0  0  0  0  0  0  0  # atno 17394 bound_to 11000
  140.0378  134.6312  155.9021 LP  0  0  0  0  0  0  0  0  0  0  0  0  # atno 17395 bound_to 11000

$$$$
