#       Name:                AV-unprocessed.smi:1703
#       Creating user name   scv26
#       Creation time:       Fri Mar 27 08:06:16 2020


#       File generated by GOLD software.
#

@<TRIPOS>MOLECULE
AV-unprocessed.smi:1703
    56    58     1
SMALL
NO_CHARGES


@<TRIPOS>ATOM
      1 ****        -1.8917   3.9375   1.0177 C.3            1 S1                 0.0000
      2 ****        -2.7981   2.7441   1.3643 C.3            1 S1                 0.0000
      3 ****        -2.1187   1.3785   1.1391 C.3            1 S1                 0.0000
      4 ****        -1.9955   1.0369  -0.2771 N.3            1 S1                 0.0000
      5 ****        -1.3727  -0.2697  -0.4936 C.3            1 S1                 0.0000
      6 ****         0.1217  -0.3661  -0.1242 C.3            1 S1                 0.0000
      7 ****         0.8634   0.4495  -1.0100 O.3            1 S1                 0.0000
      8 ****         0.6305  -1.8174  -0.2156 C.3            1 S1                 0.0000
      9 ****         2.0391  -1.9547   0.1902 N.pl3          1 S1                 0.0000
     10 ****         2.5802  -2.0696   1.4372 C.2            1 S1                 0.0000
     11 ****         1.8329  -2.0765   2.7330 C.3            1 S1                 0.0000
     12 ****         2.6583  -2.3176   3.8533 O.3            1 S1                 0.0000
     13 ****         3.9310  -2.1728   1.2814 N.pl3          1 S1                 1.0000
     14 ****         4.2575  -2.1211  -0.0737 C.ar           1 S1                 0.0000
     15 ****         5.4903  -2.1858  -0.7157 C.ar           1 S1                 0.0000
     16 ****         5.4761  -2.0970  -2.1230 C.ar           1 S1                 0.0000
     17 ****         4.2691  -1.9495  -2.8366 C.ar           1 S1                 0.0000
     18 ****         3.0252  -1.8876  -2.1745 C.ar           1 S1                 0.0000
     19 ****         3.0468  -1.9779  -0.7824 C.ar           1 S1                 0.0000
     20 ****        -3.3164   1.0919  -0.8904 C.3            1 S1                 0.0000
     21 ****        -3.9740   2.4735  -0.7227 C.3            1 S1                 0.0000
     22 ****        -5.3972   2.5063  -1.2893 C.3            1 S1                 0.0000
     23 ****        -4.0418   2.8004   0.6641 O.3            1 S1                 0.0000
     24 ****        -0.9961   3.9368   1.6391 H              1 S1                 0.0000
     25 ****        -2.4103   4.8813   1.1865 H              1 S1                 0.0000
     26 ****        -1.5649   3.9162  -0.0217 H              1 S1                 0.0000
     27 ****        -3.0401   2.8268   2.4242 H              1 S1                 0.0000
     28 ****        -1.1423   1.3930   1.6209 H              1 S1                 0.0000
     29 ****        -2.7010   0.6081   1.6470 H              1 S1                 0.0000
     30 ****        -1.9289  -1.0231   0.0664 H              1 S1                 0.0000
     31 ****        -1.4772  -0.5483  -1.5433 H              1 S1                 0.0000
     32 ****         0.2934  -0.0102   0.8903 H              1 S1                 0.0000
     33 ****         0.6446   0.2063  -1.8963 H              1 S1                 0.0000
     34 ****         0.0438  -2.4557   0.4457 H              1 S1                 0.0000
     35 ****         0.4978  -2.2235  -1.2183 H              1 S1                 0.0000
     36 ****         1.3349  -1.1156   2.8633 H              1 S1                 0.0000
     37 ****         1.0579  -2.8423   2.6968 H              1 S1                 0.0000
     38 ****         2.1208  -2.3051   4.6307 H              1 S1                 0.0000
     39 ****         6.4161  -2.2967  -0.1704 H              1 S1                 0.0000
     40 ****         6.4095  -2.1410  -2.6656 H              1 S1                 0.0000
     41 ****         4.2974  -1.8813  -3.9144 H              1 S1                 0.0000
     42 ****         2.1093  -1.7703  -2.7336 H              1 S1                 0.0000
     43 ****        -3.2385   0.8611  -1.9536 H              1 S1                 0.0000
     44 ****        -3.9584   0.3258  -0.4524 H              1 S1                 0.0000
     45 ****        -3.3803   3.2249  -1.2438 H              1 S1                 0.0000
     46 ****        -5.4008   2.2726  -2.3540 H              1 S1                 0.0000
     47 ****        -5.8438   3.4929  -1.1639 H              1 S1                 0.0000
     48 ****        -6.0391   1.7830  -0.7854 H              1 S1                 0.0000
     49 ****         4.5778  -2.2703   2.0537 H              1 S1                 0.0000
     50 ****        -1.3880   1.7049  -0.7070 LP             1 S1                 0.0000
     51 ****         1.8419   0.3132  -0.8547 LP             1 S1                 0.0000
     52 ****         0.6324   1.4103  -0.8571 LP             1 S1                 0.0000
     53 ****         3.3583  -1.6061   3.9158 LP             1 S1                 0.0000
     54 ****         3.0984  -3.2109   3.7619 LP             1 S1                 0.0000
     55 ****        -4.4006   3.7302   0.7455 LP             1 S1                 0.0000
     56 ****        -4.6726   2.1601   1.1023 LP             1 S1                 0.0000
@<TRIPOS>BOND
    1    1    2 1     
    2    1   24 1     
    3    1   25 1     
    4    1   26 1     
    5    2   23 1     
    6    2    3 1     
    7    2   27 1     
    8    3    4 1     
    9    3   28 1     
   10    3   29 1     
   11    4    5 1     
   12    4   20 1     
   13    5    6 1     
   14    5   30 1     
   15    5   31 1     
   16    6    7 1     
   17    6    8 1     
   18    6   32 1     
   19    7   33 1     
   20    8    9 1     
   21    8   34 1     
   22    8   35 1     
   23    9   19 1     
   24    9   10 1     
   25   10   11 1     
   26   10   13 2     
   27   11   12 1     
   28   11   36 1     
   29   11   37 1     
   30   12   38 1     
   31   13   14 1     
   32   13   49 1     
   33   14   19 ar    
   34   14   15 ar    
   35   15   16 ar    
   36   15   39 1     
   37   16   17 ar    
   38   16   40 1     
   39   17   18 ar    
   40   17   41 1     
   41   18   19 ar    
   42   18   42 1     
   43   20   21 1     
   44   20   43 1     
   45   20   44 1     
   46   21   22 1     
   47   21   23 1     
   48   21   45 1     
   49   22   46 1     
   50   22   47 1     
   51   22   48 1     
   52    4   50 1     
   53    7   51 1     
   54    7   52 1     
   55   12   53 1     
   56   12   54 1     
   57   23   55 1     
   58   23   56 1     
@<TRIPOS>SUBSTRUCTURE
      1 S1             1
@<TRIPOS>SET
LONE_PAIRS      STATIC     ATOMS    <user>   **** ""
7 50 51 52 53 54 55 56
DONOR_HYDROGENS      STATIC     ATOMS    <user>   **** ""
3 33 38 49
ATOM$BLUE        STATIC     ATOMS    COLORGROUP SYSTEM
7 50 51 52 53 54 55 56
ATOM$RED        STATIC     ATOMS    COLORGROUP SYSTEM
3 33 38 49
