AV-unprocessed.smi:3234|AV-procd|sdf|12355|dock2
  -GOLD-   2272018213D 1   1.00000     0.00000
 Structure written by MMmdl.
 38 40  0  0  0  0  0  0  0  0  3 V2000
  146.6648  137.2886  153.5400 O   0  0  0  0  0  0  0  0  0  0  0  0
  146.2378  137.9100  152.5672 C   0  0  0  0  0  0  0  0  0  0  0  0
  146.4116  139.2250  152.3482 N   0  0  0  0  0  0  0  0  0  0  0  0
  147.0442  140.1828  153.1868 C   0  0  0  0  0  0  0  0  0  0  0  0
  146.4585  141.4653  153.2761 C   0  0  0  0  0  0  0  0  0  0  0  0
  147.0416  142.4394  154.1121 C   0  0  0  0  0  0  0  0  0  0  0  0
  148.1455  142.1371  154.8284 N   0  3  0  0  0  0  0  0  0  0  0  0
  148.7325  140.9218  154.7869 C   0  0  0  0  0  0  0  0  0  0  0  0
  148.1956  139.9078  153.9678 C   0  0  0  0  0  0  0  0  0  0  0  0
  145.5511  137.3337  151.5704 N   0  0  0  0  0  0  0  0  0  0  0  0
  145.2013  135.9180  151.5154 C   0  0  1  0  0  0  0  0  0  0  0  0
  144.2692  135.4701  152.6335 C   0  0  0  0  0  0  0  0  0  0  0  0
  143.6804  134.1693  152.0741 C   0  0  0  0  0  0  0  0  0  0  0  0
  143.7023  134.2894  150.5944 N   0  3  2  0  0  0  0  0  0  0  0  0
  144.2667  133.1033  149.9142 C   0  0  0  0  0  0  0  0  0  0  0  0
  143.9548  131.8006  150.6115 C   0  0  0  0  0  0  0  0  0  0  0  0
  145.3391  132.4031  150.7142 C   0  0  0  0  0  0  0  0  0  0  0  0
  144.4025  135.5496  150.2626 C   0  0  0  0  0  0  0  0  0  0  0  0
  146.0904  139.5744  151.4570 H   0  0  0  0  0  0  0  0  0  0  0  0
  145.5732  141.7070  152.7058 H   0  0  0  0  0  0  0  0  0  0  0  0
  146.6588  143.4427  154.2308 H   0  0  0  0  0  0  0  0  0  0  0  0
  149.6050  140.7946  155.4110 H   0  0  0  0  0  0  0  0  0  0  0  0
  148.6689  138.9379  153.9653 H   0  0  0  0  0  0  0  0  0  0  0  0
  145.2380  137.9137  150.8052 H   0  0  0  0  0  0  0  0  0  0  0  0
  146.1106  135.3143  151.5565 H   0  0  0  0  0  0  0  0  0  0  0  0
  144.7828  135.3258  153.5847 H   0  0  0  0  0  0  0  0  0  0  0  0
  143.4754  136.2038  152.7841 H   0  0  0  0  0  0  0  0  0  0  0  0
  144.2974  133.3268  152.3919 H   0  0  0  0  0  0  0  0  0  0  0  0
  142.6681  133.9889  152.4370 H   0  0  0  0  0  0  0  0  0  0  0  0
  144.3277  133.1495  148.8279 H   0  0  0  0  0  0  0  0  0  0  0  0
  143.3266  131.8289  151.4998 H   0  0  0  0  0  0  0  0  0  0  0  0
  143.8440  130.9127  149.9922 H   0  0  0  0  0  0  0  0  0  0  0  0
  146.1375  131.9113  150.1622 H   0  0  0  0  0  0  0  0  0  0  0  0
  145.6310  132.8313  151.6715 H   0  0  0  0  0  0  0  0  0  0  0  0
  143.6469  136.3094  150.0560 H   0  0  0  0  0  0  0  0  0  0  0  0
  145.0313  135.4632  149.3749 H   0  0  0  0  0  0  0  0  0  0  0  0
  142.7487  134.3883  150.2767 H   0  0  0  0  0  0  0  0  0  0  0  0
  148.5500  142.8551  155.4304 H   0  0  0  0  0  0  0  0  0  0  0  0
  1  2  2  0  0  0  0
  2  3  1  0  0  0  0
  2 10  1  0  0  0  0
  3  4  1  0  0  0  0
  3 19  1  0  0  0  0
  4  9  1  0  0  0  0
  4  5  2  0  0  0  0
  5  6  1  0  0  0  0
  5 20  1  0  0  0  0
  6  7  2  0  0  0  0
  6 21  1  0  0  0  0
  7  8  1  0  0  0  0
  7 38  1  0  0  0  0
  8  9  2  0  0  0  0
  8 22  1  0  0  0  0
  9 23  1  0  0  0  0
 10 11  1  0  0  0  0
 10 24  1  0  0  0  0
 11 18  1  0  0  0  0
 11 12  1  0  0  0  0
 11 25  1  0  0  0  0
 12 13  1  0  0  0  0
 12 26  1  0  0  0  0
 12 27  1  0  0  0  0
 13 14  1  0  0  0  0
 13 28  1  0  0  0  0
 13 29  1  0  0  0  0
 14 15  1  0  0  0  0
 14 18  1  0  0  0  0
 14 37  1  0  0  0  0
 15 17  1  0  0  0  0
 15 16  1  0  0  0  0
 15 30  1  0  0  0  0
 16 17  1  0  0  0  0
 16 31  1  0  0  0  0
 16 32  1  0  0  0  0
 17 33  1  0  0  0  0
 17 34  1  0  0  0  0
 18 35  1  0  0  0  0
 18 36  1  0  0  0  0
M  CHG  1   7   1
M  CHG  1  14   1
M  END
> <s_m_source_file>
AV-unprocessed.smi

> <i_m_source_file_index>
3234

> <i_lp_mmshare_version>
43012

> <i_f3d_flags>
0

> <s_epik_input>
W2NIXTFbY0hdbltjSF1bY0hdYzFbTkhdQyg9TylbTkhdW0NAQEhdMltDSDJdW0NIMl1OKFtDSDJdMilbQ0hdM1tDSDJdW0NIMl0z

> <s_epik_cmdline>
J2VwaWtfcHl0aG9uJywgJy1waCcsICc3LjAnLCAnLXRuJywgJzgnLCAnLW1hJywgJzIwMCcsICctbWV0YWxfYmluZGluZycsICctaW1hZScsICc8aW5maWxlLm1hZT4nLCAnLW9tYWUnLCAnPG91dGZpbGUubWFlPic=

> <r_epik_Ionization_Penalty>
1.14489

> <r_epik_Ionization_Penalty_Charging>
1.14487

> <r_epik_Ionization_Penalty_Neutral>
1.95212e-05

> <r_epik_State_Penalty>
1.205

> <r_epik_Charging_Adjusted_Penalty>
2.34987

> <i_epik_Tot_Q>
2

> <i_epik_Tot_abs_Q>
2

> <r_epik_Metal_State_Penalty>
1.28709

> <b_epik_Metal_Only>
0

> <s_lp_Force_Field>
OPLS_2005

> <r_lp_Energy>
49.112

> <b_lp_Chiralities_Consistent>
1

> <s_lp_Variant>
AV-unprocessed.smi:3234-8

> <Gold.Version>
5.8.1

> <Gold.Id.Protein>
6NUR|6NUR_protein|mol2

> <Gold.PLP.Fitness>
48.9056

> <Gold.PLP.PLP>
-35.1099

> <Gold.PLP.part.hbond>
-3.9940

> <Gold.PLP.part.metal>
0.0000

> <Gold.PLP.part.buried>
-2.5099

> <Gold.PLP.part.nonpolar>
-29.1065

> <Gold.PLP.part.repulsive>
1.4643

> <Gold.PLP.ligand.clash>
0.0000

> <Gold.PLP.ligand.torsion>
0.9239

> <Gold.PLP.Chemscore.Hbond>
4.7920

> <Gold.PLP.Chemscore.CHOScore>
0.0000

> <Gold.PLP.Chemscore.Metal>
0.0000

> <Gold.Chemscore.Hbonds>
donor molecule, donor type, donor heavy atom, donor atom, acceptor molecule, acceptor atom, score
      L1  H     7    38       P1  8028  1.79
      L1  H    10    24       P1 10171  0.99
      L1  H    14    37       P1 10186  2.00

> <Gold.PLP.Chemscore.Internal.Correction>
1.2675

> <Gold.Rescore>
     Score         DG    S(hbond)    S(metal)    S(lipo)     H(rot)  DE(clash)    DE(int)     intcor
     19.02     -21.31       2.69        0.00      85.23       1.22       0.56       1.74       ----

> <Gold.Chemscore.Fitness>
19.0171

> <Gold.Chemscore.DG>
-21.3140

> <Gold.Chemscore.ZeroCoef>
-5.4800

> <Gold.Chemscore.Hbond>
2.6938

> <Gold.Chemscore.Metal>
0.0000

> <Gold.Chemscore.Lipo>
85.2329

> <Gold.Chemscore.Internal_Hbond>
0.0000

> <Gold.Chemscore.DEClash>
0.5616

> <Gold.Chemscore.DEInternal>
1.7353

> <Gold.Chemscore.Rot>
1.2248

> <Gold.Chemscore.Internal.Correction>
   9.000000E+99

> <Gold.Chemscore.Hbonds>
donor molecule, donor type, donor heavy atom, donor atom, acceptor molecule, acceptor atom, score
      L1  H     7    38       P1  8028  0.88
      L1  H    10    24       P1 10171  0.94
      L1  H    14    37       P1 10186  0.74

> <Gold.Chemscore.Hbond.Weighted>
-8.9972

> <Gold.Chemscore.Metal.Weighted>
-0.0000

> <Gold.Chemscore.Lipo.Weighted>
-9.9723

> <Gold.Chemscore.Internal_Hbond.Weighted>
0.0000

> <Gold.Chemscore.DEClash.Weighted>
0.5616

> <Gold.Chemscore.DEInternal.Weighted>
1.7353

> <Gold.Chemscore.Rot.Weighted>
3.1355

> <Gold.Chemscore.Internal.Correction.Weighted>
   9.000000E+99

> <Gold.Protein.RotatedTorsions>
[ 6907 6896 6895 6894 ] final  -76.89 input  -60.11 | X-H torsion
[ 7974 7965 7964 7962 ] final  121.15 input  175.53 | X-H torsion
[ 8008 7997 7996 7995 ] final  164.60 input   59.86 | X-H torsion
[ 10167 10162 10161 10158 ] final   46.45 input  -65.29 | X-H torsion
[ 10718 10713 10712 10709 ] final  -54.27 input   66.30 | X-H torsion
[ 10763 10752 10751 10750 ] final   70.00 input  -60.55 | X-H torsion
[ 11005 11000 10999 10996 ] final  169.12 input  -57.11 | X-H torsion

> <Gold.Protein.ActiveResidues>
 VAL166  LYS551  ARG553  GLY616  TRP617  ASP618  TYR619  PRO620  LYS621  CYS622 
 ASP623  PHE694  ASN695  SER759  ASP760  ASP761  ALA762  ILE779  LEU786  VAL792 
 PHE793  MET794  SER795  GLU796  ALA797  LYS798  CYS799  TRP800  GLU811  SER814 

> <Gold.Protein.RotatedAtoms>
  150.7014  134.4504  159.5333 H   0  0  0  0  0  0  0  0  0  0  0  0  # atno 6907 bound_to 6896
  152.2197  134.8421  160.0496 H   0  0  0  0  0  0  0  0  0  0  0  0  # atno 6908 bound_to 6896
  151.9276  133.3567  159.3956 H   0  0  0  0  0  0  0  0  0  0  0  0  # atno 6909 bound_to 6896
  145.1227  139.3379  143.4706 H   0  0  0  0  0  0  0  0  0  0  0  0  # atno 7974 bound_to 7965
  156.1867  140.1692  156.8171 H   0  0  0  0  0  0  0  0  0  0  0  0  # atno 8008 bound_to 7997
  154.5423  140.0734  156.8563 H   0  0  0  0  0  0  0  0  0  0  0  0  # atno 8009 bound_to 7997
  155.3191  140.3372  155.4244 H   0  0  0  0  0  0  0  0  0  0  0  0  # atno 8010 bound_to 7997
  140.3138  144.2789  150.6195 H   0  0  0  0  0  0  0  0  0  0  0  0  # atno 10167 bound_to 10162
  156.1464  130.4152  150.0016 H   0  0  0  0  0  0  0  0  0  0  0  0  # atno 10718 bound_to 10713
  153.0317  135.5190  154.7374 H   0  0  0  0  0  0  0  0  0  0  0  0  # atno 10763 bound_to 10752
  154.6384  135.2909  155.0136 H   0  0  0  0  0  0  0  0  0  0  0  0  # atno 10764 bound_to 10752
  154.1062  135.6629  153.4929 H   0  0  0  0  0  0  0  0  0  0  0  0  # atno 10765 bound_to 10752
  140.2944  134.7647  157.3865 H   0  0  0  0  0  0  0  0  0  0  0  0  # atno 11005 bound_to 11000
  146.3520  140.1193  142.8601 LP  0  0  0  0  0  0  0  0  0  0  0  0  # atno 17320 bound_to 7965
  145.0723  140.9164  143.4875 LP  0  0  0  0  0  0  0  0  0  0  0  0  # atno 17321 bound_to 7965
  140.5545  143.2201  151.7871 LP  0  0  0  0  0  0  0  0  0  0  0  0  # atno 17342 bound_to 10162
  139.4888  144.4432  151.9740 LP  0  0  0  0  0  0  0  0  0  0  0  0  # atno 17343 bound_to 10162
  156.7887  130.9248  151.3646 LP  0  0  0  0  0  0  0  0  0  0  0  0  # atno 17370 bound_to 10713
  157.6620  130.8975  149.9851 LP  0  0  0  0  0  0  0  0  0  0  0  0  # atno 17371 bound_to 10713
  140.1166  134.5275  155.8219 LP  0  0  0  0  0  0  0  0  0  0  0  0  # atno 17394 bound_to 11000
  141.2140  133.6742  156.6788 LP  0  0  0  0  0  0  0  0  0  0  0  0  # atno 17395 bound_to 11000

$$$$
