#       Name:                AV-unprocessed.smi:54
#       Creating user name   scv26
#       Creation time:       Thu Mar 26 16:46:14 2020


#       File generated by GOLD software.
#

@<TRIPOS>MOLECULE
AV-unprocessed.smi:54
    58    60     1
SMALL
NO_CHARGES


@<TRIPOS>ATOM
      1 ****        -0.8756   4.8949   1.1240 C.3            1 S1                 0.0000
      2 ****        -1.2848   4.0202  -0.0726 C.3            1 S1                 0.0000
      3 ****        -2.1619   4.8039  -1.0630 C.3            1 S1                 0.0000
      4 ****        -2.0039   2.7499   0.4033 C.2            1 S1                 0.0000
      5 ****        -3.0658   2.8570   1.0206 O.2            1 S1                 0.0000
      6 ****        -1.3806   1.5888   0.1047 N.am           1 S1                 0.0000
      7 ****        -1.7629   0.2776   0.4092 C.2            1 S1                 0.0000
      8 ****        -0.7703  -0.5750   0.3384 N.2            1 S1                 0.0000
      9 ****        -1.1547  -1.8707   0.6247 C.2            1 S1                 0.0000
     10 ****        -2.4086  -2.3154   0.9452 C.2            1 S1                 0.0000
     11 ****        -2.4225  -3.6874   1.1636 N.2            1 S1                 0.0000
     12 ****        -1.1478  -4.0137   0.9607 C.2            1 S1                 0.0000
     13 ****        -0.3294  -2.9941   0.6339 N.pl3          1 S1                 0.0000
     14 ****         1.1395  -3.1078   0.3494 C.3            1 S1                 0.0000
     15 ****         1.7979  -1.9700   0.8277 O.3            1 S1                 0.0000
     16 ****         2.4379  -1.2733  -0.2413 C.3            1 S1                 0.0000
     17 ****         3.7002  -0.5682   0.2780 C.3            1 S1                 0.0000
     18 ****         3.3602   0.6788   0.8461 O.3            1 S1                 0.0000
     19 ****         2.7262  -2.3931  -1.2421 C.3            1 S1                 0.0000
     20 ****         2.9821  -1.9245  -2.5520 O.3            1 S1                 0.0000
     21 ****         1.4634  -3.2379  -1.1515 C.3            1 S1                 0.0000
     22 ****         0.4318  -2.7606  -2.0029 O.3            1 S1                 0.0000
     23 ****        -3.4890  -1.3021   0.9945 C.2            1 S1                 0.0000
     24 ****        -4.6318  -1.6591   1.2746 O.2            1 S1                 0.0000
     25 ****        -3.1061  -0.0214   0.7125 N.pl3          1 S1                -1.0000
     26 ****         1.4680  -3.9714   0.9292 H              1 S1                 0.0000
     27 ****         1.7448  -0.5582  -0.6877 H              1 S1                 0.0000
     28 ****         3.5804  -2.9797  -0.8998 H              1 S1                 0.0000
     29 ****         1.6555  -4.2830  -1.3963 H              1 S1                 0.0000
     30 ****        -0.2567   4.3377   1.8283 H              1 S1                 0.0000
     31 ****        -1.7457   5.2665   1.6667 H              1 S1                 0.0000
     32 ****        -0.2985   5.7592   0.7947 H              1 S1                 0.0000
     33 ****        -0.3738   3.7253  -0.5964 H              1 S1                 0.0000
     34 ****        -2.4599   4.1809  -1.9072 H              1 S1                 0.0000
     35 ****        -1.6227   5.6622  -1.4645 H              1 S1                 0.0000
     36 ****        -3.0696   5.1776  -0.5876 H              1 S1                 0.0000
     37 ****        -0.4825   1.6943  -0.3434 H              1 S1                 0.0000
     38 ****        -0.7971  -5.0314   1.0481 H              1 S1                 0.0000
     39 ****         4.2305  -1.1860   1.0032 H              1 S1                 0.0000
     40 ****         4.3877  -0.3735  -0.5455 H              1 S1                 0.0000
     41 ****         4.1520   1.0982   1.1463 H              1 S1                 0.0000
     42 ****         2.2068  -1.4793  -2.8597 H              1 S1                 0.0000
     43 ****        -0.3621  -3.2367  -1.8124 H              1 S1                 0.0000
     44 ****        -3.4477   3.7626   1.2052 LP             1 S1                 0.0000
     45 ****        -3.5452   2.0383   1.3366 LP             1 S1                 0.0000
     46 ****         0.1660  -0.3153   0.1022 LP             1 S1                 0.0000
     47 ****        -3.1914  -4.2775   1.4096 LP             1 S1                 0.0000
     48 ****         2.4861  -2.2462   1.4985 LP             1 S1                 0.0000
     49 ****         1.1323  -1.3638   1.2631 LP             1 S1                 0.0000
     50 ****         2.7390   0.5398   1.6173 LP             1 S1                 0.0000
     51 ****         2.9147   1.2523   0.1585 LP             1 S1                 0.0000
     52 ****         3.1919  -2.6955  -3.1533 LP             1 S1                 0.0000
     53 ****         3.7554  -1.2906  -2.5407 LP             1 S1                 0.0000
     54 ****         0.6899  -2.9050  -2.9582 LP             1 S1                 0.0000
     55 ****         0.2861  -1.7846  -1.8409 LP             1 S1                 0.0000
     56 ****        -4.8222  -2.6221   1.4654 LP             1 S1                 0.0000
     57 ****        -5.3709  -0.9864   1.3116 LP             1 S1                 0.0000
     58 ****        -3.7863   0.7116   0.7214 LP             1 S1                 0.0000
@<TRIPOS>BOND
    1    1    2 1     
    2    1   30 1     
    3    1   31 1     
    4    1   32 1     
    5    2    3 1     
    6    2    4 1     
    7    2   33 1     
    8    3   34 1     
    9    3   35 1     
   10    3   36 1     
   11    4    5 2     
   12    4    6 am    
   13    6   37 1     
   14    6    7 1     
   15    7   25 1     
   16    7    8 2     
   17    8    9 1     
   18    9   13 1     
   19    9   10 2     
   20   10   11 1     
   21   10   23 1     
   22   11   12 2     
   23   12   13 1     
   24   12   38 1     
   25   13   14 1     
   26   14   26 1     
   27   14   21 1     
   28   14   15 1     
   29   15   16 1     
   30   16   27 1     
   31   16   17 1     
   32   16   19 1     
   33   17   18 1     
   34   17   39 1     
   35   17   40 1     
   36   18   41 1     
   37   19   28 1     
   38   19   20 1     
   39   19   21 1     
   40   20   42 1     
   41   21   29 1     
   42   21   22 1     
   43   22   43 1     
   44   23   24 2     
   45   23   25 1     
   46    5   44 1     
   47    5   45 1     
   48    8   46 1     
   49   11   47 1     
   50   15   48 1     
   51   15   49 1     
   52   18   50 1     
   53   18   51 1     
   54   20   52 1     
   55   20   53 1     
   56   22   54 1     
   57   22   55 1     
   58   24   56 1     
   59   24   57 1     
   60   25   58 1     
@<TRIPOS>SUBSTRUCTURE
      1 S1             1
@<TRIPOS>SET
LONE_PAIRS      STATIC     ATOMS    <user>   **** ""
15 44 45 46 47 48 49 50 51 52 53 54 55 56 57 58
DONOR_HYDROGENS      STATIC     ATOMS    <user>   **** ""
4 37 41 42 43
ATOM$BLUE        STATIC     ATOMS    COLORGROUP SYSTEM
15 44 45 46 47 48 49 50 51 52 53 54 55 56 57 58
ATOM$RED        STATIC     ATOMS    COLORGROUP SYSTEM
4 37 41 42 43
