AV-unprocessed.smi:1618|AV-procd|sdf|6486|dock4
  -GOLD-   22720 7153D 1   1.00000     0.00000
 Structure written by MMmdl.
 28 29  0  0  0  0  0  0  0  0  1 V2000
  153.4227  142.8805  163.0653 C   0  0  0  0  0  0  0  0  0  0  0  0
  153.2626  142.1511  161.7931 N   0  0  0  0  0  0  0  0  0  0  0  0
  152.3699  142.6382  160.8745 C   0  0  0  0  0  0  0  0  0  0  0  0
  151.6951  143.6579  161.0213 O   0  0  0  0  0  0  0  0  0  0  0  0
  152.2745  141.8327  159.6524 C   0  0  0  0  0  0  0  0  0  0  0  0
  153.0233  140.7211  159.4454 C   0  0  0  0  0  0  0  0  0  0  0  0
  152.7605  140.1532  158.2046 N   0  0  0  0  0  0  0  0  0  0  0  0
  151.8355  140.9818  157.7223 C   0  0  0  0  0  0  0  0  0  0  0  0
  151.1055  140.8281  156.1697 Cl  0  0  0  0  0  0  0  0  0  0  0  0
  151.4731  142.0104  158.5231 N   0  0  0  0  0  0  0  0  0  0  0  0
  150.4908  143.0541  158.2583 C   0  0  0  0  0  0  0  0  0  0  0  0
  151.1506  144.4349  158.1460 C   0  0  0  0  0  0  0  0  0  0  0  0
  150.3004  145.4153  158.6993 O   0  0  0  0  0  0  0  0  0  0  0  0
  153.9259  140.3091  160.4569 N   0  0  0  0  0  0  0  0  0  0  0  0
  154.7130  139.0997  160.1984 C   0  0  0  0  0  0  0  0  0  0  0  0
  154.0427  141.0191  161.6273 C   0  0  0  0  0  0  0  0  0  0  0  0
  154.8262  140.6557  162.5086 O   0  0  0  0  0  0  0  0  0  0  0  0
  152.7755  143.7505  163.1816 H   0  0  0  0  0  0  0  0  0  0  0  0
  154.4479  143.2387  163.1707 H   0  0  0  0  0  0  0  0  0  0  0  0
  153.2084  142.2243  163.9105 H   0  0  0  0  0  0  0  0  0  0  0  0
  149.9506  142.8164  157.3418 H   0  0  0  0  0  0  0  0  0  0  0  0
  149.7399  143.0458  159.0478 H   0  0  0  0  0  0  0  0  0  0  0  0
  152.1046  144.4531  158.6736 H   0  0  0  0  0  0  0  0  0  0  0  0
  151.3484  144.6838  157.1029 H   0  0  0  0  0  0  0  0  0  0  0  0
  149.5664  145.5403  158.1174 H   0  0  0  0  0  0  0  0  0  0  0  0
  155.3965  138.8248  161.0021 H   0  0  0  0  0  0  0  0  0  0  0  0
  155.3114  139.2315  159.2963 H   0  0  0  0  0  0  0  0  0  0  0  0
  154.0463  138.2521  160.0365 H   0  0  0  0  0  0  0  0  0  0  0  0
  1  2  1  0  0  0  0
  1 18  1  0  0  0  0
  1 19  1  0  0  0  0
  1 20  1  0  0  0  0
  2 16  1  0  0  0  0
  2  3  1  0  0  0  0
  3  4  2  0  0  0  0
  3  5  1  0  0  0  0
  5 10  1  0  0  0  0
  5  6  2  0  0  0  0
  6  7  1  0  0  0  0
  6 14  1  0  0  0  0
  7  8  2  0  0  0  0
  8  9  1  0  0  0  0
  8 10  1  0  0  0  0
 10 11  1  0  0  0  0
 11 12  1  0  0  0  0
 11 21  1  0  0  0  0
 11 22  1  0  0  0  0
 12 13  1  0  0  0  0
 12 23  1  0  0  0  0
 12 24  1  0  0  0  0
 13 25  1  0  0  0  0
 14 15  1  0  0  0  0
 14 16  1  0  0  0  0
 15 26  1  0  0  0  0
 15 27  1  0  0  0  0
 15 28  1  0  0  0  0
 16 17  2  0  0  0  0
M  END
> <s_m_source_file>
AV-unprocessed.smi

> <i_m_source_file_index>
1618

> <i_lp_mmshare_version>
43012

> <i_f3d_flags>
0

> <s_epik_input>
Tz1jMW4oW0NIM10pYyg9TyluKFtDSDNdKWMoYzEyKW5jKENsKW4yW0NIMl1bQ0gyXVtPSF0=

> <s_epik_cmdline>
J2VwaWtfcHl0aG9uJywgJy1waCcsICc3LjAnLCAnLXRuJywgJzgnLCAnLW1hJywgJzIwMCcsICctbWV0YWxfYmluZGluZycsICctaW1hZScsICc8aW5maWxlLm1hZT4nLCAnLW9tYWUnLCAnPG91dGZpbGUubWFlPic=

> <r_lp_tautomer_probability>
1

> <r_epik_Ionization_Penalty>
1.64879e-07

> <r_epik_Ionization_Penalty_Charging>
1.19961e-09

> <r_epik_Ionization_Penalty_Neutral>
1.63679e-07

> <r_epik_State_Penalty>
-0

> <r_epik_Charging_Adjusted_Penalty>
1.19961e-09

> <i_epik_Tot_Q>
0

> <i_epik_Tot_abs_Q>
0

> <r_epik_Metal_State_Penalty>
-0

> <b_epik_Metal_Only>
0

> <s_lp_Force_Field>
OPLS_2005

> <r_lp_Energy>
32.2378

> <b_lp_Chiralities_Consistent>
1

> <s_lp_Variant>
AV-unprocessed.smi:1618-1

> <Gold.Version>
5.8.1

> <Gold.Id.Protein>
6NUR|6NUR_protein|mol2

> <Gold.PLP.Fitness>
46.0778

> <Gold.PLP.PLP>
-40.6528

> <Gold.PLP.part.hbond>
-3.0000

> <Gold.PLP.part.metal>
0.0000

> <Gold.PLP.part.buried>
-4.8258

> <Gold.PLP.part.nonpolar>
-31.6793

> <Gold.PLP.part.repulsive>
0.1346

> <Gold.PLP.ligand.clash>
0.0000

> <Gold.PLP.ligand.torsion>
0.2756

> <Gold.PLP.Chemscore.Hbond>
1.9920

> <Gold.PLP.Chemscore.CHOScore>
0.0000

> <Gold.PLP.Chemscore.Metal>
0.0000

> <Gold.Chemscore.Hbonds>
donor molecule, donor type, donor heavy atom, donor atom, acceptor molecule, acceptor atom, score
      L1  H    13    25       P1  8029  1.00
      P1  H  7997  8010       L1     7  0.56

> <Gold.PLP.Chemscore.Internal.Correction>
0.0003

> <Gold.Rescore>
     Score         DG    S(hbond)    S(metal)    S(lipo)     H(rot)  DE(clash)    DE(int)     intcor
     10.77     -11.45       1.48        0.00      52.22       1.99       0.29       0.39       ----

> <Gold.Chemscore.Fitness>
10.7686

> <Gold.Chemscore.DG>
-11.4477

> <Gold.Chemscore.ZeroCoef>
-5.4800

> <Gold.Chemscore.Hbond>
1.4826

> <Gold.Chemscore.Metal>
0.0000

> <Gold.Chemscore.Lipo>
52.2196

> <Gold.Chemscore.Internal_Hbond>
0.0000

> <Gold.Chemscore.DEClash>
0.2861

> <Gold.Chemscore.DEInternal>
0.3930

> <Gold.Chemscore.Rot>
1.9898

> <Gold.Chemscore.Internal.Correction>
   9.000000E+99

> <Gold.Chemscore.Hbonds>
donor molecule, donor type, donor heavy atom, donor atom, acceptor molecule, acceptor atom, score
      L1  H    13    25       P1  8029  0.45
      P1  H  7997  8010       L1     7  0.33

> <Gold.Chemscore.Hbond.Weighted>
-4.9519

> <Gold.Chemscore.Metal.Weighted>
-0.0000

> <Gold.Chemscore.Lipo.Weighted>
-6.1097

> <Gold.Chemscore.Internal_Hbond.Weighted>
0.0000

> <Gold.Chemscore.DEClash.Weighted>
0.2861

> <Gold.Chemscore.DEInternal.Weighted>
0.3930

> <Gold.Chemscore.Rot.Weighted>
5.0939

> <Gold.Chemscore.Internal.Correction.Weighted>
   9.000000E+99

> <Gold.Protein.RotatedTorsions>
[ 6907 6896 6895 6894 ] final  133.86 input  -60.11 | X-H torsion
[ 7974 7965 7964 7962 ] final -109.05 input  175.53 | X-H torsion
[ 8008 7997 7996 7995 ] final   29.87 input   59.86 | X-H torsion
[ 10167 10162 10161 10158 ] final  -97.24 input  -65.29 | X-H torsion
[ 10718 10713 10712 10709 ] final  121.38 input   66.30 | X-H torsion
[ 10763 10752 10751 10750 ] final  -63.01 input  -60.55 | X-H torsion
[ 11005 11000 10999 10996 ] final  -32.66 input  -57.11 | X-H torsion

> <Gold.Protein.ActiveResidues>
 VAL166  LYS551  ARG553  GLY616  TRP617  ASP618  TYR619  PRO620  LYS621  CYS622 
 ASP623  PHE694  ASN695  SER759  ASP760  ASP761  ALA762  ILE779  LEU786  VAL792 
 PHE793  MET794  SER795  GLU796  ALA797  LYS798  CYS799  TRP800  GLU811  SER814 

> <Gold.Protein.RotatedAtoms>
  152.3175  133.5818  159.5721 H   0  0  0  0  0  0  0  0  0  0  0  0  # atno 6907 bound_to 6896
  150.7354  134.0060  159.3663 H   0  0  0  0  0  0  0  0  0  0  0  0  # atno 6908 bound_to 6896
  151.7948  135.0726  160.0443 H   0  0  0  0  0  0  0  0  0  0  0  0  # atno 6909 bound_to 6896
  145.1853  140.8990  143.3456 H   0  0  0  0  0  0  0  0  0  0  0  0  # atno 7974 bound_to 7965
  155.0814  140.3210  155.4600 H   0  0  0  0  0  0  0  0  0  0  0  0  # atno 8008 bound_to 7997
  156.2766  140.2094  156.5888 H   0  0  0  0  0  0  0  0  0  0  0  0  # atno 8009 bound_to 7997
  154.6975  140.0510  157.0413 H   0  0  0  0  0  0  0  0  0  0  0  0  # atno 8010 bound_to 7997
  140.2854  143.3255  152.0399 H   0  0  0  0  0  0  0  0  0  0  0  0  # atno 10167 bound_to 10162
  157.5822  131.1073  150.8166 H   0  0  0  0  0  0  0  0  0  0  0  0  # atno 10718 bound_to 10713
  154.3085  135.6220  153.5455 H   0  0  0  0  0  0  0  0  0  0  0  0  # atno 10763 bound_to 10752
  152.9832  135.5695  154.5203 H   0  0  0  0  0  0  0  0  0  0  0  0  # atno 10764 bound_to 10752
  154.4848  135.2864  155.1519 H   0  0  0  0  0  0  0  0  0  0  0  0  # atno 10765 bound_to 10752
  140.9571  133.7186  156.1310 H   0  0  0  0  0  0  0  0  0  0  0  0  # atno 11005 bound_to 11000
  145.0095  139.3523  143.6127 LP  0  0  0  0  0  0  0  0  0  0  0  0  # atno 17320 bound_to 7965
  146.3446  139.9352  142.8748 LP  0  0  0  0  0  0  0  0  0  0  0  0  # atno 17321 bound_to 7965
  139.4951  144.6562  151.6567 LP  0  0  0  0  0  0  0  0  0  0  0  0  # atno 17342 bound_to 10162
  140.5776  144.0001  150.6250 LP  0  0  0  0  0  0  0  0  0  0  0  0  # atno 17343 bound_to 10162
  156.8609  130.5113  149.5304 LP  0  0  0  0  0  0  0  0  0  0  0  0  # atno 17370 bound_to 10713
  156.0868  130.5864  150.9662 LP  0  0  0  0  0  0  0  0  0  0  0  0  # atno 17371 bound_to 10713
  140.7521  134.4034  157.5539 LP  0  0  0  0  0  0  0  0  0  0  0  0  # atno 17394 bound_to 11000
  139.8866  134.8906  156.2578 LP  0  0  0  0  0  0  0  0  0  0  0  0  # atno 17395 bound_to 11000

$$$$
