AV-unprocessed.smi:1840|AV-procd|sdf|7489|dock10
  -GOLD-   22720 9193D 1   1.00000     0.00000
 Structure written by MMmdl.
 43 44  0  0  0  0  0  0  0  0  1 V2000
  144.9276  135.8282  150.8047 C   0  0  0  0  0  0  0  0  0  0  0  0
  145.3765  135.5355  152.2438 C   0  0  1  0  0  0  0  0  0  0  0  0
  145.6898  134.0409  152.4498 C   0  0  0  0  0  0  0  0  0  0  0  0
  145.0981  133.2069  151.4183 N   0  0  0  0  0  0  0  0  0  0  0  0
  145.7232  132.3120  150.5755 C   0  0  0  0  0  0  0  0  0  0  0  0
  144.7578  131.7528  149.7884 C   0  0  0  0  0  0  0  0  0  0  0  0
  143.5586  132.3802  150.2281 C   0  0  0  0  0  0  0  0  0  0  0  0
  143.7656  133.2502  151.2034 N   0  0  0  0  0  0  0  0  0  0  0  0
  146.5533  136.3400  152.5663 N   0  0  0  0  0  0  0  0  0  0  0  0
  146.5815  137.3683  153.4250 C   0  0  0  0  0  0  0  0  0  0  0  0
  145.5952  137.7951  154.0254 O   0  0  0  0  0  0  0  0  0  0  0  0
  147.8203  137.8637  153.5574 N   0  0  0  0  0  0  0  0  0  0  0  0
  148.2110  138.9753  154.4233 C   0  0  2  0  0  0  0  0  0  0  0  0
  147.4331  140.2336  153.9896 C   0  0  0  0  0  0  0  0  0  0  0  0
  147.8373  141.4646  154.8131 C   0  0  0  0  0  0  0  0  0  0  0  0
  149.3499  141.7070  154.7293 C   0  0  0  0  0  0  0  0  0  0  0  0
  150.1309  140.4635  155.1800 C   0  0  0  0  0  0  0  0  0  0  0  0
  149.7433  139.2116  154.3661 C   0  0  1  0  0  0  0  0  0  0  0  0
  150.5541  137.9909  154.8386 C   0  0  0  0  0  0  0  0  0  0  0  0
  144.0357  135.2552  150.5496 H   0  0  0  0  0  0  0  0  0  0  0  0
  145.7056  135.5714  150.0852 H   0  0  0  0  0  0  0  0  0  0  0  0
  144.6873  136.8839  150.6741 H   0  0  0  0  0  0  0  0  0  0  0  0
  144.5549  135.8013  152.9118 H   0  0  0  0  0  0  0  0  0  0  0  0
  146.7687  133.8774  152.4431 H   0  0  0  0  0  0  0  0  0  0  0  0
  145.3303  133.7025  153.4227 H   0  0  0  0  0  0  0  0  0  0  0  0
  146.7897  132.1458  150.6096 H   0  0  0  0  0  0  0  0  0  0  0  0
  144.8885  131.0085  149.0172 H   0  0  0  0  0  0  0  0  0  0  0  0
  142.5505  132.2299  149.8706 H   0  0  0  0  0  0  0  0  0  0  0  0
  147.4195  136.0714  152.1228 H   0  0  0  0  0  0  0  0  0  0  0  0
  148.5589  137.4342  153.0198 H   0  0  0  0  0  0  0  0  0  0  0  0
  147.9351  138.7575  155.4568 H   0  0  0  0  0  0  0  0  0  0  0  0
  147.6127  140.4340  152.9320 H   0  0  0  0  0  0  0  0  0  0  0  0
  146.3609  140.0626  154.0925 H   0  0  0  0  0  0  0  0  0  0  0  0
  147.2987  142.3438  154.4583 H   0  0  0  0  0  0  0  0  0  0  0  0
  147.5456  141.3214  155.8543 H   0  0  0  0  0  0  0  0  0  0  0  0
  149.6253  141.9632  153.7055 H   0  0  0  0  0  0  0  0  0  0  0  0
  149.6239  142.5626  155.3471 H   0  0  0  0  0  0  0  0  0  0  0  0
  151.2003  140.6543  155.0836 H   0  0  0  0  0  0  0  0  0  0  0  0
  149.9452  140.2849  156.2400 H   0  0  0  0  0  0  0  0  0  0  0  0
  150.0168  139.4002  153.3267 H   0  0  0  0  0  0  0  0  0  0  0  0
  150.2885  137.7115  155.8586 H   0  0  0  0  0  0  0  0  0  0  0  0
  151.6240  138.1995  154.8192 H   0  0  0  0  0  0  0  0  0  0  0  0
  150.3856  137.1227  154.2015 H   0  0  0  0  0  0  0  0  0  0  0  0
  1  2  1  0  0  0  0
  1 20  1  0  0  0  0
  1 21  1  0  0  0  0
  1 22  1  0  0  0  0
  2  3  1  0  0  0  0
  2  9  1  0  0  0  0
  2 23  1  0  0  0  0
  3  4  1  0  0  0  0
  3 24  1  0  0  0  0
  3 25  1  0  0  0  0
  4  8  1  0  0  0  0
  4  5  1  0  0  0  0
  5  6  2  0  0  0  0
  5 26  1  0  0  0  0
  6  7  1  0  0  0  0
  6 27  1  0  0  0  0
  7  8  2  0  0  0  0
  7 28  1  0  0  0  0
  9 10  1  0  0  0  0
  9 29  1  0  0  0  0
 10 11  2  0  0  0  0
 10 12  1  0  0  0  0
 12 13  1  0  0  0  0
 12 30  1  0  0  0  0
 13 18  1  0  0  0  0
 13 14  1  0  0  0  0
 13 31  1  0  0  0  0
 14 15  1  0  0  0  0
 14 32  1  0  0  0  0
 14 33  1  0  0  0  0
 15 16  1  0  0  0  0
 15 34  1  0  0  0  0
 15 35  1  0  0  0  0
 16 17  1  0  0  0  0
 16 36  1  0  0  0  0
 16 37  1  0  0  0  0
 17 18  1  0  0  0  0
 17 38  1  0  0  0  0
 17 39  1  0  0  0  0
 18 19  1  0  0  0  0
 18 40  1  0  0  0  0
 19 41  1  0  0  0  0
 19 42  1  0  0  0  0
 19 43  1  0  0  0  0
M  END
> <s_m_source_file>
AV-unprocessed.smi

> <i_m_source_file_index>
1840

> <i_lp_mmshare_version>
43012

> <i_f3d_flags>
0

> <s_epik_input>
bjFbY0hdW2NIXVtjSF1uMVtDSDJdW0NAQEhdKFtDSDNdKVtOSF1DKD1PKVtOSF1bQ0BASF0yW0NIMl1bQ0gyXVtDSDJdW0NIMl1bQ0BIXTJbQ0gzXQ==

> <s_epik_cmdline>
J2VwaWtfcHl0aG9uJywgJy1waCcsICc3LjAnLCAnLXRuJywgJzgnLCAnLW1hJywgJzIwMCcsICctbWV0YWxfYmluZGluZycsICctaW1hZScsICc8aW5maWxlLm1hZT4nLCAnLW9tYWUnLCAnPG91dGZpbGUubWFlPic=

> <r_lp_tautomer_probability>
1

> <r_epik_Ionization_Penalty>
7.38659e-05

> <r_epik_Ionization_Penalty_Charging>
0

> <r_epik_Ionization_Penalty_Neutral>
7.38659e-05

> <r_epik_State_Penalty>
-0

> <r_epik_Charging_Adjusted_Penalty>
0

> <i_epik_Tot_Q>
0

> <i_epik_Tot_abs_Q>
0

> <r_epik_Metal_State_Penalty>
-0

> <b_epik_Metal_Only>
0

> <s_lp_Force_Field>
OPLS_2005

> <r_lp_Energy>
8.744

> <b_lp_Chiralities_Consistent>
1

> <s_lp_Variant>
AV-unprocessed.smi:1840-2

> <Gold.Version>
5.8.1

> <Gold.Id.Protein>
6NUR|6NUR_protein|mol2

> <Gold.PLP.Fitness>
43.2412

> <Gold.PLP.PLP>
-31.7180

> <Gold.PLP.part.hbond>
-1.9273

> <Gold.PLP.part.metal>
0.0000

> <Gold.PLP.part.buried>
0.3021

> <Gold.PLP.part.nonpolar>
-29.7149

> <Gold.PLP.part.repulsive>
0.3611

> <Gold.PLP.ligand.clash>
0.0000

> <Gold.PLP.ligand.torsion>
0.6536

> <Gold.PLP.Chemscore.Hbond>
1.9600

> <Gold.PLP.Chemscore.CHOScore>
2.3110

> <Gold.PLP.Chemscore.Metal>
0.0000

> <Gold.Chemscore.Hbonds>
donor molecule, donor type, donor heavy atom, donor atom, acceptor molecule, acceptor atom, score
      L1  H     9    29       P1  7948  1.00
      L1  H    12    30       P1  7948  0.94
      L1  C     5    26       P1 10747  0.94
      L1  C     7    28       P1 10186  0.46
      L1  C     7    28       P1 10952  0.91

> <Gold.PLP.Chemscore.Internal.Correction>
0.0174

> <Gold.Rescore>
     Score         DG    S(hbond)    S(metal)    S(lipo)     H(rot)  DE(clash)    DE(int)     intcor
     16.25     -18.23       1.91        0.00      88.67       1.56       0.09       1.90       ----

> <Gold.Chemscore.Fitness>
16.2469

> <Gold.Chemscore.DG>
-18.2340

> <Gold.Chemscore.ZeroCoef>
-5.4800

> <Gold.Chemscore.Hbond>
1.9063

> <Gold.Chemscore.Metal>
0.0000

> <Gold.Chemscore.Lipo>
88.6697

> <Gold.Chemscore.Internal_Hbond>
0.0000

> <Gold.Chemscore.DEClash>
0.0872

> <Gold.Chemscore.DEInternal>
1.8999

> <Gold.Chemscore.Rot>
1.5576

> <Gold.Chemscore.Internal.Correction>
   9.000000E+99

> <Gold.Chemscore.Hbonds>
donor molecule, donor type, donor heavy atom, donor atom, acceptor molecule, acceptor atom, score
      L1  H     9    29       P1  7948  0.92
      L1  H    12    30       P1  7948  0.91

> <Gold.Chemscore.Hbond.Weighted>
-6.3672

> <Gold.Chemscore.Metal.Weighted>
-0.0000

> <Gold.Chemscore.Lipo.Weighted>
-10.3744

> <Gold.Chemscore.Internal_Hbond.Weighted>
0.0000

> <Gold.Chemscore.DEClash.Weighted>
0.0872

> <Gold.Chemscore.DEInternal.Weighted>
1.8999

> <Gold.Chemscore.Rot.Weighted>
3.9875

> <Gold.Chemscore.Internal.Correction.Weighted>
   9.000000E+99

> <Gold.Protein.RotatedTorsions>
[ 6907 6896 6895 6894 ] final  -14.92 input  -60.11 | X-H torsion
[ 7974 7965 7964 7962 ] final  142.40 input  175.53 | X-H torsion
[ 8008 7997 7996 7995 ] final -145.20 input   59.86 | X-H torsion
[ 10167 10162 10161 10158 ] final  165.44 input  -65.29 | X-H torsion
[ 10718 10713 10712 10709 ] final   40.46 input   66.30 | X-H torsion
[ 10763 10752 10751 10750 ] final  116.97 input  -60.55 | X-H torsion
[ 11005 11000 10999 10996 ] final  -86.03 input  -57.11 | X-H torsion

> <Gold.Protein.ActiveResidues>
 VAL166  LYS551  ARG553  GLY616  TRP617  ASP618  TYR619  PRO620  LYS621  CYS622 
 ASP623  PHE694  ASN695  SER759  ASP760  ASP761  ALA762  ILE779  LEU786  VAL792 
 PHE793  MET794  SER795  GLU796  ALA797  LYS798  CYS799  TRP800  GLU811  SER814 

> <Gold.Protein.RotatedAtoms>
  151.3320  135.0844  159.9341 H   0  0  0  0  0  0  0  0  0  0  0  0  # atno 6907 bound_to 6896
  152.5232  133.9534  159.7693 H   0  0  0  0  0  0  0  0  0  0  0  0  # atno 6908 bound_to 6896
  150.9874  133.6131  159.2743 H   0  0  0  0  0  0  0  0  0  0  0  0  # atno 6909 bound_to 6896
  144.9011  139.5422  143.5753 H   0  0  0  0  0  0  0  0  0  0  0  0  # atno 7974 bound_to 7965
  155.5393  140.0606  157.2873 H   0  0  0  0  0  0  0  0  0  0  0  0  # atno 8008 bound_to 7997
  154.4457  140.1922  156.0619 H   0  0  0  0  0  0  0  0  0  0  0  0  # atno 8009 bound_to 7997
  156.0596  140.3274  155.7449 H   0  0  0  0  0  0  0  0  0  0  0  0  # atno 8010 bound_to 7997
  139.4906  144.4132  151.9275 H   0  0  0  0  0  0  0  0  0  0  0  0  # atno 10167 bound_to 10162
  157.3824  130.7761  149.7203 H   0  0  0  0  0  0  0  0  0  0  0  0  # atno 10718 bound_to 10713
  153.5453  135.3550  155.2736 H   0  0  0  0  0  0  0  0  0  0  0  0  # atno 10763 bound_to 10752
  154.8713  135.4101  154.2998 H   0  0  0  0  0  0  0  0  0  0  0  0  # atno 10764 bound_to 10752
  153.3713  135.7064  153.6704 H   0  0  0  0  0  0  0  0  0  0  0  0  # atno 10765 bound_to 10752
  141.1635  133.7432  156.9101 H   0  0  0  0  0  0  0  0  0  0  0  0  # atno 11005 bound_to 11000
  146.3109  139.7742  142.9021 LP  0  0  0  0  0  0  0  0  0  0  0  0  # atno 17320 bound_to 7965
  145.3615  141.0326  143.3282 LP  0  0  0  0  0  0  0  0  0  0  0  0  # atno 17321 bound_to 7965
  140.3574  144.3015  150.5939 LP  0  0  0  0  0  0  0  0  0  0  0  0  # atno 17342 bound_to 10162
  140.5433  143.2219  151.8049 LP  0  0  0  0  0  0  0  0  0  0  0  0  # atno 17343 bound_to 10162
  155.9779  130.4058  150.3684 LP  0  0  0  0  0  0  0  0  0  0  0  0  # atno 17370 bound_to 10713
  157.1789  131.0387  151.2758 LP  0  0  0  0  0  0  0  0  0  0  0  0  # atno 17371 bound_to 10713
  140.1522  134.9222  157.2608 LP  0  0  0  0  0  0  0  0  0  0  0  0  # atno 17394 bound_to 11000
  140.2709  134.3461  155.7374 LP  0  0  0  0  0  0  0  0  0  0  0  0  # atno 17395 bound_to 11000

$$$$
