AV-unprocessed.smi:480|AV-procd|sdf|2676|dock5
  -GOLD-   2262023 93D 1   1.00000     0.00000
 Structure written by MMmdl.
 46 48  0  0  0  0  0  0  0  0  1 V2000
  153.2170  138.7457  154.5246 C   0  0  0  0  0  0  0  0  0  0  0  0
  151.8655  138.7869  155.2488 C   0  0  0  0  0  0  0  0  0  0  0  0
  151.7776  139.8955  156.2590 C   0  0  0  0  0  0  0  0  0  0  0  0
  152.6175  139.9342  157.2953 N   0  0  0  0  0  0  0  0  0  0  0  0
  152.2213  141.0684  157.9734 C   0  0  0  0  0  0  0  0  0  0  0  0
  152.7209  141.6510  159.1602 C   0  0  0  0  0  0  0  0  0  0  0  0
  152.1465  142.8331  159.6717 C   0  0  0  0  0  0  0  0  0  0  0  0
  151.0674  143.4483  159.0045 C   0  0  0  0  0  0  0  0  0  0  0  0
  150.5562  142.8844  157.8198 C   0  0  0  0  0  0  0  0  0  0  0  0
  151.1328  141.7034  157.3137 C   0  0  0  0  0  0  0  0  0  0  0  0
  150.8748  140.9126  156.1972 N   0  0  0  0  0  0  0  0  0  0  0  0
  149.8428  141.1904  155.2034 C   0  0  0  0  0  0  0  0  0  0  0  0
  148.4219  141.2106  155.8006 C   0  0  2  0  0  0  0  0  0  0  0  0
  148.3051  140.1749  156.7544 O   0  0  0  0  0  0  0  0  0  0  0  0
  147.3492  141.0021  154.7195 C   0  0  0  0  0  0  0  0  0  0  0  0
  147.1724  142.2154  153.9996 O   0  0  0  0  0  0  0  0  0  0  0  0
  146.1015  143.0187  154.3296 C   0  0  0  0  0  0  0  0  0  0  0  0
  145.4497  143.0019  155.5891 C   0  0  0  0  0  0  0  0  0  0  0  0
  144.3585  143.8564  155.8399 C   0  0  0  0  0  0  0  0  0  0  0  0
  143.9028  144.7378  154.8402 C   0  0  0  0  0  0  0  0  0  0  0  0
  142.7312  145.6580  155.1116 C   0  0  0  0  0  0  0  0  0  0  0  0
  141.6408  145.4587  154.1450 C   0  0  0  0  0  0  0  0  0  0  0  0
  140.7829  145.3023  153.3845 N   0  0  0  0  0  0  0  0  0  0  0  0
  144.5463  144.7617  153.5876 C   0  0  0  0  0  0  0  0  0  0  0  0
  145.6375  143.9075  153.3381 C   0  0  0  0  0  0  0  0  0  0  0  0
  153.2414  137.9360  153.7953 H   0  0  0  0  0  0  0  0  0  0  0  0
  154.0387  138.5889  155.2219 H   0  0  0  0  0  0  0  0  0  0  0  0
  153.4061  139.6776  153.9911 H   0  0  0  0  0  0  0  0  0  0  0  0
  151.0718  138.9346  154.5157 H   0  0  0  0  0  0  0  0  0  0  0  0
  151.6670  137.8190  155.7013 H   0  0  0  0  0  0  0  0  0  0  0  0
  153.5477  141.1873  159.6771 H   0  0  0  0  0  0  0  0  0  0  0  0
  152.5359  143.2701  160.5795 H   0  0  0  0  0  0  0  0  0  0  0  0
  150.6326  144.3537  159.4022 H   0  0  0  0  0  0  0  0  0  0  0  0
  149.7305  143.3539  157.3062 H   0  0  0  0  0  0  0  0  0  0  0  0
  150.0652  142.1663  154.7703 H   0  0  0  0  0  0  0  0  0  0  0  0
  149.9059  140.4900  154.3737 H   0  0  0  0  0  0  0  0  0  0  0  0
  148.2576  142.1681  156.2968 H   0  0  0  0  0  0  0  0  0  0  0  0
  148.0587  140.5578  157.5827 H   0  0  0  0  0  0  0  0  0  0  0  0
  147.6910  140.2372  154.0204 H   0  0  0  0  0  0  0  0  0  0  0  0
  146.4131  140.6553  155.1613 H   0  0  0  0  0  0  0  0  0  0  0  0
  145.7677  142.3422  156.3819 H   0  0  0  0  0  0  0  0  0  0  0  0
  143.8719  143.8333  156.8039 H   0  0  0  0  0  0  0  0  0  0  0  0
  142.3413  145.4808  156.1144 H   0  0  0  0  0  0  0  0  0  0  0  0
  143.0504  146.6992  155.0629 H   0  0  0  0  0  0  0  0  0  0  0  0
  144.2053  145.4362  152.8159 H   0  0  0  0  0  0  0  0  0  0  0  0
  146.1232  143.9339  152.3735 H   0  0  0  0  0  0  0  0  0  0  0  0
  1  2  1  0  0  0  0
  1 26  1  0  0  0  0
  1 27  1  0  0  0  0
  1 28  1  0  0  0  0
  2  3  1  0  0  0  0
  2 29  1  0  0  0  0
  2 30  1  0  0  0  0
  3 11  1  0  0  0  0
  3  4  2  0  0  0  0
  4  5  1  0  0  0  0
  5 10  2  0  0  0  0
  5  6  1  0  0  0  0
  6  7  2  0  0  0  0
  6 31  1  0  0  0  0
  7  8  1  0  0  0  0
  7 32  1  0  0  0  0
  8  9  2  0  0  0  0
  8 33  1  0  0  0  0
  9 10  1  0  0  0  0
  9 34  1  0  0  0  0
 10 11  1  0  0  0  0
 11 12  1  0  0  0  0
 12 13  1  0  0  0  0
 12 35  1  0  0  0  0
 12 36  1  0  0  0  0
 13 14  1  0  0  0  0
 13 15  1  0  0  0  0
 13 37  1  0  0  0  0
 14 38  1  0  0  0  0
 15 16  1  0  0  0  0
 15 39  1  0  0  0  0
 15 40  1  0  0  0  0
 16 17  1  0  0  0  0
 17 25  1  0  0  0  0
 17 18  2  0  0  0  0
 18 19  1  0  0  0  0
 18 41  1  0  0  0  0
 19 20  2  0  0  0  0
 19 42  1  0  0  0  0
 20 21  1  0  0  0  0
 20 24  1  0  0  0  0
 21 22  1  0  0  0  0
 21 43  1  0  0  0  0
 21 44  1  0  0  0  0
 22 23  3  0  0  0  0
 24 25  2  0  0  0  0
 24 45  1  0  0  0  0
 25 46  1  0  0  0  0
M  END
> <s_m_source_file>
AV-unprocessed.smi

> <i_m_source_file_index>
480

> <i_lp_mmshare_version>
43012

> <i_f3d_flags>
0

> <s_epik_input>
W2NIXTFbY0hdW2NIXVtjSF1jKGMxMiluKGMobjIpW0NIMl1bQ0gzXSlbQ0gyXVtDQEhdKFtPSF0pW0NIMl1PYzNbY0hdW2NIXWMoW0NIMl1DI04pW2NIXVtjSF0z

> <s_epik_cmdline>
J2VwaWtfcHl0aG9uJywgJy1waCcsICc3LjAnLCAnLXRuJywgJzgnLCAnLW1hJywgJzIwMCcsICctbWV0YWxfYmluZGluZycsICctaW1hZScsICc8aW5maWxlLm1hZT4nLCAnLW9tYWUnLCAnPG91dGZpbGUubWFlPic=

> <r_lp_tautomer_probability>
1

> <r_epik_Ionization_Penalty>
0.114213

> <r_epik_Ionization_Penalty_Charging>
0

> <r_epik_Ionization_Penalty_Neutral>
0.114213

> <r_epik_State_Penalty>
0.103875

> <r_epik_Charging_Adjusted_Penalty>
0.103875

> <i_epik_Tot_Q>
0

> <i_epik_Tot_abs_Q>
0

> <r_epik_Metal_State_Penalty>
0.000113526

> <b_epik_Metal_Only>
0

> <s_lp_Force_Field>
OPLS_2005

> <r_lp_Energy>
17.1637

> <b_lp_Chiralities_Consistent>
1

> <s_lp_Variant>
AV-unprocessed.smi:480-1

> <Gold.Version>
5.8.1

> <Gold.Id.Protein>
6NUR|6NUR_protein|mol2

> <Gold.PLP.Fitness>
54.0502

> <Gold.PLP.PLP>
-51.3771

> <Gold.PLP.part.hbond>
-3.0000

> <Gold.PLP.part.metal>
0.0000

> <Gold.PLP.part.buried>
-6.5464

> <Gold.PLP.part.nonpolar>
-43.2960

> <Gold.PLP.part.repulsive>
0.2772

> <Gold.PLP.ligand.clash>
0.0000

> <Gold.PLP.ligand.torsion>
0.9633

> <Gold.PLP.Chemscore.Hbond>
1.4441

> <Gold.PLP.Chemscore.CHOScore>
0.0000

> <Gold.PLP.Chemscore.Metal>
0.0000

> <Gold.Chemscore.Hbonds>
donor molecule, donor type, donor heavy atom, donor atom, acceptor molecule, acceptor atom, score
      P1  H  7997  8009       L1     4  0.99
      P1  H 10162 10167       L1    23  0.45

> <Gold.PLP.Chemscore.Internal.Correction>
0.2674

> <Gold.Rescore>
     Score         DG    S(hbond)    S(metal)    S(lipo)     H(rot)  DE(clash)    DE(int)     intcor
     16.94     -18.36       1.41        0.00     126.32       2.58       0.39       1.03       ----

> <Gold.Chemscore.Fitness>
16.9409

> <Gold.Chemscore.DG>
-18.3601

> <Gold.Chemscore.ZeroCoef>
-5.4800

> <Gold.Chemscore.Hbond>
1.4058

> <Gold.Chemscore.Metal>
0.0000

> <Gold.Chemscore.Lipo>
126.3162

> <Gold.Chemscore.Internal_Hbond>
0.0000

> <Gold.Chemscore.DEClash>
0.3909

> <Gold.Chemscore.DEInternal>
1.0284

> <Gold.Chemscore.Rot>
2.5759

> <Gold.Chemscore.Internal.Correction>
   9.000000E+99

> <Gold.Chemscore.Hbonds>
donor molecule, donor type, donor heavy atom, donor atom, acceptor molecule, acceptor atom, score
      P1  H  7997  8009       L1     4  0.32
      P1  H 10162 10167       L1    23  0.42

> <Gold.Chemscore.Hbond.Weighted>
-4.6955

> <Gold.Chemscore.Metal.Weighted>
-0.0000

> <Gold.Chemscore.Lipo.Weighted>
-14.7790

> <Gold.Chemscore.Internal_Hbond.Weighted>
0.0000

> <Gold.Chemscore.DEClash.Weighted>
0.3909

> <Gold.Chemscore.DEInternal.Weighted>
1.0284

> <Gold.Chemscore.Rot.Weighted>
6.5943

> <Gold.Chemscore.Internal.Correction.Weighted>
   9.000000E+99

> <Gold.Protein.RotatedTorsions>
[ 6907 6896 6895 6894 ] final    2.07 input  -60.11 | X-H torsion
[ 7974 7965 7964 7962 ] final -123.67 input  175.53 | X-H torsion
[ 8008 7997 7996 7995 ] final -167.34 input   59.86 | X-H torsion
[ 10167 10162 10161 10158 ] final -160.94 input  -65.29 | X-H torsion
[ 10718 10713 10712 10709 ] final   -6.09 input   66.30 | X-H torsion
[ 10763 10752 10751 10750 ] final  -38.62 input  -60.55 | X-H torsion
[ 11005 11000 10999 10996 ] final  154.73 input  -57.11 | X-H torsion

> <Gold.Protein.ActiveResidues>
 VAL166  LYS551  ARG553  GLY616  TRP617  ASP618  TYR619  PRO620  LYS621  CYS622 
 ASP623  PHE694  ASN695  SER759  ASP760  ASP761  ALA762  ILE779  LEU786  VAL792 
 PHE793  MET794  SER795  GLU796  ALA797  LYS798  CYS799  TRP800  GLU811  SER814 

> <Gold.Protein.RotatedAtoms>
  151.6029  135.1046  160.0063 H   0  0  0  0  0  0  0  0  0  0  0  0  # atno 6907 bound_to 6896
  152.4248  133.7173  159.6524 H   0  0  0  0  0  0  0  0  0  0  0  0  # atno 6908 bound_to 6896
  150.8137  133.8303  159.3192 H   0  0  0  0  0  0  0  0  0  0  0  0  # atno 6909 bound_to 6896
  145.0162  140.7948  143.4409 H   0  0  0  0  0  0  0  0  0  0  0  0  # atno 7974 bound_to 7965
  155.8764  140.1001  157.1515 H   0  0  0  0  0  0  0  0  0  0  0  0  # atno 8008 bound_to 7997
  154.4001  140.1337  156.4205 H   0  0  0  0  0  0  0  0  0  0  0  0  # atno 8009 bound_to 7997
  155.7693  140.3461  155.5241 H   0  0  0  0  0  0  0  0  0  0  0  0  # atno 8010 bound_to 7997
  139.6502  144.0098  152.2156 H   0  0  0  0  0  0  0  0  0  0  0  0  # atno 10167 bound_to 10162
  156.7370  130.5197  149.5832 H   0  0  0  0  0  0  0  0  0  0  0  0  # atno 10718 bound_to 10713
  153.9158  135.6787  153.4749 H   0  0  0  0  0  0  0  0  0  0  0  0  # atno 10763 bound_to 10752
  153.1054  135.4808  154.8939 H   0  0  0  0  0  0  0  0  0  0  0  0  # atno 10764 bound_to 10752
  154.7503  135.3183  154.8525 H   0  0  0  0  0  0  0  0  0  0  0  0  # atno 10765 bound_to 10752
  140.1516  134.8671  157.2462 H   0  0  0  0  0  0  0  0  0  0  0  0  # atno 11005 bound_to 11000
  145.1957  139.2278  143.5219 LP  0  0  0  0  0  0  0  0  0  0  0  0  # atno 17320 bound_to 7965
  146.3478  140.1763  142.8589 LP  0  0  0  0  0  0  0  0  0  0  0  0  # atno 17321 bound_to 7965
  139.9810  144.6428  150.7900 LP  0  0  0  0  0  0  0  0  0  0  0  0  # atno 17342 bound_to 10162
  140.7534  143.3007  151.3087 LP  0  0  0  0  0  0  0  0  0  0  0  0  # atno 17343 bound_to 10162
  156.1490  130.6297  151.0570 LP  0  0  0  0  0  0  0  0  0  0  0  0  # atno 17370 bound_to 10713
  157.6835  131.0831  150.7307 LP  0  0  0  0  0  0  0  0  0  0  0  0  # atno 17371 bound_to 10713
  140.2597  134.3585  155.7411 LP  0  0  0  0  0  0  0  0  0  0  0  0  # atno 17394 bound_to 11000
  141.2199  133.7363  156.9062 LP  0  0  0  0  0  0  0  0  0  0  0  0  # atno 17395 bound_to 11000

$$$$
