AV-unprocessed.smi:2427|AV-procd|sdf|9578|dock9
  -GOLD-   2272013213D 1   1.00000     0.00000
 Structure written by MMmdl.
 35 36  0  0  0  0  0  0  0  0  3 V2000
  146.0843  138.1365  155.0921 O   0  0  0  0  0  0  0  0  0  0  0  0
  146.7243  137.8926  154.0682 C   0  0  0  0  0  0  0  0  0  0  0  0
  147.4192  139.0207  153.2934 C   0  0  0  0  0  0  0  0  0  0  0  0
  148.5394  139.6210  154.0372 N   0  0  0  0  0  0  0  0  0  0  0  0
  149.6819  138.8205  154.2338 C   0  0  0  0  0  0  0  0  0  0  0  0
  150.7614  139.2663  154.9059 C   0  0  0  0  0  0  0  0  0  0  0  0
  151.9234  138.4281  155.1049 N   0  3  0  0  0  0  0  0  0  0  0  0
  152.9766  138.9546  155.4483 O   0  0  0  0  0  0  0  0  0  0  0  0
  151.8232  137.2181  154.9246 O   0  5  0  0  0  0  0  0  0  0  0  0
  150.7186  140.6181  155.4294 C   0  0  0  0  0  0  0  0  0  0  0  0
  149.6269  141.3871  155.2488 C   0  0  0  0  0  0  0  0  0  0  0  0
  148.4507  140.8973  154.5229 C   0  0  0  0  0  0  0  0  0  0  0  0
  147.4466  141.5917  154.3615 O   0  0  0  0  0  0  0  0  0  0  0  0
  146.8719  136.6566  153.5680 N   0  0  0  0  0  0  0  0  0  0  0  0
  146.2782  135.4432  154.1200 C   0  0  0  0  0  0  0  0  0  0  0  0
  145.5795  134.6062  153.0343 C   0  0  2  0  0  0  0  0  0  0  0  0
  146.5148  133.9083  152.0461 C   0  0  0  0  0  0  0  0  0  0  0  0
  145.6026  133.7087  150.8580 C   0  0  0  0  0  0  0  0  0  0  0  0
  144.7837  134.9972  150.8691 C   0  0  0  0  0  0  0  0  0  0  0  0
  144.7555  135.4397  152.2247 O   0  0  0  0  0  0  0  0  0  0  0  0
  147.7609  138.6167  152.3395 H   0  0  0  0  0  0  0  0  0  0  0  0
  146.6901  139.7904  153.0321 H   0  0  0  0  0  0  0  0  0  0  0  0
  149.6121  137.8280  153.8125 H   0  0  0  0  0  0  0  0  0  0  0  0
  151.5611  141.0231  155.9708 H   0  0  0  0  0  0  0  0  0  0  0  0
  149.6162  142.3908  155.6480 H   0  0  0  0  0  0  0  0  0  0  0  0
  147.4213  136.5495  152.7277 H   0  0  0  0  0  0  0  0  0  0  0  0
  147.0814  134.8573  154.5669 H   0  0  0  0  0  0  0  0  0  0  0  0
  145.5854  135.6769  154.9300 H   0  0  0  0  0  0  0  0  0  0  0  0
  144.9306  133.8619  153.4993 H   0  0  0  0  0  0  0  0  0  0  0  0
  147.3442  134.5620  151.7725 H   0  0  0  0  0  0  0  0  0  0  0  0
  146.9259  132.9751  152.4324 H   0  0  0  0  0  0  0  0  0  0  0  0
  146.1409  133.5532  149.9227 H   0  0  0  0  0  0  0  0  0  0  0  0
  144.9532  132.8485  151.0267 H   0  0  0  0  0  0  0  0  0  0  0  0
  145.2702  135.7647  150.2660 H   0  0  0  0  0  0  0  0  0  0  0  0
  143.7765  134.8488  150.4790 H   0  0  0  0  0  0  0  0  0  0  0  0
  1  2  2  0  0  0  0
  2  3  1  0  0  0  0
  2 14  1  0  0  0  0
  3  4  1  0  0  0  0
  3 21  1  0  0  0  0
  3 22  1  0  0  0  0
  4 12  1  0  0  0  0
  4  5  1  0  0  0  0
  5  6  2  0  0  0  0
  5 23  1  0  0  0  0
  6  7  1  0  0  0  0
  6 10  1  0  0  0  0
  7  8  2  0  0  0  0
  7  9  1  0  0  0  0
 10 11  2  0  0  0  0
 10 24  1  0  0  0  0
 11 12  1  0  0  0  0
 11 25  1  0  0  0  0
 12 13  2  0  0  0  0
 14 15  1  0  0  0  0
 14 26  1  0  0  0  0
 15 16  1  0  0  0  0
 15 27  1  0  0  0  0
 15 28  1  0  0  0  0
 16 20  1  0  0  0  0
 16 17  1  0  0  0  0
 16 29  1  0  0  0  0
 17 18  1  0  0  0  0
 17 30  1  0  0  0  0
 17 31  1  0  0  0  0
 18 19  1  0  0  0  0
 18 32  1  0  0  0  0
 18 33  1  0  0  0  0
 19 20  1  0  0  0  0
 19 34  1  0  0  0  0
 19 35  1  0  0  0  0
M  CHG  1   7   1
M  CHG  1   9  -1
M  END
> <s_m_source_file>
AV-unprocessed.smi

> <i_m_source_file_index>
2427

> <i_lp_mmshare_version>
43012

> <i_f3d_flags>
0

> <s_epik_input>
TzFbQ0gyXVtDSDJdW0NIMl1bQ0BIXTFbQ0gyXVtOSF1DKD1PKVtDSDJdbjJbY0hdYyhbTitdKD1PKVtPLV0pW2NIXVtjSF1jMj1P

> <s_epik_cmdline>
J2VwaWtfcHl0aG9uJywgJy1waCcsICc3LjAnLCAnLXRuJywgJzgnLCAnLW1hJywgJzIwMCcsICctbWV0YWxfYmluZGluZycsICctaW1hZScsICc8aW5maWxlLm1hZT4nLCAnLW9tYWUnLCAnPG91dGZpbGUubWFlPic=

> <r_lp_tautomer_probability>
1

> <r_epik_Ionization_Penalty>
2.69366e-08

> <r_epik_Ionization_Penalty_Charging>
7.76344e-11

> <r_epik_Ionization_Penalty_Neutral>
2.6859e-08

> <r_epik_State_Penalty>
-0

> <r_epik_Charging_Adjusted_Penalty>
7.76344e-11

> <i_epik_Tot_Q>
0

> <i_epik_Tot_abs_Q>
2

> <r_epik_Metal_State_Penalty>
-0

> <b_epik_Metal_Only>
0

> <s_lp_Force_Field>
OPLS_2005

> <r_lp_Energy>
28.4558

> <b_lp_Chiralities_Consistent>
1

> <s_lp_Variant>
AV-unprocessed.smi:2427-1

> <Gold.Version>
5.8.1

> <Gold.Id.Protein>
6NUR|6NUR_protein|mol2

> <Gold.PLP.Fitness>
43.5364

> <Gold.PLP.PLP>
-32.4949

> <Gold.PLP.part.hbond>
-3.0000

> <Gold.PLP.part.metal>
0.0000

> <Gold.PLP.part.buried>
-1.9665

> <Gold.PLP.part.nonpolar>
-28.0273

> <Gold.PLP.part.repulsive>
0.4063

> <Gold.PLP.ligand.clash>
0.0000

> <Gold.PLP.ligand.torsion>
0.3837

> <Gold.PLP.Chemscore.Hbond>
2.9280

> <Gold.PLP.Chemscore.CHOScore>
0.9984

> <Gold.PLP.Chemscore.Metal>
0.0000

> <Gold.Chemscore.Hbonds>
donor molecule, donor type, donor heavy atom, donor atom, acceptor molecule, acceptor atom, score
      L1  H    14    26       P1  7948  1.00
      P1  H  7997  8008       L1     8  0.99
      P1  H 10752 10763       L1     9  0.99
      L1  C     5    23       P1  7948  0.89

> <Gold.PLP.Chemscore.Internal.Correction>
0.0299

> <Gold.Rescore>
     Score         DG    S(hbond)    S(metal)    S(lipo)     H(rot)  DE(clash)    DE(int)     intcor
     16.10     -16.73       2.84        0.00      56.67       1.90       0.04       0.59       ----

> <Gold.Chemscore.Fitness>
16.0960

> <Gold.Chemscore.DG>
-16.7298

> <Gold.Chemscore.ZeroCoef>
-5.4800

> <Gold.Chemscore.Hbond>
2.8429

> <Gold.Chemscore.Metal>
0.0000

> <Gold.Chemscore.Lipo>
56.6657

> <Gold.Chemscore.Internal_Hbond>
0.0000

> <Gold.Chemscore.DEClash>
0.0402

> <Gold.Chemscore.DEInternal>
0.5935

> <Gold.Chemscore.Rot>
1.9044

> <Gold.Chemscore.Internal.Correction>
   9.000000E+99

> <Gold.Chemscore.Hbonds>
donor molecule, donor type, donor heavy atom, donor atom, acceptor molecule, acceptor atom, score
      L1  H    14    26       P1  7948  0.97
      P1  H  7997  8008       L1     8  0.89
      P1  H 10752 10763       L1     9  0.92

> <Gold.Chemscore.Hbond.Weighted>
-9.4952

> <Gold.Chemscore.Metal.Weighted>
-0.0000

> <Gold.Chemscore.Lipo.Weighted>
-6.6299

> <Gold.Chemscore.Internal_Hbond.Weighted>
0.0000

> <Gold.Chemscore.DEClash.Weighted>
0.0402

> <Gold.Chemscore.DEInternal.Weighted>
0.5935

> <Gold.Chemscore.Rot.Weighted>
4.8753

> <Gold.Chemscore.Internal.Correction.Weighted>
   9.000000E+99

> <Gold.Protein.RotatedTorsions>
[ 6907 6896 6895 6894 ] final   84.86 input  -60.11 | X-H torsion
[ 7974 7965 7964 7962 ] final  146.78 input  175.53 | X-H torsion
[ 8008 7997 7996 7995 ] final   -8.88 input   59.86 | X-H torsion
[ 10167 10162 10161 10158 ] final  -19.12 input  -65.29 | X-H torsion
[ 10718 10713 10712 10709 ] final  146.86 input   66.30 | X-H torsion
[ 10763 10752 10751 10750 ] final   52.67 input  -60.55 | X-H torsion
[ 11005 11000 10999 10996 ] final -164.56 input  -57.11 | X-H torsion

> <Gold.Protein.ActiveResidues>
 VAL166  LYS551  ARG553  GLY616  TRP617  ASP618  TYR619  PRO620  LYS621  CYS622 
 ASP623  PHE694  ASN695  SER759  ASP760  ASP761  ALA762  ILE779  LEU786  VAL792 
 PHE793  MET794  SER795  GLU796  ALA797  LYS798  CYS799  TRP800  GLU811  SER814 

> <Gold.Protein.RotatedAtoms>
  152.5362  134.2676  159.8958 H   0  0  0  0  0  0  0  0  0  0  0  0  # atno 6907 bound_to 6896
  151.2634  133.4284  159.2625 H   0  0  0  0  0  0  0  0  0  0  0  0  # atno 6908 bound_to 6896
  151.0432  134.9636  159.8229 H   0  0  0  0  0  0  0  0  0  0  0  0  # atno 6909 bound_to 6896
  144.8644  139.5947  143.5916 H   0  0  0  0  0  0  0  0  0  0  0  0  # atno 7974 bound_to 7965
  154.5700  140.2369  155.8206 H   0  0  0  0  0  0  0  0  0  0  0  0  # atno 8008 bound_to 7997
  156.2099  140.3029  155.9666 H   0  0  0  0  0  0  0  0  0  0  0  0  # atno 8009 bound_to 7997
  155.2731  140.0419  157.2999 H   0  0  0  0  0  0  0  0  0  0  0  0  # atno 8010 bound_to 7997
  140.7265  143.4849  151.0068 H   0  0  0  0  0  0  0  0  0  0  0  0  # atno 10167 bound_to 10162
  157.3280  131.0915  151.1186 H   0  0  0  0  0  0  0  0  0  0  0  0  # atno 10718 bound_to 10713
  152.9790  135.5804  154.4617 H   0  0  0  0  0  0  0  0  0  0  0  0  # atno 10763 bound_to 10752
  154.4192  135.2771  155.1988 H   0  0  0  0  0  0  0  0  0  0  0  0  # atno 10764 bound_to 10752
  154.3745  135.6160  153.5811 H   0  0  0  0  0  0  0  0  0  0  0  0  # atno 10765 bound_to 10752
  140.5855  134.5098  157.5185 H   0  0  0  0  0  0  0  0  0  0  0  0  # atno 11005 bound_to 11000
  146.2884  139.7070  142.9178 LP  0  0  0  0  0  0  0  0  0  0  0  0  # atno 17320 bound_to 7965
  145.4250  141.0410  143.2942 LP  0  0  0  0  0  0  0  0  0  0  0  0  # atno 17321 bound_to 7965
  139.8550  143.7388  152.3176 LP  0  0  0  0  0  0  0  0  0  0  0  0  # atno 17342 bound_to 10162
  139.7584  144.7514  151.0401 LP  0  0  0  0  0  0  0  0  0  0  0  0  # atno 17343 bound_to 10162
  157.2445  130.6585  149.5904 LP  0  0  0  0  0  0  0  0  0  0  0  0  # atno 17370 bound_to 10713
  155.9692  130.4558  150.5901 LP  0  0  0  0  0  0  0  0  0  0  0  0  # atno 17371 bound_to 10713
  139.9298  134.7986  156.0964 LP  0  0  0  0  0  0  0  0  0  0  0  0  # atno 17394 bound_to 11000
  141.0969  133.6692  156.2665 LP  0  0  0  0  0  0  0  0  0  0  0  0  # atno 17395 bound_to 11000

$$$$
