#       Name:                AV-unprocessed.smi:232
#       Creating user name   scv26
#       Creation time:       Thu Mar 26 20:32:56 2020


#       File generated by GOLD software.
#

@<TRIPOS>MOLECULE
AV-unprocessed.smi:232
    60    63     1
SMALL
NO_CHARGES


@<TRIPOS>ATOM
      1 ****        -3.8825  -1.3029   3.3745 C.3            1 S1                 0.0000
      2 ****        -3.2947  -0.6690   2.1082 C.3            1 S1                 0.0000
      3 ****        -3.4510   0.8653   2.0697 C.3            1 S1                 0.0000
      4 ****        -4.9076   1.3468   2.0154 C.3            1 S1                 0.0000
      5 ****        -4.8578   2.6522   1.2120 C.3            1 S1                 0.0000
      6 ****        -3.3825   2.8157   0.8246 C.3            1 S1                 0.0000
      7 ****        -3.1797   3.4833  -0.5459 C.3            1 S1                 0.0000
      8 ****        -2.8284   1.4698   0.8972 N.3            1 S1                 0.0000
      9 ****        -1.4775   1.4031   0.8424 C.ar           1 S1                 0.0000
     10 ****        -0.7190   1.8794   1.8656 N.ar           1 S1                 0.0000
     11 ****         0.6136   1.7996   1.8009 C.ar           1 S1                 0.0000
     12 ****         1.3741   1.2931   0.8271 N.ar           1 S1                 0.0000
     13 ****         0.6117   0.8194  -0.2002 C.ar           1 S1                 0.0000
     14 ****        -0.8083   0.8370  -0.2731 C.ar           1 S1                 0.0000
     15 ****        -1.2340   0.2688  -1.4669 N.2            1 S1                 0.0000
     16 ****        -0.1249  -0.0694  -2.0673 C.2            1 S1                 0.0000
     17 ****         1.0293   0.2231  -1.3757 N.pl3          1 S1                 0.0000
     18 ****         2.3913  -0.0477  -1.7980 C.3            1 S1                 0.0000
     19 ****         2.9491  -1.3412  -1.1740 C.3            1 S1                 0.0000
     20 ****         2.1615  -2.4562  -1.5494 O.3            1 S1                 0.0000
     21 ****         4.4319  -1.5790  -1.5233 C.3            1 S1                 0.0000
     22 ****         5.0623  -2.8783  -0.9967 C.3            1 S1                 0.0000
     23 ****         5.9219  -3.3650  -2.1560 C.3            1 S1                 0.0000
     24 ****         5.9159  -2.1966  -3.1382 C.3            1 S1                 0.0000
     25 ****         4.6491  -1.5968  -2.9273 O.3            1 S1                 0.0000
     26 ****        -3.7198  -2.3808   3.3777 H              1 S1                 0.0000
     27 ****        -4.9566  -1.1309   3.4453 H              1 S1                 0.0000
     28 ****        -3.4163  -0.8935   4.2709 H              1 S1                 0.0000
     29 ****        -2.2377  -0.9322   2.0571 H              1 S1                 0.0000
     30 ****        -3.7595  -1.1120   1.2264 H              1 S1                 0.0000
     31 ****        -2.9898   1.2889   2.9638 H              1 S1                 0.0000
     32 ****        -5.5378   0.6245   1.4947 H              1 S1                 0.0000
     33 ****        -5.3221   1.4891   3.0138 H              1 S1                 0.0000
     34 ****        -5.4892   2.5603   0.3270 H              1 S1                 0.0000
     35 ****        -5.2157   3.5067   1.7868 H              1 S1                 0.0000
     36 ****        -2.8967   3.4283   1.5865 H              1 S1                 0.0000
     37 ****        -3.6433   4.4695  -0.5691 H              1 S1                 0.0000
     38 ****        -3.6215   2.8880  -1.3456 H              1 S1                 0.0000
     39 ****        -2.1216   3.6143  -0.7740 H              1 S1                 0.0000
     40 ****         1.1467   2.1981   2.6515 H              1 S1                 0.0000
     41 ****        -0.1173  -0.5510  -3.0345 H              1 S1                 0.0000
     42 ****         2.4134  -0.1042  -2.8872 H              1 S1                 0.0000
     43 ****         3.0108   0.8048  -1.5168 H              1 S1                 0.0000
     44 ****         2.8734  -1.2603  -0.0888 H              1 S1                 0.0000
     45 ****         2.5073  -3.2247  -1.1219 H              1 S1                 0.0000
     46 ****         5.0128  -0.7410  -1.1333 H              1 S1                 0.0000
     47 ****         5.6607  -2.6814  -0.1065 H              1 S1                 0.0000
     48 ****         4.3237  -3.6352  -0.7327 H              1 S1                 0.0000
     49 ****         6.9298  -3.6465  -1.8496 H              1 S1                 0.0000
     50 ****         5.4553  -4.2362  -2.6177 H              1 S1                 0.0000
     51 ****         6.7033  -1.4807  -2.8966 H              1 S1                 0.0000
     52 ****         6.0455  -2.5144  -4.1730 H              1 S1                 0.0000
     53 ****        -3.0479   0.9412   0.0772 LP             1 S1                 0.0000
     54 ****        -1.1578   2.2888   2.6655 LP             1 S1                 0.0000
     55 ****         2.3734   1.2647   0.8482 LP             1 S1                 0.0000
     56 ****        -2.1721   0.1470  -1.7913 LP             1 S1                 0.0000
     57 ****         2.1983  -2.5767  -2.5414 LP             1 S1                 0.0000
     58 ****         1.2135  -2.3104  -1.2663 LP             1 S1                 0.0000
     59 ****         4.6454  -0.6642  -3.2881 LP             1 S1                 0.0000
     60 ****         3.9353  -2.1319  -3.3793 LP             1 S1                 0.0000
@<TRIPOS>BOND
    1    1    2 1     
    2    1   26 1     
    3    1   27 1     
    4    1   28 1     
    5    2    3 1     
    6    2   29 1     
    7    2   30 1     
    8    3    8 1     
    9    3    4 1     
   10    3   31 1     
   11    4    5 1     
   12    4   32 1     
   13    4   33 1     
   14    5    6 1     
   15    5   34 1     
   16    5   35 1     
   17    6    7 1     
   18    6    8 1     
   19    6   36 1     
   20    7   37 1     
   21    7   38 1     
   22    7   39 1     
   23    8    9 1     
   24    9   14 ar    
   25    9   10 ar    
   26   10   11 ar    
   27   11   12 ar    
   28   11   40 1     
   29   12   13 ar    
   30   13   17 1     
   31   13   14 ar    
   32   14   15 1     
   33   15   16 2     
   34   16   17 1     
   35   16   41 1     
   36   17   18 1     
   37   18   19 1     
   38   18   42 1     
   39   18   43 1     
   40   19   20 1     
   41   19   21 1     
   42   19   44 1     
   43   20   45 1     
   44   21   25 1     
   45   21   22 1     
   46   21   46 1     
   47   22   23 1     
   48   22   47 1     
   49   22   48 1     
   50   23   24 1     
   51   23   49 1     
   52   23   50 1     
   53   24   25 1     
   54   24   51 1     
   55   24   52 1     
   56    8   53 1     
   57   10   54 1     
   58   12   55 1     
   59   15   56 1     
   60   20   57 1     
   61   20   58 1     
   62   25   59 1     
   63   25   60 1     
@<TRIPOS>SUBSTRUCTURE
      1 S1             1
@<TRIPOS>SET
LONE_PAIRS      STATIC     ATOMS    <user>   **** ""
8 53 54 55 56 57 58 59 60
DONOR_HYDROGENS      STATIC     ATOMS    <user>   **** ""
1 45
ATOM$BLUE        STATIC     ATOMS    COLORGROUP SYSTEM
8 53 54 55 56 57 58 59 60
ATOM$RED        STATIC     ATOMS    COLORGROUP SYSTEM
1 45
