AV-unprocessed.smi:1506|AV-procd|sdf|6077|dock8
  -GOLD-   22720 6203D 1   1.00000     0.00000
 Structure written by MMmdl.
 39 41  0  0  0  0  0  0  0  0  1 V2000
  145.3359  135.8519  154.3813 C   0  0  0  0  0  0  0  0  0  0  0  0
  146.0292  137.0776  153.8225 C   0  0  0  0  0  0  0  0  0  0  0  0
  145.8007  137.4814  152.4923 C   0  0  0  0  0  0  0  0  0  0  0  0
  146.4495  138.6217  151.9835 C   0  0  0  0  0  0  0  0  0  0  0  0
  147.3252  139.3626  152.8003 C   0  0  0  0  0  0  0  0  0  0  0  0
  147.5602  138.9684  154.1420 C   0  0  0  0  0  0  0  0  0  0  0  0
  148.3962  139.6358  155.0113 O   0  0  0  0  0  0  0  0  0  0  0  0
  149.3239  140.5674  154.4708 C   0  0  0  0  0  0  0  0  0  0  0  0
  149.7084  141.5795  155.5597 C   0  0  1  0  0  0  0  0  0  0  0  0
  148.5210  142.1263  156.0986 O   0  0  0  0  0  0  0  0  0  0  0  0
  150.5487  140.9414  156.6834 C   0  0  0  0  0  0  0  0  0  0  0  0
  151.2264  141.9305  157.5026 N   0  0  0  0  0  0  0  0  0  0  0  0
  151.2127  143.2668  157.3355 C   0  0  0  0  0  0  0  0  0  0  0  0
  151.9058  143.9969  158.2048 N   0  0  0  0  0  0  0  0  0  0  0  0
  152.4330  143.0204  159.0324 C   0  0  0  0  0  0  0  0  0  0  0  0
  153.2701  143.1318  160.1659 C   0  0  0  0  0  0  0  0  0  0  0  0
  153.6871  141.9783  160.8624 C   0  0  0  0  0  0  0  0  0  0  0  0
  153.2732  140.6986  160.4390 C   0  0  0  0  0  0  0  0  0  0  0  0
  152.4388  140.5624  159.3128 C   0  0  0  0  0  0  0  0  0  0  0  0
  152.0267  141.7155  158.6195 C   0  0  0  0  0  0  0  0  0  0  0  0
  146.9048  137.8225  154.6384 C   0  0  0  0  0  0  0  0  0  0  0  0
  144.8714  135.2633  153.5896 H   0  0  0  0  0  0  0  0  0  0  0  0
  144.5604  136.1483  155.0881 H   0  0  0  0  0  0  0  0  0  0  0  0
  146.0504  135.2141  154.9024 H   0  0  0  0  0  0  0  0  0  0  0  0
  145.1290  136.9210  151.8584 H   0  0  0  0  0  0  0  0  0  0  0  0
  146.2752  138.9304  150.9634 H   0  0  0  0  0  0  0  0  0  0  0  0
  147.8037  140.2304  152.3732 H   0  0  0  0  0  0  0  0  0  0  0  0
  150.2143  140.0339  154.1331 H   0  0  0  0  0  0  0  0  0  0  0  0
  148.8960  141.0888  153.6129 H   0  0  0  0  0  0  0  0  0  0  0  0
  150.2679  142.3975  155.1041 H   0  0  0  0  0  0  0  0  0  0  0  0
  148.5825  143.0688  156.0614 H   0  0  0  0  0  0  0  0  0  0  0  0
  149.9212  140.3248  157.3282 H   0  0  0  0  0  0  0  0  0  0  0  0
  151.3030  140.2773  156.2595 H   0  0  0  0  0  0  0  0  0  0  0  0
  150.6607  143.7295  156.5304 H   0  0  0  0  0  0  0  0  0  0  0  0
  153.5921  144.1067  160.5004 H   0  0  0  0  0  0  0  0  0  0  0  0
  154.3278  142.0756  161.7266 H   0  0  0  0  0  0  0  0  0  0  0  0
  153.5971  139.8211  160.9796 H   0  0  0  0  0  0  0  0  0  0  0  0
  152.1185  139.5841  158.9863 H   0  0  0  0  0  0  0  0  0  0  0  0
  147.0767  137.5132  155.6591 H   0  0  0  0  0  0  0  0  0  0  0  0
  1  2  1  0  0  0  0
  1 22  1  0  0  0  0
  1 23  1  0  0  0  0
  1 24  1  0  0  0  0
  2 21  1  0  0  0  0
  2  3  2  0  0  0  0
  3  4  1  0  0  0  0
  3 25  1  0  0  0  0
  4  5  2  0  0  0  0
  4 26  1  0  0  0  0
  5  6  1  0  0  0  0
  5 27  1  0  0  0  0
  6  7  1  0  0  0  0
  6 21  2  0  0  0  0
  7  8  1  0  0  0  0
  8  9  1  0  0  0  0
  8 28  1  0  0  0  0
  8 29  1  0  0  0  0
  9 10  1  0  0  0  0
  9 11  1  0  0  0  0
  9 30  1  0  0  0  0
 10 31  1  0  0  0  0
 11 12  1  0  0  0  0
 11 32  1  0  0  0  0
 11 33  1  0  0  0  0
 12 20  1  0  0  0  0
 12 13  1  0  0  0  0
 13 14  2  0  0  0  0
 13 34  1  0  0  0  0
 14 15  1  0  0  0  0
 15 20  2  0  0  0  0
 15 16  1  0  0  0  0
 16 17  2  0  0  0  0
 16 35  1  0  0  0  0
 17 18  1  0  0  0  0
 17 36  1  0  0  0  0
 18 19  2  0  0  0  0
 18 37  1  0  0  0  0
 19 20  1  0  0  0  0
 19 38  1  0  0  0  0
 21 39  1  0  0  0  0
M  END
> <s_m_source_file>
AV-unprocessed.smi

> <i_m_source_file_index>
1506

> <i_lp_mmshare_version>
43012

> <i_f3d_flags>
0

> <s_epik_input>
W0NIM11jMVtjSF1bY0hdW2NIXWMoW2NIXTEpT1tDSDJdW0NASF0oW09IXSlbQ0gyXW4oW2NIXW4yKWMoYzIzKVtjSF1bY0hdW2NIXVtjSF0z

> <s_epik_cmdline>
J2VwaWtfcHl0aG9uJywgJy1waCcsICc3LjAnLCAnLXRuJywgJzgnLCAnLW1hJywgJzIwMCcsICctbWV0YWxfYmluZGluZycsICctaW1hZScsICc8aW5maWxlLm1hZT4nLCAnLW9tYWUnLCAnPG91dGZpbGUubWFlPic=

> <r_lp_tautomer_probability>
1

> <r_epik_Ionization_Penalty>
0.0608485

> <r_epik_Ionization_Penalty_Charging>
0

> <r_epik_Ionization_Penalty_Neutral>
0.0608485

> <r_epik_State_Penalty>
0.0527778

> <r_epik_Charging_Adjusted_Penalty>
0.0527778

> <i_epik_Tot_Q>
0

> <i_epik_Tot_abs_Q>
0

> <r_epik_Metal_State_Penalty>
5.51973e-05

> <b_epik_Metal_Only>
0

> <s_lp_Force_Field>
OPLS_2005

> <r_lp_Energy>
14.3046

> <b_lp_Chiralities_Consistent>
1

> <s_lp_Variant>
AV-unprocessed.smi:1506-2

> <Gold.Version>
5.8.1

> <Gold.Id.Protein>
6NUR|6NUR_protein|mol2

> <Gold.PLP.Fitness>
45.1146

> <Gold.PLP.PLP>
-40.0126

> <Gold.PLP.part.hbond>
-1.0000

> <Gold.PLP.part.metal>
0.0000

> <Gold.PLP.part.buried>
-1.5515

> <Gold.PLP.part.nonpolar>
-38.0053

> <Gold.PLP.part.repulsive>
0.1426

> <Gold.PLP.ligand.clash>
0.0000

> <Gold.PLP.ligand.torsion>
0.4906

> <Gold.PLP.Chemscore.Hbond>
1.0000

> <Gold.PLP.Chemscore.CHOScore>
1.0000

> <Gold.PLP.Chemscore.Metal>
0.0000

> <Gold.Chemscore.Hbonds>
donor molecule, donor type, donor heavy atom, donor atom, acceptor molecule, acceptor atom, score
      L1  H    10    31       P1  8028  1.00
      L1  C    13    34       P1  8028  1.00

> <Gold.PLP.Chemscore.Internal.Correction>
0.0832

> <Gold.Rescore>
     Score         DG    S(hbond)    S(metal)    S(lipo)     H(rot)  DE(clash)    DE(int)     intcor
     15.61     -16.18       0.98        0.00     111.27       2.19       0.13       0.43       ----

> <Gold.Chemscore.Fitness>
15.6137

> <Gold.Chemscore.DG>
-16.1764

> <Gold.Chemscore.ZeroCoef>
-5.4800

> <Gold.Chemscore.Hbond>
0.9817

> <Gold.Chemscore.Metal>
0.0000

> <Gold.Chemscore.Lipo>
111.2658

> <Gold.Chemscore.Internal_Hbond>
0.0000

> <Gold.Chemscore.DEClash>
0.1303

> <Gold.Chemscore.DEInternal>
0.4325

> <Gold.Chemscore.Rot>
2.1877

> <Gold.Chemscore.Internal.Correction>
   9.000000E+99

> <Gold.Chemscore.Hbonds>
donor molecule, donor type, donor heavy atom, donor atom, acceptor molecule, acceptor atom, score
      L1  H    10    31       P1  8028  0.98

> <Gold.Chemscore.Hbond.Weighted>
-3.2788

> <Gold.Chemscore.Metal.Weighted>
-0.0000

> <Gold.Chemscore.Lipo.Weighted>
-13.0181

> <Gold.Chemscore.Internal_Hbond.Weighted>
0.0000

> <Gold.Chemscore.DEClash.Weighted>
0.1303

> <Gold.Chemscore.DEInternal.Weighted>
0.4325

> <Gold.Chemscore.Rot.Weighted>
5.6005

> <Gold.Chemscore.Internal.Correction.Weighted>
   9.000000E+99

> <Gold.Protein.RotatedTorsions>
[ 6907 6896 6895 6894 ] final -101.95 input  -60.11 | X-H torsion
[ 7974 7965 7964 7962 ] final  -75.05 input  175.53 | X-H torsion
[ 8008 7997 7996 7995 ] final   39.01 input   59.86 | X-H torsion
[ 10167 10162 10161 10158 ] final   80.74 input  -65.29 | X-H torsion
[ 10718 10713 10712 10709 ] final  153.85 input   66.30 | X-H torsion
[ 10763 10752 10751 10750 ] final   82.73 input  -60.55 | X-H torsion
[ 11005 11000 10999 10996 ] final  172.12 input  -57.11 | X-H torsion

> <Gold.Protein.ActiveResidues>
 VAL166  LYS551  ARG553  GLY616  TRP617  ASP618  TYR619  PRO620  LYS621  CYS622 
 ASP623  PHE694  ASN695  SER759  ASP760  ASP761  ALA762  ILE779  LEU786  VAL792 
 PHE793  MET794  SER795  GLU796  ALA797  LYS798  CYS799  TRP800  GLU811  SER814 

> <Gold.Protein.RotatedAtoms>
  150.7176  134.0655  159.3845 H   0  0  0  0  0  0  0  0  0  0  0  0  # atno 6907 bound_to 6896
  151.8636  135.0513  160.0481 H   0  0  0  0  0  0  0  0  0  0  0  0  # atno 6908 bound_to 6896
  152.2698  133.5336  159.5468 H   0  0  0  0  0  0  0  0  0  0  0  0  # atno 6909 bound_to 6896
  145.6310  140.9337  143.1087 H   0  0  0  0  0  0  0  0  0  0  0  0  # atno 7974 bound_to 7965
  155.2296  140.3337  155.4305 H   0  0  0  0  0  0  0  0  0  0  0  0  # atno 8008 bound_to 7997
  156.2300  140.1846  156.7312 H   0  0  0  0  0  0  0  0  0  0  0  0  # atno 8009 bound_to 7997
  154.5962  140.0630  156.9292 H   0  0  0  0  0  0  0  0  0  0  0  0  # atno 8010 bound_to 7997
  139.9466  144.6054  150.8201 H   0  0  0  0  0  0  0  0  0  0  0  0  # atno 10167 bound_to 10162
  157.2393  131.0755  151.1803 H   0  0  0  0  0  0  0  0  0  0  0  0  # atno 10718 bound_to 10713
  153.1228  135.4717  154.9224 H   0  0  0  0  0  0  0  0  0  0  0  0  # atno 10763 bound_to 10752
  154.7592  135.3127  154.8413 H   0  0  0  0  0  0  0  0  0  0  0  0  # atno 10764 bound_to 10752
  153.8974  135.6878  153.4811 H   0  0  0  0  0  0  0  0  0  0  0  0  # atno 10765 bound_to 10752
  140.3263  134.7395  157.4101 H   0  0  0  0  0  0  0  0  0  0  0  0  # atno 11005 bound_to 11000
  144.7193  139.8084  143.7387 LP  0  0  0  0  0  0  0  0  0  0  0  0  # atno 17320 bound_to 7965
  146.1356  139.4401  143.0141 LP  0  0  0  0  0  0  0  0  0  0  0  0  # atno 17321 bound_to 7965
  140.7595  143.3131  151.2798 LP  0  0  0  0  0  0  0  0  0  0  0  0  # atno 17342 bound_to 10162
  139.6662  144.0101  152.2724 LP  0  0  0  0  0  0  0  0  0  0  0  0  # atno 17343 bound_to 10162
  157.3396  130.7026  149.6373 LP  0  0  0  0  0  0  0  0  0  0  0  0  # atno 17370 bound_to 10713
  155.9671  130.4284  150.4785 LP  0  0  0  0  0  0  0  0  0  0  0  0  # atno 17371 bound_to 10713
  140.0898  134.5616  155.8455 LP  0  0  0  0  0  0  0  0  0  0  0  0  # atno 17394 bound_to 11000
  141.2074  133.6664  156.6305 LP  0  0  0  0  0  0  0  0  0  0  0  0  # atno 17395 bound_to 11000

$$$$
