AV-unprocessed.smi:702|AV-procd|sdf|3416|dock4
  -GOLD-   22720 0403D 1   1.00000     0.00000
 Structure written by MMmdl.
 50 52  0  0  0  0  0  0  0  0  2 V2000
  146.0358  137.5864  155.4835 C   0  0  0  0  0  0  0  0  0  0  0  0
  146.5700  138.1365  154.1414 C   0  0  2  0  0  0  0  0  0  0  0  0
  146.7602  137.0067  153.2260 N   0  0  0  0  0  0  0  0  0  0  0  0
  145.8300  136.1213  152.8385 C   0  0  0  0  0  0  0  0  0  0  0  0
  144.6596  136.1618  153.2130 O   0  0  0  0  0  0  0  0  0  0  0  0
  146.3539  135.2118  151.9981 N   0  0  0  0  0  0  0  0  0  0  0  0
  145.7267  134.1214  151.3322 C   0  0  0  0  0  0  0  0  0  0  0  0
  146.5573  133.2564  150.5896 C   0  0  0  0  0  0  0  0  0  0  0  0
  145.9751  132.1687  149.9090 C   0  0  0  0  0  0  0  0  0  0  0  0
  144.6518  131.9073  149.9254 N   0  0  0  0  0  0  0  0  0  0  0  0
  143.8561  132.7370  150.6320 C   0  0  0  0  0  0  0  0  0  0  0  0
  144.3356  133.8531  151.3470 C   0  0  0  0  0  0  0  0  0  0  0  0
  147.8695  139.0262  154.2178 C   0  0  0  0  0  0  0  0  0  0  0  0
  149.0988  138.1566  154.0532 N   0  3  0  0  0  0  0  0  0  0  0  0
  150.3977  138.8901  153.9781 C   0  0  0  0  0  0  0  0  0  0  0  0
  151.5319  137.9335  153.5771 C   0  0  0  0  0  0  0  0  0  0  0  0
  151.6274  136.8885  154.5337 O   0  0  0  0  0  0  0  0  0  0  0  0
  150.4326  136.1236  154.5964 C   0  0  0  0  0  0  0  0  0  0  0  0
  149.2555  137.0225  155.0132 C   0  0  0  0  0  0  0  0  0  0  0  0
  147.8590  140.1675  153.1577 C   0  0  0  0  0  0  0  0  0  0  0  0
  147.5537  141.4654  153.9076 C   0  0  0  0  0  0  0  0  0  0  0  0
  148.1859  141.2496  155.2771 C   0  0  0  0  0  0  0  0  0  0  0  0
  147.8783  139.7841  155.5856 C   0  0  0  0  0  0  0  0  0  0  0  0
  145.8074  138.3822  156.1910 H   0  0  0  0  0  0  0  0  0  0  0  0
  146.7216  136.8967  155.9726 H   0  0  0  0  0  0  0  0  0  0  0  0
  145.1055  137.0402  155.3237 H   0  0  0  0  0  0  0  0  0  0  0  0
  145.7399  138.7403  153.7820 H   0  0  0  0  0  0  0  0  0  0  0  0
  147.6953  136.8831  152.8650 H   0  0  0  0  0  0  0  0  0  0  0  0
  147.3431  135.3025  151.8188 H   0  0  0  0  0  0  0  0  0  0  0  0
  147.6245  133.4173  150.5395 H   0  0  0  0  0  0  0  0  0  0  0  0
  146.5898  131.4914  149.3349 H   0  0  0  0  0  0  0  0  0  0  0  0
  142.8010  132.5062  150.6255 H   0  0  0  0  0  0  0  0  0  0  0  0
  143.6264  134.4668  151.8781 H   0  0  0  0  0  0  0  0  0  0  0  0
  150.3820  139.7009  153.2563 H   0  0  0  0  0  0  0  0  0  0  0  0
  150.6369  139.3433  154.9404 H   0  0  0  0  0  0  0  0  0  0  0  0
  151.3643  137.5229  152.5800 H   0  0  0  0  0  0  0  0  0  0  0  0
  152.4811  138.4687  153.5457 H   0  0  0  0  0  0  0  0  0  0  0  0
  150.2380  135.6493  153.6329 H   0  0  0  0  0  0  0  0  0  0  0  0
  150.5674  135.3222  155.3229 H   0  0  0  0  0  0  0  0  0  0  0  0
  149.4268  137.3998  156.0215 H   0  0  0  0  0  0  0  0  0  0  0  0
  148.3764  136.3865  155.0678 H   0  0  0  0  0  0  0  0  0  0  0  0
  148.8354  140.2937  152.6927 H   0  0  0  0  0  0  0  0  0  0  0  0
  147.1637  139.9884  152.3376 H   0  0  0  0  0  0  0  0  0  0  0  0
  147.9474  142.3456  153.3984 H   0  0  0  0  0  0  0  0  0  0  0  0
  146.4760  141.5963  154.0126 H   0  0  0  0  0  0  0  0  0  0  0  0
  149.2637  141.4054  155.2182 H   0  0  0  0  0  0  0  0  0  0  0  0
  147.7912  141.9293  156.0328 H   0  0  0  0  0  0  0  0  0  0  0  0
  146.8984  139.7658  156.0571 H   0  0  0  0  0  0  0  0  0  0  0  0
  148.5296  139.3540  156.3443 H   0  0  0  0  0  0  0  0  0  0  0  0
  148.9810  137.7220  153.1490 H   0  0  0  0  0  0  0  0  0  0  0  0
  1  2  1  0  0  0  0
  1 24  1  0  0  0  0
  1 25  1  0  0  0  0
  1 26  1  0  0  0  0
  2  3  1  0  0  0  0
  2 13  1  0  0  0  0
  2 27  1  0  0  0  0
  3  4  1  0  0  0  0
  3 28  1  0  0  0  0
  4  5  2  0  0  0  0
  4  6  1  0  0  0  0
  6  7  1  0  0  0  0
  6 29  1  0  0  0  0
  7 12  1  0  0  0  0
  7  8  2  0  0  0  0
  8  9  1  0  0  0  0
  8 30  1  0  0  0  0
  9 10  2  0  0  0  0
  9 31  1  0  0  0  0
 10 11  1  0  0  0  0
 11 12  2  0  0  0  0
 11 32  1  0  0  0  0
 12 33  1  0  0  0  0
 13 23  1  0  0  0  0
 13 14  1  0  0  0  0
 13 20  1  0  0  0  0
 14 19  1  0  0  0  0
 14 15  1  0  0  0  0
 14 50  1  0  0  0  0
 15 16  1  0  0  0  0
 15 34  1  0  0  0  0
 15 35  1  0  0  0  0
 16 17  1  0  0  0  0
 16 36  1  0  0  0  0
 16 37  1  0  0  0  0
 17 18  1  0  0  0  0
 18 19  1  0  0  0  0
 18 38  1  0  0  0  0
 18 39  1  0  0  0  0
 19 40  1  0  0  0  0
 19 41  1  0  0  0  0
 20 21  1  0  0  0  0
 20 42  1  0  0  0  0
 20 43  1  0  0  0  0
 21 22  1  0  0  0  0
 21 44  1  0  0  0  0
 21 45  1  0  0  0  0
 22 23  1  0  0  0  0
 22 46  1  0  0  0  0
 22 47  1  0  0  0  0
 23 48  1  0  0  0  0
 23 49  1  0  0  0  0
M  CHG  1  14   1
M  END
> <s_m_source_file>
AV-unprocessed.smi

> <i_m_source_file_index>
702

> <i_lp_mmshare_version>
43012

> <i_f3d_flags>
0

> <s_epik_input>
W0NIMl0xW0NIMl1PW0NIMl1bQ0gyXU4xQzIoW0NIMl1bQ0gyXVtDSDJdW0NIMl0yKVtDQEhdKFtDSDNdKVtOSF1DKD1PKVtOSF1jM1tjSF1bY0hdbltjSF1bY0hdMw==

> <s_epik_cmdline>
J2VwaWtfcHl0aG9uJywgJy1waCcsICc3LjAnLCAnLXRuJywgJzgnLCAnLW1hJywgJzIwMCcsICctbWV0YWxfYmluZGluZycsICctaW1hZScsICc8aW5maWxlLm1hZT4nLCAnLW9tYWUnLCAnPG91dGZpbGUubWFlPic=

> <r_epik_Ionization_Penalty>
0.42559

> <r_epik_Ionization_Penalty_Charging>
0.324387

> <r_epik_Ionization_Penalty_Neutral>
0.101203

> <r_epik_State_Penalty>
0.407162

> <r_epik_Charging_Adjusted_Penalty>
0.731549

> <i_epik_Tot_Q>
1

> <i_epik_Tot_abs_Q>
1

> <r_epik_Metal_State_Penalty>
0.398289

> <b_epik_Metal_Only>
0

> <s_lp_Force_Field>
OPLS_2005

> <r_lp_Energy>
61.5271

> <b_lp_Chiralities_Consistent>
1

> <s_lp_Variant>
AV-unprocessed.smi:702-1

> <Gold.Version>
5.8.1

> <Gold.Id.Protein>
6NUR|6NUR_protein|mol2

> <Gold.PLP.Fitness>
52.2874

> <Gold.PLP.PLP>
-33.8286

> <Gold.PLP.part.hbond>
-4.2350

> <Gold.PLP.part.metal>
0.0000

> <Gold.PLP.part.buried>
-1.6761

> <Gold.PLP.part.nonpolar>
-29.5921

> <Gold.PLP.part.repulsive>
0.4655

> <Gold.PLP.ligand.clash>
0.0000

> <Gold.PLP.ligand.torsion>
1.1715

> <Gold.PLP.Chemscore.Hbond>
5.0000

> <Gold.PLP.Chemscore.CHOScore>
1.8773

> <Gold.PLP.Chemscore.Metal>
0.0000

> <Gold.Chemscore.Hbonds>
donor molecule, donor type, donor heavy atom, donor atom, acceptor molecule, acceptor atom, score
      L1  H     3    28       P1  7948  1.00
      L1  H     6    29       P1  7948  1.00
      L1  H    14    50       P1  7948  2.00
      P1  H 10752 10763       L1    17  0.70
      L1  C     9    31       P1 10747  0.62
      L1  C    11    32       P1 10186  0.19

> <Gold.PLP.Chemscore.Internal.Correction>
0.1698

> <Gold.Rescore>
     Score         DG    S(hbond)    S(metal)    S(lipo)     H(rot)  DE(clash)    DE(int)     intcor
     20.09     -25.14       3.55        0.00      98.49       1.45       2.30       2.75       ----

> <Gold.Chemscore.Fitness>
20.0897

> <Gold.Chemscore.DG>
-25.1362

> <Gold.Chemscore.ZeroCoef>
-5.4800

> <Gold.Chemscore.Hbond>
3.5466

> <Gold.Chemscore.Metal>
0.0000

> <Gold.Chemscore.Lipo>
98.4922

> <Gold.Chemscore.Internal_Hbond>
0.0000

> <Gold.Chemscore.DEClash>
2.2991

> <Gold.Chemscore.DEInternal>
2.7474

> <Gold.Chemscore.Rot>
1.4504

> <Gold.Chemscore.Internal.Correction>
   9.000000E+99

> <Gold.Chemscore.Hbonds>
donor molecule, donor type, donor heavy atom, donor atom, acceptor molecule, acceptor atom, score
      L1  H     3    28       P1  7948  0.99
      L1  H     6    29       P1  7948  0.95
      L1  H    14    50       P1  7948  0.97
      P1  H 10752 10763       L1    17  0.27

> <Gold.Chemscore.Hbond.Weighted>
-11.8455

> <Gold.Chemscore.Metal.Weighted>
-0.0000

> <Gold.Chemscore.Lipo.Weighted>
-11.5236

> <Gold.Chemscore.Internal_Hbond.Weighted>
0.0000

> <Gold.Chemscore.DEClash.Weighted>
2.2991

> <Gold.Chemscore.DEInternal.Weighted>
2.7474

> <Gold.Chemscore.Rot.Weighted>
3.7129

> <Gold.Chemscore.Internal.Correction.Weighted>
   9.000000E+99

> <Gold.Protein.RotatedTorsions>
[ 6907 6896 6895 6894 ] final  154.34 input  -60.11 | X-H torsion
[ 7974 7965 7964 7962 ] final -112.83 input  175.53 | X-H torsion
[ 8008 7997 7996 7995 ] final  176.82 input   59.86 | X-H torsion
[ 10167 10162 10161 10158 ] final  144.66 input  -65.29 | X-H torsion
[ 10718 10713 10712 10709 ] final   70.19 input   66.30 | X-H torsion
[ 10763 10752 10751 10750 ] final   78.13 input  -60.55 | X-H torsion
[ 11005 11000 10999 10996 ] final  -50.55 input  -57.11 | X-H torsion

> <Gold.Protein.ActiveResidues>
 VAL166  LYS551  ARG553  GLY616  TRP617  ASP618  TYR619  PRO620  LYS621  CYS622 
 ASP623  PHE694  ASN695  SER759  ASP760  ASP761  ALA762  ILE779  LEU786  VAL792 
 PHE793  MET794  SER795  GLU796  ALA797  LYS798  CYS799  TRP800  GLU811  SER814 

> <Gold.Protein.RotatedAtoms>
  152.0598  133.4057  159.4412 H   0  0  0  0  0  0  0  0  0  0  0  0  # atno 6907 bound_to 6896
  150.6866  134.3213  159.4797 H   0  0  0  0  0  0  0  0  0  0  0  0  # atno 6908 bound_to 6896
  152.1033  134.9326  160.0619 H   0  0  0  0  0  0  0  0  0  0  0  0  # atno 6909 bound_to 6896
  145.1393  140.8768  143.3712 H   0  0  0  0  0  0  0  0  0  0  0  0  # atno 7974 bound_to 7965
  156.0724  140.1374  156.9813 H   0  0  0  0  0  0  0  0  0  0  0  0  # atno 8008 bound_to 7997
  154.4539  140.0969  156.6751 H   0  0  0  0  0  0  0  0  0  0  0  0  # atno 8009 bound_to 7997
  155.5207  140.3456  155.4408 H   0  0  0  0  0  0  0  0  0  0  0  0  # atno 8010 bound_to 7997
  139.4942  144.5956  151.6589 H   0  0  0  0  0  0  0  0  0  0  0  0  # atno 10167 bound_to 10162
  157.6386  130.9464  150.0616 H   0  0  0  0  0  0  0  0  0  0  0  0  # atno 10718 bound_to 10713
  153.0850  135.4888  154.8579 H   0  0  0  0  0  0  0  0  0  0  0  0  # atno 10763 bound_to 10752
  154.7199  135.3037  154.9066 H   0  0  0  0  0  0  0  0  0  0  0  0  # atno 10764 bound_to 10752
  153.9733  135.6798  153.4801 H   0  0  0  0  0  0  0  0  0  0  0  0  # atno 10765 bound_to 10752
  141.0822  133.6650  156.3747 H   0  0  0  0  0  0  0  0  0  0  0  0  # atno 11005 bound_to 11000
  145.0550  139.3151  143.5909 LP  0  0  0  0  0  0  0  0  0  0  0  0  # atno 17320 bound_to 7965
  146.3506  139.9972  142.8680 LP  0  0  0  0  0  0  0  0  0  0  0  0  # atno 17321 bound_to 7965
  140.5593  144.0295  150.6162 LP  0  0  0  0  0  0  0  0  0  0  0  0  # atno 17342 bound_to 10162
  140.3375  143.3039  152.0623 LP  0  0  0  0  0  0  0  0  0  0  0  0  # atno 17343 bound_to 10162
  156.1647  130.3645  149.9249 LP  0  0  0  0  0  0  0  0  0  0  0  0  # atno 17370 bound_to 10713
  156.7239  130.9017  151.3620 LP  0  0  0  0  0  0  0  0  0  0  0  0  # atno 17371 bound_to 10713
  140.5443  134.6090  157.5389 LP  0  0  0  0  0  0  0  0  0  0  0  0  # atno 17394 bound_to 11000
  139.9637  134.7409  156.0183 LP  0  0  0  0  0  0  0  0  0  0  0  0  # atno 17395 bound_to 11000

$$$$
