AV-unprocessed.smi:1616|AV-procd|sdf|6483|dock4
  -GOLD-   22720 7143D 1   1.00000     0.00000
 Structure written by MMmdl.
 38 39  0  0  0  0  0  0  0  0  1 V2000
  155.3909  138.6225  164.6688 C   0  0  0  0  0  0  0  0  0  0  0  0
  155.3290  138.2107  163.2227 C   0  0  0  0  0  0  0  0  0  0  0  0
  155.4865  139.1464  162.3452 N   0  0  0  0  0  0  0  0  0  0  0  0
  155.4411  138.8777  160.9908 N   0  0  0  0  0  0  0  0  0  0  0  0
  155.6184  140.0619  160.1375 C   0  0  0  0  0  0  0  0  0  0  0  0
  154.3023  140.7916  159.8314 C   0  0  0  0  0  0  0  0  0  0  0  0
  153.6296  140.4902  158.8445 O   0  0  0  0  0  0  0  0  0  0  0  0
  153.9393  141.7405  160.7082 N   0  0  0  0  0  0  0  0  0  0  0  0
  152.7365  142.5629  160.6214 C   0  0  1  0  0  0  0  0  0  0  0  0
  152.4705  143.2395  161.9755 C   0  0  0  0  0  0  0  0  0  0  0  0
  152.8181  143.5916  159.5094 C   0  0  0  0  0  0  0  0  0  0  0  0
  151.6063  144.3935  159.0985 C   0  0  0  0  0  0  0  0  0  0  0  0
  152.1706  143.3428  158.1684 C   0  0  0  0  0  0  0  0  0  0  0  0
  155.2416  137.6407  160.4508 C   0  0  0  0  0  0  0  0  0  0  0  0
  155.2131  137.4458  159.2346 O   0  0  0  0  0  0  0  0  0  0  0  0
  155.0662  136.5852  161.4508 C   0  0  0  0  0  0  0  0  0  0  0  0
  154.8496  135.2751  160.9274 C   0  0  0  0  0  0  0  0  0  0  0  0
  154.6542  134.2172  160.4997 N   0  0  0  0  0  0  0  0  0  0  0  0
  155.1056  136.8372  162.7832 C   0  0  0  0  0  0  0  0  0  0  0  0
  154.9278  135.7773  163.8619 C   0  0  0  0  0  0  0  0  0  0  0  0
  156.2208  138.1301  165.1760 H   0  0  0  0  0  0  0  0  0  0  0  0
  154.4700  138.3550  165.1873 H   0  0  0  0  0  0  0  0  0  0  0  0
  155.5291  139.6991  164.7797 H   0  0  0  0  0  0  0  0  0  0  0  0
  156.2940  140.7737  160.6152 H   0  0  0  0  0  0  0  0  0  0  0  0
  156.1070  139.7776  159.2034 H   0  0  0  0  0  0  0  0  0  0  0  0
  154.5511  141.9160  161.4920 H   0  0  0  0  0  0  0  0  0  0  0  0
  151.8875  141.9141  160.3978 H   0  0  0  0  0  0  0  0  0  0  0  0
  151.5578  143.8353  161.9427 H   0  0  0  0  0  0  0  0  0  0  0  0
  153.2899  143.9024  162.2558 H   0  0  0  0  0  0  0  0  0  0  0  0
  152.3504  142.5032  162.7709 H   0  0  0  0  0  0  0  0  0  0  0  0
  153.7639  144.1300  159.4850 H   0  0  0  0  0  0  0  0  0  0  0  0
  150.6605  144.1727  159.5894 H   0  0  0  0  0  0  0  0  0  0  0  0
  151.7610  145.4368  158.8318 H   0  0  0  0  0  0  0  0  0  0  0  0
  152.7022  143.6859  157.2833 H   0  0  0  0  0  0  0  0  0  0  0  0
  151.6001  142.4244  158.0427 H   0  0  0  0  0  0  0  0  0  0  0  0
  154.8297  134.7757  163.4442 H   0  0  0  0  0  0  0  0  0  0  0  0
  154.0314  135.9785  164.4489 H   0  0  0  0  0  0  0  0  0  0  0  0
  155.7851  135.7655  164.5355 H   0  0  0  0  0  0  0  0  0  0  0  0
  1  2  1  0  0  0  0
  1 21  1  0  0  0  0
  1 22  1  0  0  0  0
  1 23  1  0  0  0  0
  2 19  1  0  0  0  0
  2  3  2  0  0  0  0
  3  4  1  0  0  0  0
  4  5  1  0  0  0  0
  4 14  1  0  0  0  0
  5  6  1  0  0  0  0
  5 24  1  0  0  0  0
  5 25  1  0  0  0  0
  6  7  2  0  0  0  0
  6  8  1  0  0  0  0
  8  9  1  0  0  0  0
  8 26  1  0  0  0  0
  9 10  1  0  0  0  0
  9 11  1  0  0  0  0
  9 27  1  0  0  0  0
 10 28  1  0  0  0  0
 10 29  1  0  0  0  0
 10 30  1  0  0  0  0
 11 13  1  0  0  0  0
 11 12  1  0  0  0  0
 11 31  1  0  0  0  0
 12 13  1  0  0  0  0
 12 32  1  0  0  0  0
 12 33  1  0  0  0  0
 13 34  1  0  0  0  0
 13 35  1  0  0  0  0
 14 15  2  0  0  0  0
 14 16  1  0  0  0  0
 16 17  1  0  0  0  0
 16 19  2  0  0  0  0
 17 18  3  0  0  0  0
 19 20  1  0  0  0  0
 20 36  1  0  0  0  0
 20 37  1  0  0  0  0
 20 38  1  0  0  0  0
M  END
> <s_m_source_file>
AV-unprocessed.smi

> <i_m_source_file_index>
1616

> <i_lp_mmshare_version>
43012

> <i_f3d_flags>
0

> <s_epik_input>
TiNDYyhjMVtDSDNdKWMoPU8pbihuYzFbQ0gzXSlbQ0gyXUMoPU8pW05IXVtDQEhdKFtDSDNdKVtDSF0yW0NIMl1bQ0gyXTI=

> <s_epik_cmdline>
J2VwaWtfcHl0aG9uJywgJy1waCcsICc3LjAnLCAnLXRuJywgJzgnLCAnLW1hJywgJzIwMCcsICctbWV0YWxfYmluZGluZycsICctaW1hZScsICc8aW5maWxlLm1hZT4nLCAnLW9tYWUnLCAnPG91dGZpbGUubWFlPic=

> <r_lp_tautomer_probability>
1

> <r_epik_Ionization_Penalty>
1.93246e-08

> <r_epik_Ionization_Penalty_Charging>
2.27031e-11

> <r_epik_Ionization_Penalty_Neutral>
1.93019e-08

> <r_epik_State_Penalty>
-0

> <r_epik_Charging_Adjusted_Penalty>
2.27031e-11

> <i_epik_Tot_Q>
0

> <i_epik_Tot_abs_Q>
0

> <r_epik_Metal_State_Penalty>
-0

> <b_epik_Metal_Only>
0

> <s_lp_Force_Field>
OPLS_2005

> <r_lp_Energy>
27.6916

> <b_lp_Chiralities_Consistent>
1

> <s_lp_Variant>
AV-unprocessed.smi:1616-2

> <Gold.Version>
5.8.1

> <Gold.Id.Protein>
6NUR|6NUR_protein|mol2

> <Gold.PLP.Fitness>
39.8226

> <Gold.PLP.PLP>
-37.5605

> <Gold.PLP.part.hbond>
-2.0000

> <Gold.PLP.part.metal>
0.0000

> <Gold.PLP.part.buried>
-2.9700

> <Gold.PLP.part.nonpolar>
-32.6568

> <Gold.PLP.part.repulsive>
0.0128

> <Gold.PLP.ligand.clash>
0.0000

> <Gold.PLP.ligand.torsion>
1.5069

> <Gold.PLP.Chemscore.Hbond>
1.4004

> <Gold.PLP.Chemscore.CHOScore>
0.0000

> <Gold.PLP.Chemscore.Metal>
0.0000

> <Gold.Chemscore.Hbonds>
donor molecule, donor type, donor heavy atom, donor atom, acceptor molecule, acceptor atom, score
      P1  H  6896  6907       L1    18  0.54
      P1  H  7997  8010       L1     7  0.73

> <Gold.PLP.Chemscore.Internal.Correction>
1.0746

> <Gold.Rescore>
     Score         DG    S(hbond)    S(metal)    S(lipo)     H(rot)  DE(clash)    DE(int)     intcor
     14.58     -15.99       0.89        0.00     101.35       1.68       0.02       1.40       ----

> <Gold.Chemscore.Fitness>
14.5758

> <Gold.Chemscore.DG>
-15.9944

> <Gold.Chemscore.ZeroCoef>
-5.4800

> <Gold.Chemscore.Hbond>
0.8859

> <Gold.Chemscore.Metal>
0.0000

> <Gold.Chemscore.Lipo>
101.3538

> <Gold.Chemscore.Internal_Hbond>
0.0000

> <Gold.Chemscore.DEClash>
0.0231

> <Gold.Chemscore.DEInternal>
1.3956

> <Gold.Chemscore.Rot>
1.6809

> <Gold.Chemscore.Internal.Correction>
   9.000000E+99

> <Gold.Chemscore.Hbonds>
donor molecule, donor type, donor heavy atom, donor atom, acceptor molecule, acceptor atom, score
      P1  H  6896  6907       L1    18  0.10
      P1  H  7997  8010       L1     7  0.61

> <Gold.Chemscore.Hbond.Weighted>
-2.9591

> <Gold.Chemscore.Metal.Weighted>
-0.0000

> <Gold.Chemscore.Lipo.Weighted>
-11.8584

> <Gold.Chemscore.Internal_Hbond.Weighted>
0.0000

> <Gold.Chemscore.DEClash.Weighted>
0.0231

> <Gold.Chemscore.DEInternal.Weighted>
1.3956

> <Gold.Chemscore.Rot.Weighted>
4.3030

> <Gold.Chemscore.Internal.Correction.Weighted>
   9.000000E+99

> <Gold.Protein.RotatedTorsions>
[ 6907 6896 6895 6894 ] final   71.37 input  -60.11 | X-H torsion
[ 7974 7965 7964 7962 ] final -158.26 input  175.53 | X-H torsion
[ 8008 7997 7996 7995 ] final   24.03 input   59.86 | X-H torsion
[ 10167 10162 10161 10158 ] final  -32.25 input  -65.29 | X-H torsion
[ 10718 10713 10712 10709 ] final  -58.18 input   66.30 | X-H torsion
[ 10763 10752 10751 10750 ] final  -85.70 input  -60.55 | X-H torsion
[ 11005 11000 10999 10996 ] final  128.98 input  -57.11 | X-H torsion

> <Gold.Protein.ActiveResidues>
 VAL166  LYS551  ARG553  GLY616  TRP617  ASP618  TYR619  PRO620  LYS621  CYS622 
 ASP623  PHE694  ASN695  SER759  ASP760  ASP761  ALA762  ILE779  LEU786  VAL792 
 PHE793  MET794  SER795  GLU796  ALA797  LYS798  CYS799  TRP800  GLU811  SER814 

> <Gold.Protein.RotatedAtoms>
  152.4806  134.4730  159.9641 H   0  0  0  0  0  0  0  0  0  0  0  0  # atno 6907 bound_to 6896
  151.4736  133.3557  159.2835 H   0  0  0  0  0  0  0  0  0  0  0  0  # atno 6908 bound_to 6896
  150.8876  134.8301  159.7331 H   0  0  0  0  0  0  0  0  0  0  0  0  # atno 6909 bound_to 6896
  144.7513  140.3853  143.6046 H   0  0  0  0  0  0  0  0  0  0  0  0  # atno 7974 bound_to 7965
  154.9899  140.3112  155.4910 H   0  0  0  0  0  0  0  0  0  0  0  0  # atno 8008 bound_to 7997
  156.2941  140.2251  156.4944 H   0  0  0  0  0  0  0  0  0  0  0  0  # atno 8009 bound_to 7997
  154.7712  140.0452  157.1041 H   0  0  0  0  0  0  0  0  0  0  0  0  # atno 8010 bound_to 7997
  140.7224  143.3709  151.1780 H   0  0  0  0  0  0  0  0  0  0  0  0  # atno 10167 bound_to 10162
  156.1155  130.4171  150.0541 H   0  0  0  0  0  0  0  0  0  0  0  0  # atno 10718 bound_to 10713
  154.6141  135.5475  153.7504 H   0  0  0  0  0  0  0  0  0  0  0  0  # atno 10763 bound_to 10752
  153.0208  135.6396  154.1536 H   0  0  0  0  0  0  0  0  0  0  0  0  # atno 10764 bound_to 10752
  154.1472  135.2905  155.3125 H   0  0  0  0  0  0  0  0  0  0  0  0  # atno 10765 bound_to 10752
  139.9590  134.9606  156.9081 H   0  0  0  0  0  0  0  0  0  0  0  0  # atno 11005 bound_to 11000
  145.6934  139.1644  143.2634 LP  0  0  0  0  0  0  0  0  0  0  0  0  # atno 17320 bound_to 7965
  146.1467  140.6983  142.9341 LP  0  0  0  0  0  0  0  0  0  0  0  0  # atno 17321 bound_to 7965
  139.7280  143.9118  152.3009 LP  0  0  0  0  0  0  0  0  0  0  0  0  # atno 17342 bound_to 10162
  139.8897  144.6972  150.8784 LP  0  0  0  0  0  0  0  0  0  0  0  0  # atno 17343 bound_to 10162
  156.8494  130.9453  151.3626 LP  0  0  0  0  0  0  0  0  0  0  0  0  # atno 17370 bound_to 10713
  157.6338  130.8750  149.9321 LP  0  0  0  0  0  0  0  0  0  0  0  0  # atno 17371 bound_to 10713
  140.5543  134.0596  155.7379 LP  0  0  0  0  0  0  0  0  0  0  0  0  # atno 17394 bound_to 11000
  141.1265  133.9374  157.2624 LP  0  0  0  0  0  0  0  0  0  0  0  0  # atno 17395 bound_to 11000

$$$$
