#       Name:                AV-unprocessed.smi:537
#       Creating user name   scv26
#       Creation time:       Thu Mar 26 23:35:43 2020


#       File generated by GOLD software.
#

@<TRIPOS>MOLECULE
AV-unprocessed.smi:537
    40    41     1
SMALL
NO_CHARGES


@<TRIPOS>ATOM
      1 ****         1.6464   2.9535   0.5517 C.3            1 S1                 0.0000
      2 ****         0.2815   2.4666   0.5721 N.pl3          1 S1                 0.0000
      3 ****        -0.2393   1.1791   0.6207 C.2            1 S1                 0.0000
      4 ****        -1.5421   0.8936   0.6312 N.2            1 S1                 0.0000
      5 ****        -1.5448  -0.4936   0.6745 C.2            1 S1                 0.0000
      6 ****        -0.2798  -0.9943   0.6881 C.2            1 S1                 0.0000
      7 ****         0.0309  -2.4401   0.7210 C.2            1 S1                 0.0000
      8 ****         1.1925  -2.8424   0.7227 O.2            1 S1                 0.0000
      9 ****        -1.1029  -3.2103   0.7462 N.pl3          1 S1                -1.0000
     10 ****        -2.4013  -2.7458   0.7385 C.2            1 S1                 0.0000
     11 ****        -3.3606  -3.5171   0.7648 O.2            1 S1                 0.0000
     12 ****        -2.6410  -1.3955   0.7016 N.am           1 S1                 0.0000
     13 ****        -3.9902  -0.8218   0.6912 C.3            1 S1                 0.0000
     14 ****         0.5860   0.1035   0.6591 N.pl3          1 S1                 0.0000
     15 ****         2.0466   0.1167   0.6599 C.3            1 S1                 0.0000
     16 ****         2.6267   0.1762  -0.7611 C.3            1 S1                 0.0000
     17 ****         2.1606  -0.9235  -1.5252 O.3            1 S1                 0.0000
     18 ****         2.6568  -0.9159  -2.8514 C.3            1 S1                 0.0000
     19 ****         1.6587   4.0419   0.4956 H              1 S1                 0.0000
     20 ****         2.1776   2.5547  -0.3126 H              1 S1                 0.0000
     21 ****         2.1727   2.6455   1.4552 H              1 S1                 0.0000
     22 ****        -0.4130   3.1987   0.5435 H              1 S1                 0.0000
     23 ****        -4.7944  -1.5571   0.7254 H              1 S1                 0.0000
     24 ****        -4.1325  -0.2269  -0.2114 H              1 S1                 0.0000
     25 ****        -4.1183  -0.1626   1.5501 H              1 S1                 0.0000
     26 ****         2.3928   0.9742   1.2373 H              1 S1                 0.0000
     27 ****         2.4218  -0.7551   1.1924 H              1 S1                 0.0000
     28 ****         2.3330   1.1105  -1.2422 H              1 S1                 0.0000
     29 ****         3.7164   0.1627  -0.7142 H              1 S1                 0.0000
     30 ****         2.2712  -1.7809  -3.3909 H              1 S1                 0.0000
     31 ****         3.7461  -0.9682  -2.8648 H              1 S1                 0.0000
     32 ****         2.3420  -0.0182  -3.3850 H              1 S1                 0.0000
     33 ****        -2.3206   1.5209   0.6126 LP             1 S1                 0.0000
     34 ****         1.9484  -2.1880   0.7016 LP             1 S1                 0.0000
     35 ****         1.3817  -3.8241   0.7452 LP             1 S1                 0.0000
     36 ****        -0.9765  -4.2020   0.7727 LP             1 S1                 0.0000
     37 ****        -3.2073  -4.5049   0.7925 LP             1 S1                 0.0000
     38 ****        -4.2930  -3.1558   0.7585 LP             1 S1                 0.0000
     39 ****         1.1617  -0.8907  -1.5570 LP             1 S1                 0.0000
     40 ****         2.4523  -1.7697  -1.0792 LP             1 S1                 0.0000
@<TRIPOS>BOND
    1    1    2 1     
    2    1   19 1     
    3    1   20 1     
    4    1   21 1     
    5    2    3 1     
    6    2   22 1     
    7    3   14 1     
    8    3    4 2     
    9    4    5 1     
   10    5   12 1     
   11    5    6 2     
   12    6    7 1     
   13    6   14 1     
   14    7    8 2     
   15    7    9 1     
   16    9   10 1     
   17   10   11 2     
   18   10   12 am    
   19   12   13 1     
   20   13   23 1     
   21   13   24 1     
   22   13   25 1     
   23   14   15 1     
   24   15   16 1     
   25   15   26 1     
   26   15   27 1     
   27   16   17 1     
   28   16   28 1     
   29   16   29 1     
   30   17   18 1     
   31   18   30 1     
   32   18   31 1     
   33   18   32 1     
   34    4   33 1     
   35    8   34 1     
   36    8   35 1     
   37    9   36 1     
   38   11   37 1     
   39   11   38 1     
   40   17   39 1     
   41   17   40 1     
@<TRIPOS>SUBSTRUCTURE
      1 S1             1
@<TRIPOS>SET
LONE_PAIRS      STATIC     ATOMS    <user>   **** ""
8 33 34 35 36 37 38 39 40
DONOR_HYDROGENS      STATIC     ATOMS    <user>   **** ""
1 22
ATOM$BLUE        STATIC     ATOMS    COLORGROUP SYSTEM
8 33 34 35 36 37 38 39 40
ATOM$RED        STATIC     ATOMS    COLORGROUP SYSTEM
1 22
