AV-unprocessed.smi:3057|AV-procd|sdf|11667|dock3
  -GOLD-   2272017 73D 1   1.00000     0.00000
 Structure written by MMmdl.
 41 43  0  0  0  0  0  0  0  0  2 V2000
  152.0942  143.0046  161.0046 C   0  0  0  0  0  0  0  0  0  0  0  0
  152.8479  142.5560  159.7353 C   0  0  1  0  0  0  0  0  0  0  0  0
  154.3166  142.2253  160.0462 C   0  0  0  0  0  0  0  0  0  0  0  0
  154.3006  140.7211  160.3591 C   0  0  0  0  0  0  0  0  0  0  0  0
  153.0536  140.2459  159.6277 C   0  0  0  0  0  0  0  0  0  0  0  0
  152.8198  139.0608  159.3944 O   0  0  0  0  0  0  0  0  0  0  0  0
  152.3193  141.3000  159.2367 N   0  0  0  0  0  0  0  0  0  0  0  0
  151.2522  141.3818  158.2275 C   0  0  2  0  0  0  0  0  0  0  0  0
  151.5664  140.5919  156.9434 C   0  0  0  0  0  0  0  0  0  0  0  0
  152.6612  140.0452  156.8015 O   0  0  0  0  0  0  0  0  0  0  0  0
  150.5992  140.5469  156.0143 N   0  0  0  0  0  0  0  0  0  0  0  0
  150.6935  139.8236  154.7523 C   0  0  0  0  0  0  0  0  0  0  0  0
  149.6442  138.7016  154.6680 C   0  0  0  0  0  0  0  0  0  0  0  0
  150.1705  137.3815  155.1953 C   0  0  0  0  0  0  0  0  0  0  0  0
  150.6976  137.2467  156.4981 C   0  0  0  0  0  0  0  0  0  0  0  0
  151.1661  135.9861  156.9240 C   0  0  0  0  0  0  0  0  0  0  0  0
  151.0979  134.8891  156.0402 C   0  0  0  0  0  0  0  0  0  0  0  0
  150.5610  135.0803  154.7506 C   0  0  0  0  0  0  0  0  0  0  0  0
  150.1216  136.3031  154.3799 N   0  3  0  0  0  0  0  0  0  0  0  0
  151.0260  142.8835  157.9450 C   0  0  0  0  0  0  0  0  0  0  0  0
  152.5842  143.7081  158.3718 S   0  0  0  0  0  0  0  0  0  0  0  0
  152.2060  142.2820  161.8137 H   0  0  0  0  0  0  0  0  0  0  0  0
  151.0262  143.1254  160.8234 H   0  0  0  0  0  0  0  0  0  0  0  0
  152.4751  143.9606  161.3650 H   0  0  0  0  0  0  0  0  0  0  0  0
  154.9446  142.4093  159.1729 H   0  0  0  0  0  0  0  0  0  0  0  0
  154.7182  142.8182  160.8687 H   0  0  0  0  0  0  0  0  0  0  0  0
  155.1995  140.2145  160.0065 H   0  0  0  0  0  0  0  0  0  0  0  0
  154.1852  140.5353  161.4273 H   0  0  0  0  0  0  0  0  0  0  0  0
  150.3454  140.9682  158.6719 H   0  0  0  0  0  0  0  0  0  0  0  0
  149.7323  141.0292  156.2043 H   0  0  0  0  0  0  0  0  0  0  0  0
  150.5441  140.5342  153.9389 H   0  0  0  0  0  0  0  0  0  0  0  0
  151.7003  139.4199  154.6317 H   0  0  0  0  0  0  0  0  0  0  0  0
  148.7527  138.9703  155.2369 H   0  0  0  0  0  0  0  0  0  0  0  0
  149.3194  138.5720  153.6348 H   0  0  0  0  0  0  0  0  0  0  0  0
  150.7430  138.0963  157.1639 H   0  0  0  0  0  0  0  0  0  0  0  0
  151.5726  135.8626  157.9171 H   0  0  0  0  0  0  0  0  0  0  0  0
  151.4520  133.9157  156.3472 H   0  0  0  0  0  0  0  0  0  0  0  0
  150.4703  134.2990  154.0102 H   0  0  0  0  0  0  0  0  0  0  0  0
  150.7413  143.0957  156.9135 H   0  0  0  0  0  0  0  0  0  0  0  0
  150.2372  143.2746  158.5876 H   0  0  0  0  0  0  0  0  0  0  0  0
  149.7362  136.4191  153.4420 H   0  0  0  0  0  0  0  0  0  0  0  0
  1  2  1  0  0  0  0
  1 22  1  0  0  0  0
  1 23  1  0  0  0  0
  1 24  1  0  0  0  0
  2  7  1  0  0  0  0
  2 21  1  0  0  0  0
  2  3  1  0  0  0  0
  3  4  1  0  0  0  0
  3 25  1  0  0  0  0
  3 26  1  0  0  0  0
  4  5  1  0  0  0  0
  4 27  1  0  0  0  0
  4 28  1  0  0  0  0
  5  6  2  0  0  0  0
  5  7  1  0  0  0  0
  7  8  1  0  0  0  0
  8  9  1  0  0  0  0
  8 20  1  0  0  0  0
  8 29  1  0  0  0  0
  9 10  2  0  0  0  0
  9 11  1  0  0  0  0
 11 12  1  0  0  0  0
 11 30  1  0  0  0  0
 12 13  1  0  0  0  0
 12 31  1  0  0  0  0
 12 32  1  0  0  0  0
 13 14  1  0  0  0  0
 13 33  1  0  0  0  0
 13 34  1  0  0  0  0
 14 19  1  0  0  0  0
 14 15  2  0  0  0  0
 15 16  1  0  0  0  0
 15 35  1  0  0  0  0
 16 17  2  0  0  0  0
 16 36  1  0  0  0  0
 17 18  1  0  0  0  0
 17 37  1  0  0  0  0
 18 19  2  0  0  0  0
 18 38  1  0  0  0  0
 19 41  1  0  0  0  0
 20 21  1  0  0  0  0
 20 39  1  0  0  0  0
 20 40  1  0  0  0  0
M  CHG  1  19   1
M  END
> <s_m_source_file>
AV-unprocessed.smi

> <i_m_source_file_index>
3057

> <i_lp_mmshare_version>
43012

> <i_f3d_flags>
0

> <s_epik_input>
W0NIMl0xW0NIMl1DKD1PKU4oW0NAQF0xMltDSDNdKVtDQEhdKFtDSDJdUzIpQyg9TylbTkhdW0NIMl1bQ0gyXWMzW2NIXVtjSF1bY0hdW2NIXW4z

> <s_epik_cmdline>
J2VwaWtfcHl0aG9uJywgJy1waCcsICc3LjAnLCAnLXRuJywgJzgnLCAnLW1hJywgJzIwMCcsICctbWV0YWxfYmluZGluZycsICctaW1hZScsICc8aW5maWxlLm1hZT4nLCAnLW9tYWUnLCAnPG91dGZpbGUubWFlPic=

> <r_epik_Ionization_Penalty>
1.8888

> <r_epik_Ionization_Penalty_Charging>
1.8888

> <r_epik_Ionization_Penalty_Neutral>
1.66252e-07

> <r_epik_State_Penalty>
2.00916

> <r_epik_Charging_Adjusted_Penalty>
3.89796

> <i_epik_Tot_Q>
1

> <i_epik_Tot_abs_Q>
1

> <r_epik_Metal_State_Penalty>
2.03343

> <b_epik_Metal_Only>
0

> <s_lp_Force_Field>
OPLS_2005

> <r_lp_Energy>
30.9082

> <b_lp_Chiralities_Consistent>
1

> <s_lp_Variant>
AV-unprocessed.smi:3057-7

> <Gold.Version>
5.8.1

> <Gold.Id.Protein>
6NUR|6NUR_protein|mol2

> <Gold.PLP.Fitness>
45.8171

> <Gold.PLP.PLP>
-37.3135

> <Gold.PLP.part.hbond>
-2.5562

> <Gold.PLP.part.metal>
0.0000

> <Gold.PLP.part.buried>
-2.5726

> <Gold.PLP.part.nonpolar>
-31.7503

> <Gold.PLP.part.repulsive>
0.1414

> <Gold.PLP.ligand.clash>
0.0000

> <Gold.PLP.ligand.torsion>
0.2559

> <Gold.PLP.Chemscore.Hbond>
3.0000

> <Gold.PLP.Chemscore.CHOScore>
0.0000

> <Gold.PLP.Chemscore.Metal>
0.0000

> <Gold.Chemscore.Hbonds>
donor molecule, donor type, donor heavy atom, donor atom, acceptor molecule, acceptor atom, score
      L1  H    19    41       P1  7948  2.00
      P1  H  7997  8010       L1    10  1.00

> <Gold.PLP.Chemscore.Internal.Correction>
0.0154

> <Gold.Rescore>
     Score         DG    S(hbond)    S(metal)    S(lipo)     H(rot)  DE(clash)    DE(int)     intcor
     16.45     -19.75       1.94        0.00     102.19       1.62       0.32       2.97       ----

> <Gold.Chemscore.Fitness>
16.4541

> <Gold.Chemscore.DG>
-19.7450

> <Gold.Chemscore.ZeroCoef>
-5.4800

> <Gold.Chemscore.Hbond>
1.9356

> <Gold.Chemscore.Metal>
0.0000

> <Gold.Chemscore.Lipo>
102.1870

> <Gold.Chemscore.Internal_Hbond>
0.0000

> <Gold.Chemscore.DEClash>
0.3189

> <Gold.Chemscore.DEInternal>
2.9720

> <Gold.Chemscore.Rot>
1.6234

> <Gold.Chemscore.Internal.Correction>
   9.000000E+99

> <Gold.Chemscore.Hbonds>
donor molecule, donor type, donor heavy atom, donor atom, acceptor molecule, acceptor atom, score
      L1  H    19    41       P1  7948  0.30
      P1  H  7997  8010       L1    10  0.99

> <Gold.Chemscore.Hbond.Weighted>
-6.4650

> <Gold.Chemscore.Metal.Weighted>
-0.0000

> <Gold.Chemscore.Lipo.Weighted>
-11.9559

> <Gold.Chemscore.Internal_Hbond.Weighted>
0.0000

> <Gold.Chemscore.DEClash.Weighted>
0.3189

> <Gold.Chemscore.DEInternal.Weighted>
2.9720

> <Gold.Chemscore.Rot.Weighted>
4.1558

> <Gold.Chemscore.Internal.Correction.Weighted>
   9.000000E+99

> <Gold.Protein.RotatedTorsions>
[ 6907 6896 6895 6894 ] final -135.53 input  -60.11 | X-H torsion
[ 7974 7965 7964 7962 ] final   88.90 input  175.53 | X-H torsion
[ 8008 7997 7996 7995 ] final   64.66 input   59.86 | X-H torsion
[ 10167 10162 10161 10158 ] final   10.11 input  -65.29 | X-H torsion
[ 10718 10713 10712 10709 ] final   11.61 input   66.30 | X-H torsion
[ 10763 10752 10751 10750 ] final   32.12 input  -60.55 | X-H torsion
[ 11005 11000 10999 10996 ] final -175.28 input  -57.11 | X-H torsion

> <Gold.Protein.ActiveResidues>
 VAL166  LYS551  ARG553  GLY616  TRP617  ASP618  TYR619  PRO620  LYS621  CYS622 
 ASP623  PHE694  ASN695  SER759  ASP760  ASP761  ALA762  ILE779  LEU786  VAL792 
 PHE793  MET794  SER795  GLU796  ALA797  LYS798  CYS799  TRP800  GLU811  SER814 

> <Gold.Protein.RotatedAtoms>
  150.9990  133.6075  159.2697 H   0  0  0  0  0  0  0  0  0  0  0  0  # atno 6907 bound_to 6896
  151.3268  135.0831  159.9334 H   0  0  0  0  0  0  0  0  0  0  0  0  # atno 6908 bound_to 6896
  152.5268  133.9627  159.7779 H   0  0  0  0  0  0  0  0  0  0  0  0  # atno 6909 bound_to 6896
  145.5395  139.2288  143.2573 H   0  0  0  0  0  0  0  0  0  0  0  0  # atno 7974 bound_to 7965
  155.6495  140.3497  155.4743 H   0  0  0  0  0  0  0  0  0  0  0  0  # atno 8008 bound_to 7997
  155.9859  140.1184  157.0706 H   0  0  0  0  0  0  0  0  0  0  0  0  # atno 8009 bound_to 7997
  154.4205  140.1129  156.5485 H   0  0  0  0  0  0  0  0  0  0  0  0  # atno 8010 bound_to 7997
  140.6214  143.8196  150.7180 H   0  0  0  0  0  0  0  0  0  0  0  0  # atno 10167 bound_to 10162
  156.9980  130.6068  149.5693 H   0  0  0  0  0  0  0  0  0  0  0  0  # atno 10718 bound_to 10713
  153.0279  135.6421  154.1306 H   0  0  0  0  0  0  0  0  0  0  0  0  # atno 10763 bound_to 10752
  154.1032  135.2858  155.3248 H   0  0  0  0  0  0  0  0  0  0  0  0  # atno 10764 bound_to 10752
  154.6384  135.5468  153.7823 H   0  0  0  0  0  0  0  0  0  0  0  0  # atno 10765 bound_to 10752
  140.4650  134.6218  157.4859 H   0  0  0  0  0  0  0  0  0  0  0  0  # atno 11005 bound_to 11000
  146.1990  140.6215  142.9111 LP  0  0  0  0  0  0  0  0  0  0  0  0  # atno 17320 bound_to 7965
  144.7584  140.5363  143.6753 LP  0  0  0  0  0  0  0  0  0  0  0  0  # atno 17321 bound_to 7965
  140.1787  143.4133  152.1949 LP  0  0  0  0  0  0  0  0  0  0  0  0  # atno 17342 bound_to 10162
  139.5442  144.7284  151.4637 LP  0  0  0  0  0  0  0  0  0  0  0  0  # atno 17343 bound_to 10162
  156.0182  130.5276  150.8196 LP  0  0  0  0  0  0  0  0  0  0  0  0  # atno 17370 bound_to 10713
  157.5410  131.0940  150.9827 LP  0  0  0  0  0  0  0  0  0  0  0  0  # atno 17371 bound_to 10713
  139.9921  134.6969  155.9672 LP  0  0  0  0  0  0  0  0  0  0  0  0  # atno 17394 bound_to 11000
  141.1603  133.6539  156.4298 LP  0  0  0  0  0  0  0  0  0  0  0  0  # atno 17395 bound_to 11000

$$$$
