AV-unprocessed.smi:3145|AV-procd|sdf|11982|dock5
  -GOLD-   2272017383D 1   1.00000     0.00000
 Structure written by MMmdl.
 34 34  0  0  0  0  0  0  0  0  1 V2000
  145.5466  136.2325  150.5286 C   0  0  0  0  0  0  0  0  0  0  0  0
  145.3193  136.1240  152.0429 C   0  0  1  0  0  0  0  0  0  0  0  0
  145.3365  134.6481  152.5006 C   0  0  0  0  0  0  0  0  0  0  0  0
  145.2556  133.7040  151.3997 N   0  0  0  0  0  0  0  0  0  0  0  0
  144.1832  133.4466  150.5717 C   0  0  0  0  0  0  0  0  0  0  0  0
  144.5730  132.4788  149.6908 C   0  0  0  0  0  0  0  0  0  0  0  0
  145.9199  132.2078  150.0607 C   0  0  0  0  0  0  0  0  0  0  0  0
  146.3263  132.9423  151.0835 N   0  0  0  0  0  0  0  0  0  0  0  0
  146.3881  136.8703  152.6994 N   0  0  0  0  0  0  0  0  0  0  0  0
  146.4172  138.2812  152.2941 C   0  0  0  0  0  0  0  0  0  0  0  0
  147.2418  139.1199  153.2659 C   0  0  0  0  0  0  0  0  0  0  0  0
  146.7456  140.1059  153.8096 O   0  0  0  0  0  0  0  0  0  0  0  0
  148.5016  138.7125  153.4767 N   0  0  0  0  0  0  0  0  0  0  0  0
  149.4472  139.3763  154.3628 C   0  0  0  0  0  0  0  0  0  0  0  0
  150.7878  138.6327  154.3884 C   0  0  0  0  0  0  0  0  0  0  0  0
  151.7819  139.2592  155.2737 C   0  0  0  0  0  0  0  0  0  0  0  0
  152.5632  139.7522  155.9700 N   0  0  0  0  0  0  0  0  0  0  0  0
  144.7697  135.7007  149.9786 H   0  0  0  0  0  0  0  0  0  0  0  0
  146.5080  135.8082  150.2361 H   0  0  0  0  0  0  0  0  0  0  0  0
  145.5255  137.2719  150.1991 H   0  0  0  0  0  0  0  0  0  0  0  0
  144.3462  136.5686  152.2609 H   0  0  0  0  0  0  0  0  0  0  0  0
  146.2608  134.4407  153.0413 H   0  0  0  0  0  0  0  0  0  0  0  0
  144.5223  134.4529  153.2012 H   0  0  0  0  0  0  0  0  0  0  0  0
  143.2421  133.9652  150.6802 H   0  0  0  0  0  0  0  0  0  0  0  0
  143.9865  132.0330  148.9011 H   0  0  0  0  0  0  0  0  0  0  0  0
  146.6095  131.5051  149.6180 H   0  0  0  0  0  0  0  0  0  0  0  0
  147.2744  136.4238  152.5114 H   0  0  0  0  0  0  0  0  0  0  0  0
  146.8304  138.3634  151.2879 H   0  0  0  0  0  0  0  0  0  0  0  0
  145.4095  138.6950  152.2598 H   0  0  0  0  0  0  0  0  0  0  0  0
  148.8241  137.8923  152.9826 H   0  0  0  0  0  0  0  0  0  0  0  0
  149.6032  140.3989  154.0163 H   0  0  0  0  0  0  0  0  0  0  0  0
  149.0314  139.4375  155.3696 H   0  0  0  0  0  0  0  0  0  0  0  0
  150.6489  137.5988  154.7058 H   0  0  0  0  0  0  0  0  0  0  0  0
  151.2166  138.6057  153.3866 H   0  0  0  0  0  0  0  0  0  0  0  0
  1  2  1  0  0  0  0
  1 18  1  0  0  0  0
  1 19  1  0  0  0  0
  1 20  1  0  0  0  0
  2  3  1  0  0  0  0
  2  9  1  0  0  0  0
  2 21  1  0  0  0  0
  3  4  1  0  0  0  0
  3 22  1  0  0  0  0
  3 23  1  0  0  0  0
  4  8  1  0  0  0  0
  4  5  1  0  0  0  0
  5  6  2  0  0  0  0
  5 24  1  0  0  0  0
  6  7  1  0  0  0  0
  6 25  1  0  0  0  0
  7  8  2  0  0  0  0
  7 26  1  0  0  0  0
  9 10  1  0  0  0  0
  9 27  1  0  0  0  0
 10 11  1  0  0  0  0
 10 28  1  0  0  0  0
 10 29  1  0  0  0  0
 11 12  2  0  0  0  0
 11 13  1  0  0  0  0
 13 14  1  0  0  0  0
 13 30  1  0  0  0  0
 14 15  1  0  0  0  0
 14 31  1  0  0  0  0
 14 32  1  0  0  0  0
 15 16  1  0  0  0  0
 15 33  1  0  0  0  0
 15 34  1  0  0  0  0
 16 17  3  0  0  0  0
M  END
> <s_m_source_file>
AV-unprocessed.smi

> <i_m_source_file_index>
3145

> <i_lp_mmshare_version>
43012

> <i_f3d_flags>
0

> <s_epik_input>
bjFbY0hdW2NIXVtjSF1uMVtDSDJdW0NAQEhdKFtDSDNdKVtOSF1bQ0gyXUMoPU8pW05IXVtDSDJdW0NIMl1DI04=

> <s_epik_cmdline>
J2VwaWtfcHl0aG9uJywgJy1waCcsICc3LjAnLCAnLXRuJywgJzgnLCAnLW1hJywgJzIwMCcsICctbWV0YWxfYmluZGluZycsICctaW1hZScsICc8aW5maWxlLm1hZT4nLCAnLW9tYWUnLCAnPG91dGZpbGUubWFlPic=

> <r_lp_tautomer_probability>
1

> <r_epik_Ionization_Penalty>
0.765991

> <r_epik_Ionization_Penalty_Charging>
0

> <r_epik_Ionization_Penalty_Neutral>
0.765991

> <r_epik_State_Penalty>
0.794192

> <r_epik_Charging_Adjusted_Penalty>
0.794192

> <i_epik_Tot_Q>
0

> <i_epik_Tot_abs_Q>
0

> <r_epik_Metal_State_Penalty>
0.806127

> <b_epik_Metal_Only>
0

> <s_lp_Force_Field>
OPLS_2005

> <r_lp_Energy>
5.51507

> <b_lp_Chiralities_Consistent>
1

> <s_lp_Variant>
AV-unprocessed.smi:3145-4

> <Gold.Version>
5.8.1

> <Gold.Id.Protein>
6NUR|6NUR_protein|mol2

> <Gold.PLP.Fitness>
48.4309

> <Gold.PLP.PLP>
-35.0766

> <Gold.PLP.part.hbond>
-4.0000

> <Gold.PLP.part.metal>
0.0000

> <Gold.PLP.part.buried>
-2.9816

> <Gold.PLP.part.nonpolar>
-28.5983

> <Gold.PLP.part.repulsive>
0.3847

> <Gold.PLP.ligand.clash>
0.0000

> <Gold.PLP.ligand.torsion>
0.8475

> <Gold.PLP.Chemscore.Hbond>
3.0000

> <Gold.PLP.Chemscore.CHOScore>
2.0000

> <Gold.PLP.Chemscore.Metal>
0.0000

> <Gold.Chemscore.Hbonds>
donor molecule, donor type, donor heavy atom, donor atom, acceptor molecule, acceptor atom, score
      L1  H     9    27       P1  7948  1.00
      L1  H    13    30       P1  7948  1.00
      P1  H  7997  8009       L1    17  1.00
      L1  C     5    24       P1 10186  0.97
      L1  C     7    26       P1 10747  1.00

> <Gold.PLP.Chemscore.Internal.Correction>
0.0493

> <Gold.Rescore>
     Score         DG    S(hbond)    S(metal)    S(lipo)     H(rot)  DE(clash)    DE(int)     intcor
     15.49     -16.72       2.99        0.00      72.06       2.80       0.33       0.90       ----

> <Gold.Chemscore.Fitness>
15.4887

> <Gold.Chemscore.DG>
-16.7159

> <Gold.Chemscore.ZeroCoef>
-5.4800

> <Gold.Chemscore.Hbond>
2.9865

> <Gold.Chemscore.Metal>
0.0000

> <Gold.Chemscore.Lipo>
72.0569

> <Gold.Chemscore.Internal_Hbond>
0.0000

> <Gold.Chemscore.DEClash>
0.3255

> <Gold.Chemscore.DEInternal>
0.9017

> <Gold.Chemscore.Rot>
2.8006

> <Gold.Chemscore.Internal.Correction>
   9.000000E+99

> <Gold.Chemscore.Hbonds>
donor molecule, donor type, donor heavy atom, donor atom, acceptor molecule, acceptor atom, score
      L1  H     9    27       P1  7948  0.99
      L1  H    13    30       P1  7948  0.97
      P1  H  7997  8009       L1    17  1.00

> <Gold.Chemscore.Hbond.Weighted>
-9.9748

> <Gold.Chemscore.Metal.Weighted>
-0.0000

> <Gold.Chemscore.Lipo.Weighted>
-8.4307

> <Gold.Chemscore.Internal_Hbond.Weighted>
0.0000

> <Gold.Chemscore.DEClash.Weighted>
0.3255

> <Gold.Chemscore.DEInternal.Weighted>
0.9017

> <Gold.Chemscore.Rot.Weighted>
7.1696

> <Gold.Chemscore.Internal.Correction.Weighted>
   9.000000E+99

> <Gold.Protein.RotatedTorsions>
[ 6907 6896 6895 6894 ] final  -58.92 input  -60.11 | X-H torsion
[ 7974 7965 7964 7962 ] final  -43.81 input  175.53 | X-H torsion
[ 8008 7997 7996 7995 ] final -157.30 input   59.86 | X-H torsion
[ 10167 10162 10161 10158 ] final -159.13 input  -65.29 | X-H torsion
[ 10718 10713 10712 10709 ] final -141.58 input   66.30 | X-H torsion
[ 10763 10752 10751 10750 ] final  124.07 input  -60.55 | X-H torsion
[ 11005 11000 10999 10996 ] final   59.70 input  -57.11 | X-H torsion

> <Gold.Protein.ActiveResidues>
 VAL166  LYS551  ARG553  GLY616  TRP617  ASP618  TYR619  PRO620  LYS621  CYS622 
 ASP623  PHE694  ASN695  SER759  ASP760  ASP761  ALA762  ILE779  LEU786  VAL792 
 PHE793  MET794  SER795  GLU796  ALA797  LYS798  CYS799  TRP800  GLU811  SER814 

> <Gold.Protein.RotatedAtoms>
  150.7969  134.7035  159.6563 H   0  0  0  0  0  0  0  0  0  0  0  0  # atno 6907 bound_to 6896
  152.4082  134.6166  160.0049 H   0  0  0  0  0  0  0  0  0  0  0  0  # atno 6908 bound_to 6896
  151.6417  133.3288  159.3168 H   0  0  0  0  0  0  0  0  0  0  0  0  # atno 6909 bound_to 6896
  145.9982  140.7104  142.9283 H   0  0  0  0  0  0  0  0  0  0  0  0  # atno 7974 bound_to 7965
  155.7304  140.0801  157.2291 H   0  0  0  0  0  0  0  0  0  0  0  0  # atno 8008 bound_to 7997
  154.4033  140.1596  156.2557 H   0  0  0  0  0  0  0  0  0  0  0  0  # atno 8009 bound_to 7997
  155.9114  140.3403  155.6104 H   0  0  0  0  0  0  0  0  0  0  0  0  # atno 8010 bound_to 7997
  139.6638  143.9865  152.2242 H   0  0  0  0  0  0  0  0  0  0  0  0  # atno 10167 bound_to 10162
  156.3357  130.7610  151.1737 H   0  0  0  0  0  0  0  0  0  0  0  0  # atno 10718 bound_to 10713
  153.6555  135.3355  155.3112 H   0  0  0  0  0  0  0  0  0  0  0  0  # atno 10763 bound_to 10752
  154.8527  135.4351  154.1859 H   0  0  0  0  0  0  0  0  0  0  0  0  # atno 10764 bound_to 10752
  153.2812  135.7009  153.7458 H   0  0  0  0  0  0  0  0  0  0  0  0  # atno 10765 bound_to 10752
  140.0285  134.6047  155.9540 H   0  0  0  0  0  0  0  0  0  0  0  0  # atno 11005 bound_to 11000
  144.6910  140.3187  143.7236 LP  0  0  0  0  0  0  0  0  0  0  0  0  # atno 17320 bound_to 7965
  145.7527  139.1799  143.2312 LP  0  0  0  0  0  0  0  0  0  0  0  0  # atno 17321 bound_to 7965
  139.9611  144.6557  150.8079 LP  0  0  0  0  0  0  0  0  0  0  0  0  # atno 17342 bound_to 10162
  140.7591  143.3122  151.2819 LP  0  0  0  0  0  0  0  0  0  0  0  0  # atno 17343 bound_to 10162
  157.7438  131.0468  150.4915 LP  0  0  0  0  0  0  0  0  0  0  0  0  # atno 17370 bound_to 10713
  156.5087  130.4134  149.6313 LP  0  0  0  0  0  0  0  0  0  0  0  0  # atno 17371 bound_to 10713
  141.1817  133.6548  156.5047 LP  0  0  0  0  0  0  0  0  0  0  0  0  # atno 17394 bound_to 11000
  140.4266  134.7140  157.4919 LP  0  0  0  0  0  0  0  0  0  0  0  0  # atno 17395 bound_to 11000

$$$$
