#       Name:                AV-unprocessed.smi:2076
#       Creating user name   scv26
#       Creation time:       Fri Mar 27 11:15:34 2020


#       File generated by GOLD software.
#

@<TRIPOS>MOLECULE
AV-unprocessed.smi:2076
    50    51     1
SMALL
NO_CHARGES


@<TRIPOS>ATOM
      1 ****        -4.1314   2.5644  -1.8311 C.3            1 S1                 0.0000
      2 ****        -3.6898   1.9149  -0.5531 C.2            1 S1                 0.0000
      3 ****        -3.2639   2.5393   0.6525 C.2            1 S1                 0.0000
      4 ****        -2.9721   1.4977   1.4874 C.2            1 S1                 0.0000
      5 ****        -2.4659   1.5025   2.8923 C.3            1 S1                 0.0000
      6 ****        -3.2271   0.3346   0.7824 N.pl3          1 S1                 0.0000
      7 ****        -3.0566  -1.0489   1.2009 C.3            1 S1                 0.0000
      8 ****        -1.5996  -1.4869   1.0482 C.2            1 S1                 0.0000
      9 ****        -0.9145  -1.7122   2.0455 O.2            1 S1                 0.0000
     10 ****        -1.1340  -1.5764  -0.2071 N.am           1 S1                 0.0000
     11 ****         0.2555  -1.8295  -0.5720 C.3            1 S1                 0.0000
     12 ****         1.1714  -0.5848  -0.3797 C.3            1 S1                 0.0000
     13 ****         0.5621   0.6138  -1.1532 C.3            1 S1                 0.0000
     14 ****         2.5863  -0.8397  -0.7370 N.3            1 S1                 0.0000
     15 ****         3.1718  -1.9497   0.0240 C.3            1 S1                 0.0000
     16 ****         4.6514  -2.1958  -0.3191 C.3            1 S1                 0.0000
     17 ****         5.3990  -1.0070  -0.1038 O.3            1 S1                 0.0000
     18 ****         4.9135   0.0762  -0.8842 C.3            1 S1                 0.0000
     19 ****         3.4372   0.3401  -0.5418 C.3            1 S1                 0.0000
     20 ****        -3.6686   0.5951  -0.4679 N.2            1 S1                 0.0000
     21 ****        -3.9677   3.6418  -1.8024 H              1 S1                 0.0000
     22 ****        -5.1931   2.3945  -2.0100 H              1 S1                 0.0000
     23 ****        -3.5808   2.1690  -2.6852 H              1 S1                 0.0000
     24 ****        -3.1805   3.5939   0.8704 H              1 S1                 0.0000
     25 ****        -2.3704   2.5213   3.2682 H              1 S1                 0.0000
     26 ****        -1.4852   1.0306   2.9535 H              1 S1                 0.0000
     27 ****        -3.1451   0.9641   3.5535 H              1 S1                 0.0000
     28 ****        -3.3759  -1.1496   2.2388 H              1 S1                 0.0000
     29 ****        -3.7024  -1.6952   0.6042 H              1 S1                 0.0000
     30 ****        -1.7740  -1.3754  -0.9623 H              1 S1                 0.0000
     31 ****         0.5886  -2.6806   0.0206 H              1 S1                 0.0000
     32 ****         0.2787  -2.1496  -1.6139 H              1 S1                 0.0000
     33 ****         1.1389  -0.3240   0.6795 H              1 S1                 0.0000
     34 ****        -0.4883   0.7766  -0.9135 H              1 S1                 0.0000
     35 ****         0.6322   0.4635  -2.2310 H              1 S1                 0.0000
     36 ****         1.0518   1.5556  -0.9110 H              1 S1                 0.0000
     37 ****         3.0753  -1.7575   1.0936 H              1 S1                 0.0000
     38 ****         2.6441  -2.8787  -0.1806 H              1 S1                 0.0000
     39 ****         5.0577  -2.9888   0.3086 H              1 S1                 0.0000
     40 ****         4.7593  -2.5207  -1.3554 H              1 S1                 0.0000
     41 ****         5.5142   0.9615  -0.6762 H              1 S1                 0.0000
     42 ****         5.0304  -0.1473  -1.9459 H              1 S1                 0.0000
     43 ****         3.1069   1.1613  -1.1753 H              1 S1                 0.0000
     44 ****         3.3613   0.6848   0.4907 H              1 S1                 0.0000
     45 ****        -1.3105  -1.6089   2.9579 LP             1 S1                 0.0000
     46 ****         0.0382  -1.9985   1.9434 LP             1 S1                 0.0000
     47 ****         2.5606  -1.0785  -1.7078 LP             1 S1                 0.0000
     48 ****         6.3538  -1.1776  -0.3472 LP             1 S1                 0.0000
     49 ****         5.3406  -0.7597   0.8633 LP             1 S1                 0.0000
     50 ****        -3.9235  -0.0653  -1.1742 LP             1 S1                 0.0000
@<TRIPOS>BOND
    1    1    2 1     
    2    1   21 1     
    3    1   22 1     
    4    1   23 1     
    5    2   20 2     
    6    2    3 1     
    7    3    4 2     
    8    3   24 1     
    9    4    5 1     
   10    4    6 1     
   11    5   25 1     
   12    5   26 1     
   13    5   27 1     
   14    6    7 1     
   15    6   20 1     
   16    7    8 1     
   17    7   28 1     
   18    7   29 1     
   19    8    9 2     
   20    8   10 am    
   21   10   11 1     
   22   10   30 1     
   23   11   12 1     
   24   11   31 1     
   25   11   32 1     
   26   12   13 1     
   27   12   14 1     
   28   12   33 1     
   29   13   34 1     
   30   13   35 1     
   31   13   36 1     
   32   14   19 1     
   33   14   15 1     
   34   15   16 1     
   35   15   37 1     
   36   15   38 1     
   37   16   17 1     
   38   16   39 1     
   39   16   40 1     
   40   17   18 1     
   41   18   19 1     
   42   18   41 1     
   43   18   42 1     
   44   19   43 1     
   45   19   44 1     
   46    9   45 1     
   47    9   46 1     
   48   14   47 1     
   49   17   48 1     
   50   17   49 1     
   51   20   50 1     
@<TRIPOS>SUBSTRUCTURE
      1 S1             1
@<TRIPOS>SET
LONE_PAIRS      STATIC     ATOMS    <user>   **** ""
6 45 46 47 48 49 50
DONOR_HYDROGENS      STATIC     ATOMS    <user>   **** ""
1 30
ATOM$BLUE        STATIC     ATOMS    COLORGROUP SYSTEM
6 45 46 47 48 49 50
ATOM$RED        STATIC     ATOMS    COLORGROUP SYSTEM
1 30
