AV-unprocessed.smi:2888|AV-procd|sdf|11102|dock1
  -GOLD-   2272015573D 1   1.00000     0.00000
 Structure written by MMmdl.
 33 35  0  0  0  0  0  0  0  0  1 V2000
  153.7082  140.8506  159.8019 C   0  0  0  0  0  0  0  0  0  0  0  0
  152.8176  141.9557  159.2759 C   0  0  0  0  0  0  0  0  0  0  0  0
  152.8535  143.2566  159.8199 C   0  0  0  0  0  0  0  0  0  0  0  0
  151.9737  144.1950  159.2409 C   0  0  0  0  0  0  0  0  0  0  0  0
  151.9088  145.6261  159.7303 C   0  0  0  0  0  0  0  0  0  0  0  0
  151.1442  143.8628  158.2266 N   0  0  0  0  0  0  0  0  0  0  0  0
  151.1913  142.6010  157.7921 C   0  0  0  0  0  0  0  0  0  0  0  0
  150.3219  142.2954  156.7613 N   0  0  0  0  0  0  0  0  0  0  0  0
  149.8347  140.9517  156.4707 C   0  0  2  0  0  0  0  0  0  0  0  0
  150.3272  140.4067  155.1283 C   0  0  0  0  0  0  0  0  0  0  0  0
  149.0098  139.9984  154.4532 C   0  0  2  0  0  0  0  0  0  0  0  0
  148.2316  141.2220  153.9530 C   0  0  0  0  0  0  0  0  0  0  0  0
  147.7292  141.8263  155.2626 C   0  0  0  0  0  0  0  0  0  0  0  0
  148.3055  140.8523  156.3051 C   0  0  1  0  0  0  0  0  0  0  0  0
  148.2260  139.6374  155.5786 O   0  0  0  0  0  0  0  0  0  0  0  0
  151.9852  141.6314  158.2624 N   0  0  0  0  0  0  0  0  0  0  0  0
  154.4129  141.2309  160.5417 H   0  0  0  0  0  0  0  0  0  0  0  0
  154.2788  140.4016  158.9884 H   0  0  0  0  0  0  0  0  0  0  0  0
  153.1065  140.0721  160.2714 H   0  0  0  0  0  0  0  0  0  0  0  0
  153.5156  143.5188  160.6322 H   0  0  0  0  0  0  0  0  0  0  0  0
  152.7039  145.8330  160.4473 H   0  0  0  0  0  0  0  0  0  0  0  0
  150.9517  145.8159  160.2166 H   0  0  0  0  0  0  0  0  0  0  0  0
  152.0147  146.3199  158.8959 H   0  0  0  0  0  0  0  0  0  0  0  0
  149.8536  143.0717  156.3176 H   0  0  0  0  0  0  0  0  0  0  0  0
  150.1589  140.2755  157.2631 H   0  0  0  0  0  0  0  0  0  0  0  0
  150.8808  141.1344  154.5333 H   0  0  0  0  0  0  0  0  0  0  0  0
  150.9703  139.5400  155.2855 H   0  0  0  0  0  0  0  0  0  0  0  0
  149.1191  139.2096  153.7086 H   0  0  0  0  0  0  0  0  0  0  0  0
  148.8571  141.9082  153.3809 H   0  0  0  0  0  0  0  0  0  0  0  0
  147.3927  140.9195  153.3255 H   0  0  0  0  0  0  0  0  0  0  0  0
  148.0579  142.8553  155.4101 H   0  0  0  0  0  0  0  0  0  0  0  0
  146.6392  141.8159  155.2908 H   0  0  0  0  0  0  0  0  0  0  0  0
  147.7582  140.8426  157.2479 H   0  0  0  0  0  0  0  0  0  0  0  0
  1  2  1  0  0  0  0
  1 17  1  0  0  0  0
  1 18  1  0  0  0  0
  1 19  1  0  0  0  0
  2 16  1  0  0  0  0
  2  3  2  0  0  0  0
  3  4  1  0  0  0  0
  3 20  1  0  0  0  0
  4  5  1  0  0  0  0
  4  6  2  0  0  0  0
  5 21  1  0  0  0  0
  5 22  1  0  0  0  0
  5 23  1  0  0  0  0
  6  7  1  0  0  0  0
  7  8  1  0  0  0  0
  7 16  2  0  0  0  0
  8  9  1  0  0  0  0
  8 24  1  0  0  0  0
  9 14  1  0  0  0  0
  9 10  1  0  0  0  0
  9 25  1  0  0  0  0
 10 11  1  0  0  0  0
 10 26  1  0  0  0  0
 10 27  1  0  0  0  0
 11 15  1  0  0  0  0
 11 12  1  0  0  0  0
 11 28  1  0  0  0  0
 12 13  1  0  0  0  0
 12 29  1  0  0  0  0
 12 30  1  0  0  0  0
 13 14  1  0  0  0  0
 13 31  1  0  0  0  0
 13 32  1  0  0  0  0
 14 15  1  0  0  0  0
 14 33  1  0  0  0  0
M  END
> <s_m_source_file>
AV-unprocessed.smi

> <i_m_source_file_index>
2888

> <i_lp_mmshare_version>
43012

> <i_f3d_flags>
0

> <s_epik_input>
W0NIM11jMVtjSF1jKFtDSDNdKW5jKG4xKVtOSF1bQ0BIXShbQ0gyXVtDQEBIXTIzKVtDQEBIXShPMylbQ0gyXVtDSDJdMg==

> <s_epik_cmdline>
J2VwaWtfcHl0aG9uJywgJy1waCcsICc3LjAnLCAnLXRuJywgJzgnLCAnLW1hJywgJzIwMCcsICctbWV0YWxfYmluZGluZycsICctaW1hZScsICc8aW5maWxlLm1hZT4nLCAnLW9tYWUnLCAnPG91dGZpbGUubWFlPic=

> <r_lp_tautomer_probability>
1

> <r_epik_Ionization_Penalty>
0.00890508

> <r_epik_Ionization_Penalty_Charging>
0

> <r_epik_Ionization_Penalty_Neutral>
0.00890508

> <r_epik_State_Penalty>
0.0067342

> <r_epik_Charging_Adjusted_Penalty>
0.0067342

> <i_epik_Tot_Q>
0

> <i_epik_Tot_abs_Q>
0

> <r_epik_Metal_State_Penalty>
0.00663442

> <b_epik_Metal_Only>
0

> <s_lp_Force_Field>
OPLS_2005

> <r_lp_Energy>
31.8735

> <b_lp_Chiralities_Consistent>
1

> <s_lp_Variant>
AV-unprocessed.smi:2888-3

> <Gold.Version>
5.8.1

> <Gold.Id.Protein>
6NUR|6NUR_protein|mol2

> <Gold.PLP.Fitness>
36.8331

> <Gold.PLP.PLP>
-34.2048

> <Gold.PLP.part.hbond>
-1.0000

> <Gold.PLP.part.metal>
0.0000

> <Gold.PLP.part.buried>
-1.6066

> <Gold.PLP.part.nonpolar>
-32.1950

> <Gold.PLP.part.repulsive>
0.1983

> <Gold.PLP.ligand.clash>
0.0000

> <Gold.PLP.ligand.torsion>
0.1903

> <Gold.PLP.Chemscore.Hbond>
1.0000

> <Gold.PLP.Chemscore.CHOScore>
0.0000

> <Gold.PLP.Chemscore.Metal>
0.0000

> <Gold.Chemscore.Hbonds>
donor molecule, donor type, donor heavy atom, donor atom, acceptor molecule, acceptor atom, score
      L1  H     8    24       P1  8028  1.00

> <Gold.PLP.Chemscore.Internal.Correction>
0.0090

> <Gold.Rescore>
     Score         DG    S(hbond)    S(metal)    S(lipo)     H(rot)  DE(clash)    DE(int)     intcor
     16.80     -16.98       1.00        0.00      91.60       1.00       0.04       0.14       ----

> <Gold.Chemscore.Fitness>
16.7956

> <Gold.Chemscore.DG>
-16.9757

> <Gold.Chemscore.ZeroCoef>
-5.4800

> <Gold.Chemscore.Hbond>
0.9995

> <Gold.Chemscore.Metal>
0.0000

> <Gold.Chemscore.Lipo>
91.6023

> <Gold.Chemscore.Internal_Hbond>
0.0000

> <Gold.Chemscore.DEClash>
0.0446

> <Gold.Chemscore.DEInternal>
0.1354

> <Gold.Chemscore.Rot>
1.0000

> <Gold.Chemscore.Internal.Correction>
   9.000000E+99

> <Gold.Chemscore.Hbonds>
donor molecule, donor type, donor heavy atom, donor atom, acceptor molecule, acceptor atom, score
      L1  H     8    24       P1  8028  0.94

> <Gold.Chemscore.Hbond.Weighted>
-3.3382

> <Gold.Chemscore.Metal.Weighted>
-0.0000

> <Gold.Chemscore.Lipo.Weighted>
-10.7175

> <Gold.Chemscore.Internal_Hbond.Weighted>
0.0000

> <Gold.Chemscore.DEClash.Weighted>
0.0446

> <Gold.Chemscore.DEInternal.Weighted>
0.1354

> <Gold.Chemscore.Rot.Weighted>
2.5600

> <Gold.Chemscore.Internal.Correction.Weighted>
   9.000000E+99

> <Gold.Protein.RotatedTorsions>
[ 6907 6896 6895 6894 ] final -178.38 input  -60.11 | X-H torsion
[ 7974 7965 7964 7962 ] final  -43.74 input  175.53 | X-H torsion
[ 8008 7997 7996 7995 ] final  -44.69 input   59.86 | X-H torsion
[ 10167 10162 10161 10158 ] final   60.63 input  -65.29 | X-H torsion
[ 10718 10713 10712 10709 ] final  -67.71 input   66.30 | X-H torsion
[ 10763 10752 10751 10750 ] final  134.51 input  -60.55 | X-H torsion
[ 11005 11000 10999 10996 ] final  107.11 input  -57.11 | X-H torsion

> <Gold.Protein.ActiveResidues>
 VAL166  LYS551  ARG553  GLY616  TRP617  ASP618  TYR619  PRO620  LYS621  CYS622 
 ASP623  PHE694  ASN695  SER759  ASP760  ASP761  ALA762  ILE779  LEU786  VAL792 
 PHE793  MET794  SER795  GLU796  ALA797  LYS798  CYS799  TRP800  GLU811  SER814 

> <Gold.Protein.RotatedAtoms>
  151.6362  133.3329  159.3119 H   0  0  0  0  0  0  0  0  0  0  0  0  # atno 6907 bound_to 6896
  150.8031  134.7142  159.6630 H   0  0  0  0  0  0  0  0  0  0  0  0  # atno 6908 bound_to 6896
  152.4125  134.6104  160.0075 H   0  0  0  0  0  0  0  0  0  0  0  0  # atno 6909 bound_to 6896
  145.9989  140.7096  142.9280 H   0  0  0  0  0  0  0  0  0  0  0  0  # atno 7974 bound_to 7965
  154.3998  140.1416  156.3724 H   0  0  0  0  0  0  0  0  0  0  0  0  # atno 8008 bound_to 7997
  155.8080  140.3474  155.5420 H   0  0  0  0  0  0  0  0  0  0  0  0  # atno 8009 bound_to 7997
  155.8416  140.0927  157.1721 H   0  0  0  0  0  0  0  0  0  0  0  0  # atno 8010 bound_to 7997
  140.1635  144.4347  150.6697 H   0  0  0  0  0  0  0  0  0  0  0  0  # atno 10167 bound_to 10162
  156.0543  130.4282  150.1894 H   0  0  0  0  0  0  0  0  0  0  0  0  # atno 10718 bound_to 10713
  153.8247  135.3111  155.3413 H   0  0  0  0  0  0  0  0  0  0  0  0  # atno 10763 bound_to 10752
  154.7998  135.4733  154.0251 H   0  0  0  0  0  0  0  0  0  0  0  0  # atno 10764 bound_to 10752
  153.1671  135.6871  153.8750 H   0  0  0  0  0  0  0  0  0  0  0  0  # atno 10765 bound_to 10752
  139.8823  134.9391  156.5770 H   0  0  0  0  0  0  0  0  0  0  0  0  # atno 11005 bound_to 11000
  144.6913  140.3199  143.7234 LP  0  0  0  0  0  0  0  0  0  0  0  0  # atno 17320 bound_to 7965
  145.7517  139.1796  143.2318 LP  0  0  0  0  0  0  0  0  0  0  0  0  # atno 17321 bound_to 7965
  140.6628  143.2257  151.5816 LP  0  0  0  0  0  0  0  0  0  0  0  0  # atno 17342 bound_to 10162
  139.5370  144.2753  152.1272 LP  0  0  0  0  0  0  0  0  0  0  0  0  # atno 17343 bound_to 10162
  156.9973  130.9911  151.3400 LP  0  0  0  0  0  0  0  0  0  0  0  0  # atno 17370 bound_to 10713
  157.5499  130.8175  149.8132 LP  0  0  0  0  0  0  0  0  0  0  0  0  # atno 17371 bound_to 10713
  140.8056  133.8470  155.8764 LP  0  0  0  0  0  0  0  0  0  0  0  0  # atno 17394 bound_to 11000
  140.9553  134.1726  157.4696 LP  0  0  0  0  0  0  0  0  0  0  0  0  # atno 17395 bound_to 11000

$$$$
