AV-unprocessed.smi:1239|AV-procd|sdf|5194|dock9
  -GOLD-   22720 4283D 1   1.00000     0.00000
 Structure written by MMmdl.
 48 49  0  0  0  0  0  0  0  0  4 V2000
  149.3236  138.1346  155.1488 C   0  0  0  0  0  0  0  0  0  0  0  0
  150.0866  136.7948  154.9970 C   0  0  1  0  0  0  0  0  0  0  0  0
  150.9456  136.4020  156.2304 C   0  0  0  0  0  0  0  0  0  0  0  0
  152.3055  136.9470  156.1505 N   0  5  0  0  0  0  0  0  0  0  0  0
  152.7848  137.9705  156.9077 C   0  0  0  0  0  0  0  0  0  0  0  0
  153.9192  138.0811  157.3866 O   0  0  0  0  0  0  0  0  0  0  0  0
  151.8460  138.9010  157.1544 N   0  0  0  0  0  0  0  0  0  0  0  0
  151.9557  140.1271  157.8648 C   0  0  0  0  0  0  0  0  0  0  0  0
  152.7932  140.1558  158.9984 C   0  0  0  0  0  0  0  0  0  0  0  0
  152.9191  141.3429  159.7486 C   0  0  0  0  0  0  0  0  0  0  0  0
  152.1940  142.4983  159.3664 C   0  0  0  0  0  0  0  0  0  0  0  0
  152.2653  143.7226  160.0657 N   0  0  0  0  0  0  0  0  0  0  0  0
  151.9876  144.9724  159.3664 C   0  0  0  0  0  0  0  0  0  0  0  0
  152.4786  143.7202  161.5070 C   0  0  0  0  0  0  0  0  0  0  0  0
  151.3909  142.4174  158.2775 N   0  3  0  0  0  0  0  0  0  0  0  0
  151.2413  141.3019  157.5312 C   0  0  0  0  0  0  0  0  0  0  0  0
  149.2413  135.6465  154.5383 N   0  3  0  0  0  0  0  0  0  0  0  0
  149.7817  134.2796  154.7683 C   0  0  0  0  0  0  0  0  0  0  0  0
  148.8979  133.2436  154.0575 C   0  0  0  0  0  0  0  0  0  0  0  0
  147.5654  133.3480  154.5446 O   0  0  0  0  0  0  0  0  0  0  0  0
  146.9995  134.6267  154.2820 C   0  0  0  0  0  0  0  0  0  0  0  0
  147.8272  135.7203  154.9786 C   0  0  0  0  0  0  0  0  0  0  0  0
  150.0024  138.9627  155.3609 H   0  0  0  0  0  0  0  0  0  0  0  0
  148.5815  138.1129  155.9485 H   0  0  0  0  0  0  0  0  0  0  0  0
  148.8045  138.3903  154.2246 H   0  0  0  0  0  0  0  0  0  0  0  0
  150.8193  136.9816  154.2108 H   0  0  0  0  0  0  0  0  0  0  0  0
  150.4278  136.7304  157.1332 H   0  0  0  0  0  0  0  0  0  0  0  0
  150.9702  135.3147  156.3030 H   0  0  0  0  0  0  0  0  0  0  0  0
  150.9225  138.6799  156.8108 H   0  0  0  0  0  0  0  0  0  0  0  0
  153.3430  139.2735  159.2926 H   0  0  0  0  0  0  0  0  0  0  0  0
  153.5717  141.3451  160.6085 H   0  0  0  0  0  0  0  0  0  0  0  0
  150.9690  144.9740  158.9769 H   0  0  0  0  0  0  0  0  0  0  0  0
  152.6783  145.1082  158.5334 H   0  0  0  0  0  0  0  0  0  0  0  0
  152.0941  145.8311  160.0295 H   0  0  0  0  0  0  0  0  0  0  0  0
  153.4366  143.2612  161.7527 H   0  0  0  0  0  0  0  0  0  0  0  0
  151.6857  143.1658  162.0103 H   0  0  0  0  0  0  0  0  0  0  0  0
  152.4834  144.7336  161.9084 H   0  0  0  0  0  0  0  0  0  0  0  0
  150.5461  141.3953  156.7107 H   0  0  0  0  0  0  0  0  0  0  0  0
  150.8013  134.2027  154.3912 H   0  0  0  0  0  0  0  0  0  0  0  0
  149.8127  134.0588  155.8359 H   0  0  0  0  0  0  0  0  0  0  0  0
  148.9194  133.3892  152.9761 H   0  0  0  0  0  0  0  0  0  0  0  0
  149.2678  132.2368  154.2520 H   0  0  0  0  0  0  0  0  0  0  0  0
  146.9552  134.8013  153.2058 H   0  0  0  0  0  0  0  0  0  0  0  0
  145.9734  134.6411  154.6494 H   0  0  0  0  0  0  0  0  0  0  0  0
  147.7743  135.6079  156.0625 H   0  0  0  0  0  0  0  0  0  0  0  0
  147.4092  136.6973  154.7324 H   0  0  0  0  0  0  0  0  0  0  0  0
  150.8618  143.2466  158.0074 H   0  0  0  0  0  0  0  0  0  0  0  0
  149.2117  135.7560  153.5337 H   0  0  0  0  0  0  0  0  0  0  0  0
  1  2  1  0  0  0  0
  1 23  1  0  0  0  0
  1 24  1  0  0  0  0
  1 25  1  0  0  0  0
  2  3  1  0  0  0  0
  2 17  1  0  0  0  0
  2 26  1  0  0  0  0
  3  4  1  0  0  0  0
  3 27  1  0  0  0  0
  3 28  1  0  0  0  0
  4  5  1  0  0  0  0
  5  6  2  0  0  0  0
  5  7  1  0  0  0  0
  7  8  1  0  0  0  0
  7 29  1  0  0  0  0
  8 16  1  0  0  0  0
  8  9  2  0  0  0  0
  9 10  1  0  0  0  0
  9 30  1  0  0  0  0
 10 11  2  0  0  0  0
 10 31  1  0  0  0  0
 11 12  1  0  0  0  0
 11 15  1  0  0  0  0
 12 13  1  0  0  0  0
 12 14  1  0  0  0  0
 13 32  1  0  0  0  0
 13 33  1  0  0  0  0
 13 34  1  0  0  0  0
 14 35  1  0  0  0  0
 14 36  1  0  0  0  0
 14 37  1  0  0  0  0
 15 16  2  0  0  0  0
 15 47  1  0  0  0  0
 16 38  1  0  0  0  0
 17 22  1  0  0  0  0
 17 18  1  0  0  0  0
 17 48  1  0  0  0  0
 18 19  1  0  0  0  0
 18 39  1  0  0  0  0
 18 40  1  0  0  0  0
 19 20  1  0  0  0  0
 19 41  1  0  0  0  0
 19 42  1  0  0  0  0
 20 21  1  0  0  0  0
 21 22  1  0  0  0  0
 21 43  1  0  0  0  0
 21 44  1  0  0  0  0
 22 45  1  0  0  0  0
 22 46  1  0  0  0  0
M  CHG  1   4  -1
M  CHG  1  15   1
M  CHG  1  17   1
M  END
> <s_m_source_file>
AV-unprocessed.smi

> <i_m_source_file_index>
1239

> <i_lp_mmshare_version>
43012

> <i_f3d_flags>
0

> <s_epik_input>
W0NIMl0xW0NIMl1PW0NIMl1bQ0gyXU4xW0NASF0oW0NIM10pW0NIMl1bTkhdQyg9TylbTkhdYzJbY0hdW2NIXWMoTihbQ0gzXSlbQ0gzXSluW2NIXTI=

> <s_epik_cmdline>
J2VwaWtfcHl0aG9uJywgJy1waCcsICc3LjAnLCAnLXRuJywgJzgnLCAnLW1hJywgJzIwMCcsICctbWV0YWxfYmluZGluZycsICctaW1hZScsICc8aW5maWxlLm1hZT4nLCAnLW9tYWUnLCAnPG91dGZpbGUubWFlPic=

> <r_lp_tautomer_probability>
0.999994

> <r_epik_Ionization_Penalty>
7.43905

> <r_epik_Ionization_Penalty_Charging>
7.43905

> <r_epik_Ionization_Penalty_Neutral>
3.43851e-06

> <r_epik_State_Penalty>
7.63789

> <r_epik_Charging_Adjusted_Penalty>
15.0769

> <i_epik_Tot_Q>
1

> <i_epik_Tot_abs_Q>
3

> <r_epik_Metal_State_Penalty>
3.83826

> <b_epik_Metal_Only>
1

> <s_lp_Force_Field>
OPLS_2005

> <r_lp_Energy>
25.3923

> <b_lp_Chiralities_Consistent>
1

> <s_lp_Variant>
AV-unprocessed.smi:1239-10

> <Gold.Version>
5.8.1

> <Gold.Id.Protein>
6NUR|6NUR_protein|mol2

> <Gold.PLP.Fitness>
48.3831

> <Gold.PLP.PLP>
-38.3906

> <Gold.PLP.part.hbond>
-3.0000

> <Gold.PLP.part.metal>
0.0000

> <Gold.PLP.part.buried>
-6.1760

> <Gold.PLP.part.nonpolar>
-30.4310

> <Gold.PLP.part.repulsive>
0.1802

> <Gold.PLP.ligand.clash>
0.0000

> <Gold.PLP.ligand.torsion>
2.1402

> <Gold.PLP.Chemscore.Hbond>
4.6844

> <Gold.PLP.Chemscore.CHOScore>
0.0000

> <Gold.PLP.Chemscore.Metal>
0.0000

> <Gold.Chemscore.Hbonds>
donor molecule, donor type, donor heavy atom, donor atom, acceptor molecule, acceptor atom, score
      L1  H    17    48       P1  7948  2.00
      P1  H  7997  8010       L1     6  0.72
      P1  H 10752 10765       L1     4  1.92

> <Gold.PLP.Chemscore.Internal.Correction>
0.2197

> <Gold.Rescore>
     Score         DG    S(hbond)    S(metal)    S(lipo)     H(rot)  DE(clash)    DE(int)     intcor
     14.48     -17.73       2.23        0.00      73.40       1.48       0.00       3.25       ----

> <Gold.Chemscore.Fitness>
14.4787

> <Gold.Chemscore.DG>
-17.7259

> <Gold.Chemscore.ZeroCoef>
-5.4800

> <Gold.Chemscore.Hbond>
2.2317

> <Gold.Chemscore.Metal>
0.0000

> <Gold.Chemscore.Lipo>
73.4048

> <Gold.Chemscore.Internal_Hbond>
0.0000

> <Gold.Chemscore.DEClash>
0.0000

> <Gold.Chemscore.DEInternal>
3.2472

> <Gold.Chemscore.Rot>
1.4830

> <Gold.Chemscore.Internal.Correction>
   9.000000E+99

> <Gold.Chemscore.Hbonds>
donor molecule, donor type, donor heavy atom, donor atom, acceptor molecule, acceptor atom, score
      L1  H    17    48       P1  7948  0.65
      P1  H  7997  8010       L1     6  0.45
      P1  H 10752 10765       L1     4  0.26

> <Gold.Chemscore.Hbond.Weighted>
-7.4539

> <Gold.Chemscore.Metal.Weighted>
-0.0000

> <Gold.Chemscore.Lipo.Weighted>
-8.5884

> <Gold.Chemscore.Internal_Hbond.Weighted>
0.0000

> <Gold.Chemscore.DEClash.Weighted>
0.0000

> <Gold.Chemscore.DEInternal.Weighted>
3.2472

> <Gold.Chemscore.Rot.Weighted>
3.7964

> <Gold.Chemscore.Internal.Correction.Weighted>
   9.000000E+99

> <Gold.Protein.RotatedTorsions>
[ 6907 6896 6895 6894 ] final  -59.84 input  -60.11 | X-H torsion
[ 7974 7965 7964 7962 ] final   32.11 input  175.53 | X-H torsion
[ 8008 7997 7996 7995 ] final   36.09 input   59.86 | X-H torsion
[ 10167 10162 10161 10158 ] final  -96.13 input  -65.29 | X-H torsion
[ 10718 10713 10712 10709 ] final  131.89 input   66.30 | X-H torsion
[ 10763 10752 10751 10750 ] final -142.50 input  -60.55 | X-H torsion
[ 11005 11000 10999 10996 ] final  151.33 input  -57.11 | X-H torsion

> <Gold.Protein.ActiveResidues>
 VAL166  LYS551  ARG553  GLY616  TRP617  ASP618  TYR619  PRO620  LYS621  CYS622 
 ASP623  PHE694  ASN695  SER759  ASP760  ASP761  ALA762  ILE779  LEU786  VAL792 
 PHE793  MET794  SER795  GLU796  ALA797  LYS798  CYS799  TRP800  GLU811  SER814 

> <Gold.Protein.RotatedAtoms>
  150.7900  134.6915  159.6499 H   0  0  0  0  0  0  0  0  0  0  0  0  # atno 6907 bound_to 6896
  152.4003  134.6293  160.0081 H   0  0  0  0  0  0  0  0  0  0  0  0  # atno 6908 bound_to 6896
  151.6566  133.3282  159.3200 H   0  0  0  0  0  0  0  0  0  0  0  0  # atno 6909 bound_to 6896
  146.1508  139.6569  142.9100 H   0  0  0  0  0  0  0  0  0  0  0  0  # atno 7974 bound_to 7965
  155.1818  140.3300  155.4374 H   0  0  0  0  0  0  0  0  0  0  0  0  # atno 8008 bound_to 7997
  156.2474  140.1925  156.6866 H   0  0  0  0  0  0  0  0  0  0  0  0  # atno 8009 bound_to 7997
  154.6266  140.0588  156.9667 H   0  0  0  0  0  0  0  0  0  0  0  0  # atno 8010 bound_to 7997
  140.2969  143.3186  152.0288 H   0  0  0  0  0  0  0  0  0  0  0  0  # atno 10167 bound_to 10162
  157.4924  131.1091  150.9539 H   0  0  0  0  0  0  0  0  0  0  0  0  # atno 10718 bound_to 10713
  154.8506  135.3494  154.6038 H   0  0  0  0  0  0  0  0  0  0  0  0  # atno 10763 bound_to 10752
  153.6647  135.6988  153.5171 H   0  0  0  0  0  0  0  0  0  0  0  0  # atno 10764 bound_to 10752
  153.2790  135.4269  155.1017 H   0  0  0  0  0  0  0  0  0  0  0  0  # atno 10765 bound_to 10752
  140.1210  134.8864  157.2071 H   0  0  0  0  0  0  0  0  0  0  0  0  # atno 11005 bound_to 11000
  145.4829  141.0438  143.2636 LP  0  0  0  0  0  0  0  0  0  0  0  0  # atno 17320 bound_to 7965
  144.7901  139.6346  143.7117 LP  0  0  0  0  0  0  0  0  0  0  0  0  # atno 17321 bound_to 7965
  139.4924  144.6484  151.6729 LP  0  0  0  0  0  0  0  0  0  0  0  0  # atno 17342 bound_to 10162
  140.5684  144.0150  150.6204 LP  0  0  0  0  0  0  0  0  0  0  0  0  # atno 17343 bound_to 10162
  157.0236  130.5683  149.5334 LP  0  0  0  0  0  0  0  0  0  0  0  0  # atno 17370 bound_to 10713
  156.0181  130.5275  150.8195 LP  0  0  0  0  0  0  0  0  0  0  0  0  # atno 17371 bound_to 10713
  140.2965  134.3180  155.7301 LP  0  0  0  0  0  0  0  0  0  0  0  0  # atno 17394 bound_to 11000
  141.2151  133.7566  156.9579 LP  0  0  0  0  0  0  0  0  0  0  0  0  # atno 17395 bound_to 11000

$$$$
