AV-unprocessed.smi:1762|AV-procd|sdf|7113|dock7
  -GOLD-   22720 8343D 1   1.00000     0.00000
 Structure written by MMmdl.
 53 54  0  0  0  0  0  0  0  0  2 V2000
  145.8836  132.2839  150.9659 C   0  0  0  0  0  0  0  0  0  0  0  0
  146.4119  133.4372  151.8261 C   0  0  2  0  0  0  0  0  0  0  0  0
  147.6992  133.0551  152.5765 C   0  0  0  0  0  0  0  0  0  0  0  0
  148.1571  134.1691  153.4544 N   0  3  2  0  0  0  0  0  0  0  0  0
  149.4947  133.9057  154.0891 C   0  0  1  0  0  0  0  0  0  0  0  0
  149.9112  135.0775  155.0045 C   0  0  0  0  0  0  0  0  0  0  0  0
  149.5017  135.1317  156.1650 O   0  0  0  0  0  0  0  0  0  0  0  0
  150.7225  136.0028  154.4698 N   0  0  0  0  0  0  0  0  0  0  0  0
  151.2357  137.1687  155.1770 C   0  0  0  0  0  0  0  0  0  0  0  0
  151.3651  138.3635  154.2221 C   0  0  0  0  0  0  0  0  0  0  0  0
  150.1343  139.2504  154.2422 C   0  0  0  0  0  0  0  0  0  0  0  0
  148.8478  138.7020  154.0535 C   0  0  0  0  0  0  0  0  0  0  0  0
  147.7376  139.5681  154.0890 C   0  0  0  0  0  0  0  0  0  0  0  0
  147.9556  140.9412  154.3130 C   0  0  0  0  0  0  0  0  0  0  0  0
  149.2797  141.3893  154.4911 C   0  0  0  0  0  0  0  0  0  0  0  0
  150.3510  140.5675  154.4577 N   0  0  0  0  0  0  0  0  0  0  0  0
  149.5868  132.5451  154.8609 C   0  0  0  0  0  0  0  0  0  0  0  0
  148.4731  132.3411  155.9097 C   0  0  0  0  0  0  0  0  0  0  0  0
  150.9669  132.2993  155.5023 C   0  0  0  0  0  0  0  0  0  0  0  0
  147.0579  134.5171  154.3977 C   0  0  0  0  0  0  0  0  0  0  0  0
  145.7489  134.8404  153.6499 C   0  0  1  0  0  0  0  0  0  0  0  0
  145.7739  136.2045  152.9364 C   0  0  0  0  0  0  0  0  0  0  0  0
  145.4013  133.7756  152.7687 O   0  0  0  0  0  0  0  0  0  0  0  0
  146.6168  131.9840  150.2169 H   0  0  0  0  0  0  0  0  0  0  0  0
  144.9737  132.5753  150.4404 H   0  0  0  0  0  0  0  0  0  0  0  0
  145.6504  131.4101  151.5753 H   0  0  0  0  0  0  0  0  0  0  0  0
  146.6079  134.2843  151.1688 H   0  0  0  0  0  0  0  0  0  0  0  0
  147.5322  132.1623  153.1819 H   0  0  0  0  0  0  0  0  0  0  0  0
  148.4561  132.7932  151.8377 H   0  0  0  0  0  0  0  0  0  0  0  0
  150.2146  133.8542  153.2698 H   0  0  0  0  0  0  0  0  0  0  0  0
  151.0144  135.8860  153.5100 H   0  0  0  0  0  0  0  0  0  0  0  0
  150.5573  137.4116  155.9960 H   0  0  0  0  0  0  0  0  0  0  0  0
  152.2085  136.9465  155.6195 H   0  0  0  0  0  0  0  0  0  0  0  0
  152.2363  138.9632  154.4902 H   0  0  0  0  0  0  0  0  0  0  0  0
  151.5367  138.0117  153.2039 H   0  0  0  0  0  0  0  0  0  0  0  0
  148.7120  137.6435  153.8870 H   0  0  0  0  0  0  0  0  0  0  0  0
  146.7375  139.1857  153.9483 H   0  0  0  0  0  0  0  0  0  0  0  0
  147.1281  141.6345  154.3477 H   0  0  0  0  0  0  0  0  0  0  0  0
  149.4844  142.4353  154.6654 H   0  0  0  0  0  0  0  0  0  0  0  0
  149.4992  131.7420  154.1308 H   0  0  0  0  0  0  0  0  0  0  0  0
  148.5745  133.0338  156.7454 H   0  0  0  0  0  0  0  0  0  0  0  0
  148.5103  131.3322  156.3213 H   0  0  0  0  0  0  0  0  0  0  0  0
  147.4791  132.4802  155.4859 H   0  0  0  0  0  0  0  0  0  0  0  0
  151.1558  132.9683  156.3422 H   0  0  0  0  0  0  0  0  0  0  0  0
  151.7692  132.4359  154.7766 H   0  0  0  0  0  0  0  0  0  0  0  0
  151.0419  131.2797  155.8814 H   0  0  0  0  0  0  0  0  0  0  0  0
  146.8986  133.6814  155.0809 H   0  0  0  0  0  0  0  0  0  0  0  0
  147.3012  135.3842  155.0080 H   0  0  0  0  0  0  0  0  0  0  0  0
  144.9494  134.8892  154.3898 H   0  0  0  0  0  0  0  0  0  0  0  0
  145.9024  137.0141  153.6553 H   0  0  0  0  0  0  0  0  0  0  0  0
  144.8387  136.3824  152.4050 H   0  0  0  0  0  0  0  0  0  0  0  0
  146.5885  136.2820  152.2166 H   0  0  0  0  0  0  0  0  0  0  0  0
  148.2883  134.9748  152.8591 H   0  0  0  0  0  0  0  0  0  0  0  0
  1  2  1  0  0  0  0
  1 24  1  0  0  0  0
  1 25  1  0  0  0  0
  1 26  1  0  0  0  0
  2 23  1  0  0  0  0
  2  3  1  0  0  0  0
  2 27  1  0  0  0  0
  3  4  1  0  0  0  0
  3 28  1  0  0  0  0
  3 29  1  0  0  0  0
  4  5  1  0  0  0  0
  4 20  1  0  0  0  0
  4 53  1  0  0  0  0
  5  6  1  0  0  0  0
  5 17  1  0  0  0  0
  5 30  1  0  0  0  0
  6  7  2  0  0  0  0
  6  8  1  0  0  0  0
  8  9  1  0  0  0  0
  8 31  1  0  0  0  0
  9 10  1  0  0  0  0
  9 32  1  0  0  0  0
  9 33  1  0  0  0  0
 10 11  1  0  0  0  0
 10 34  1  0  0  0  0
 10 35  1  0  0  0  0
 11 16  1  0  0  0  0
 11 12  2  0  0  0  0
 12 13  1  0  0  0  0
 12 36  1  0  0  0  0
 13 14  2  0  0  0  0
 13 37  1  0  0  0  0
 14 15  1  0  0  0  0
 14 38  1  0  0  0  0
 15 16  2  0  0  0  0
 15 39  1  0  0  0  0
 17 18  1  0  0  0  0
 17 19  1  0  0  0  0
 17 40  1  0  0  0  0
 18 41  1  0  0  0  0
 18 42  1  0  0  0  0
 18 43  1  0  0  0  0
 19 44  1  0  0  0  0
 19 45  1  0  0  0  0
 19 46  1  0  0  0  0
 20 21  1  0  0  0  0
 20 47  1  0  0  0  0
 20 48  1  0  0  0  0
 21 22  1  0  0  0  0
 21 23  1  0  0  0  0
 21 49  1  0  0  0  0
 22 50  1  0  0  0  0
 22 51  1  0  0  0  0
 22 52  1  0  0  0  0
M  CHG  1   4   1
M  END
> <s_m_source_file>
AV-unprocessed.smi

> <i_m_source_file_index>
1762

> <i_lp_mmshare_version>
43012

> <i_f3d_flags>
0

> <s_epik_input>
W0NIM11bQ0BASF0xW0NIMl1OKFtDSDJdW0NASF0oTzEpW0NIM10pW0NAQEhdKFtDSF0oW0NIM10pW0NIM10pQyg9TylbTkhdW0NIMl1bQ0gyXWMyW2NIXVtjSF1bY0hdW2NIXW4y

> <s_epik_cmdline>
J2VwaWtfcHl0aG9uJywgJy1waCcsICc3LjAnLCAnLXRuJywgJzgnLCAnLW1hJywgJzIwMCcsICctbWV0YWxfYmluZGluZycsICctaW1hZScsICc8aW5maWxlLm1hZT4nLCAnLW9tYWUnLCAnPG91dGZpbGUubWFlPic=

> <r_epik_Ionization_Penalty>
2.27005

> <r_epik_Ionization_Penalty_Charging>
2.24983

> <r_epik_Ionization_Penalty_Neutral>
0.0202209

> <r_epik_State_Penalty>
2.40228

> <r_epik_Charging_Adjusted_Penalty>
4.65211

> <i_epik_Tot_Q>
1

> <i_epik_Tot_abs_Q>
1

> <r_epik_Metal_State_Penalty>
2.40762

> <b_epik_Metal_Only>
0

> <s_lp_Force_Field>
OPLS_2005

> <r_lp_Energy>
25.3597

> <b_lp_Chiralities_Consistent>
1

> <s_lp_Variant>
AV-unprocessed.smi:1762-15

> <Gold.Version>
5.8.1

> <Gold.Id.Protein>
6NUR|6NUR_protein|mol2

> <Gold.PLP.Fitness>
50.1369

> <Gold.PLP.PLP>
-37.6968

> <Gold.PLP.part.hbond>
-3.6968

> <Gold.PLP.part.metal>
0.0000

> <Gold.PLP.part.buried>
-4.1687

> <Gold.PLP.part.nonpolar>
-29.1709

> <Gold.PLP.part.repulsive>
0.3218

> <Gold.PLP.ligand.clash>
0.0000

> <Gold.PLP.ligand.torsion>
1.1304

> <Gold.PLP.Chemscore.Hbond>
3.8280

> <Gold.PLP.Chemscore.CHOScore>
1.0000

> <Gold.PLP.Chemscore.Metal>
0.0000

> <Gold.Chemscore.Hbonds>
donor molecule, donor type, donor heavy atom, donor atom, acceptor molecule, acceptor atom, score
      L1  H     4    53       P1  7948  2.00
      L1  H     8    31       P1  7949  0.90
      P1  H  7989  7998       L1    16  0.91
      L1  C    15    39       P1  8028  0.95

> <Gold.PLP.Chemscore.Internal.Correction>
0.2169

> <Gold.Rescore>
     Score         DG    S(hbond)    S(metal)    S(lipo)     H(rot)  DE(clash)    DE(int)     intcor
     14.45     -17.85       1.70        0.00      93.53       1.66       0.13       3.27       ----

> <Gold.Chemscore.Fitness>
14.4467

> <Gold.Chemscore.DG>
-17.8491

> <Gold.Chemscore.ZeroCoef>
-5.4800

> <Gold.Chemscore.Hbond>
1.7020

> <Gold.Chemscore.Metal>
0.0000

> <Gold.Chemscore.Lipo>
93.5295

> <Gold.Chemscore.Internal_Hbond>
0.0000

> <Gold.Chemscore.DEClash>
0.1349

> <Gold.Chemscore.DEInternal>
3.2675

> <Gold.Chemscore.Rot>
1.6635

> <Gold.Chemscore.Internal.Correction>
   9.000000E+99

> <Gold.Chemscore.Hbonds>
donor molecule, donor type, donor heavy atom, donor atom, acceptor molecule, acceptor atom, score
      L1  H     4    53       P1  7948  0.78
      L1  H     8    31       P1  7949  0.17
      P1  H  7989  7998       L1    16  0.35

> <Gold.Chemscore.Hbond.Weighted>
-5.6848

> <Gold.Chemscore.Metal.Weighted>
-0.0000

> <Gold.Chemscore.Lipo.Weighted>
-10.9429

> <Gold.Chemscore.Internal_Hbond.Weighted>
0.0000

> <Gold.Chemscore.DEClash.Weighted>
0.1349

> <Gold.Chemscore.DEInternal.Weighted>
3.2675

> <Gold.Chemscore.Rot.Weighted>
4.2586

> <Gold.Chemscore.Internal.Correction.Weighted>
   9.000000E+99

> <Gold.Protein.RotatedTorsions>
[ 6907 6896 6895 6894 ] final  134.59 input  -60.11 | X-H torsion
[ 7974 7965 7964 7962 ] final -131.80 input  175.53 | X-H torsion
[ 8008 7997 7996 7995 ] final  -96.11 input   59.86 | X-H torsion
[ 10167 10162 10161 10158 ] final   -2.13 input  -65.29 | X-H torsion
[ 10718 10713 10712 10709 ] final  151.29 input   66.30 | X-H torsion
[ 10763 10752 10751 10750 ] final  153.30 input  -60.55 | X-H torsion
[ 11005 11000 10999 10996 ] final -106.54 input  -57.11 | X-H torsion

> <Gold.Protein.ActiveResidues>
 VAL166  LYS551  ARG553  GLY616  TRP617  ASP618  TYR619  PRO620  LYS621  CYS622 
 ASP623  PHE694  ASN695  SER759  ASP760  ASP761  ALA762  ILE779  LEU786  VAL792 
 PHE793  MET794  SER795  GLU796  ALA797  LYS798  CYS799  TRP800  GLU811  SER814 

> <Gold.Protein.RotatedAtoms>
  152.3096  133.5739  159.5671 H   0  0  0  0  0  0  0  0  0  0  0  0  # atno 6907 bound_to 6896
  150.7316  134.0172  159.3698 H   0  0  0  0  0  0  0  0  0  0  0  0  # atno 6908 bound_to 6896
  151.8066  135.0694  160.0458 H   0  0  0  0  0  0  0  0  0  0  0  0  # atno 6909 bound_to 6896
  144.9345  140.7168  143.4885 H   0  0  0  0  0  0  0  0  0  0  0  0  # atno 7974 bound_to 7965
  154.7701  140.0474  157.1044 H   0  0  0  0  0  0  0  0  0  0  0  0  # atno 8008 bound_to 7997
  154.9830  140.3104  155.4918 H   0  0  0  0  0  0  0  0  0  0  0  0  # atno 8009 bound_to 7997
  156.2920  140.2232  156.4931 H   0  0  0  0  0  0  0  0  0  0  0  0  # atno 8010 bound_to 7997
  140.6839  143.6693  150.8199 H   0  0  0  0  0  0  0  0  0  0  0  0  # atno 10167 bound_to 10162
  157.2725  131.0820  151.1589 H   0  0  0  0  0  0  0  0  0  0  0  0  # atno 10718 bound_to 10713
  154.1340  135.2825  155.3178 H   0  0  0  0  0  0  0  0  0  0  0  0  # atno 10763 bound_to 10752
  154.6335  135.5427  153.7711 H   0  0  0  0  0  0  0  0  0  0  0  0  # atno 10764 bound_to 10752
  153.0272  135.6468  154.1489 H   0  0  0  0  0  0  0  0  0  0  0  0  # atno 10765 bound_to 10752
  141.0999  133.8903  157.1868 H   0  0  0  0  0  0  0  0  0  0  0  0  # atno 11005 bound_to 11000
  145.3088  139.1825  143.4650 LP  0  0  0  0  0  0  0  0  0  0  0  0  # atno 17320 bound_to 7965
  146.3261  140.3090  142.8625 LP  0  0  0  0  0  0  0  0  0  0  0  0  # atno 17321 bound_to 7965
  140.0397  143.5358  152.2723 LP  0  0  0  0  0  0  0  0  0  0  0  0  # atno 17342 bound_to 10162
  139.6181  144.7623  151.2801 LP  0  0  0  0  0  0  0  0  0  0  0  0  # atno 17343 bound_to 10162
  157.3055  130.6864  149.6187 LP  0  0  0  0  0  0  0  0  0  0  0  0  # atno 17370 bound_to 10713
  155.9663  130.4379  150.5195 LP  0  0  0  0  0  0  0  0  0  0  0  0  # atno 17371 bound_to 10713
  139.9847  135.0086  156.9835 LP  0  0  0  0  0  0  0  0  0  0  0  0  # atno 17394 bound_to 11000
  140.5047  134.1062  155.7257 LP  0  0  0  0  0  0  0  0  0  0  0  0  # atno 17395 bound_to 11000

$$$$
