AV-unprocessed.smi:2098|AV-procd|sdf|8565|dock8
  -GOLD-   2272011293D 1   1.00000     0.00000
 Structure written by MMmdl.
 36 38  0  0  0  0  0  0  0  0  1 V2000
  150.2769  140.0134  154.0268 O   0  0  0  0  0  0  0  0  0  0  0  0
  149.3417  140.4146  155.0093 C   0  0  2  0  0  0  0  0  0  0  0  0
  148.0191  140.7613  154.3075 C   0  0  0  0  0  0  0  0  0  0  0  0
  147.1000  141.2571  155.2723 O   0  0  0  0  0  0  0  0  0  0  0  0
  146.2914  142.3163  154.9192 C   0  0  0  0  0  0  0  0  0  0  0  0
  145.3630  142.7612  155.8833 C   0  0  0  0  0  0  0  0  0  0  0  0
  144.4949  143.8352  155.6069 C   0  0  0  0  0  0  0  0  0  0  0  0
  144.5471  144.4777  154.3565 C   0  0  0  0  0  0  0  0  0  0  0  0
  143.7117  145.5089  154.0879 F   0  0  0  0  0  0  0  0  0  0  0  0
  145.4698  144.0463  153.3857 C   0  0  0  0  0  0  0  0  0  0  0  0
  146.3388  142.9727  153.6626 C   0  0  0  0  0  0  0  0  0  0  0  0
  149.9110  141.6199  155.7828 C   0  0  0  0  0  0  0  0  0  0  0  0
  150.9691  141.2452  156.7045 N   0  0  0  0  0  0  0  0  0  0  0  0
  151.6824  140.1027  156.6964 C   0  0  0  0  0  0  0  0  0  0  0  0
  152.6083  139.9548  157.6396 N   0  0  0  0  0  0  0  0  0  0  0  0
  152.4813  141.1402  158.3433 C   0  0  0  0  0  0  0  0  0  0  0  0
  153.1802  141.6123  159.4777 C   0  0  0  0  0  0  0  0  0  0  0  0
  152.8747  142.8729  160.0318 C   0  0  0  0  0  0  0  0  0  0  0  0
  151.8684  143.6794  159.4616 C   0  0  0  0  0  0  0  0  0  0  0  0
  151.1580  143.2302  158.3318 C   0  0  0  0  0  0  0  0  0  0  0  0
  151.4645  141.9710  157.7828 C   0  0  0  0  0  0  0  0  0  0  0  0
  149.8281  139.9461  153.1977 H   0  0  0  0  0  0  0  0  0  0  0  0
  149.1838  139.5895  155.7052 H   0  0  0  0  0  0  0  0  0  0  0  0
  148.1952  141.5460  153.5696 H   0  0  0  0  0  0  0  0  0  0  0  0
  147.6239  139.8905  153.7811 H   0  0  0  0  0  0  0  0  0  0  0  0
  145.3154  142.2733  156.8459 H   0  0  0  0  0  0  0  0  0  0  0  0
  143.7887  144.1648  156.3547 H   0  0  0  0  0  0  0  0  0  0  0  0
  145.5117  144.5390  152.4255 H   0  0  0  0  0  0  0  0  0  0  0  0
  147.0327  142.6721  152.8925 H   0  0  0  0  0  0  0  0  0  0  0  0
  150.2974  142.3694  155.0909 H   0  0  0  0  0  0  0  0  0  0  0  0
  149.1203  142.1060  156.3557 H   0  0  0  0  0  0  0  0  0  0  0  0
  151.5112  139.3355  155.9554 H   0  0  0  0  0  0  0  0  0  0  0  0
  153.9531  141.0031  159.9223 H   0  0  0  0  0  0  0  0  0  0  0  0
  153.4154  143.2231  160.8989 H   0  0  0  0  0  0  0  0  0  0  0  0
  151.6421  144.6437  159.8924 H   0  0  0  0  0  0  0  0  0  0  0  0
  150.3885  143.8464  157.8914 H   0  0  0  0  0  0  0  0  0  0  0  0
  1  2  1  0  0  0  0
  1 22  1  0  0  0  0
  2  3  1  0  0  0  0
  2 12  1  0  0  0  0
  2 23  1  0  0  0  0
  3  4  1  0  0  0  0
  3 24  1  0  0  0  0
  3 25  1  0  0  0  0
  4  5  1  0  0  0  0
  5 11  1  0  0  0  0
  5  6  2  0  0  0  0
  6  7  1  0  0  0  0
  6 26  1  0  0  0  0
  7  8  2  0  0  0  0
  7 27  1  0  0  0  0
  8  9  1  0  0  0  0
  8 10  1  0  0  0  0
 10 11  2  0  0  0  0
 10 28  1  0  0  0  0
 11 29  1  0  0  0  0
 12 13  1  0  0  0  0
 12 30  1  0  0  0  0
 12 31  1  0  0  0  0
 13 21  1  0  0  0  0
 13 14  1  0  0  0  0
 14 15  2  0  0  0  0
 14 32  1  0  0  0  0
 15 16  1  0  0  0  0
 16 21  2  0  0  0  0
 16 17  1  0  0  0  0
 17 18  2  0  0  0  0
 17 33  1  0  0  0  0
 18 19  1  0  0  0  0
 18 34  1  0  0  0  0
 19 20  2  0  0  0  0
 19 35  1  0  0  0  0
 20 21  1  0  0  0  0
 20 36  1  0  0  0  0
M  END
> <s_m_source_file>
AV-unprocessed.smi

> <i_m_source_file_index>
2098

> <i_lp_mmshare_version>
43012

> <i_f3d_flags>
0

> <s_epik_input>
W2NIXTFbY0hdW2NIXVtjSF1jKGMxMiluKFtjSF1uMilbQ0gyXVtDQEhdKFtPSF0pW0NIMl1PYzNbY0hdW2NIXWMoRilbY0hdW2NIXTM=

> <s_epik_cmdline>
J2VwaWtfcHl0aG9uJywgJy1waCcsICc3LjAnLCAnLXRuJywgJzgnLCAnLW1hJywgJzIwMCcsICctbWV0YWxfYmluZGluZycsICctaW1hZScsICc8aW5maWxlLm1hZT4nLCAnLW9tYWUnLCAnPG91dGZpbGUubWFlPic=

> <r_lp_tautomer_probability>
1

> <r_epik_Ionization_Penalty>
0.0603575

> <r_epik_Ionization_Penalty_Charging>
0

> <r_epik_Ionization_Penalty_Neutral>
0.0603575

> <r_epik_State_Penalty>
0.0523204

> <r_epik_Charging_Adjusted_Penalty>
0.0523204

> <i_epik_Tot_Q>
0

> <i_epik_Tot_abs_Q>
0

> <r_epik_Metal_State_Penalty>
5.46976e-05

> <b_epik_Metal_Only>
0

> <s_lp_Force_Field>
OPLS_2005

> <r_lp_Energy>
15.3662

> <b_lp_Chiralities_Consistent>
1

> <s_lp_Variant>
AV-unprocessed.smi:2098-1

> <Gold.Version>
5.8.1

> <Gold.Id.Protein>
6NUR|6NUR_protein|mol2

> <Gold.PLP.Fitness>
54.9081

> <Gold.PLP.PLP>
-47.2655

> <Gold.PLP.part.hbond>
-3.0000

> <Gold.PLP.part.metal>
0.0000

> <Gold.PLP.part.buried>
-7.5572

> <Gold.PLP.part.nonpolar>
-38.0049

> <Gold.PLP.part.repulsive>
0.0852

> <Gold.PLP.ligand.clash>
0.0000

> <Gold.PLP.ligand.torsion>
0.6269

> <Gold.PLP.Chemscore.Hbond>
2.9440

> <Gold.PLP.Chemscore.CHOScore>
0.0000

> <Gold.PLP.Chemscore.Metal>
0.0000

> <Gold.Chemscore.Hbonds>
donor molecule, donor type, donor heavy atom, donor atom, acceptor molecule, acceptor atom, score
      L1  H     1    22       P1  7957  0.96
      P1  H  7989  7998       L1     1  0.85
      P1  H  7997  8010       L1    15  0.96

> <Gold.PLP.Chemscore.Internal.Correction>
0.0644

> <Gold.Rescore>
     Score         DG    S(hbond)    S(metal)    S(lipo)     H(rot)  DE(clash)    DE(int)     intcor
     18.40     -20.28       2.27        0.00     113.53       2.37       0.49       1.39       ----

> <Gold.Chemscore.Fitness>
18.3968

> <Gold.Chemscore.DG>
-20.2791

> <Gold.Chemscore.ZeroCoef>
-5.4800

> <Gold.Chemscore.Hbond>
2.2730

> <Gold.Chemscore.Metal>
0.0000

> <Gold.Chemscore.Lipo>
113.5341

> <Gold.Chemscore.Internal_Hbond>
0.0000

> <Gold.Chemscore.DEClash>
0.4886

> <Gold.Chemscore.DEInternal>
1.3937

> <Gold.Chemscore.Rot>
2.3735

> <Gold.Chemscore.Internal.Correction>
   9.000000E+99

> <Gold.Chemscore.Hbonds>
donor molecule, donor type, donor heavy atom, donor atom, acceptor molecule, acceptor atom, score
      L1  H     1    22       P1  7957  0.89
      P1  H  7989  7998       L1     1  0.14
      P1  H  7997  8010       L1    15  0.19

> <Gold.Chemscore.Hbond.Weighted>
-7.5918

> <Gold.Chemscore.Metal.Weighted>
-0.0000

> <Gold.Chemscore.Lipo.Weighted>
-13.2835

> <Gold.Chemscore.Internal_Hbond.Weighted>
0.0000

> <Gold.Chemscore.DEClash.Weighted>
0.4886

> <Gold.Chemscore.DEInternal.Weighted>
1.3937

> <Gold.Chemscore.Rot.Weighted>
6.0762

> <Gold.Chemscore.Internal.Correction.Weighted>
   9.000000E+99

> <Gold.Protein.RotatedTorsions>
[ 6907 6896 6895 6894 ] final -109.34 input  -60.11 | X-H torsion
[ 7974 7965 7964 7962 ] final    6.62 input  175.53 | X-H torsion
[ 8008 7997 7996 7995 ] final   64.13 input   59.86 | X-H torsion
[ 10167 10162 10161 10158 ] final  -51.29 input  -65.29 | X-H torsion
[ 10718 10713 10712 10709 ] final  -12.83 input   66.30 | X-H torsion
[ 10763 10752 10751 10750 ] final -149.43 input  -60.55 | X-H torsion
[ 11005 11000 10999 10996 ] final   86.90 input  -57.11 | X-H torsion

> <Gold.Protein.ActiveResidues>
 VAL166  LYS551  ARG553  GLY616  TRP617  ASP618  TYR619  PRO620  LYS621  CYS622 
 ASP623  PHE694  ASN695  SER759  ASP760  ASP761  ALA762  ILE779  LEU786  VAL792 
 PHE793  MET794  SER795  GLU796  ALA797  LYS798  CYS799  TRP800  GLU811  SER814 

> <Gold.Protein.RotatedAtoms>
  150.7556  133.9544  159.3495 H   0  0  0  0  0  0  0  0  0  0  0  0  # atno 6907 bound_to 6896
  151.7464  135.0840  160.0333 H   0  0  0  0  0  0  0  0  0  0  0  0  # atno 6908 bound_to 6896
  152.3495  133.6125  159.5970 H   0  0  0  0  0  0  0  0  0  0  0  0  # atno 6909 bound_to 6896
  146.2433  140.0205  142.8398 H   0  0  0  0  0  0  0  0  0  0  0  0  # atno 7974 bound_to 7965
  155.6412  140.3497  155.4715 H   0  0  0  0  0  0  0  0  0  0  0  0  # atno 8008 bound_to 7997
  155.9924  140.1196  157.0649 H   0  0  0  0  0  0  0  0  0  0  0  0  # atno 8009 bound_to 7997
  154.4223  140.1117  156.5570 H   0  0  0  0  0  0  0  0  0  0  0  0  # atno 8010 bound_to 7997
  140.6595  143.2625  151.4483 H   0  0  0  0  0  0  0  0  0  0  0  0  # atno 10167 bound_to 10162
  156.6390  130.4923  149.6101 H   0  0  0  0  0  0  0  0  0  0  0  0  # atno 10718 bound_to 10713
  154.8178  135.3309  154.7127 H   0  0  0  0  0  0  0  0  0  0  0  0  # atno 10763 bound_to 10752
  153.7765  135.6921  153.4901 H   0  0  0  0  0  0  0  0  0  0  0  0  # atno 10764 bound_to 10752
  153.2009  135.4516  155.0213 H   0  0  0  0  0  0  0  0  0  0  0  0  # atno 10765 bound_to 10752
  139.8933  134.8386  156.2785 H   0  0  0  0  0  0  0  0  0  0  0  0  # atno 11005 bound_to 11000
  145.1245  140.9482  143.4581 LP  0  0  0  0  0  0  0  0  0  0  0  0  # atno 17320 bound_to 7965
  145.0448  139.3230  143.5958 LP  0  0  0  0  0  0  0  0  0  0  0  0  # atno 17321 bound_to 7965
  139.5826  144.1676  152.1987 LP  0  0  0  0  0  0  0  0  0  0  0  0  # atno 17342 bound_to 10162
  140.1006  144.5543  150.6992 LP  0  0  0  0  0  0  0  0  0  0  0  0  # atno 17343 bound_to 10162
  156.2174  130.6716  151.1333 LP  0  0  0  0  0  0  0  0  0  0  0  0  # atno 17370 bound_to 10713
  157.7177  131.0700  150.6263 LP  0  0  0  0  0  0  0  0  0  0  0  0  # atno 17371 bound_to 10713
  141.0054  133.7126  156.1027 LP  0  0  0  0  0  0  0  0  0  0  0  0  # atno 17394 bound_to 11000
  140.7440  134.4118  157.5551 LP  0  0  0  0  0  0  0  0  0  0  0  0  # atno 17395 bound_to 11000

$$$$
