#       Name:                AV-unprocessed.smi:2504
#       Creating user name   scv26
#       Creation time:       Fri Mar 27 13:48:12 2020


#       File generated by GOLD software.
#

@<TRIPOS>MOLECULE
AV-unprocessed.smi:2504
    49    51     1
SMALL
NO_CHARGES


@<TRIPOS>ATOM
      1 ****        -0.9842   1.7989  -1.7298 O.2            1 S1                 0.0000
      2 ****        -1.7111   1.3499  -0.8422 C.2            1 S1                 0.0000
      3 ****        -3.1882   0.9896  -1.1234 C.3            1 S1                 0.0000
      4 ****        -3.6326   1.2720  -2.5689 C.3            1 S1                 0.0000
      5 ****        -4.0599   2.7457  -2.5965 C.3            1 S1                 0.0000
      6 ****        -4.3831   3.1257  -1.1434 C.3            1 S1                 0.0000
      7 ****        -4.1570   1.8592  -0.3072 C.3            1 S1                 0.0000
      8 ****        -1.2108   1.0756   0.4344 N.am           1 S1                 0.0000
      9 ****        -1.6124  -0.1075   1.1816 C.3            1 S1                 0.0000
     10 ****        -0.2305  -0.0235   1.8391 C.3            1 S1                 0.0000
     11 ****         0.6129  -1.6652   1.9481 S.o2           1 S1                 0.0000
     12 ****        -0.2861  -2.5314   2.7274 O.2            1 S1                 0.0000
     13 ****         0.8970  -2.0833   0.5648 O.2            1 S1                 0.0000
     14 ****         1.9416  -1.2551   2.7845 N.pl3          1 S1                -1.0000
     15 ****         3.0472  -2.1945   2.8904 C.3            1 S1                 0.0000
     16 ****         4.2718  -1.6863   2.0940 C.3            1 S1                 0.0000
     17 ****         4.0498  -1.5275   0.5934 C.ar           1 S1                 0.0000
     18 ****         4.1691  -2.6257  -0.2864 C.ar           1 S1                 0.0000
     19 ****         3.9434  -2.4238  -1.6615 C.ar           1 S1                 0.0000
     20 ****         3.6115  -1.1275  -2.1030 C.ar           1 S1                 0.0000
     21 ****         3.5066  -0.0656  -1.2762 N.ar           1 S1                 0.0000
     22 ****         3.7217  -0.2688   0.0412 C.ar           1 S1                 0.0000
     23 ****         0.2100   0.8510   0.6554 C.3            1 S1                 0.0000
     24 ****        -3.3343  -0.0673  -0.9001 H              1 S1                 0.0000
     25 ****        -2.8713   1.0465  -3.3171 H              1 S1                 0.0000
     26 ****        -4.4930   0.6434  -2.8025 H              1 S1                 0.0000
     27 ****        -3.2447   3.3679  -2.9685 H              1 S1                 0.0000
     28 ****        -4.9135   2.8982  -3.2577 H              1 S1                 0.0000
     29 ****        -3.7093   3.9173  -0.8127 H              1 S1                 0.0000
     30 ****        -5.4020   3.4984  -1.0345 H              1 S1                 0.0000
     31 ****        -5.1013   1.3264  -0.1885 H              1 S1                 0.0000
     32 ****        -3.7983   2.0937   0.6960 H              1 S1                 0.0000
     33 ****        -2.4485   0.0552   1.8620 H              1 S1                 0.0000
     34 ****        -1.7405  -0.9955   0.5594 H              1 S1                 0.0000
     35 ****        -0.2428   0.4917   2.8008 H              1 S1                 0.0000
     36 ****         3.3454  -2.3234   3.9313 H              1 S1                 0.0000
     37 ****         2.7811  -3.1928   2.5408 H              1 S1                 0.0000
     38 ****         4.6054  -0.7319   2.5039 H              1 S1                 0.0000
     39 ****         5.1030  -2.3768   2.2417 H              1 S1                 0.0000
     40 ****         4.4200  -3.6077   0.0872 H              1 S1                 0.0000
     41 ****         4.0181  -3.2434  -2.3605 H              1 S1                 0.0000
     42 ****         3.4301  -0.9375  -3.1505 H              1 S1                 0.0000
     43 ****         3.6194   0.5989   0.6766 H              1 S1                 0.0000
     44 ****         0.6916   0.3095  -0.1602 H              1 S1                 0.0000
     45 ****         0.7603   1.7484   0.9386 H              1 S1                 0.0000
     46 ****        -1.3471   1.9362  -2.6515 LP             1 S1                 0.0000
     47 ****        -0.0314   2.0260  -1.5286 LP             1 S1                 0.0000
     48 ****         2.0001  -0.3596   3.2256 LP             1 S1                 0.0000
     49 ****         3.2770   0.8419  -1.6280 LP             1 S1                 0.0000
@<TRIPOS>BOND
    1    1    2 2     
    2    2    3 1     
    3    2    8 am    
    4    3    7 1     
    5    3    4 1     
    6    3   24 1     
    7    4    5 1     
    8    4   25 1     
    9    4   26 1     
   10    5    6 1     
   11    5   27 1     
   12    5   28 1     
   13    6    7 1     
   14    6   29 1     
   15    6   30 1     
   16    7   31 1     
   17    7   32 1     
   18    8   23 1     
   19    8    9 1     
   20    9   10 1     
   21    9   33 1     
   22    9   34 1     
   23   10   11 1     
   24   10   23 1     
   25   10   35 1     
   26   11   12 2     
   27   11   13 2     
   28   11   14 1     
   29   14   15 1     
   30   15   16 1     
   31   15   36 1     
   32   15   37 1     
   33   16   17 1     
   34   16   38 1     
   35   16   39 1     
   36   17   22 ar    
   37   17   18 ar    
   38   18   19 ar    
   39   18   40 1     
   40   19   20 ar    
   41   19   41 1     
   42   20   21 ar    
   43   20   42 1     
   44   21   22 ar    
   45   22   43 1     
   46   23   44 1     
   47   23   45 1     
   48    1   46 1     
   49    1   47 1     
   50   14   48 1     
   51   21   49 1     
@<TRIPOS>SUBSTRUCTURE
      1 S1             1
@<TRIPOS>SET
LONE_PAIRS      STATIC     ATOMS    <user>   **** ""
6 46 47 12 13 48 49
ATOM$BLUE        STATIC     ATOMS    COLORGROUP SYSTEM
6 46 47 12 13 48 49
