AV-unprocessed.smi:1166|AV-procd|sdf|4936|dock4
  -GOLD-   22720 3523D 1   1.00000     0.00000
 Structure written by MMmdl.
 46 47  0  0  0  0  0  0  0  0  1 V2000
  150.5172  128.4321  155.0871 C   0  0  0  0  0  0  0  0  0  0  0  0
  149.5975  129.1373  154.2001 N   0  0  0  0  0  0  0  0  0  0  0  0
  148.6484  128.3830  153.3909 C   0  0  0  0  0  0  0  0  0  0  0  0
  149.5675  130.5508  154.1980 C   0  0  0  0  0  0  0  0  0  0  0  0
  150.3624  131.3089  155.0932 C   0  0  0  0  0  0  0  0  0  0  0  0
  150.2955  132.7142  155.0507 C   0  0  0  0  0  0  0  0  0  0  0  0
  149.4345  133.3369  154.1275 C   0  0  0  0  0  0  0  0  0  0  0  0
  149.4034  134.7569  154.0950 N   0  0  0  0  0  0  0  0  0  0  0  0
  149.8045  135.6235  155.0405 C   0  0  0  0  0  0  0  0  0  0  0  0
  150.3057  135.3171  156.1221 O   0  0  0  0  0  0  0  0  0  0  0  0
  149.6098  136.8902  154.6478 N   0  0  0  0  0  0  0  0  0  0  0  0
  149.9688  138.0759  155.4189 C   0  0  2  0  0  0  0  0  0  0  0  0
  149.4732  139.3538  154.7223 C   0  0  0  0  0  0  0  0  0  0  0  0
  149.9092  140.5831  155.5276 C   0  0  0  0  0  0  0  0  0  0  0  0
  151.4335  140.6031  155.7384 C   0  0  0  0  0  0  0  0  0  0  0  0
  151.9201  139.3394  156.3291 N   0  0  0  0  0  0  0  0  0  0  0  0
  152.2994  139.2594  158.0257 S   0  0  0  0  0  0  0  0  0  0  0  0
  151.4853  137.7124  158.5988 C   0  0  0  0  0  0  0  0  0  0  0  0
  153.7545  139.0850  158.1528 O   0  0  0  0  0  0  0  0  0  0  0  0
  151.6412  140.3964  158.6873 O   0  0  0  0  0  0  0  0  0  0  0  0
  151.4970  138.1206  155.6116 C   0  0  0  0  0  0  0  0  0  0  0  0
  148.6863  132.5022  153.2649 C   0  0  0  0  0  0  0  0  0  0  0  0
  148.7490  131.1547  153.3018 N   0  0  0  0  0  0  0  0  0  0  0  0
  151.5477  128.7246  154.8835 H   0  0  0  0  0  0  0  0  0  0  0  0
  150.4472  127.3520  154.9564 H   0  0  0  0  0  0  0  0  0  0  0  0
  150.2919  128.6585  156.1298 H   0  0  0  0  0  0  0  0  0  0  0  0
  147.6240  128.6366  153.6657 H   0  0  0  0  0  0  0  0  0  0  0  0
  148.7732  127.3091  153.5304 H   0  0  0  0  0  0  0  0  0  0  0  0
  148.7909  128.5987  152.3317 H   0  0  0  0  0  0  0  0  0  0  0  0
  151.0208  130.8424  155.8102 H   0  0  0  0  0  0  0  0  0  0  0  0
  150.8980  133.3046  155.7254 H   0  0  0  0  0  0  0  0  0  0  0  0
  149.0899  135.1623  153.2253 H   0  0  0  0  0  0  0  0  0  0  0  0
  149.1941  137.0478  153.7415 H   0  0  0  0  0  0  0  0  0  0  0  0
  149.4972  138.0070  156.3991 H   0  0  0  0  0  0  0  0  0  0  0  0
  149.8782  139.4127  153.7110 H   0  0  0  0  0  0  0  0  0  0  0  0
  148.3869  139.3414  154.6260 H   0  0  0  0  0  0  0  0  0  0  0  0
  149.5979  141.4918  155.0118 H   0  0  0  0  0  0  0  0  0  0  0  0
  149.3976  140.5903  156.4891 H   0  0  0  0  0  0  0  0  0  0  0  0
  151.9319  140.7470  154.7791 H   0  0  0  0  0  0  0  0  0  0  0  0
  151.7187  141.4495  156.3623 H   0  0  0  0  0  0  0  0  0  0  0  0
  151.6553  137.5979  159.6691 H   0  0  0  0  0  0  0  0  0  0  0  0
  151.9110  136.8542  158.0821 H   0  0  0  0  0  0  0  0  0  0  0  0
  150.4136  137.7657  158.4157 H   0  0  0  0  0  0  0  0  0  0  0  0
  151.8404  137.2334  156.1433 H   0  0  0  0  0  0  0  0  0  0  0  0
  151.9933  138.1072  154.6401 H   0  0  0  0  0  0  0  0  0  0  0  0
  148.0326  132.9018  152.5057 H   0  0  0  0  0  0  0  0  0  0  0  0
  1  2  1  0  0  0  0
  1 24  1  0  0  0  0
  1 25  1  0  0  0  0
  1 26  1  0  0  0  0
  2  3  1  0  0  0  0
  2  4  1  0  0  0  0
  3 27  1  0  0  0  0
  3 28  1  0  0  0  0
  3 29  1  0  0  0  0
  4 23  1  0  0  0  0
  4  5  2  0  0  0  0
  5  6  1  0  0  0  0
  5 30  1  0  0  0  0
  6  7  2  0  0  0  0
  6 31  1  0  0  0  0
  7  8  1  0  0  0  0
  7 22  1  0  0  0  0
  8  9  1  0  0  0  0
  8 32  1  0  0  0  0
  9 10  2  0  0  0  0
  9 11  1  0  0  0  0
 11 12  1  0  0  0  0
 11 33  1  0  0  0  0
 12 21  1  0  0  0  0
 12 13  1  0  0  0  0
 12 34  1  0  0  0  0
 13 14  1  0  0  0  0
 13 35  1  0  0  0  0
 13 36  1  0  0  0  0
 14 15  1  0  0  0  0
 14 37  1  0  0  0  0
 14 38  1  0  0  0  0
 15 16  1  0  0  0  0
 15 39  1  0  0  0  0
 15 40  1  0  0  0  0
 16 17  1  0  0  0  0
 16 21  1  0  0  0  0
 17 18  1  0  0  0  0
 17 19  2  0  0  0  0
 17 20  2  0  0  0  0
 18 41  1  0  0  0  0
 18 42  1  0  0  0  0
 18 43  1  0  0  0  0
 21 44  1  0  0  0  0
 21 45  1  0  0  0  0
 22 23  2  0  0  0  0
 22 46  1  0  0  0  0
M  END
> <s_m_source_file>
AV-unprocessed.smi

> <i_m_source_file_index>
1166

> <i_lp_mmshare_version>
43012

> <i_f3d_flags>
0

> <s_epik_input>
W0NIM11OKFtDSDNdKWMxW2NIXVtjSF1jKFtjSF1uMSlbTkhdQyg9TylbTkhdW0NAQEhdMltDSDJdW0NIMl1bQ0gyXU4oW0NIMl0yKVMoPU8pKD1PKVtDSDNd

> <s_epik_cmdline>
J2VwaWtfcHl0aG9uJywgJy1waCcsICc3LjAnLCAnLXRuJywgJzgnLCAnLW1hJywgJzIwMCcsICctbWV0YWxfYmluZGluZycsICctaW1hZScsICc8aW5maWxlLm1hZT4nLCAnLW9tYWUnLCAnPG91dGZpbGUubWFlPic=

> <r_lp_tautomer_probability>
1

> <r_epik_Ionization_Penalty>
0.585334

> <r_epik_Ionization_Penalty_Charging>
0

> <r_epik_Ionization_Penalty_Neutral>
0.585334

> <r_epik_State_Penalty>
0.597345

> <r_epik_Charging_Adjusted_Penalty>
0.597345

> <i_epik_Tot_Q>
0

> <i_epik_Tot_abs_Q>
0

> <r_epik_Metal_State_Penalty>
0.29678

> <b_epik_Metal_Only>
0

> <s_lp_Force_Field>
OPLS_2005

> <r_lp_Energy>
0.833523

> <b_lp_Chiralities_Consistent>
1

> <s_lp_Variant>
AV-unprocessed.smi:1166-3

> <Gold.Version>
5.8.1

> <Gold.Id.Protein>
6NUR|6NUR_protein|mol2

> <Gold.PLP.Fitness>
43.3999

> <Gold.PLP.PLP>
-35.2950

> <Gold.PLP.part.hbond>
-3.0000

> <Gold.PLP.part.metal>
0.0000

> <Gold.PLP.part.buried>
-3.6988

> <Gold.PLP.part.nonpolar>
-29.4350

> <Gold.PLP.part.repulsive>
0.7612

> <Gold.PLP.ligand.clash>
0.0000

> <Gold.PLP.ligand.torsion>
1.2772

> <Gold.PLP.Chemscore.Hbond>
2.8640

> <Gold.PLP.Chemscore.CHOScore>
0.0000

> <Gold.PLP.Chemscore.Metal>
0.0000

> <Gold.Chemscore.Hbonds>
donor molecule, donor type, donor heavy atom, donor atom, acceptor molecule, acceptor atom, score
      L1  H     8    32       P1  7948  0.95
      L1  H    11    33       P1  7948  0.83
      P1  H  7997  8010       L1    19  1.00

> <Gold.PLP.Chemscore.Internal.Correction>
2.0674

> <Gold.Rescore>
     Score         DG    S(hbond)    S(metal)    S(lipo)     H(rot)  DE(clash)    DE(int)     intcor
     14.80     -17.54       2.16        0.00      63.36       1.00       0.09       2.65       ----

> <Gold.Chemscore.Fitness>
14.7954

> <Gold.Chemscore.DG>
-17.5356

> <Gold.Chemscore.ZeroCoef>
-5.4800

> <Gold.Chemscore.Hbond>
2.1564

> <Gold.Chemscore.Metal>
0.0000

> <Gold.Chemscore.Lipo>
63.3607

> <Gold.Chemscore.Internal_Hbond>
0.0000

> <Gold.Chemscore.DEClash>
0.0933

> <Gold.Chemscore.DEInternal>
2.6469

> <Gold.Chemscore.Rot>
1.0000

> <Gold.Chemscore.Internal.Correction>
   9.000000E+99

> <Gold.Chemscore.Hbonds>
donor molecule, donor type, donor heavy atom, donor atom, acceptor molecule, acceptor atom, score
      L1  H     8    32       P1  7948  0.21
      L1  H    11    33       P1  7948  0.77
      P1  H  7997  8010       L1    19  0.78

> <Gold.Chemscore.Hbond.Weighted>
-7.2024

> <Gold.Chemscore.Metal.Weighted>
-0.0000

> <Gold.Chemscore.Lipo.Weighted>
-7.4132

> <Gold.Chemscore.Internal_Hbond.Weighted>
0.0000

> <Gold.Chemscore.DEClash.Weighted>
0.0933

> <Gold.Chemscore.DEInternal.Weighted>
2.6469

> <Gold.Chemscore.Rot.Weighted>
2.5600

> <Gold.Chemscore.Internal.Correction.Weighted>
   9.000000E+99

> <Gold.Protein.RotatedTorsions>
[ 6907 6896 6895 6894 ] final  100.86 input  -60.11 | X-H torsion
[ 7974 7965 7964 7962 ] final -105.63 input  175.53 | X-H torsion
[ 8008 7997 7996 7995 ] final   36.92 input   59.86 | X-H torsion
[ 10167 10162 10161 10158 ] final  -89.88 input  -65.29 | X-H torsion
[ 10718 10713 10712 10709 ] final   -5.55 input   66.30 | X-H torsion
[ 10763 10752 10751 10750 ] final    1.76 input  -60.55 | X-H torsion
[ 11005 11000 10999 10996 ] final -140.44 input  -57.11 | X-H torsion

> <Gold.Protein.ActiveResidues>
 VAL166  LYS551  ARG553  GLY616  TRP617  ASP618  TYR619  PRO620  LYS621  CYS622 
 ASP623  PHE694  ASN695  SER759  ASP760  ASP761  ALA762  ILE779  LEU786  VAL792 
 PHE793  MET794  SER795  GLU796  ALA797  LYS798  CYS799  TRP800  GLU811  SER814 

> <Gold.Protein.RotatedAtoms>
  152.5362  134.0212  159.7982 H   0  0  0  0  0  0  0  0  0  0  0  0  # atno 6907 bound_to 6896
  151.0398  133.5708  159.2659 H   0  0  0  0  0  0  0  0  0  0  0  0  # atno 6908 bound_to 6896
  151.2682  135.0683  159.9177 H   0  0  0  0  0  0  0  0  0  0  0  0  # atno 6909 bound_to 6896
  145.2281  140.9160  143.3221 H   0  0  0  0  0  0  0  0  0  0  0  0  # atno 7974 bound_to 7965
  155.1953  140.3311  155.4352 H   0  0  0  0  0  0  0  0  0  0  0  0  # atno 8008 bound_to 7997
  156.2427  140.1903  156.6993 H   0  0  0  0  0  0  0  0  0  0  0  0  # atno 8009 bound_to 7997
  154.6178  140.0600  156.9562 H   0  0  0  0  0  0  0  0  0  0  0  0  # atno 8010 bound_to 7997
  140.3604  143.2845  151.9621 H   0  0  0  0  0  0  0  0  0  0  0  0  # atno 10167 bound_to 10162
  156.7449  130.5221  149.5816 H   0  0  0  0  0  0  0  0  0  0  0  0  # atno 10718 bound_to 10713
  153.3040  135.6958  153.7177 H   0  0  0  0  0  0  0  0  0  0  0  0  # atno 10763 bound_to 10752
  153.6080  135.3450  155.2969 H   0  0  0  0  0  0  0  0  0  0  0  0  # atno 10764 bound_to 10752
  154.8558  135.4356  154.2159 H   0  0  0  0  0  0  0  0  0  0  0  0  # atno 10765 bound_to 10752
  140.8422  134.2387  157.4804 H   0  0  0  0  0  0  0  0  0  0  0  0  # atno 11005 bound_to 11000
  144.9702  139.3887  143.6312 LP  0  0  0  0  0  0  0  0  0  0  0  0  # atno 17320 bound_to 7965
  146.3360  139.8797  142.8826 LP  0  0  0  0  0  0  0  0  0  0  0  0  # atno 17321 bound_to 7965
  139.4815  144.5997  151.7627 LP  0  0  0  0  0  0  0  0  0  0  0  0  # atno 17342 bound_to 10162
  140.5132  144.0993  150.6001 LP  0  0  0  0  0  0  0  0  0  0  0  0  # atno 17343 bound_to 10162
  156.1440  130.6264  151.0506 LP  0  0  0  0  0  0  0  0  0  0  0  0  # atno 17370 bound_to 10713
  157.6802  131.0840  150.7389 LP  0  0  0  0  0  0  0  0  0  0  0  0  # atno 17371 bound_to 10713
  139.8703  134.9641  156.4485 LP  0  0  0  0  0  0  0  0  0  0  0  0  # atno 17394 bound_to 11000
  140.8882  133.7867  155.9542 LP  0  0  0  0  0  0  0  0  0  0  0  0  # atno 17395 bound_to 11000

$$$$
