AV-unprocessed.smi:96|AV-procd|sdf|859|dock8
  -GOLD-   2262017303D 1   1.00000     0.00000
 Structure written by MMmdl.
 43 46  0  0  0  0  0  0  0  0  1 V2000
  146.9244  140.3294  153.9858 O   0  0  0  0  0  0  0  0  0  0  0  0
  147.2898  139.4463  153.2089 C   0  0  0  0  0  0  0  0  0  0  0  0
  146.3622  138.9645  152.0818 C   0  0  0  0  0  0  0  0  0  0  0  0
  145.6554  137.7013  152.3898 N   0  0  0  0  0  0  0  0  0  0  0  0
  145.0137  137.5709  153.6466 C   0  0  0  0  0  0  0  0  0  0  0  0
  145.0517  138.4769  154.4805 O   0  0  0  0  0  0  0  0  0  0  0  0
  144.3094  136.3131  153.8665 C   0  0  0  0  0  0  0  0  0  0  0  0
  143.6587  136.1074  155.0242 F   0  0  0  0  0  0  0  0  0  0  0  0
  144.2968  135.3504  152.9219 C   0  0  0  0  0  0  0  0  0  0  0  0
  144.9446  135.4806  151.7092 N   0  0  0  0  0  0  0  0  0  0  0  0
  144.8351  134.3690  150.6912 C   0  0  2  0  0  0  0  0  0  0  0  0
  143.8221  133.2751  151.0788 C   0  0  0  0  0  0  0  0  0  0  0  0
  144.6725  132.0154  151.0969 C   0  0  0  0  0  0  0  0  0  0  0  0
  145.8673  132.3994  150.2309 C   0  0  0  0  0  0  0  0  0  0  0  0
  146.0836  133.7630  150.5584 O   0  0  0  0  0  0  0  0  0  0  0  0
  145.6173  136.6864  151.4035 C   0  0  0  0  0  0  0  0  0  0  0  0
  146.1507  136.8554  150.3058 O   0  0  0  0  0  0  0  0  0  0  0  0
  148.4765  138.8150  153.2754 N   0  0  0  0  0  0  0  0  0  0  0  0
  149.5467  139.0239  154.1871 C   0  0  0  0  0  0  0  0  0  0  0  0
  150.7006  138.1896  154.2463 C   0  0  0  0  0  0  0  0  0  0  0  0
  151.7248  138.4362  155.1889 C   0  0  0  0  0  0  0  0  0  0  0  0
  151.5621  139.5187  156.0674 C   0  0  0  0  0  0  0  0  0  0  0  0
  150.4411  140.3205  156.0258 C   0  0  0  0  0  0  0  0  0  0  0  0
  149.4093  140.0976  155.0996 C   0  0  0  0  0  0  0  0  0  0  0  0
  150.5328  141.2803  156.9814 O   0  0  0  0  0  0  0  0  0  0  0  0
  151.7577  141.0587  157.6316 C   0  0  0  0  0  0  0  0  0  0  0  0
  152.3935  139.9496  157.0500 O   0  0  0  0  0  0  0  0  0  0  0  0
  145.6515  139.7607  151.8539 H   0  0  0  0  0  0  0  0  0  0  0  0
  146.9513  138.8698  151.1682 H   0  0  0  0  0  0  0  0  0  0  0  0
  143.7559  134.4394  153.1328 H   0  0  0  0  0  0  0  0  0  0  0  0
  144.5682  134.8489  149.7484 H   0  0  0  0  0  0  0  0  0  0  0  0
  143.3337  133.4737  152.0331 H   0  0  0  0  0  0  0  0  0  0  0  0
  143.0562  133.2212  150.3044 H   0  0  0  0  0  0  0  0  0  0  0  0
  145.0049  131.8000  152.1128 H   0  0  0  0  0  0  0  0  0  0  0  0
  144.1431  131.1387  150.7231 H   0  0  0  0  0  0  0  0  0  0  0  0
  146.7490  131.7915  150.4346 H   0  0  0  0  0  0  0  0  0  0  0  0
  145.6241  132.3123  149.1707 H   0  0  0  0  0  0  0  0  0  0  0  0
  148.6015  138.0471  152.6319 H   0  0  0  0  0  0  0  0  0  0  0  0
  150.8146  137.3435  153.5866 H   0  0  0  0  0  0  0  0  0  0  0  0
  152.6014  137.8071  155.2364 H   0  0  0  0  0  0  0  0  0  0  0  0
  148.5382  140.7365  155.0858 H   0  0  0  0  0  0  0  0  0  0  0  0
  152.3915  141.9400  157.5269 H   0  0  0  0  0  0  0  0  0  0  0  0
  151.5798  140.8644  158.6899 H   0  0  0  0  0  0  0  0  0  0  0  0
  1  2  2  0  0  0  0
  2  3  1  0  0  0  0
  2 18  1  0  0  0  0
  3  4  1  0  0  0  0
  3 28  1  0  0  0  0
  3 29  1  0  0  0  0
  4 16  1  0  0  0  0
  4  5  1  0  0  0  0
  5  6  2  0  0  0  0
  5  7  1  0  0  0  0
  7  8  1  0  0  0  0
  7  9  2  0  0  0  0
  9 10  1  0  0  0  0
  9 30  1  0  0  0  0
 10 11  1  0  0  0  0
 10 16  1  0  0  0  0
 11 15  1  0  0  0  0
 11 12  1  0  0  0  0
 11 31  1  0  0  0  0
 12 13  1  0  0  0  0
 12 32  1  0  0  0  0
 12 33  1  0  0  0  0
 13 14  1  0  0  0  0
 13 34  1  0  0  0  0
 13 35  1  0  0  0  0
 14 15  1  0  0  0  0
 14 36  1  0  0  0  0
 14 37  1  0  0  0  0
 16 17  2  0  0  0  0
 18 19  1  0  0  0  0
 18 38  1  0  0  0  0
 19 24  1  0  0  0  0
 19 20  2  0  0  0  0
 20 21  1  0  0  0  0
 20 39  1  0  0  0  0
 21 22  2  0  0  0  0
 21 40  1  0  0  0  0
 22 27  1  0  0  0  0
 22 23  1  0  0  0  0
 23 24  2  0  0  0  0
 23 25  1  0  0  0  0
 24 41  1  0  0  0  0
 25 26  1  0  0  0  0
 26 27  1  0  0  0  0
 26 42  1  0  0  0  0
 26 43  1  0  0  0  0
M  END
> <s_m_source_file>
AV-unprocessed.smi

> <i_m_source_file_index>
96

> <i_lp_mmshare_version>
43012

> <i_f3d_flags>
0

> <s_epik_input>
TzFbQ0gyXU9jKGMxMilbY0hdYyhbY0hdW2NIXTIpW05IXUMoPU8pW0NIMl1uM2MoPU8pYyhGKVtjSF1uKGMzPU8pW0NAQEhdNFtDSDJdW0NIMl1bQ0gyXU80

> <s_epik_cmdline>
J2VwaWtfcHl0aG9uJywgJy1waCcsICc3LjAnLCAnLXRuJywgJzgnLCAnLW1hJywgJzIwMCcsICctbWV0YWxfYmluZGluZycsICctaW1hZScsICc8aW5maWxlLm1hZT4nLCAnLW9tYWUnLCAnPG91dGZpbGUubWFlPic=

> <r_lp_tautomer_probability>
1

> <r_epik_Ionization_Penalty>
1.04778e-05

> <r_epik_Ionization_Penalty_Charging>
3.88729e-08

> <r_epik_Ionization_Penalty_Neutral>
1.04389e-05

> <r_epik_State_Penalty>
-0

> <r_epik_Charging_Adjusted_Penalty>
3.88729e-08

> <i_epik_Tot_Q>
0

> <i_epik_Tot_abs_Q>
0

> <r_epik_Metal_State_Penalty>
-0

> <b_epik_Metal_Only>
0

> <s_epik_Chemistry_Notes>
This compound contains an acetal/aminal-like group ( X-CH(R)-Y where X, Y are N, S, or O) that may be acid/base labile, releasing an aldehyde.

> <s_lp_Force_Field>
OPLS_2005

> <r_lp_Energy>
41.3846

> <b_lp_Chiralities_Consistent>
1

> <s_lp_Variant>
AV-unprocessed.smi:96-1

> <Gold.Version>
5.8.1

> <Gold.Id.Protein>
6NUR|6NUR_protein|mol2

> <Gold.PLP.Fitness>
47.9656

> <Gold.PLP.PLP>
-42.6425

> <Gold.PLP.part.hbond>
-4.0000

> <Gold.PLP.part.metal>
0.0000

> <Gold.PLP.part.buried>
-2.1173

> <Gold.PLP.part.nonpolar>
-39.4301

> <Gold.PLP.part.repulsive>
2.0480

> <Gold.PLP.ligand.clash>
0.6190

> <Gold.PLP.ligand.torsion>
0.6362

> <Gold.PLP.Chemscore.Hbond>
2.3931

> <Gold.PLP.Chemscore.CHOScore>
0.0000

> <Gold.PLP.Chemscore.Metal>
0.0000

> <Gold.Chemscore.Hbonds>
donor molecule, donor type, donor heavy atom, donor atom, acceptor molecule, acceptor atom, score
      L1  H    18    38       P1  7948  1.00
      P1  H  7954  7966       L1    17  0.28
      P1  H  7997  8010       L1    27  0.93

> <Gold.PLP.Chemscore.Internal.Correction>
0.0353

> <Gold.Rescore>
     Score         DG    S(hbond)    S(metal)    S(lipo)     H(rot)  DE(clash)    DE(int)     intcor
     11.00     -18.23       2.37        0.00      81.78       1.85       1.91       5.32       ----

> <Gold.Chemscore.Fitness>
10.9957

> <Gold.Chemscore.DG>
-18.2258

> <Gold.Chemscore.ZeroCoef>
-5.4800

> <Gold.Chemscore.Hbond>
2.3691

> <Gold.Chemscore.Metal>
0.0000

> <Gold.Chemscore.Lipo>
81.7814

> <Gold.Chemscore.Internal_Hbond>
0.0000

> <Gold.Chemscore.DEClash>
1.9078

> <Gold.Chemscore.DEInternal>
5.3222

> <Gold.Chemscore.Rot>
1.8497

> <Gold.Chemscore.Internal.Correction>
   9.000000E+99

> <Gold.Chemscore.Hbonds>
donor molecule, donor type, donor heavy atom, donor atom, acceptor molecule, acceptor atom, score
      L1  H    18    38       P1  7948  0.98
      P1  H  7954  7966       L1    17  0.28
      P1  H  7997  8010       L1    27  0.68

> <Gold.Chemscore.Hbond.Weighted>
-7.9127

> <Gold.Chemscore.Metal.Weighted>
-0.0000

> <Gold.Chemscore.Lipo.Weighted>
-9.5684

> <Gold.Chemscore.Internal_Hbond.Weighted>
0.0000

> <Gold.Chemscore.DEClash.Weighted>
1.9078

> <Gold.Chemscore.DEInternal.Weighted>
5.3222

> <Gold.Chemscore.Rot.Weighted>
4.7354

> <Gold.Chemscore.Internal.Correction.Weighted>
   9.000000E+99

> <Gold.Protein.RotatedTorsions>
[ 6907 6896 6895 6894 ] final  102.16 input  -60.11 | X-H torsion
[ 7974 7965 7964 7962 ] final  149.77 input  175.53 | X-H torsion
[ 8008 7997 7996 7995 ] final   76.08 input   59.86 | X-H torsion
[ 10167 10162 10161 10158 ] final  118.83 input  -65.29 | X-H torsion
[ 10718 10713 10712 10709 ] final    9.21 input   66.30 | X-H torsion
[ 10763 10752 10751 10750 ] final -142.86 input  -60.55 | X-H torsion
[ 11005 11000 10999 10996 ] final   72.46 input  -57.11 | X-H torsion

> <Gold.Protein.ActiveResidues>
 VAL166  LYS551  ARG553  GLY616  TRP617  ASP618  TYR619  PRO620  LYS621  CYS622 
 ASP623  PHE694  ASN695  SER759  ASP760  ASP761  ALA762  ILE779  LEU786  VAL792 
 PHE793  MET794  SER795  GLU796  ALA797  LYS798  CYS799  TRP800  GLU811  SER814 

> <Gold.Protein.RotatedAtoms>
  152.5331  134.0017  159.7897 H   0  0  0  0  0  0  0  0  0  0  0  0  # atno 6907 bound_to 6896
  151.0234  133.5847  159.2676 H   0  0  0  0  0  0  0  0  0  0  0  0  # atno 6908 bound_to 6896
  151.2879  135.0740  159.9247 H   0  0  0  0  0  0  0  0  0  0  0  0  # atno 6909 bound_to 6896
  144.8413  139.6322  143.6015 H   0  0  0  0  0  0  0  0  0  0  0  0  # atno 7974 bound_to 7965
  155.8222  140.3469  155.5521 H   0  0  0  0  0  0  0  0  0  0  0  0  # atno 8008 bound_to 7997
  155.8330  140.0930  157.1801 H   0  0  0  0  0  0  0  0  0  0  0  0  # atno 8009 bound_to 7997
  154.4004  140.1408  156.3624 H   0  0  0  0  0  0  0  0  0  0  0  0  # atno 8010 bound_to 7997
  139.6086  144.7076  151.2897 H   0  0  0  0  0  0  0  0  0  0  0  0  # atno 10167 bound_to 10162
  156.9629  130.5940  149.5663 H   0  0  0  0  0  0  0  0  0  0  0  0  # atno 10718 bound_to 10713
  154.8492  135.3484  154.6096 H   0  0  0  0  0  0  0  0  0  0  0  0  # atno 10763 bound_to 10752
  153.6704  135.6985  153.5153 H   0  0  0  0  0  0  0  0  0  0  0  0  # atno 10764 bound_to 10752
  153.2747  135.4282  155.0978 H   0  0  0  0  0  0  0  0  0  0  0  0  # atno 10765 bound_to 10752
  139.9489  134.7262  156.0910 H   0  0  0  0  0  0  0  0  0  0  0  0  # atno 11005 bound_to 11000
  146.2705  139.6624  142.9299 LP  0  0  0  0  0  0  0  0  0  0  0  0  # atno 17320 bound_to 7965
  145.4687  141.0435  143.2710 LP  0  0  0  0  0  0  0  0  0  0  0  0  # atno 17321 bound_to 7965
  140.7302  143.6885  150.7942 LP  0  0  0  0  0  0  0  0  0  0  0  0  # atno 17342 bound_to 10162
  140.0475  143.5283  152.2689 LP  0  0  0  0  0  0  0  0  0  0  0  0  # atno 17343 bound_to 10162
  156.0314  130.5405  150.8545 LP  0  0  0  0  0  0  0  0  0  0  0  0  # atno 17370 bound_to 10713
  157.5645  131.0946  150.9510 LP  0  0  0  0  0  0  0  0  0  0  0  0  # atno 17371 bound_to 10713
  141.1147  133.6631  156.3065 LP  0  0  0  0  0  0  0  0  0  0  0  0  # atno 17394 bound_to 11000
  140.5766  134.5787  157.5470 LP  0  0  0  0  0  0  0  0  0  0  0  0  # atno 17395 bound_to 11000

$$$$
