AV-unprocessed.smi:424|AV-procd|sdf|2539|dock6
  -GOLD-   2262022503D 1   1.00000     0.00000
 Structure written by MMmdl.
 34 35  0  0  0  0  0  0  0  0  1 V2000
  147.4634  142.0617  154.3742 C   0  0  0  0  0  0  0  0  0  0  0  0
  148.8807  141.5443  154.0795 C   0  0  0  0  0  0  0  0  0  0  0  0
  149.6841  141.1890  155.3358 C   0  0  0  0  0  0  0  0  0  0  0  0
  149.9953  140.0204  155.5661 O   0  0  0  0  0  0  0  0  0  0  0  0
  149.9808  142.2309  156.1342 N   0  0  0  0  0  0  0  0  0  0  0  0
  150.7162  142.2459  157.3512 C   0  0  0  0  0  0  0  0  0  0  0  0
  151.1627  143.4175  158.0059 C   0  0  0  0  0  0  0  0  0  0  0  0
  151.8655  143.2952  159.2201 C   0  0  0  0  0  0  0  0  0  0  0  0
  152.1024  142.0084  159.7584 C   0  0  0  0  0  0  0  0  0  0  0  0
  152.8025  141.8647  160.9760 N   0  0  0  0  0  0  0  0  0  0  0  0
  152.8952  143.0660  161.8021 C   0  0  0  0  0  0  0  0  0  0  0  0
  153.3912  142.7090  163.2141 C   0  0  0  0  0  0  0  0  0  0  0  0
  154.6207  141.9959  163.1303 O   0  0  0  0  0  0  0  0  0  0  0  0
  154.4746  140.7723  162.4176 C   0  0  0  0  0  0  0  0  0  0  0  0
  154.0264  141.0651  160.9758 C   0  0  0  0  0  0  0  0  0  0  0  0
  151.6578  140.8892  159.1363 N   0  0  0  0  0  0  0  0  0  0  0  0
  150.9859  141.0105  157.9725 C   0  0  0  0  0  0  0  0  0  0  0  0
  146.9336  142.2807  153.4471 H   0  0  0  0  0  0  0  0  0  0  0  0
  147.4884  142.9798  154.9624 H   0  0  0  0  0  0  0  0  0  0  0  0
  146.8752  141.3246  154.9226 H   0  0  0  0  0  0  0  0  0  0  0  0
  148.8173  140.6598  153.4444 H   0  0  0  0  0  0  0  0  0  0  0  0
  149.4325  142.2966  153.5151 H   0  0  0  0  0  0  0  0  0  0  0  0
  149.5919  143.1203  155.8561 H   0  0  0  0  0  0  0  0  0  0  0  0
  150.9681  144.4048  157.6180 H   0  0  0  0  0  0  0  0  0  0  0  0
  152.1936  144.1875  159.7315 H   0  0  0  0  0  0  0  0  0  0  0  0
  153.5876  143.7640  161.3295 H   0  0  0  0  0  0  0  0  0  0  0  0
  151.9369  143.5767  161.8828 H   0  0  0  0  0  0  0  0  0  0  0  0
  153.5470  143.6166  163.7972 H   0  0  0  0  0  0  0  0  0  0  0  0
  152.6487  142.1126  163.7468 H   0  0  0  0  0  0  0  0  0  0  0  0
  155.4290  140.2458  162.4147 H   0  0  0  0  0  0  0  0  0  0  0  0
  153.7560  140.1264  162.9249 H   0  0  0  0  0  0  0  0  0  0  0  0
  153.8633  140.1230  160.4507 H   0  0  0  0  0  0  0  0  0  0  0  0
  154.8106  141.6053  160.4437 H   0  0  0  0  0  0  0  0  0  0  0  0
  150.6541  140.0861  157.5226 H   0  0  0  0  0  0  0  0  0  0  0  0
  1  2  1  0  0  0  0
  1 18  1  0  0  0  0
  1 19  1  0  0  0  0
  1 20  1  0  0  0  0
  2  3  1  0  0  0  0
  2 21  1  0  0  0  0
  2 22  1  0  0  0  0
  3  4  2  0  0  0  0
  3  5  1  0  0  0  0
  5  6  1  0  0  0  0
  5 23  1  0  0  0  0
  6 17  1  0  0  0  0
  6  7  2  0  0  0  0
  7  8  1  0  0  0  0
  7 24  1  0  0  0  0
  8  9  2  0  0  0  0
  8 25  1  0  0  0  0
  9 10  1  0  0  0  0
  9 16  1  0  0  0  0
 10 15  1  0  0  0  0
 10 11  1  0  0  0  0
 11 12  1  0  0  0  0
 11 26  1  0  0  0  0
 11 27  1  0  0  0  0
 12 13  1  0  0  0  0
 12 28  1  0  0  0  0
 12 29  1  0  0  0  0
 13 14  1  0  0  0  0
 14 15  1  0  0  0  0
 14 30  1  0  0  0  0
 14 31  1  0  0  0  0
 15 32  1  0  0  0  0
 15 33  1  0  0  0  0
 16 17  2  0  0  0  0
 17 34  1  0  0  0  0
M  END
> <s_m_source_file>
AV-unprocessed.smi

> <i_m_source_file_index>
424

> <i_lp_mmshare_version>
43012

> <i_f3d_flags>
0

> <s_epik_input>
W0NIM11bQ0gyXUMoPU8pW05IXWMxW2NIXVtjSF1jKG5bY0hdMSlOMltDSDJdW0NIMl1PW0NIMl1bQ0gyXTI=

> <s_epik_cmdline>
J2VwaWtfcHl0aG9uJywgJy1waCcsICc3LjAnLCAnLXRuJywgJzgnLCAnLW1hJywgJzIwMCcsICctbWV0YWxfYmluZGluZycsICctaW1hZScsICc8aW5maWxlLm1hZT4nLCAnLW9tYWUnLCAnPG91dGZpbGUubWFlPic=

> <r_lp_tautomer_probability>
1

> <r_epik_Ionization_Penalty>
0.000622595

> <r_epik_Ionization_Penalty_Charging>
0

> <r_epik_Ionization_Penalty_Neutral>
0.000622595

> <r_epik_State_Penalty>
0.000387388

> <r_epik_Charging_Adjusted_Penalty>
0.000387388

> <i_epik_Tot_Q>
0

> <i_epik_Tot_abs_Q>
0

> <r_epik_Metal_State_Penalty>
-0

> <b_epik_Metal_Only>
0

> <s_lp_Force_Field>
OPLS_2005

> <r_lp_Energy>
21.9993

> <b_lp_Chiralities_Consistent>
1

> <s_lp_Variant>
AV-unprocessed.smi:424-1

> <Gold.Version>
5.8.1

> <Gold.Id.Protein>
6NUR|6NUR_protein|mol2

> <Gold.PLP.Fitness>
40.7253

> <Gold.PLP.PLP>
-38.0021

> <Gold.PLP.part.hbond>
-1.9647

> <Gold.PLP.part.metal>
0.0000

> <Gold.PLP.part.buried>
-1.7609

> <Gold.PLP.part.nonpolar>
-34.0998

> <Gold.PLP.part.repulsive>
0.1586

> <Gold.PLP.ligand.clash>
0.0000

> <Gold.PLP.ligand.torsion>
0.3141

> <Gold.PLP.Chemscore.Hbond>
1.0000

> <Gold.PLP.Chemscore.CHOScore>
0.0000

> <Gold.PLP.Chemscore.Metal>
0.0000

> <Gold.Chemscore.Hbonds>
donor molecule, donor type, donor heavy atom, donor atom, acceptor molecule, acceptor atom, score
      L1  H     5    23       P1  8028  1.00

> <Gold.PLP.Chemscore.Internal.Correction>
0.3514

> <Gold.Rescore>
     Score         DG    S(hbond)    S(metal)    S(lipo)     H(rot)  DE(clash)    DE(int)     intcor
     12.65     -15.98       1.00        0.00      87.15       1.18       1.64       1.68       ----

> <Gold.Chemscore.Fitness>
12.6543

> <Gold.Chemscore.DG>
-15.9804

> <Gold.Chemscore.ZeroCoef>
-5.4800

> <Gold.Chemscore.Hbond>
0.9992

> <Gold.Chemscore.Metal>
0.0000

> <Gold.Chemscore.Lipo>
87.1455

> <Gold.Chemscore.Internal_Hbond>
0.0000

> <Gold.Chemscore.DEClash>
1.6431

> <Gold.Chemscore.DEInternal>
1.6830

> <Gold.Chemscore.Rot>
1.1848

> <Gold.Chemscore.Internal.Correction>
   9.000000E+99

> <Gold.Chemscore.Hbonds>
donor molecule, donor type, donor heavy atom, donor atom, acceptor molecule, acceptor atom, score
      L1  H     5    23       P1  8028  1.00

> <Gold.Chemscore.Hbond.Weighted>
-3.3374

> <Gold.Chemscore.Metal.Weighted>
-0.0000

> <Gold.Chemscore.Lipo.Weighted>
-10.1960

> <Gold.Chemscore.Internal_Hbond.Weighted>
0.0000

> <Gold.Chemscore.DEClash.Weighted>
1.6431

> <Gold.Chemscore.DEInternal.Weighted>
1.6830

> <Gold.Chemscore.Rot.Weighted>
3.0331

> <Gold.Chemscore.Internal.Correction.Weighted>
   9.000000E+99

> <Gold.Protein.RotatedTorsions>
[ 6907 6896 6895 6894 ] final  166.17 input  -60.11 | X-H torsion
[ 7974 7965 7964 7962 ] final  -39.50 input  175.53 | X-H torsion
[ 8008 7997 7996 7995 ] final   30.09 input   59.86 | X-H torsion
[ 10167 10162 10161 10158 ] final  -29.72 input  -65.29 | X-H torsion
[ 10718 10713 10712 10709 ] final -118.41 input   66.30 | X-H torsion
[ 10763 10752 10751 10750 ] final  116.41 input  -60.55 | X-H torsion
[ 11005 11000 10999 10996 ] final -130.40 input  -57.11 | X-H torsion

> <Gold.Protein.ActiveResidues>
 VAL166  LYS551  ARG553  GLY616  TRP617  ASP618  TYR619  PRO620  LYS621  CYS622 
 ASP623  PHE694  ASN695  SER759  ASP760  ASP761  ALA762  ILE779  LEU786  VAL792 
 PHE793  MET794  SER795  GLU796  ALA797  LYS798  CYS799  TRP800  GLU811  SER814 

> <Gold.Protein.RotatedAtoms>
  151.8830  133.3499  159.3772 H   0  0  0  0  0  0  0  0  0  0  0  0  # atno 6907 bound_to 6896
  150.7122  134.5000  159.5566 H   0  0  0  0  0  0  0  0  0  0  0  0  # atno 6908 bound_to 6896
  152.2555  134.8089  160.0490 H   0  0  0  0  0  0  0  0  0  0  0  0  # atno 6909 bound_to 6896
  146.0390  140.6633  142.9096 H   0  0  0  0  0  0  0  0  0  0  0  0  # atno 7974 bound_to 7965
  155.0849  140.3214  155.4590 H   0  0  0  0  0  0  0  0  0  0  0  0  # atno 8008 bound_to 7997
  156.2758  140.2088  156.5922 H   0  0  0  0  0  0  0  0  0  0  0  0  # atno 8009 bound_to 7997
  154.6949  140.0512  157.0388 H   0  0  0  0  0  0  0  0  0  0  0  0  # atno 8010 bound_to 7997
  140.7257  143.3906  151.1436 H   0  0  0  0  0  0  0  0  0  0  0  0  # atno 10167 bound_to 10162
  156.1104  130.6244  150.9287 H   0  0  0  0  0  0  0  0  0  0  0  0  # atno 10718 bound_to 10713
  153.5368  135.3567  155.2700 H   0  0  0  0  0  0  0  0  0  0  0  0  # atno 10763 bound_to 10752
  154.8721  135.4081  154.3089 H   0  0  0  0  0  0  0  0  0  0  0  0  # atno 10764 bound_to 10752
  153.3788  135.7067  153.6649 H   0  0  0  0  0  0  0  0  0  0  0  0  # atno 10765 bound_to 10752
  140.9349  134.1271  157.4202 H   0  0  0  0  0  0  0  0  0  0  0  0  # atno 11005 bound_to 11000
  144.7065  140.3874  143.7114 LP  0  0  0  0  0  0  0  0  0  0  0  0  # atno 17320 bound_to 7965
  145.6916  139.1640  143.2644 LP  0  0  0  0  0  0  0  0  0  0  0  0  # atno 17321 bound_to 7965
  139.7510  143.8778  152.3077 LP  0  0  0  0  0  0  0  0  0  0  0  0  # atno 17342 bound_to 10162
  139.8632  144.7106  150.9075 LP  0  0  0  0  0  0  0  0  0  0  0  0  # atno 17343 bound_to 10162
  157.6285  131.0923  150.8488 LP  0  0  0  0  0  0  0  0  0  0  0  0  # atno 17370 bound_to 10713
  156.8599  130.5109  149.5304 LP  0  0  0  0  0  0  0  0  0  0  0  0  # atno 17371 bound_to 10713
  139.8805  135.0017  156.6085 LP  0  0  0  0  0  0  0  0  0  0  0  0  # atno 17394 bound_to 11000
  140.7813  133.8657  155.8570 LP  0  0  0  0  0  0  0  0  0  0  0  0  # atno 17395 bound_to 11000

$$$$
