AV-unprocessed.smi:1561|AV-procd|sdf|6283|dock10
  -GOLD-   22720 6483D 1   1.00000     0.00000
 Structure written by MMmdl.
 33 34  0  0  0  0  0  0  0  0  1 V2000
  153.3421  141.1706  160.4626 C   0  0  0  0  0  0  0  0  0  0  0  0
  152.1493  141.6933  159.6359 C   0  0  2  0  0  0  0  0  0  0  0  0
  152.1019  141.0998  158.2198 C   0  0  0  0  0  0  0  0  0  0  0  0
  152.8517  140.1768  157.8989 O   0  0  0  0  0  0  0  0  0  0  0  0
  151.2235  141.6614  157.3734 N   0  0  0  0  0  0  0  0  0  0  0  0
  151.0788  141.3295  155.9603 C   0  0  0  0  0  0  0  0  0  0  0  0
  151.0391  139.8053  155.7413 C   0  0  2  0  0  0  0  0  0  0  0  0
  152.3859  139.1984  155.3693 C   0  0  0  0  0  0  0  0  0  0  0  0
  152.0374  138.0669  154.3956 C   0  0  0  0  0  0  0  0  0  0  0  0
  150.6177  138.0238  154.3470 O   0  0  0  0  0  0  0  0  0  0  0  0
  150.1405  139.3338  154.5986 C   0  0  0  0  0  0  0  0  0  0  0  0
  152.1181  143.1503  159.5648 N   0  0  0  0  0  0  0  0  0  0  0  0
  151.9278  144.0451  160.5985 C   0  0  0  0  0  0  0  0  0  0  0  0
  151.9236  145.3003  160.0610 C   0  0  0  0  0  0  0  0  0  0  0  0
  152.1057  145.0720  158.6692 C   0  0  0  0  0  0  0  0  0  0  0  0
  152.2127  143.7871  158.3740 N   0  0  0  0  0  0  0  0  0  0  0  0
  153.3145  140.0836  160.5463 H   0  0  0  0  0  0  0  0  0  0  0  0
  153.3197  141.5759  161.4745 H   0  0  0  0  0  0  0  0  0  0  0  0
  154.3012  141.4423  160.0196 H   0  0  0  0  0  0  0  0  0  0  0  0
  151.2405  141.3783  160.1512 H   0  0  0  0  0  0  0  0  0  0  0  0
  150.6435  142.4096  157.7243 H   0  0  0  0  0  0  0  0  0  0  0  0
  150.1921  141.8031  155.5351 H   0  0  0  0  0  0  0  0  0  0  0  0
  151.9328  141.7515  155.4300 H   0  0  0  0  0  0  0  0  0  0  0  0
  150.6944  139.3226  156.6573 H   0  0  0  0  0  0  0  0  0  0  0  0
  153.0322  139.9259  154.8764 H   0  0  0  0  0  0  0  0  0  0  0  0
  152.9112  138.8316  156.2517 H   0  0  0  0  0  0  0  0  0  0  0  0
  152.4254  138.2859  153.3998 H   0  0  0  0  0  0  0  0  0  0  0  0
  152.4410  137.1052  154.7133 H   0  0  0  0  0  0  0  0  0  0  0  0
  149.0832  139.3291  154.8656 H   0  0  0  0  0  0  0  0  0  0  0  0
  150.2704  139.9503  153.7075 H   0  0  0  0  0  0  0  0  0  0  0  0
  151.8102  143.7175  161.6209 H   0  0  0  0  0  0  0  0  0  0  0  0
  151.8021  146.2384  160.5819 H   0  0  0  0  0  0  0  0  0  0  0  0
  152.1578  145.7961  157.8695 H   0  0  0  0  0  0  0  0  0  0  0  0
  1  2  1  0  0  0  0
  1 17  1  0  0  0  0
  1 18  1  0  0  0  0
  1 19  1  0  0  0  0
  2  3  1  0  0  0  0
  2 12  1  0  0  0  0
  2 20  1  0  0  0  0
  3  4  2  0  0  0  0
  3  5  1  0  0  0  0
  5  6  1  0  0  0  0
  5 21  1  0  0  0  0
  6  7  1  0  0  0  0
  6 22  1  0  0  0  0
  6 23  1  0  0  0  0
  7 11  1  0  0  0  0
  7  8  1  0  0  0  0
  7 24  1  0  0  0  0
  8  9  1  0  0  0  0
  8 25  1  0  0  0  0
  8 26  1  0  0  0  0
  9 10  1  0  0  0  0
  9 27  1  0  0  0  0
  9 28  1  0  0  0  0
 10 11  1  0  0  0  0
 11 29  1  0  0  0  0
 11 30  1  0  0  0  0
 12 16  1  0  0  0  0
 12 13  1  0  0  0  0
 13 14  2  0  0  0  0
 13 31  1  0  0  0  0
 14 15  1  0  0  0  0
 14 32  1  0  0  0  0
 15 16  2  0  0  0  0
 15 33  1  0  0  0  0
M  END
> <s_m_source_file>
AV-unprocessed.smi

> <i_m_source_file_index>
1561

> <i_lp_mmshare_version>
43012

> <i_f3d_flags>
0

> <s_epik_input>
bjFbY0hdW2NIXVtjSF1uMVtDQEhdKFtDSDNdKUMoPU8pW05IXVtDSDJdW0NAQEhdMltDSDJdW0NIMl1PW0NIMl0y

> <s_epik_cmdline>
J2VwaWtfcHl0aG9uJywgJy1waCcsICc3LjAnLCAnLXRuJywgJzgnLCAnLW1hJywgJzIwMCcsICctbWV0YWxfYmluZGluZycsICctaW1hZScsICc8aW5maWxlLm1hZT4nLCAnLW9tYWUnLCAnPG91dGZpbGUubWFlPic=

> <r_lp_tautomer_probability>
1

> <r_epik_Ionization_Penalty>
3.82077e-05

> <r_epik_Ionization_Penalty_Charging>
0

> <r_epik_Ionization_Penalty_Neutral>
3.82077e-05

> <r_epik_State_Penalty>
-0

> <r_epik_Charging_Adjusted_Penalty>
0

> <i_epik_Tot_Q>
0

> <i_epik_Tot_abs_Q>
0

> <r_epik_Metal_State_Penalty>
-0

> <b_epik_Metal_Only>
0

> <s_lp_Force_Field>
OPLS_2005

> <r_lp_Energy>
22.2594

> <b_lp_Chiralities_Consistent>
1

> <s_lp_Variant>
AV-unprocessed.smi:1561-1

> <Gold.Version>
5.8.1

> <Gold.Id.Protein>
6NUR|6NUR_protein|mol2

> <Gold.PLP.Fitness>
42.6160

> <Gold.PLP.PLP>
-41.4010

> <Gold.PLP.part.hbond>
-1.0000

> <Gold.PLP.part.metal>
0.0000

> <Gold.PLP.part.buried>
-5.8456

> <Gold.PLP.part.nonpolar>
-34.4294

> <Gold.PLP.part.repulsive>
0.3154

> <Gold.PLP.ligand.clash>
0.0000

> <Gold.PLP.ligand.torsion>
0.9486

> <Gold.PLP.Chemscore.Hbond>
1.0000

> <Gold.PLP.Chemscore.CHOScore>
0.0000

> <Gold.PLP.Chemscore.Metal>
0.0000

> <Gold.Chemscore.Hbonds>
donor molecule, donor type, donor heavy atom, donor atom, acceptor molecule, acceptor atom, score
      P1  H  7997  8009       L1     4  1.00

> <Gold.PLP.Chemscore.Internal.Correction>
0.1121

> <Gold.Rescore>
     Score         DG    S(hbond)    S(metal)    S(lipo)     H(rot)  DE(clash)    DE(int)     intcor
     10.53     -15.48       0.92        0.00      94.41       1.61       0.02       4.93       ----

> <Gold.Chemscore.Fitness>
10.5347

> <Gold.Chemscore.DG>
-15.4848

> <Gold.Chemscore.ZeroCoef>
-5.4800

> <Gold.Chemscore.Hbond>
0.9218

> <Gold.Chemscore.Metal>
0.0000

> <Gold.Chemscore.Lipo>
94.4104

> <Gold.Chemscore.Internal_Hbond>
0.0000

> <Gold.Chemscore.DEClash>
0.0212

> <Gold.Chemscore.DEInternal>
4.9289

> <Gold.Chemscore.Rot>
1.6094

> <Gold.Chemscore.Internal.Correction>
   9.000000E+99

> <Gold.Chemscore.Hbonds>
donor molecule, donor type, donor heavy atom, donor atom, acceptor molecule, acceptor atom, score
      P1  H  7997  8009       L1     4  0.94

> <Gold.Chemscore.Hbond.Weighted>
-3.0788

> <Gold.Chemscore.Metal.Weighted>
-0.0000

> <Gold.Chemscore.Lipo.Weighted>
-11.0460

> <Gold.Chemscore.Internal_Hbond.Weighted>
0.0000

> <Gold.Chemscore.DEClash.Weighted>
0.0212

> <Gold.Chemscore.DEInternal.Weighted>
4.9289

> <Gold.Chemscore.Rot.Weighted>
4.1201

> <Gold.Chemscore.Internal.Correction.Weighted>
   9.000000E+99

> <Gold.Protein.RotatedTorsions>
[ 6907 6896 6895 6894 ] final   35.98 input  -60.11 | X-H torsion
[ 7974 7965 7964 7962 ] final  164.03 input  175.53 | X-H torsion
[ 8008 7997 7996 7995 ] final  167.05 input   59.86 | X-H torsion
[ 10167 10162 10161 10158 ] final   -7.96 input  -65.29 | X-H torsion
[ 10718 10713 10712 10709 ] final -165.46 input   66.30 | X-H torsion
[ 10763 10752 10751 10750 ] final   53.79 input  -60.55 | X-H torsion
[ 11005 11000 10999 10996 ] final  -84.22 input  -57.11 | X-H torsion

> <Gold.Protein.ActiveResidues>
 VAL166  LYS551  ARG553  GLY616  TRP617  ASP618  TYR619  PRO620  LYS621  CYS622 
 ASP623  PHE694  ASN695  SER759  ASP760  ASP761  ALA762  ILE779  LEU786  VAL792 
 PHE793  MET794  SER795  GLU796  ALA797  LYS798  CYS799  TRP800  GLU811  SER814 

> <Gold.Protein.RotatedAtoms>
  152.1235  134.9188  160.0561 H   0  0  0  0  0  0  0  0  0  0  0  0  # atno 6907 bound_to 6896
  152.0319  133.3936  159.4309 H   0  0  0  0  0  0  0  0  0  0  0  0  # atno 6908 bound_to 6896
  150.6851  134.3432  159.4920 H   0  0  0  0  0  0  0  0  0  0  0  0  # atno 6909 bound_to 6896
  144.7563  139.8267  143.6348 H   0  0  0  0  0  0  0  0  0  0  0  0  # atno 7974 bound_to 7965
  156.1667  140.1627  156.8519 H   0  0  0  0  0  0  0  0  0  0  0  0  # atno 8008 bound_to 7997
  154.5214  140.0777  156.8214 H   0  0  0  0  0  0  0  0  0  0  0  0  # atno 8009 bound_to 7997
  155.3597  140.3394  155.4243 H   0  0  0  0  0  0  0  0  0  0  0  0  # atno 8010 bound_to 7997
  140.7044  143.6023  150.8786 H   0  0  0  0  0  0  0  0  0  0  0  0  # atno 10167 bound_to 10162
  156.6538  130.9018  151.3018 H   0  0  0  0  0  0  0  0  0  0  0  0  # atno 10718 bound_to 10713
  152.9798  135.5767  154.4799 H   0  0  0  0  0  0  0  0  0  0  0  0  # atno 10763 bound_to 10752
  154.4349  135.2774  155.1889 H   0  0  0  0  0  0  0  0  0  0  0  0  # atno 10764 bound_to 10752
  154.3582  135.6194  153.5730 H   0  0  0  0  0  0  0  0  0  0  0  0  # atno 10765 bound_to 10752
  141.1652  133.7334  156.8835 H   0  0  0  0  0  0  0  0  0  0  0  0  # atno 11005 bound_to 11000
  146.1577  139.4680  143.0008 LP  0  0  0  0  0  0  0  0  0  0  0  0  # atno 17320 bound_to 7965
  145.6768  141.0202  143.1628 LP  0  0  0  0  0  0  0  0  0  0  0  0  # atno 17321 bound_to 7965
  139.9747  143.6018  152.2962 LP  0  0  0  0  0  0  0  0  0  0  0  0  # atno 17342 bound_to 10162
  139.6617  144.7662  151.1950 LP  0  0  0  0  0  0  0  0  0  0  0  0  # atno 17343 bound_to 10162
  157.7132  130.9465  150.1162 LP  0  0  0  0  0  0  0  0  0  0  0  0  # atno 17370 bound_to 10713
  156.2064  130.3663  149.8724 LP  0  0  0  0  0  0  0  0  0  0  0  0  # atno 17371 bound_to 10713
  140.1698  134.9108  157.2819 LP  0  0  0  0  0  0  0  0  0  0  0  0  # atno 17394 bound_to 11000
  140.2515  134.3677  155.7440 LP  0  0  0  0  0  0  0  0  0  0  0  0  # atno 17395 bound_to 11000

$$$$
