AV-unprocessed.smi:276|AV-procd|sdf|2076|dock6
  -GOLD-   2262021343D 1   1.00000     0.00000
 Structure written by MMmdl.
 57 61  0  0  0  0  0  0  0  0  1 V2000
  152.2795  143.7511  159.0148 C   0  0  0  0  0  0  0  0  0  0  0  0
  152.8245  142.4439  158.9772 O   0  0  0  0  0  0  0  0  0  0  0  0
  151.8592  141.4417  159.2529 C   0  0  2  0  0  0  0  0  0  0  0  0
  152.3321  140.0128  158.9631 C   0  0  0  0  0  0  0  0  0  0  0  0
  150.9165  139.7349  158.4407 C   0  0  2  0  0  0  0  0  0  0  0  0
  150.9004  138.8232  157.2939 N   0  0  0  0  0  0  0  0  0  0  0  0
  152.1279  138.7584  156.5111 C   0  0  0  0  0  0  0  0  0  0  0  0
  150.4273  137.5781  157.5276 C   0  0  0  0  0  0  0  0  0  0  0  0
  149.8835  137.3474  158.7488 N   0  0  0  0  0  0  0  0  0  0  0  0
  149.4236  136.1319  159.0589 C   0  0  0  0  0  0  0  0  0  0  0  0
  149.4063  135.0291  158.3073 N   0  0  0  0  0  0  0  0  0  0  0  0
  149.9279  135.2658  157.0698 C   0  0  0  0  0  0  0  0  0  0  0  0
  150.4467  136.5027  156.5937 C   0  0  0  0  0  0  0  0  0  0  0  0
  150.8687  136.3608  155.2765 N   0  0  0  0  0  0  0  0  0  0  0  0
  150.6376  135.1070  154.9997 C   0  0  0  0  0  0  0  0  0  0  0  0
  150.0828  134.3749  156.0243 N   0  0  0  0  0  0  0  0  0  0  0  0
  149.7413  132.9653  156.0021 C   0  0  0  0  0  0  0  0  0  0  0  0
  150.2051  132.2537  154.7135 C   0  0  1  0  0  0  0  0  0  0  0  0
  150.6837  130.9784  155.0909 O   0  0  0  0  0  0  0  0  0  0  0  0
  149.1017  132.0905  153.6440 C   0  0  2  0  0  0  0  0  0  0  0  0
  148.4721  133.4017  153.1735 C   0  0  0  0  0  0  0  0  0  0  0  0
  147.1571  132.9455  152.5708 C   0  0  0  0  0  0  0  0  0  0  0  0
  146.8547  131.6428  153.3144 C   0  0  0  0  0  0  0  0  0  0  0  0
  147.9667  131.4186  154.1737 O   0  0  0  0  0  0  0  0  0  0  0  0
  150.8179  141.2540  158.1324 C   0  0  0  0  0  0  0  0  0  0  0  0
  149.4812  142.0053  158.1847 C   0  0  0  0  0  0  0  0  0  0  0  0
  149.5650  142.2172  156.6698 C   0  0  0  0  0  0  0  0  0  0  0  0
  151.0519  141.8512  156.7293 C   0  0  0  0  0  0  0  0  0  0  0  0
  153.0605  144.4789  158.7956 H   0  0  0  0  0  0  0  0  0  0  0  0
  151.8709  143.9837  159.9990 H   0  0  0  0  0  0  0  0  0  0  0  0
  151.4905  143.8696  158.2711 H   0  0  0  0  0  0  0  0  0  0  0  0
  151.3887  141.5447  160.2335 H   0  0  0  0  0  0  0  0  0  0  0  0
  153.0995  139.9698  158.1875 H   0  0  0  0  0  0  0  0  0  0  0  0
  152.6148  139.4385  159.8455 H   0  0  0  0  0  0  0  0  0  0  0  0
  150.2584  139.4377  159.2583 H   0  0  0  0  0  0  0  0  0  0  0  0
  152.9479  138.3626  157.1118 H   0  0  0  0  0  0  0  0  0  0  0  0
  152.4131  139.7499  156.1591 H   0  0  0  0  0  0  0  0  0  0  0  0
  152.0050  138.1213  155.6340 H   0  0  0  0  0  0  0  0  0  0  0  0
  149.0166  136.0264  160.0537 H   0  0  0  0  0  0  0  0  0  0  0  0
  150.8775  134.6766  154.0383 H   0  0  0  0  0  0  0  0  0  0  0  0
  150.1900  132.4938  156.8777 H   0  0  0  0  0  0  0  0  0  0  0  0
  148.6604  132.8723  156.1174 H   0  0  0  0  0  0  0  0  0  0  0  0
  151.0434  132.7989  154.2781 H   0  0  0  0  0  0  0  0  0  0  0  0
  149.9838  130.5119  155.5217 H   0  0  0  0  0  0  0  0  0  0  0  0
  149.4804  131.5338  152.7844 H   0  0  0  0  0  0  0  0  0  0  0  0
  148.2815  134.0554  154.0260 H   0  0  0  0  0  0  0  0  0  0  0  0
  149.0964  133.9439  152.4625 H   0  0  0  0  0  0  0  0  0  0  0  0
  146.3701  133.6905  152.6916 H   0  0  0  0  0  0  0  0  0  0  0  0
  147.2752  132.7485  151.5042 H   0  0  0  0  0  0  0  0  0  0  0  0
  145.9371  131.7087  153.8992 H   0  0  0  0  0  0  0  0  0  0  0  0
  146.7536  130.8106  152.6168 H   0  0  0  0  0  0  0  0  0  0  0  0
  148.6308  141.4066  158.5095 H   0  0  0  0  0  0  0  0  0  0  0  0
  149.5468  142.9410  158.7413 H   0  0  0  0  0  0  0  0  0  0  0  0
  148.9663  141.5009  156.1072 H   0  0  0  0  0  0  0  0  0  0  0  0
  149.3663  143.2398  156.3484 H   0  0  0  0  0  0  0  0  0  0  0  0
  151.6850  142.7387  156.7372 H   0  0  0  0  0  0  0  0  0  0  0  0
  151.3781  141.1478  155.9641 H   0  0  0  0  0  0  0  0  0  0  0  0
  1  2  1  0  0  0  0
  1 29  1  0  0  0  0
  1 30  1  0  0  0  0
  1 31  1  0  0  0  0
  2  3  1  0  0  0  0
  3 25  1  0  0  0  0
  3  4  1  0  0  0  0
  3 32  1  0  0  0  0
  4  5  1  0  0  0  0
  4 33  1  0  0  0  0
  4 34  1  0  0  0  0
  5  6  1  0  0  0  0
  5 25  1  0  0  0  0
  5 35  1  0  0  0  0
  6  7  1  0  0  0  0
  6  8  1  0  0  0  0
  7 36  1  0  0  0  0
  7 37  1  0  0  0  0
  7 38  1  0  0  0  0
  8 13  1  0  0  0  0
  8  9  2  0  0  0  0
  9 10  1  0  0  0  0
 10 11  2  0  0  0  0
 10 39  1  0  0  0  0
 11 12  1  0  0  0  0
 12 16  1  0  0  0  0
 12 13  2  0  0  0  0
 13 14  1  0  0  0  0
 14 15  2  0  0  0  0
 15 16  1  0  0  0  0
 15 40  1  0  0  0  0
 16 17  1  0  0  0  0
 17 18  1  0  0  0  0
 17 41  1  0  0  0  0
 17 42  1  0  0  0  0
 18 19  1  0  0  0  0
 18 20  1  0  0  0  0
 18 43  1  0  0  0  0
 19 44  1  0  0  0  0
 20 24  1  0  0  0  0
 20 21  1  0  0  0  0
 20 45  1  0  0  0  0
 21 22  1  0  0  0  0
 21 46  1  0  0  0  0
 21 47  1  0  0  0  0
 22 23  1  0  0  0  0
 22 48  1  0  0  0  0
 22 49  1  0  0  0  0
 23 24  1  0  0  0  0
 23 50  1  0  0  0  0
 23 51  1  0  0  0  0
 25 28  1  0  0  0  0
 25 26  1  0  0  0  0
 26 27  1  0  0  0  0
 26 52  1  0  0  0  0
 26 53  1  0  0  0  0
 27 28  1  0  0  0  0
 27 54  1  0  0  0  0
 27 55  1  0  0  0  0
 28 56  1  0  0  0  0
 28 57  1  0  0  0  0
M  END
> <s_m_source_file>
AV-unprocessed.smi

> <i_m_source_file_index>
276

> <i_lp_mmshare_version>
43012

> <i_f3d_flags>
0

> <s_epik_input>
W0NIMl0xW0NIMl1bQ0gyXUMxMltDQEhdKE9bQ0gzXSlbQ0gyXVtDQEhdMk4oW0NIM10pYyhuW2NIXW4zKWMoYzM0KW5bY0hdbjRbQ0gyXVtDQEhdKFtPSF0pW0NAQEhdNVtDSDJdW0NIMl1bQ0gyXU81

> <s_epik_cmdline>
J2VwaWtfcHl0aG9uJywgJy1waCcsICc3LjAnLCAnLXRuJywgJzgnLCAnLW1hJywgJzIwMCcsICctbWV0YWxfYmluZGluZycsICctaW1hZScsICc8aW5maWxlLm1hZT4nLCAnLW9tYWUnLCAnPG91dGZpbGUubWFlPic=

> <r_lp_tautomer_probability>
1

> <r_epik_Ionization_Penalty>
0.00204117

> <r_epik_Ionization_Penalty_Charging>
0

> <r_epik_Ionization_Penalty_Neutral>
0.00204117

> <r_epik_State_Penalty>
0.00127401

> <r_epik_Charging_Adjusted_Penalty>
0.00127401

> <i_epik_Tot_Q>
0

> <i_epik_Tot_abs_Q>
0

> <r_epik_Metal_State_Penalty>
-0

> <b_epik_Metal_Only>
0

> <s_lp_Force_Field>
OPLS_2005

> <r_lp_Energy>
54.0539

> <b_lp_Chiralities_Consistent>
1

> <s_lp_Variant>
AV-unprocessed.smi:276-7

> <Gold.Version>
5.8.1

> <Gold.Id.Protein>
6NUR|6NUR_protein|mol2

> <Gold.PLP.Fitness>
36.4526

> <Gold.PLP.PLP>
-36.3888

> <Gold.PLP.part.hbond>
-1.1288

> <Gold.PLP.part.metal>
0.0000

> <Gold.PLP.part.buried>
-2.8767

> <Gold.PLP.part.nonpolar>
-31.8392

> <Gold.PLP.part.repulsive>
0.1544

> <Gold.PLP.ligand.clash>
0.0000

> <Gold.PLP.ligand.torsion>
1.8113

> <Gold.PLP.Chemscore.Hbond>
1.0000

> <Gold.PLP.Chemscore.CHOScore>
0.0000

> <Gold.PLP.Chemscore.Metal>
0.0000

> <Gold.Chemscore.Hbonds>
donor molecule, donor type, donor heavy atom, donor atom, acceptor molecule, acceptor atom, score
      P1  H  6896  6907       L1    11  0.65
      L1  C    15    40       P1  7949  0.12

> <Gold.PLP.Chemscore.Internal.Correction>
0.6865

> <Gold.Rescore>
     Score         DG    S(hbond)    S(metal)    S(lipo)     H(rot)  DE(clash)    DE(int)     intcor
      6.33     -10.15       0.11        0.00      96.24       2.72       1.57       2.25       ----

> <Gold.Chemscore.Fitness>
6.3259

> <Gold.Chemscore.DG>
-10.1454

> <Gold.Chemscore.ZeroCoef>
-5.4800

> <Gold.Chemscore.Hbond>
0.1083

> <Gold.Chemscore.Metal>
0.0000

> <Gold.Chemscore.Lipo>
96.2350

> <Gold.Chemscore.Internal_Hbond>
0.0000

> <Gold.Chemscore.DEClash>
1.5719

> <Gold.Chemscore.DEInternal>
2.2476

> <Gold.Chemscore.Rot>
2.7172

> <Gold.Chemscore.Internal.Correction>
   9.000000E+99

> <Gold.Chemscore.Hbonds>
donor molecule, donor type, donor heavy atom, donor atom, acceptor molecule, acceptor atom, score
      P1  H  6896  6907       L1    11  0.04

> <Gold.Chemscore.Hbond.Weighted>
-0.3619

> <Gold.Chemscore.Metal.Weighted>
-0.0000

> <Gold.Chemscore.Lipo.Weighted>
-11.2595

> <Gold.Chemscore.Internal_Hbond.Weighted>
0.0000

> <Gold.Chemscore.DEClash.Weighted>
1.5719

> <Gold.Chemscore.DEInternal.Weighted>
2.2476

> <Gold.Chemscore.Rot.Weighted>
6.9560

> <Gold.Chemscore.Internal.Correction.Weighted>
   9.000000E+99

> <Gold.Protein.RotatedTorsions>
[ 6907 6896 6895 6894 ] final  -98.29 input  -60.11 | X-H torsion
[ 7974 7965 7964 7962 ] final  -27.21 input  175.53 | X-H torsion
[ 8008 7997 7996 7995 ] final   83.49 input   59.86 | X-H torsion
[ 10167 10162 10161 10158 ] final  100.11 input  -65.29 | X-H torsion
[ 10718 10713 10712 10709 ] final   68.46 input   66.30 | X-H torsion
[ 10763 10752 10751 10750 ] final  -12.59 input  -60.55 | X-H torsion
[ 11005 11000 10999 10996 ] final  -28.68 input  -57.11 | X-H torsion

> <Gold.Protein.ActiveResidues>
 VAL166  LYS551  ARG553  GLY616  TRP617  ASP618  TYR619  PRO620  LYS621  CYS622 
 ASP623  PHE694  ASN695  SER759  ASP760  ASP761  ALA762  ILE779  LEU786  VAL792 
 PHE793  MET794  SER795  GLU796  ALA797  LYS798  CYS799  TRP800  GLU811  SER814 

> <Gold.Protein.RotatedAtoms>
  150.7042  134.1217  159.4037 H   0  0  0  0  0  0  0  0  0  0  0  0  # atno 6907 bound_to 6896
  151.9204  135.0298  160.0531 H   0  0  0  0  0  0  0  0  0  0  0  0  # atno 6908 bound_to 6896
  152.2261  133.4986  159.5226 H   0  0  0  0  0  0  0  0  0  0  0  0  # atno 6909 bound_to 6896
  146.1373  140.5122  142.8667 H   0  0  0  0  0  0  0  0  0  0  0  0  # atno 7974 bound_to 7965
  155.9247  140.3419  155.6200 H   0  0  0  0  0  0  0  0  0  0  0  0  # atno 8008 bound_to 7997
  155.7231  140.0786  157.2340 H   0  0  0  0  0  0  0  0  0  0  0  0  # atno 8009 bound_to 7997
  154.4075  140.1602  156.2412 H   0  0  0  0  0  0  0  0  0  0  0  0  # atno 8010 bound_to 7997
  139.7557  144.6970  151.0367 H   0  0  0  0  0  0  0  0  0  0  0  0  # atno 10167 bound_to 10162
  157.6290  130.9375  150.0380 H   0  0  0  0  0  0  0  0  0  0  0  0  # atno 10718 bound_to 10713
  153.5008  135.7017  153.5833 H   0  0  0  0  0  0  0  0  0  0  0  0  # atno 10763 bound_to 10752
  153.3965  135.3882  155.1959 H   0  0  0  0  0  0  0  0  0  0  0  0  # atno 10764 bound_to 10752
  154.8711  135.3871  154.4478 H   0  0  0  0  0  0  0  0  0  0  0  0  # atno 10765 bound_to 10752
  140.9230  133.7387  156.0828 H   0  0  0  0  0  0  0  0  0  0  0  0  # atno 11005 bound_to 11000
  144.7753  140.5727  143.6642 LP  0  0  0  0  0  0  0  0  0  0  0  0  # atno 17320 bound_to 7965
  145.5127  139.1479  143.3596 LP  0  0  0  0  0  0  0  0  0  0  0  0  # atno 17321 bound_to 7965
  140.7802  143.4756  151.0086 LP  0  0  0  0  0  0  0  0  0  0  0  0  # atno 17342 bound_to 10162
  139.8443  143.7522  152.3179 LP  0  0  0  0  0  0  0  0  0  0  0  0  # atno 17343 bound_to 10162
  156.1481  130.3642  149.9479 LP  0  0  0  0  0  0  0  0  0  0  0  0  # atno 17370 bound_to 10713
  156.7505  130.9113  151.3637 LP  0  0  0  0  0  0  0  0  0  0  0  0  # atno 17371 bound_to 10713
  140.7963  134.3560  157.5451 LP  0  0  0  0  0  0  0  0  0  0  0  0  # atno 17394 bound_to 11000
  139.8779  134.9171  156.3170 LP  0  0  0  0  0  0  0  0  0  0  0  0  # atno 17395 bound_to 11000

$$$$
