#       Name:                AV-unprocessed.smi:895
#       Creating user name   scv26
#       Creation time:       Fri Mar 27 01:56:24 2020


#       File generated by GOLD software.
#

@<TRIPOS>MOLECULE
AV-unprocessed.smi:895
    49    50     1
SMALL
NO_CHARGES


@<TRIPOS>ATOM
      1 ****        -3.3013   1.9698  -2.3086 C.3            1 S1                 0.0000
      2 ****        -2.7923   2.9161  -1.2037 C.3            1 S1                 0.0000
      3 ****        -3.2433   4.3594  -1.4842 C.3            1 S1                 0.0000
      4 ****        -3.4069   2.5468   0.0152 O.3            1 S1                 0.0000
      5 ****        -1.2567   2.8710  -1.0096 C.3            1 S1                 0.0000
      6 ****        -0.7156   1.5149  -1.0172 N.am           1 S1                 0.0000
      7 ****        -0.4790   0.7749   0.0740 C.2            1 S1                 0.0000
      8 ****        -0.6547   1.1700   1.2265 O.2            1 S1                 0.0000
      9 ****        -0.0305  -0.4462  -0.2484 N.am           1 S1                 0.0000
     10 ****         0.3384  -1.4982   0.6982 C.3            1 S1                 0.0000
     11 ****        -0.5806  -2.7152   0.4747 C.3            1 S1                 0.0000
     12 ****        -0.1873  -3.8979   1.3725 C.3            1 S1                 0.0000
     13 ****         1.2840  -4.2842   1.1648 C.3            1 S1                 0.0000
     14 ****         2.2072  -3.0827   1.4139 C.3            1 S1                 0.0000
     15 ****         1.8293  -1.8838   0.5187 C.3            1 S1                 0.0000
     16 ****         2.7208  -0.7550   0.7561 N.pl3          1 S1                 0.0000
     17 ****         3.5971  -0.1646  -0.1306 C.2            1 S1                 0.0000
     18 ****         4.2142   0.8617   0.5252 C.2            1 S1                 0.0000
     19 ****         3.6429   0.8217   1.8274 C.2            1 S1                 0.0000
     20 ****         2.7533  -0.1474   1.9640 N.2            1 S1                 0.0000
     21 ****        -2.8266   2.1917  -3.2647 H              1 S1                 0.0000
     22 ****        -4.3787   2.0670  -2.4461 H              1 S1                 0.0000
     23 ****        -3.1021   0.9237  -2.0740 H              1 S1                 0.0000
     24 ****        -2.8198   4.7289  -2.4188 H              1 S1                 0.0000
     25 ****        -2.9279   5.0375  -0.6902 H              1 S1                 0.0000
     26 ****        -4.3287   4.4306  -1.5657 H              1 S1                 0.0000
     27 ****        -3.0647   3.0965   0.7038 H              1 S1                 0.0000
     28 ****        -0.7769   3.3916  -1.8389 H              1 S1                 0.0000
     29 ****        -0.9585   3.4122  -0.1093 H              1 S1                 0.0000
     30 ****        -0.5377   1.1018  -1.9208 H              1 S1                 0.0000
     31 ****         0.0719  -0.6659  -1.2281 H              1 S1                 0.0000
     32 ****         0.1891  -1.1571   1.7244 H              1 S1                 0.0000
     33 ****        -1.6180  -2.4386   0.6675 H              1 S1                 0.0000
     34 ****        -0.5342  -3.0277  -0.5697 H              1 S1                 0.0000
     35 ****        -0.3532  -3.6348   2.4180 H              1 S1                 0.0000
     36 ****        -0.8297  -4.7534   1.1626 H              1 S1                 0.0000
     37 ****         1.5518  -5.1034   1.8326 H              1 S1                 0.0000
     38 ****         1.4268  -4.6529   0.1484 H              1 S1                 0.0000
     39 ****         2.1476  -2.7991   2.4656 H              1 S1                 0.0000
     40 ****         3.2426  -3.3719   1.2313 H              1 S1                 0.0000
     41 ****         1.9751  -2.1911  -0.5185 H              1 S1                 0.0000
     42 ****         3.7054  -0.5187  -1.1451 H              1 S1                 0.0000
     43 ****         4.9590   1.5384   0.1337 H              1 S1                 0.0000
     44 ****         3.8473   1.4631   2.6719 H              1 S1                 0.0000
     45 ****        -3.2052   1.5885   0.2175 LP             1 S1                 0.0000
     46 ****        -4.3966   2.6715  -0.0551 LP             1 S1                 0.0000
     47 ****        -0.9943   2.0960   1.3913 LP             1 S1                 0.0000
     48 ****        -0.4578   0.5650   1.9980 LP             1 S1                 0.0000
     49 ****         2.2226  -0.3793   2.7792 LP             1 S1                 0.0000
@<TRIPOS>BOND
    1    1    2 1     
    2    1   21 1     
    3    1   22 1     
    4    1   23 1     
    5    2    3 1     
    6    2    4 1     
    7    2    5 1     
    8    3   24 1     
    9    3   25 1     
   10    3   26 1     
   11    4   27 1     
   12    5    6 1     
   13    5   28 1     
   14    5   29 1     
   15    6    7 am    
   16    6   30 1     
   17    7    8 2     
   18    7    9 am    
   19    9   10 1     
   20    9   31 1     
   21   10   15 1     
   22   10   11 1     
   23   10   32 1     
   24   11   12 1     
   25   11   33 1     
   26   11   34 1     
   27   12   13 1     
   28   12   35 1     
   29   12   36 1     
   30   13   14 1     
   31   13   37 1     
   32   13   38 1     
   33   14   15 1     
   34   14   39 1     
   35   14   40 1     
   36   15   16 1     
   37   15   41 1     
   38   16   20 1     
   39   16   17 1     
   40   17   18 2     
   41   17   42 1     
   42   18   19 1     
   43   18   43 1     
   44   19   20 2     
   45   19   44 1     
   46    4   45 1     
   47    4   46 1     
   48    8   47 1     
   49    8   48 1     
   50   20   49 1     
@<TRIPOS>SUBSTRUCTURE
      1 S1             1
@<TRIPOS>SET
LONE_PAIRS      STATIC     ATOMS    <user>   **** ""
5 45 46 47 48 49
DONOR_HYDROGENS      STATIC     ATOMS    <user>   **** ""
3 27 30 31
ATOM$BLUE        STATIC     ATOMS    COLORGROUP SYSTEM
5 45 46 47 48 49
ATOM$RED        STATIC     ATOMS    COLORGROUP SYSTEM
3 27 30 31
