AV-unprocessed.smi:2888|AV-procd|sdf|11105|dock2
  -GOLD-   2272015573D 1   1.00000     0.00000
 Structure written by MMmdl.
 34 36  0  0  0  0  0  0  0  0  2 V2000
  152.7531  140.2511  159.2916 C   0  0  0  0  0  0  0  0  0  0  0  0
  152.0845  141.4719  158.6961 C   0  0  0  0  0  0  0  0  0  0  0  0
  152.4871  142.7749  159.0359 C   0  0  0  0  0  0  0  0  0  0  0  0
  151.7911  143.8326  158.4192 C   0  0  0  0  0  0  0  0  0  0  0  0
  152.1251  145.2834  158.6933 C   0  0  0  0  0  0  0  0  0  0  0  0
  150.7882  143.5686  157.5444 N   0  3  0  0  0  0  0  0  0  0  0  0
  150.4586  142.2982  157.2648 C   0  0  0  0  0  0  0  0  0  0  0  0
  149.4320  142.0896  156.3618 N   0  0  0  0  0  0  0  0  0  0  0  0
  148.9569  140.7726  155.9543 C   0  0  1  0  0  0  0  0  0  0  0  0
  147.5746  140.4283  156.5143 C   0  0  0  0  0  0  0  0  0  0  0  0
  146.8041  140.0527  155.2403 C   0  0  1  0  0  0  0  0  0  0  0  0
  146.4404  141.2945  154.4160 C   0  0  0  0  0  0  0  0  0  0  0  0
  147.7977  141.6930  153.8396 C   0  0  0  0  0  0  0  0  0  0  0  0
  148.7253  140.6212  154.4379 C   0  0  2  0  0  0  0  0  0  0  0  0
  147.8449  139.5104  154.4441 O   0  0  0  0  0  0  0  0  0  0  0  0
  151.0835  141.2500  157.8209 N   0  0  0  0  0  0  0  0  0  0  0  0
  153.4828  140.5329  160.0510 H   0  0  0  0  0  0  0  0  0  0  0  0
  153.2696  139.6852  158.5159 H   0  0  0  0  0  0  0  0  0  0  0  0
  152.0128  139.6000  159.7570 H   0  0  0  0  0  0  0  0  0  0  0  0
  153.2903  142.9565  159.7355 H   0  0  0  0  0  0  0  0  0  0  0  0
  152.8447  145.3736  159.5076 H   0  0  0  0  0  0  0  0  0  0  0  0
  151.2272  145.8363  158.9711 H   0  0  0  0  0  0  0  0  0  0  0  0
  152.5548  145.7468  157.8048 H   0  0  0  0  0  0  0  0  0  0  0  0
  149.1074  142.8892  155.8380 H   0  0  0  0  0  0  0  0  0  0  0  0
  149.6689  140.0174  156.2902 H   0  0  0  0  0  0  0  0  0  0  0  0
  147.6440  139.5774  157.1928 H   0  0  0  0  0  0  0  0  0  0  0  0
  147.0985  141.2499  157.0515 H   0  0  0  0  0  0  0  0  0  0  0  0
  145.9671  139.3753  155.4114 H   0  0  0  0  0  0  0  0  0  0  0  0
  145.7449  141.0401  153.6152 H   0  0  0  0  0  0  0  0  0  0  0  0
  145.9896  142.0801  155.0238 H   0  0  0  0  0  0  0  0  0  0  0  0
  147.7817  141.6189  152.7515 H   0  0  0  0  0  0  0  0  0  0  0  0
  148.0908  142.7101  154.1007 H   0  0  0  0  0  0  0  0  0  0  0  0
  149.6384  140.4599  153.8641 H   0  0  0  0  0  0  0  0  0  0  0  0
  150.2938  144.3442  157.1032 H   0  0  0  0  0  0  0  0  0  0  0  0
  1  2  1  0  0  0  0
  1 17  1  0  0  0  0
  1 18  1  0  0  0  0
  1 19  1  0  0  0  0
  2 16  1  0  0  0  0
  2  3  2  0  0  0  0
  3  4  1  0  0  0  0
  3 20  1  0  0  0  0
  4  5  1  0  0  0  0
  4  6  2  0  0  0  0
  5 21  1  0  0  0  0
  5 22  1  0  0  0  0
  5 23  1  0  0  0  0
  6  7  1  0  0  0  0
  6 34  1  0  0  0  0
  7  8  1  0  0  0  0
  7 16  2  0  0  0  0
  8  9  1  0  0  0  0
  8 24  1  0  0  0  0
  9 14  1  0  0  0  0
  9 10  1  0  0  0  0
  9 25  1  0  0  0  0
 10 11  1  0  0  0  0
 10 26  1  0  0  0  0
 10 27  1  0  0  0  0
 11 15  1  0  0  0  0
 11 12  1  0  0  0  0
 11 28  1  0  0  0  0
 12 13  1  0  0  0  0
 12 29  1  0  0  0  0
 12 30  1  0  0  0  0
 13 14  1  0  0  0  0
 13 31  1  0  0  0  0
 13 32  1  0  0  0  0
 14 15  1  0  0  0  0
 14 33  1  0  0  0  0
M  CHG  1   6   1
M  END
> <s_m_source_file>
AV-unprocessed.smi

> <i_m_source_file_index>
2888

> <i_lp_mmshare_version>
43012

> <i_f3d_flags>
0

> <s_epik_input>
W0NIM11jMVtjSF1jKFtDSDNdKW5jKG4xKVtOSF1bQ0BIXShbQ0gyXVtDQEBIXTIzKVtDQEBIXShPMylbQ0gyXVtDSDJdMg==

> <s_epik_cmdline>
J2VwaWtfcHl0aG9uJywgJy1waCcsICc3LjAnLCAnLXRuJywgJzgnLCAnLW1hJywgJzIwMCcsICctbWV0YWxfYmluZGluZycsICctaW1hZScsICc8aW5maWxlLm1hZT4nLCAnLW9tYWUnLCAnPG91dGZpbGUubWFlPic=

> <r_lp_tautomer_probability>
0.505494

> <r_epik_Ionization_Penalty>
2.49163

> <r_epik_Ionization_Penalty_Charging>
2.49163

> <r_epik_Ionization_Penalty_Neutral>
3.7631e-06

> <r_epik_State_Penalty>
2.656

> <r_epik_Charging_Adjusted_Penalty>
5.14762

> <i_epik_Tot_Q>
1

> <i_epik_Tot_abs_Q>
1

> <r_epik_Metal_State_Penalty>
2.66479

> <b_epik_Metal_Only>
0

> <s_lp_Force_Field>
OPLS_2005

> <r_lp_Energy>
36.4531

> <b_lp_Chiralities_Consistent>
1

> <s_lp_Variant>
AV-unprocessed.smi:2888-6

> <Gold.Version>
5.8.1

> <Gold.Id.Protein>
6NUR|6NUR_protein|mol2

> <Gold.PLP.Fitness>
40.9715

> <Gold.PLP.PLP>
-30.0934

> <Gold.PLP.part.hbond>
-2.0000

> <Gold.PLP.part.metal>
0.0000

> <Gold.PLP.part.buried>
-4.9908

> <Gold.PLP.part.nonpolar>
-23.7041

> <Gold.PLP.part.repulsive>
0.1922

> <Gold.PLP.ligand.clash>
0.0000

> <Gold.PLP.ligand.torsion>
0.1573

> <Gold.PLP.Chemscore.Hbond>
3.7280

> <Gold.PLP.Chemscore.CHOScore>
0.0000

> <Gold.PLP.Chemscore.Metal>
0.0000

> <Gold.Chemscore.Hbonds>
donor molecule, donor type, donor heavy atom, donor atom, acceptor molecule, acceptor atom, score
      L1  H     6    34       P1  8028  1.70
      L1  H     8    24       P1  8028  2.00

> <Gold.PLP.Chemscore.Internal.Correction>
0.0088

> <Gold.Rescore>
     Score         DG    S(hbond)    S(metal)    S(lipo)     H(rot)  DE(clash)    DE(int)     intcor
     17.82     -17.90       1.53        0.00      84.23       1.00       0.03       0.06       ----

> <Gold.Chemscore.Fitness>
17.8158

> <Gold.Chemscore.DG>
-17.8982

> <Gold.Chemscore.ZeroCoef>
-5.4800

> <Gold.Chemscore.Hbond>
1.5339

> <Gold.Chemscore.Metal>
0.0000

> <Gold.Chemscore.Lipo>
84.2313

> <Gold.Chemscore.Internal_Hbond>
0.0000

> <Gold.Chemscore.DEClash>
0.0269

> <Gold.Chemscore.DEInternal>
0.0556

> <Gold.Chemscore.Rot>
1.0000

> <Gold.Chemscore.Internal.Correction>
   9.000000E+99

> <Gold.Chemscore.Hbonds>
donor molecule, donor type, donor heavy atom, donor atom, acceptor molecule, acceptor atom, score
      L1  H     6    34       P1  8028  0.66
      L1  H     8    24       P1  8028  0.95

> <Gold.Chemscore.Hbond.Weighted>
-5.1232

> <Gold.Chemscore.Metal.Weighted>
-0.0000

> <Gold.Chemscore.Lipo.Weighted>
-9.8551

> <Gold.Chemscore.Internal_Hbond.Weighted>
0.0000

> <Gold.Chemscore.DEClash.Weighted>
0.0269

> <Gold.Chemscore.DEInternal.Weighted>
0.0556

> <Gold.Chemscore.Rot.Weighted>
2.5600

> <Gold.Chemscore.Internal.Correction.Weighted>
   9.000000E+99

> <Gold.Protein.RotatedTorsions>
[ 6907 6896 6895 6894 ] final  -91.58 input  -60.11 | X-H torsion
[ 7974 7965 7964 7962 ] final  173.79 input  175.53 | X-H torsion
[ 8008 7997 7996 7995 ] final   -4.83 input   59.86 | X-H torsion
[ 10167 10162 10161 10158 ] final  138.72 input  -65.29 | X-H torsion
[ 10718 10713 10712 10709 ] final  -86.23 input   66.30 | X-H torsion
[ 10763 10752 10751 10750 ] final -171.78 input  -60.55 | X-H torsion
[ 11005 11000 10999 10996 ] final  111.62 input  -57.11 | X-H torsion

> <Gold.Protein.ActiveResidues>
 VAL166  LYS551  ARG553  GLY616  TRP617  ASP618  TYR619  PRO620  LYS621  CYS622 
 ASP623  PHE694  ASN695  SER759  ASP760  ASP761  ALA762  ILE779  LEU786  VAL792 
 PHE793  MET794  SER795  GLU796  ALA797  LYS798  CYS799  TRP800  GLU811  SER814 

> <Gold.Protein.RotatedAtoms>
  150.6894  134.2256  159.4413 H   0  0  0  0  0  0  0  0  0  0  0  0  # atno 6907 bound_to 6896
  152.0209  134.9820  160.0580 H   0  0  0  0  0  0  0  0  0  0  0  0  # atno 6908 bound_to 6896
  152.1398  133.4422  159.4798 H   0  0  0  0  0  0  0  0  0  0  0  0  # atno 6909 bound_to 6896
  144.7236  139.9700  143.6437 H   0  0  0  0  0  0  0  0  0  0  0  0  # atno 7974 bound_to 7965
  154.6102  140.2474  155.7679 H   0  0  0  0  0  0  0  0  0  0  0  0  # atno 8008 bound_to 7997
  156.2366  140.2948  156.0279 H   0  0  0  0  0  0  0  0  0  0  0  0  # atno 8009 bound_to 7997
  155.2065  140.0396  157.2916 H   0  0  0  0  0  0  0  0  0  0  0  0  # atno 8010 bound_to 7997
  139.5101  144.6337  151.5752 H   0  0  0  0  0  0  0  0  0  0  0  0  # atno 10167 bound_to 10162
  155.9991  130.4758  150.4683 H   0  0  0  0  0  0  0  0  0  0  0  0  # atno 10718 bound_to 10713
  154.6266  135.2881  155.0264 H   0  0  0  0  0  0  0  0  0  0  0  0  # atno 10763 bound_to 10752
  154.1440  135.6514  153.4952 H   0  0  0  0  0  0  0  0  0  0  0  0  # atno 10764 bound_to 10752
  153.0260  135.5339  154.7077 H   0  0  0  0  0  0  0  0  0  0  0  0  # atno 10765 bound_to 10752
  139.8908  134.9512  156.6460 H   0  0  0  0  0  0  0  0  0  0  0  0  # atno 11005 bound_to 11000
  146.0570  139.3566  143.0604 LP  0  0  0  0  0  0  0  0  0  0  0  0  # atno 17320 bound_to 7965
  145.8141  140.9711  143.0933 LP  0  0  0  0  0  0  0  0  0  0  0  0  # atno 17321 bound_to 7965
  140.6078  143.9492  150.6431 LP  0  0  0  0  0  0  0  0  0  0  0  0  # atno 17342 bound_to 10162
  140.2724  143.3446  152.1225 LP  0  0  0  0  0  0  0  0  0  0  0  0  # atno 17343 bound_to 10162
  157.2700  131.0585  151.2266 LP  0  0  0  0  0  0  0  0  0  0  0  0  # atno 17370 bound_to 10713
  157.3349  130.7004  149.6347 LP  0  0  0  0  0  0  0  0  0  0  0  0  # atno 17371 bound_to 10713
  140.7557  133.8860  155.8380 LP  0  0  0  0  0  0  0  0  0  0  0  0  # atno 17394 bound_to 11000
  140.9964  134.1210  157.4360 LP  0  0  0  0  0  0  0  0  0  0  0  0  # atno 17395 bound_to 11000

$$$$
