AV-unprocessed.smi:45|AV-procd|sdf|409|dock4
  -GOLD-   2262016263D 1   1.00000     0.00000
 Structure written by MMmdl.
 61 64  0  0  0  0  0  0  0  0  2 V2000
  141.5058  128.3657  158.2518 C   0  0  0  0  0  0  0  0  0  0  0  0
  142.0837  129.6294  158.5444 O   0  0  0  0  0  0  0  0  0  0  0  0
  143.4189  129.8189  158.2544 C   0  0  0  0  0  0  0  0  0  0  0  0
  144.2973  128.7763  157.8657 C   0  0  0  0  0  0  0  0  0  0  0  0
  145.6543  129.0443  157.6034 C   0  0  0  0  0  0  0  0  0  0  0  0
  146.1601  130.3533  157.7204 C   0  0  0  0  0  0  0  0  0  0  0  0
  147.6365  130.6041  157.4411 C   0  0  0  0  0  0  0  0  0  0  0  0
  148.0755  130.4468  156.0578 N   0  0  0  0  0  0  0  0  0  0  0  0
  148.2196  131.5451  155.1901 C   0  0  0  0  0  0  0  0  0  0  0  0
  147.2693  131.7408  154.2474 N   0  0  0  0  0  0  0  0  0  0  0  0
  147.3517  132.7801  153.4059 C   0  0  0  0  0  0  0  0  0  0  0  0
  146.3675  132.9569  152.4370 N   0  0  0  0  0  0  0  0  0  0  0  0
  145.6338  131.8264  151.8819 C   0  0  0  0  0  0  0  0  0  0  0  0
  145.3057  132.2102  150.4400 C   0  0  0  0  0  0  0  0  0  0  0  0
  145.2094  133.7294  150.5053 C   0  0  0  0  0  0  0  0  0  0  0  0
  146.2723  134.1128  151.5456 C   0  0  1  0  0  0  0  0  0  0  0  0
  145.9295  135.4181  152.2920 C   0  0  0  0  0  0  0  0  0  0  0  0
  146.1209  136.5267  151.4397 O   0  0  0  0  0  0  0  0  0  0  0  0
  148.3544  133.6694  153.4702 N   0  3  0  0  0  0  0  0  0  0  0  0
  149.3336  133.5189  154.3930 C   0  0  0  0  0  0  0  0  0  0  0  0
  149.3100  132.4436  155.3066 C   0  0  0  0  0  0  0  0  0  0  0  0
  150.4277  132.2668  156.2997 C   0  0  0  0  0  0  0  0  0  0  0  0
  150.2965  132.6013  157.4772 O   0  0  0  0  0  0  0  0  0  0  0  0
  151.5602  131.7474  155.7998 N   0  0  0  0  0  0  0  0  0  0  0  0
  152.7537  131.4463  156.5819 C   0  0  0  0  0  0  0  0  0  0  0  0
  153.8421  130.7816  155.7560 C   0  0  0  0  0  0  0  0  0  0  0  0
  153.4667  129.7745  154.9615 N   0  0  0  0  0  0  0  0  0  0  0  0
  154.4316  129.1898  154.2190 C   0  0  0  0  0  0  0  0  0  0  0  0
  155.7729  129.6187  154.2763 C   0  0  0  0  0  0  0  0  0  0  0  0
  156.0489  130.6894  155.1501 C   0  0  0  0  0  0  0  0  0  0  0  0
  155.0799  131.2706  155.8906 N   0  0  0  0  0  0  0  0  0  0  0  0
  145.2841  131.3992  158.0826 C   0  0  0  0  0  0  0  0  0  0  0  0
  143.9288  131.1321  158.3551 C   0  0  0  0  0  0  0  0  0  0  0  0
  142.8950  132.4342  158.8219 Cl  0  0  0  0  0  0  0  0  0  0  0  0
  147.2357  134.2193  151.0445 H   0  0  0  0  0  0  0  0  0  0  0  0
  140.4562  128.3743  158.5453 H   0  0  0  0  0  0  0  0  0  0  0  0
  141.9968  127.5648  158.8064 H   0  0  0  0  0  0  0  0  0  0  0  0
  141.5471  128.1457  157.1841 H   0  0  0  0  0  0  0  0  0  0  0  0
  143.9571  127.7565  157.7692 H   0  0  0  0  0  0  0  0  0  0  0  0
  146.3101  128.2348  157.3180 H   0  0  0  0  0  0  0  0  0  0  0  0
  147.8994  131.6076  157.7783 H   0  0  0  0  0  0  0  0  0  0  0  0
  148.2160  129.9150  158.0557 H   0  0  0  0  0  0  0  0  0  0  0  0
  148.0114  129.5241  155.6505 H   0  0  0  0  0  0  0  0  0  0  0  0
  146.2097  130.9007  151.9204 H   0  0  0  0  0  0  0  0  0  0  0  0
  144.7208  131.6836  152.4606 H   0  0  0  0  0  0  0  0  0  0  0  0
  146.1271  131.9216  149.7826 H   0  0  0  0  0  0  0  0  0  0  0  0
  144.3946  131.7382  150.0711 H   0  0  0  0  0  0  0  0  0  0  0  0
  145.3729  134.2074  149.5388 H   0  0  0  0  0  0  0  0  0  0  0  0
  144.2141  134.0114  150.8528 H   0  0  0  0  0  0  0  0  0  0  0  0
  144.8971  135.4080  152.6429 H   0  0  0  0  0  0  0  0  0  0  0  0
  146.5595  135.5536  153.1697 H   0  0  0  0  0  0  0  0  0  0  0  0
  147.0491  136.6485  151.3080 H   0  0  0  0  0  0  0  0  0  0  0  0
  150.1135  134.2663  154.3608 H   0  0  0  0  0  0  0  0  0  0  0  0
  151.5909  131.5128  154.8185 H   0  0  0  0  0  0  0  0  0  0  0  0
  153.1437  132.3798  156.9884 H   0  0  0  0  0  0  0  0  0  0  0  0
  152.4891  130.8252  157.4401 H   0  0  0  0  0  0  0  0  0  0  0  0
  154.1321  128.3749  153.5767 H   0  0  0  0  0  0  0  0  0  0  0  0
  156.5461  129.1528  153.6835 H   0  0  0  0  0  0  0  0  0  0  0  0
  157.0498  131.0811  155.2551 H   0  0  0  0  0  0  0  0  0  0  0  0
  145.6455  132.4139  158.1639 H   0  0  0  0  0  0  0  0  0  0  0  0
  148.3968  134.4526  152.8178 H   0  0  0  0  0  0  0  0  0  0  0  0
  1  2  1  0  0  0  0
  1 36  1  0  0  0  0
  1 37  1  0  0  0  0
  1 38  1  0  0  0  0
  2  3  1  0  0  0  0
  3 33  1  0  0  0  0
  3  4  2  0  0  0  0
  4  5  1  0  0  0  0
  4 39  1  0  0  0  0
  5  6  2  0  0  0  0
  5 40  1  0  0  0  0
  6  7  1  0  0  0  0
  6 32  1  0  0  0  0
  7  8  1  0  0  0  0
  7 41  1  0  0  0  0
  7 42  1  0  0  0  0
  8  9  1  0  0  0  0
  8 43  1  0  0  0  0
  9 21  1  0  0  0  0
  9 10  2  0  0  0  0
 10 11  1  0  0  0  0
 11 12  1  0  0  0  0
 11 19  2  0  0  0  0
 12 16  1  0  0  0  0
 12 13  1  0  0  0  0
 13 14  1  0  0  0  0
 13 44  1  0  0  0  0
 13 45  1  0  0  0  0
 14 15  1  0  0  0  0
 14 46  1  0  0  0  0
 14 47  1  0  0  0  0
 15 16  1  0  0  0  0
 15 48  1  0  0  0  0
 15 49  1  0  0  0  0
 16 35  1  0  0  0  0
 16 17  1  0  0  0  0
 17 18  1  0  0  0  0
 17 50  1  0  0  0  0
 17 51  1  0  0  0  0
 18 52  1  0  0  0  0
 19 20  1  0  0  0  0
 19 61  1  0  0  0  0
 20 21  2  0  0  0  0
 20 53  1  0  0  0  0
 21 22  1  0  0  0  0
 22 23  2  0  0  0  0
 22 24  1  0  0  0  0
 24 25  1  0  0  0  0
 24 54  1  0  0  0  0
 25 26  1  0  0  0  0
 25 55  1  0  0  0  0
 25 56  1  0  0  0  0
 26 31  1  0  0  0  0
 26 27  2  0  0  0  0
 27 28  1  0  0  0  0
 28 29  2  0  0  0  0
 28 57  1  0  0  0  0
 29 30  1  0  0  0  0
 29 58  1  0  0  0  0
 30 31  2  0  0  0  0
 30 59  1  0  0  0  0
 32 33  2  0  0  0  0
 32 60  1  0  0  0  0
 33 34  1  0  0  0  0
M  CHG  1  19   1
M  END
> <s_m_source_file>
AV-unprocessed.smi

> <i_m_source_file_index>
45

> <i_lp_mmshare_version>
43012

> <i_f3d_flags>
0

> <s_epik_input>
W0NIM11PYzFbY0hdW2NIXWMoW2NIXWMxQ2wpW0NIMl1bTkhdYzJuYyhOM1tDSDJdW0NIMl1bQ0gyXVtDQEhdM1tDSDJdW09IXSluW2NIXWMyQyg9TylbTkhdW0NIMl1jNG5bY0hdW2NIXVtjSF1uNA==

> <s_epik_cmdline>
J2VwaWtfcHl0aG9uJywgJy1waCcsICc3LjAnLCAnLXRuJywgJzgnLCAnLW1hJywgJzIwMCcsICctbWV0YWxfYmluZGluZycsICctaW1hZScsICc8aW5maWxlLm1hZT4nLCAnLW9tYWUnLCAnPG91dGZpbGUubWFlPic=

> <r_lp_tautomer_probability>
0.575011

> <r_epik_Ionization_Penalty>
1.61454

> <r_epik_Ionization_Penalty_Charging>
1.61448

> <r_epik_Ionization_Penalty_Neutral>
6.30284e-05

> <r_epik_State_Penalty>
1.91123

> <r_epik_Charging_Adjusted_Penalty>
3.52572

> <i_epik_Tot_Q>
1

> <i_epik_Tot_abs_Q>
1

> <r_epik_Metal_State_Penalty>
1.95488

> <b_epik_Metal_Only>
0

> <s_epik_Chemistry_Notes>
This compound contains an electron-poor aromatic ring that is susceptible to covalent hydrolysis at low pH, typically resulting in measured values for nitrogen ring protonation that are around two units higher than predicted values.

> <s_lp_Force_Field>
OPLS_2005

> <r_lp_Energy>
32.8606

> <b_lp_Chiralities_Consistent>
1

> <s_lp_Variant>
AV-unprocessed.smi:45-3

> <Gold.Version>
5.8.1

> <Gold.Id.Protein>
6NUR|6NUR_protein|mol2

> <Gold.PLP.Fitness>
48.8675

> <Gold.PLP.PLP>
-42.0792

> <Gold.PLP.part.hbond>
-3.0000

> <Gold.PLP.part.metal>
0.0000

> <Gold.PLP.part.buried>
-6.8465

> <Gold.PLP.part.nonpolar>
-32.6589

> <Gold.PLP.part.repulsive>
0.3412

> <Gold.PLP.ligand.clash>
0.0000

> <Gold.PLP.ligand.torsion>
2.8798

> <Gold.PLP.Chemscore.Hbond>
3.9920

> <Gold.PLP.Chemscore.CHOScore>
0.0030

> <Gold.PLP.Chemscore.Metal>
0.0000

> <Gold.Chemscore.Hbonds>
donor molecule, donor type, donor heavy atom, donor atom, acceptor molecule, acceptor atom, score
      L1  H    18    52       P1  7948  1.00
      L1  H    19    61       P1  7948  1.82
      P1  H  6896  6907       L1    23  0.84
      L1  C    28    57       P1 10737  0.04

> <Gold.PLP.Chemscore.Internal.Correction>
0.5630

> <Gold.Rescore>
     Score         DG    S(hbond)    S(metal)    S(lipo)     H(rot)  DE(clash)    DE(int)     intcor
     13.01     -15.80       2.37        0.00      84.77       2.94       0.05       2.74       ----

> <Gold.Chemscore.Fitness>
13.0117

> <Gold.Chemscore.DG>
-15.8048

> <Gold.Chemscore.ZeroCoef>
-5.4800

> <Gold.Chemscore.Hbond>
2.3747

> <Gold.Chemscore.Metal>
0.0000

> <Gold.Chemscore.Lipo>
84.7743

> <Gold.Chemscore.Internal_Hbond>
0.0000

> <Gold.Chemscore.DEClash>
0.0539

> <Gold.Chemscore.DEInternal>
2.7393

> <Gold.Chemscore.Rot>
2.9395

> <Gold.Chemscore.Internal.Correction>
   9.000000E+99

> <Gold.Chemscore.Hbonds>
donor molecule, donor type, donor heavy atom, donor atom, acceptor molecule, acceptor atom, score
      L1  H    18    52       P1  7948  0.92
      L1  H    19    61       P1  7948  0.19
      P1  H  6896  6907       L1    23  0.82

> <Gold.Chemscore.Hbond.Weighted>
-7.9314

> <Gold.Chemscore.Metal.Weighted>
-0.0000

> <Gold.Chemscore.Lipo.Weighted>
-9.9186

> <Gold.Chemscore.Internal_Hbond.Weighted>
0.0000

> <Gold.Chemscore.DEClash.Weighted>
0.0539

> <Gold.Chemscore.DEInternal.Weighted>
2.7393

> <Gold.Chemscore.Rot.Weighted>
7.5251

> <Gold.Chemscore.Internal.Correction.Weighted>
   9.000000E+99

> <Gold.Protein.RotatedTorsions>
[ 6907 6896 6895 6894 ] final -143.27 input  -60.11 | X-H torsion
[ 7974 7965 7964 7962 ] final -114.73 input  175.53 | X-H torsion
[ 8008 7997 7996 7995 ] final -148.82 input   59.86 | X-H torsion
[ 10167 10162 10161 10158 ] final  -62.07 input  -65.29 | X-H torsion
[ 10718 10713 10712 10709 ] final   59.51 input   66.30 | X-H torsion
[ 10763 10752 10751 10750 ] final -122.95 input  -60.55 | X-H torsion
[ 11005 11000 10999 10996 ] final -128.71 input  -57.11 | X-H torsion

> <Gold.Protein.ActiveResidues>
 VAL166  LYS551  ARG553  GLY616  TRP617  ASP618  TYR619  PRO620  LYS621  CYS622 
 ASP623  PHE694  ASN695  SER759  ASP760  ASP761  ALA762  ILE779  LEU786  VAL792 
 PHE793  MET794  SER795  GLU796  ALA797  LYS798  CYS799  TRP800  GLU811  SER814 

> <Gold.Protein.RotatedAtoms>
  151.0982  133.5264  159.2611 H   0  0  0  0  0  0  0  0  0  0  0  0  # atno 6907 bound_to 6896
  151.2105  135.0478  159.8919 H   0  0  0  0  0  0  0  0  0  0  0  0  # atno 6908 bound_to 6896
  152.5440  134.0798  159.8284 H   0  0  0  0  0  0  0  0  0  0  0  0  # atno 6909 bound_to 6896
  145.1167  140.8644  143.3838 H   0  0  0  0  0  0  0  0  0  0  0  0  # atno 7974 bound_to 7965
  155.5978  140.0659  157.2741 H   0  0  0  0  0  0  0  0  0  0  0  0  # atno 8008 bound_to 7997
  154.4287  140.1824  156.1188 H   0  0  0  0  0  0  0  0  0  0  0  0  # atno 8009 bound_to 7997
  156.0183  140.3319  155.7015 H   0  0  0  0  0  0  0  0  0  0  0  0  # atno 8010 bound_to 7997
  140.5964  143.2352  151.6027 H   0  0  0  0  0  0  0  0  0  0  0  0  # atno 10167 bound_to 10162
  157.5681  130.8887  149.9222 H   0  0  0  0  0  0  0  0  0  0  0  0  # atno 10718 bound_to 10713
  154.8699  135.4115  154.2865 H   0  0  0  0  0  0  0  0  0  0  0  0  # atno 10763 bound_to 10752
  153.3748  135.7009  153.6615 H   0  0  0  0  0  0  0  0  0  0  0  0  # atno 10764 bound_to 10752
  153.5462  135.3638  155.2711 H   0  0  0  0  0  0  0  0  0  0  0  0  # atno 10765 bound_to 10752
  140.9493  134.1087  157.4077 H   0  0  0  0  0  0  0  0  0  0  0  0  # atno 11005 bound_to 11000
  145.0786  139.2977  143.5795 LP  0  0  0  0  0  0  0  0  0  0  0  0  # atno 17320 bound_to 7965
  146.3523  140.0285  142.8652 LP  0  0  0  0  0  0  0  0  0  0  0  0  # atno 17321 bound_to 7965
  139.5261  144.3055  152.1037 LP  0  0  0  0  0  0  0  0  0  0  0  0  # atno 17342 bound_to 10162
  140.2228  144.4448  150.6334 LP  0  0  0  0  0  0  0  0  0  0  0  0  # atno 17343 bound_to 10162
  156.0728  130.3683  150.0739 LP  0  0  0  0  0  0  0  0  0  0  0  0  # atno 17370 bound_to 10713
  156.8895  130.9584  151.3590 LP  0  0  0  0  0  0  0  0  0  0  0  0  # atno 17371 bound_to 10713
  139.8842  135.0061  156.6356 LP  0  0  0  0  0  0  0  0  0  0  0  0  # atno 17394 bound_to 11000
  140.7625  133.8805  155.8429 LP  0  0  0  0  0  0  0  0  0  0  0  0  # atno 17395 bound_to 11000

$$$$
