AV-unprocessed.smi:1662|AV-procd|sdf|6662|dock4
  -GOLD-   22720 7373D 1   1.00000     0.00000
 Structure written by MMmdl.
 47 48  0  0  0  0  0  0  0  0  1 V2000
  154.7625  135.0510  161.6741 C   0  0  0  0  0  0  0  0  0  0  0  0
  154.7078  135.5444  160.2534 C   0  0  0  0  0  0  0  0  0  0  0  0
  153.6592  136.2195  159.9135 N   0  0  0  0  0  0  0  0  0  0  0  0
  153.5062  136.7140  158.6327 N   0  0  0  0  0  0  0  0  0  0  0  0
  152.2436  137.4342  158.4130 C   0  0  0  0  0  0  0  0  0  0  0  0
  152.4557  138.8863  157.9627 C   0  0  0  0  0  0  0  0  0  0  0  0
  152.7793  139.1411  156.8017 O   0  0  0  0  0  0  0  0  0  0  0  0
  152.2515  139.8284  158.8955 N   0  0  0  0  0  0  0  0  0  0  0  0
  152.4248  141.2667  158.7019 C   0  0  1  0  0  0  0  0  0  0  0  0
  151.4197  141.7592  157.6438 C   0  0  0  0  0  0  0  0  0  0  0  0
  151.5301  143.2720  157.4337 C   0  0  0  0  0  0  0  0  0  0  0  0
  151.3293  144.0169  158.7579 C   0  0  0  0  0  0  0  0  0  0  0  0
  152.3368  143.5609  159.8326 C   0  0  1  0  0  0  0  0  0  0  0  0
  152.1092  144.3658  161.1254 C   0  0  0  0  0  0  0  0  0  0  0  0
  152.2668  142.0223  160.0494 C   0  0  2  0  0  0  0  0  0  0  0  0
  153.3079  141.5368  161.0826 C   0  0  0  0  0  0  0  0  0  0  0  0
  154.4174  136.5642  157.6282 C   0  0  0  0  0  0  0  0  0  0  0  0
  154.2453  137.0341  156.5021 O   0  0  0  0  0  0  0  0  0  0  0  0
  155.6019  135.7971  158.0199 C   0  0  0  0  0  0  0  0  0  0  0  0
  156.5770  135.6085  156.9948 C   0  0  0  0  0  0  0  0  0  0  0  0
  157.3612  135.4721  156.1543 N   0  0  0  0  0  0  0  0  0  0  0  0
  155.7591  135.2982  159.2716 C   0  0  0  0  0  0  0  0  0  0  0  0
  156.9695  134.4954  159.7283 C   0  0  0  0  0  0  0  0  0  0  0  0
  155.6699  135.3956  162.1706 H   0  0  0  0  0  0  0  0  0  0  0  0
  154.7530  133.9614  161.7040 H   0  0  0  0  0  0  0  0  0  0  0  0
  153.9130  135.4043  162.2608 H   0  0  0  0  0  0  0  0  0  0  0  0
  151.6447  136.9303  157.6522 H   0  0  0  0  0  0  0  0  0  0  0  0
  151.6410  137.4102  159.3233 H   0  0  0  0  0  0  0  0  0  0  0  0
  151.9787  139.5262  159.8197 H   0  0  0  0  0  0  0  0  0  0  0  0
  153.4338  141.4598  158.3316 H   0  0  0  0  0  0  0  0  0  0  0  0
  151.5906  141.2479  156.6956 H   0  0  0  0  0  0  0  0  0  0  0  0
  150.4032  141.5085  157.9513 H   0  0  0  0  0  0  0  0  0  0  0  0
  152.5075  143.5167  157.0159 H   0  0  0  0  0  0  0  0  0  0  0  0
  150.7890  143.6015  156.7050 H   0  0  0  0  0  0  0  0  0  0  0  0
  151.4280  145.0891  158.5843 H   0  0  0  0  0  0  0  0  0  0  0  0
  150.3109  143.8554  159.1143 H   0  0  0  0  0  0  0  0  0  0  0  0
  153.3363  143.8044  159.4688 H   0  0  0  0  0  0  0  0  0  0  0  0
  151.1611  144.1029  161.5953 H   0  0  0  0  0  0  0  0  0  0  0  0
  152.0909  145.4367  160.9206 H   0  0  0  0  0  0  0  0  0  0  0  0
  152.9033  144.2013  161.8530 H   0  0  0  0  0  0  0  0  0  0  0  0
  151.2777  141.7882  160.4470 H   0  0  0  0  0  0  0  0  0  0  0  0
  154.3207  141.7958  160.7732 H   0  0  0  0  0  0  0  0  0  0  0  0
  153.2731  140.4563  161.2217 H   0  0  0  0  0  0  0  0  0  0  0  0
  153.1366  141.9734  162.0657 H   0  0  0  0  0  0  0  0  0  0  0  0
  157.6669  134.3005  158.9141 H   0  0  0  0  0  0  0  0  0  0  0  0
  156.6615  133.5297  160.1304 H   0  0  0  0  0  0  0  0  0  0  0  0
  157.5124  135.0345  160.5054 H   0  0  0  0  0  0  0  0  0  0  0  0
  1  2  1  0  0  0  0
  1 24  1  0  0  0  0
  1 25  1  0  0  0  0
  1 26  1  0  0  0  0
  2 22  1  0  0  0  0
  2  3  2  0  0  0  0
  3  4  1  0  0  0  0
  4  5  1  0  0  0  0
  4 17  1  0  0  0  0
  5  6  1  0  0  0  0
  5 27  1  0  0  0  0
  5 28  1  0  0  0  0
  6  7  2  0  0  0  0
  6  8  1  0  0  0  0
  8  9  1  0  0  0  0
  8 29  1  0  0  0  0
  9 15  1  0  0  0  0
  9 10  1  0  0  0  0
  9 30  1  0  0  0  0
 10 11  1  0  0  0  0
 10 31  1  0  0  0  0
 10 32  1  0  0  0  0
 11 12  1  0  0  0  0
 11 33  1  0  0  0  0
 11 34  1  0  0  0  0
 12 13  1  0  0  0  0
 12 35  1  0  0  0  0
 12 36  1  0  0  0  0
 13 14  1  0  0  0  0
 13 15  1  0  0  0  0
 13 37  1  0  0  0  0
 14 38  1  0  0  0  0
 14 39  1  0  0  0  0
 14 40  1  0  0  0  0
 15 16  1  0  0  0  0
 15 41  1  0  0  0  0
 16 42  1  0  0  0  0
 16 43  1  0  0  0  0
 16 44  1  0  0  0  0
 17 18  2  0  0  0  0
 17 19  1  0  0  0  0
 19 20  1  0  0  0  0
 19 22  2  0  0  0  0
 20 21  3  0  0  0  0
 22 23  1  0  0  0  0
 23 45  1  0  0  0  0
 23 46  1  0  0  0  0
 23 47  1  0  0  0  0
M  END
> <s_m_source_file>
AV-unprocessed.smi

> <i_m_source_file_index>
1662

> <i_lp_mmshare_version>
43012

> <i_f3d_flags>
0

> <s_epik_input>
TiNDYyhjMVtDSDNdKWMoPU8pbihuYzFbQ0gzXSlbQ0gyXUMoPU8pW05IXVtDQEBIXTJbQ0gyXVtDSDJdW0NIMl1bQ0BASF0oW0NIM10pW0NASF0yW0NIM10=

> <s_epik_cmdline>
J2VwaWtfcHl0aG9uJywgJy1waCcsICc3LjAnLCAnLXRuJywgJzgnLCAnLW1hJywgJzIwMCcsICctbWV0YWxfYmluZGluZycsICctaW1hZScsICc8aW5maWxlLm1hZT4nLCAnLW9tYWUnLCAnPG91dGZpbGUubWFlPic=

> <r_lp_tautomer_probability>
1

> <r_epik_Ionization_Penalty>
1.90709e-08

> <r_epik_Ionization_Penalty_Charging>
2.37982e-11

> <r_epik_Ionization_Penalty_Neutral>
1.90471e-08

> <r_epik_State_Penalty>
-0

> <r_epik_Charging_Adjusted_Penalty>
2.37982e-11

> <i_epik_Tot_Q>
0

> <i_epik_Tot_abs_Q>
0

> <r_epik_Metal_State_Penalty>
-0

> <b_epik_Metal_Only>
0

> <s_lp_Force_Field>
OPLS_2005

> <r_lp_Energy>
26.9998

> <b_lp_Chiralities_Consistent>
1

> <s_lp_Variant>
AV-unprocessed.smi:1662-6

> <Gold.Version>
5.8.1

> <Gold.Id.Protein>
6NUR|6NUR_protein|mol2

> <Gold.PLP.Fitness>
41.8970

> <Gold.PLP.PLP>
-34.6505

> <Gold.PLP.part.hbond>
-2.9475

> <Gold.PLP.part.metal>
0.0000

> <Gold.PLP.part.buried>
-6.0155

> <Gold.PLP.part.nonpolar>
-26.0501

> <Gold.PLP.part.repulsive>
0.1450

> <Gold.PLP.ligand.clash>
0.0000

> <Gold.PLP.ligand.torsion>
0.2480

> <Gold.PLP.Chemscore.Hbond>
2.5777

> <Gold.PLP.Chemscore.CHOScore>
0.0000

> <Gold.PLP.Chemscore.Metal>
0.0000

> <Gold.Chemscore.Hbonds>
donor molecule, donor type, donor heavy atom, donor atom, acceptor molecule, acceptor atom, score
      P1  H  6896  6908       L1     3  1.00
      P1  H  7997  8010       L1     7  1.00
      P1  H 10752 10763       L1    18  0.61

> <Gold.PLP.Chemscore.Internal.Correction>
0.0094

> <Gold.Rescore>
     Score         DG    S(hbond)    S(metal)    S(lipo)     H(rot)  DE(clash)    DE(int)     intcor
     15.34     -18.67       1.70        0.00      96.03       1.45       0.01       3.32       ----

> <Gold.Chemscore.Fitness>
15.3417

> <Gold.Chemscore.DG>
-18.6722

> <Gold.Chemscore.ZeroCoef>
-5.4800

> <Gold.Chemscore.Hbond>
1.6977

> <Gold.Chemscore.Metal>
0.0000

> <Gold.Chemscore.Lipo>
96.0255

> <Gold.Chemscore.Internal_Hbond>
0.0000

> <Gold.Chemscore.DEClash>
0.0082

> <Gold.Chemscore.DEInternal>
3.3223

> <Gold.Chemscore.Rot>
1.4504

> <Gold.Chemscore.Internal.Correction>
   9.000000E+99

> <Gold.Chemscore.Hbonds>
donor molecule, donor type, donor heavy atom, donor atom, acceptor molecule, acceptor atom, score
      P1  H  6896  6908       L1     3  0.11
      P1  H  7997  8010       L1     7  0.74
      P1  H 10752 10763       L1    18  0.20

> <Gold.Chemscore.Hbond.Weighted>
-5.6702

> <Gold.Chemscore.Metal.Weighted>
-0.0000

> <Gold.Chemscore.Lipo.Weighted>
-11.2350

> <Gold.Chemscore.Internal_Hbond.Weighted>
0.0000

> <Gold.Chemscore.DEClash.Weighted>
0.0082

> <Gold.Chemscore.DEInternal.Weighted>
3.3223

> <Gold.Chemscore.Rot.Weighted>
3.7129

> <Gold.Chemscore.Internal.Correction.Weighted>
   9.000000E+99

> <Gold.Protein.RotatedTorsions>
[ 6907 6896 6895 6894 ] final  -71.61 input  -60.11 | X-H torsion
[ 7974 7965 7964 7962 ] final  150.45 input  175.53 | X-H torsion
[ 8008 7997 7996 7995 ] final   50.14 input   59.86 | X-H torsion
[ 10167 10162 10161 10158 ] final  -46.33 input  -65.29 | X-H torsion
[ 10718 10713 10712 10709 ] final   83.34 input   66.30 | X-H torsion
[ 10763 10752 10751 10750 ] final  145.77 input  -60.55 | X-H torsion
[ 11005 11000 10999 10996 ] final   15.99 input  -57.11 | X-H torsion

> <Gold.Protein.ActiveResidues>
 VAL166  LYS551  ARG553  GLY616  TRP617  ASP618  TYR619  PRO620  LYS621  CYS622 
 ASP623  PHE694  ASN695  SER759  ASP760  ASP761  ALA762  ILE779  LEU786  VAL792 
 PHE793  MET794  SER795  GLU796  ALA797  LYS798  CYS799  TRP800  GLU811  SER814 

> <Gold.Protein.RotatedAtoms>
  150.7205  134.5283  159.5687 H   0  0  0  0  0  0  0  0  0  0  0  0  # atno 6907 bound_to 6896
  152.2822  134.7812  160.0403 H   0  0  0  0  0  0  0  0  0  0  0  0  # atno 6908 bound_to 6896
  151.8455  133.3395  159.3693 H   0  0  0  0  0  0  0  0  0  0  0  0  # atno 6909 bound_to 6896
  144.8364  139.6410  143.6036 H   0  0  0  0  0  0  0  0  0  0  0  0  # atno 7974 bound_to 7965
  155.4138  140.3443  155.4266 H   0  0  0  0  0  0  0  0  0  0  0  0  # atno 8008 bound_to 7997
  156.1433  140.1548  156.8918 H   0  0  0  0  0  0  0  0  0  0  0  0  # atno 8009 bound_to 7997
  154.4989  140.0820  156.7737 H   0  0  0  0  0  0  0  0  0  0  0  0  # atno 8010 bound_to 7997
  140.6822  143.2836  151.3767 H   0  0  0  0  0  0  0  0  0  0  0  0  # atno 10167 bound_to 10162
  157.6877  131.0087  150.2509 H   0  0  0  0  0  0  0  0  0  0  0  0  # atno 10718 bound_to 10713
  154.0109  135.2914  155.3392 H   0  0  0  0  0  0  0  0  0  0  0  0  # atno 10763 bound_to 10752
  154.7104  135.5152  153.8660 H   0  0  0  0  0  0  0  0  0  0  0  0  # atno 10764 bound_to 10752
  153.0723  135.6652  154.0341 H   0  0  0  0  0  0  0  0  0  0  0  0  # atno 10765 bound_to 10752
  140.4521  134.1213  155.7704 H   0  0  0  0  0  0  0  0  0  0  0  0  # atno 11005 bound_to 11000
  146.2662  139.6525  142.9328 LP  0  0  0  0  0  0  0  0  0  0  0  0  # atno 17320 bound_to 7965
  145.4787  141.0437  143.2658 LP  0  0  0  0  0  0  0  0  0  0  0  0  # atno 17321 bound_to 7965
  139.6152  144.1017  152.2339 LP  0  0  0  0  0  0  0  0  0  0  0  0  # atno 17342 bound_to 10162
  140.0444  144.5982  150.7386 LP  0  0  0  0  0  0  0  0  0  0  0  0  # atno 17343 bound_to 10162
  156.3106  130.3771  149.7665 LP  0  0  0  0  0  0  0  0  0  0  0  0  # atno 17370 bound_to 10713
  156.5266  130.8239  151.3222 LP  0  0  0  0  0  0  0  0  0  0  0  0  # atno 17371 bound_to 10713
  141.1659  133.8703  157.1715 LP  0  0  0  0  0  0  0  0  0  0  0  0  # atno 17394 bound_to 11000
  140.0000  135.0032  157.0168 LP  0  0  0  0  0  0  0  0  0  0  0  0  # atno 17395 bound_to 11000

$$$$
