#       Name:                AV-unprocessed.smi:438
#       Creating user name   scv26
#       Creation time:       Thu Mar 26 22:53:53 2020


#       File generated by GOLD software.
#

@<TRIPOS>MOLECULE
AV-unprocessed.smi:438
    55    56     1
SMALL
NO_CHARGES


@<TRIPOS>ATOM
      1 ****        -4.1147  -2.4356   1.4451 C.3            1 S1                 0.0000
      2 ****        -3.4774  -1.0633   1.5711 C.2            1 S1                 0.0000
      3 ****        -2.0965  -1.0139   1.3421 N.2            1 S1                 0.0000
      4 ****        -1.4648   0.1131   1.4234 C.2            1 S1                 0.0000
      5 ****         0.2966   0.4645   1.1650 S.3            1 S1                 0.0000
      6 ****         0.9333  -1.1860   0.7564 C.3            1 S1                 0.0000
      7 ****         2.3990  -1.1452   0.3372 C.2            1 S1                 0.0000
      8 ****         3.2645  -1.6342   1.0625 O.2            1 S1                 0.0000
      9 ****         2.6605  -0.5488  -0.8358 N.am           1 S1                 0.0000
     10 ****         3.9878  -0.3380  -1.4123 C.3            1 S1                 0.0000
     11 ****         4.6624   0.9037  -0.7891 C.3            1 S1                 0.0000
     12 ****         3.9709   2.2115  -1.2123 C.3            1 S1                 0.0000
     13 ****         3.9001   2.3325  -2.7419 C.3            1 S1                 0.0000
     14 ****         3.2170   1.1074  -3.3709 C.3            1 S1                 0.0000
     15 ****         3.9097  -0.2073  -2.9536 C.3            1 S1                 0.0000
     16 ****         3.2565  -1.4286  -3.6235 C.3            1 S1                 0.0000
     17 ****        -2.1482   1.2860   1.7458 N.am           1 S1                 0.0000
     18 ****        -3.4765   1.3440   1.9878 C.2            1 S1                 0.0000
     19 ****        -4.0125   2.4140   2.2715 O.2            1 S1                 0.0000
     20 ****        -4.1852   0.0573   1.8871 C.2            1 S1                 0.0000
     21 ****        -5.6932   0.0569   2.1219 C.3            1 S1                 0.0000
     22 ****        -6.0486   0.0042   3.6148 C.3            1 S1                 0.0000
     23 ****        -7.4508  -0.0015   3.7718 O.3            1 S1                 0.0000
     24 ****        -4.6964  -2.6735   2.3359 H              1 S1                 0.0000
     25 ****        -3.3594  -3.2132   1.3240 H              1 S1                 0.0000
     26 ****        -4.7745  -2.4709   0.5780 H              1 S1                 0.0000
     27 ****         0.3451  -1.6118  -0.0573 H              1 S1                 0.0000
     28 ****         0.8123  -1.8414   1.6199 H              1 S1                 0.0000
     29 ****         1.8794  -0.1822  -1.3604 H              1 S1                 0.0000
     30 ****         4.6008  -1.2115  -1.1823 H              1 S1                 0.0000
     31 ****         4.6779   0.8259   0.2987 H              1 S1                 0.0000
     32 ****         5.7067   0.9365  -1.1016 H              1 S1                 0.0000
     33 ****         2.9642   2.2500  -0.7941 H              1 S1                 0.0000
     34 ****         4.5076   3.0651  -0.7976 H              1 S1                 0.0000
     35 ****         3.3629   3.2402  -3.0184 H              1 S1                 0.0000
     36 ****         4.9079   2.4356  -3.1465 H              1 S1                 0.0000
     37 ****         2.1665   1.0858  -3.0777 H              1 S1                 0.0000
     38 ****         3.2284   1.2051  -4.4570 H              1 S1                 0.0000
     39 ****         4.9358  -0.1614  -3.3220 H              1 S1                 0.0000
     40 ****         2.2021  -1.5201  -3.3610 H              1 S1                 0.0000
     41 ****         3.7553  -2.3514  -3.3265 H              1 S1                 0.0000
     42 ****         3.3191  -1.3570  -4.7096 H              1 S1                 0.0000
     43 ****        -1.6245   2.1471   1.8060 H              1 S1                 0.0000
     44 ****        -6.1547  -0.7857   1.6073 H              1 S1                 0.0000
     45 ****        -6.1312   0.9447   1.6633 H              1 S1                 0.0000
     46 ****        -5.6357  -0.8924   4.0779 H              1 S1                 0.0000
     47 ****        -5.6372   0.8647   4.1433 H              1 S1                 0.0000
     48 ****        -7.6500  -0.0225   4.6954 H              1 S1                 0.0000
     49 ****        -1.5978  -1.8505   1.1154 LP             1 S1                 0.0000
     50 ****         3.0078  -2.0601   1.9300 LP             1 S1                 0.0000
     51 ****         4.2247  -1.6056   0.7843 LP             1 S1                 0.0000
     52 ****        -3.4648   3.2491   2.3244 LP             1 S1                 0.0000
     53 ****        -4.9959   2.4490   2.4492 LP             1 S1                 0.0000
     54 ****        -7.8367  -0.8088   3.3253 LP             1 S1                 0.0000
     55 ****        -7.8392   0.8238   3.3618 LP             1 S1                 0.0000
@<TRIPOS>BOND
    1    1   24 1     
    2    1   25 1     
    3    1   26 1     
    4    1    2 1     
    5    2   20 2     
    6    2    3 1     
    7    3    4 2     
    8    4    5 1     
    9    4   17 1     
   10    5    6 1     
   11    6    7 1     
   12    6   27 1     
   13    6   28 1     
   14    7    8 2     
   15    7    9 am    
   16    9   10 1     
   17    9   29 1     
   18   10   15 1     
   19   10   11 1     
   20   10   30 1     
   21   11   12 1     
   22   11   31 1     
   23   11   32 1     
   24   12   13 1     
   25   12   33 1     
   26   12   34 1     
   27   13   14 1     
   28   13   35 1     
   29   13   36 1     
   30   14   15 1     
   31   14   37 1     
   32   14   38 1     
   33   15   16 1     
   34   15   39 1     
   35   16   40 1     
   36   16   41 1     
   37   16   42 1     
   38   17   43 1     
   39   17   18 am    
   40   18   19 2     
   41   18   20 1     
   42   20   21 1     
   43   21   22 1     
   44   21   44 1     
   45   21   45 1     
   46   22   23 1     
   47   22   46 1     
   48   22   47 1     
   49   23   48 1     
   50    3   49 1     
   51    8   50 1     
   52    8   51 1     
   53   19   52 1     
   54   19   53 1     
   55   23   54 1     
   56   23   55 1     
@<TRIPOS>SUBSTRUCTURE
      1 S1             1
@<TRIPOS>SET
LONE_PAIRS      STATIC     ATOMS    <user>   **** ""
7 49 50 51 52 53 54 55
DONOR_HYDROGENS      STATIC     ATOMS    <user>   **** ""
3 29 43 48
ATOM$BLUE        STATIC     ATOMS    COLORGROUP SYSTEM
7 49 50 51 52 53 54 55
ATOM$RED        STATIC     ATOMS    COLORGROUP SYSTEM
3 29 43 48
