AV-unprocessed.smi:1419|AV-procd|sdf|5775|dock3
  -GOLD-   22720 5423D 1   1.00000     0.00000
 Structure written by MMmdl.
 42 43  0  0  0  0  0  0  0  0  2 V2000
  145.8530  131.1592  152.7564 C   0  0  0  0  0  0  0  0  0  0  0  0
  145.8404  130.3087  151.4793 C   0  0  1  0  0  0  0  0  0  0  0  0
  145.8336  131.1947  150.2150 C   0  0  0  0  0  0  0  0  0  0  0  0
  144.9683  132.3723  150.3484 N   0  0  0  0  0  0  0  0  0  0  0  0
  145.3532  133.6569  150.6339 C   0  0  0  0  0  0  0  0  0  0  0  0
  144.2065  134.4076  150.6783 C   0  0  0  0  0  0  0  0  0  0  0  0
  143.1715  133.5512  150.4133 N   0  3  0  0  0  0  0  0  0  0  0  0
  143.6370  132.3151  150.2071 C   0  0  0  0  0  0  0  0  0  0  0  0
  147.0047  129.4241  151.4864 N   0  0  0  0  0  0  0  0  0  0  0  0
  147.2923  128.5051  152.4254 C   0  0  0  0  0  0  0  0  0  0  0  0
  146.6114  128.3700  153.4430 O   0  0  0  0  0  0  0  0  0  0  0  0
  148.3841  127.7475  152.1585 N   0  0  0  0  0  0  0  0  0  0  0  0
  148.8145  127.2734  150.8365 C   0  0  0  0  0  0  0  0  0  0  0  0
  148.4244  125.7861  150.7173 C   0  0  1  0  0  0  0  0  0  0  0  0
  148.8711  125.1738  149.3855 C   0  0  0  0  0  0  0  0  0  0  0  0
  149.0451  125.0549  151.7750 O   0  0  0  0  0  0  0  0  0  0  0  0
  148.7070  125.5206  153.0821 C   0  0  1  0  0  0  0  0  0  0  0  0
  149.4356  124.6450  154.1068 C   0  0  0  0  0  0  0  0  0  0  0  0
  149.0953  127.0085  153.2033 C   0  0  0  0  0  0  0  0  0  0  0  0
  144.9822  131.8142  152.8000 H   0  0  0  0  0  0  0  0  0  0  0  0
  146.7433  131.7868  152.8086 H   0  0  0  0  0  0  0  0  0  0  0  0
  145.8350  130.5306  153.6474 H   0  0  0  0  0  0  0  0  0  0  0  0
  144.9241  129.7156  151.4976 H   0  0  0  0  0  0  0  0  0  0  0  0
  146.8397  131.5592  150.0036 H   0  0  0  0  0  0  0  0  0  0  0  0
  145.5145  130.6241  149.3410 H   0  0  0  0  0  0  0  0  0  0  0  0
  146.3865  133.9322  150.7891 H   0  0  0  0  0  0  0  0  0  0  0  0
  144.0538  135.4589  150.8751 H   0  0  0  0  0  0  0  0  0  0  0  0
  143.0507  131.4414  149.9839 H   0  0  0  0  0  0  0  0  0  0  0  0
  147.6258  129.4895  150.6930 H   0  0  0  0  0  0  0  0  0  0  0  0
  148.3937  127.8406  150.0060 H   0  0  0  0  0  0  0  0  0  0  0  0
  149.8961  127.3876  150.7478 H   0  0  0  0  0  0  0  0  0  0  0  0
  147.3413  125.6819  150.8032 H   0  0  0  0  0  0  0  0  0  0  0  0
  148.4115  125.6897  148.5420 H   0  0  0  0  0  0  0  0  0  0  0  0
  148.5886  124.1225  149.3260 H   0  0  0  0  0  0  0  0  0  0  0  0
  149.9533  125.2350  149.2668 H   0  0  0  0  0  0  0  0  0  0  0  0
  147.6312  125.4079  153.2298 H   0  0  0  0  0  0  0  0  0  0  0  0
  149.1961  124.9510  155.1254 H   0  0  0  0  0  0  0  0  0  0  0  0
  150.5172  124.7096  153.9829 H   0  0  0  0  0  0  0  0  0  0  0  0
  149.1496  123.5985  153.9984 H   0  0  0  0  0  0  0  0  0  0  0  0
  150.1713  127.1341  153.0715 H   0  0  0  0  0  0  0  0  0  0  0  0
  148.8723  127.3793  154.2051 H   0  0  0  0  0  0  0  0  0  0  0  0
  142.1941  133.8133  150.3787 H   0  0  0  0  0  0  0  0  0  0  0  0
  1  2  1  0  0  0  0
  1 20  1  0  0  0  0
  1 21  1  0  0  0  0
  1 22  1  0  0  0  0
  2  3  1  0  0  0  0
  2  9  1  0  0  0  0
  2 23  1  0  0  0  0
  3  4  1  0  0  0  0
  3 24  1  0  0  0  0
  3 25  1  0  0  0  0
  4  8  1  0  0  0  0
  4  5  1  0  0  0  0
  5  6  2  0  0  0  0
  5 26  1  0  0  0  0
  6  7  1  0  0  0  0
  6 27  1  0  0  0  0
  7  8  2  0  0  0  0
  7 42  1  0  0  0  0
  8 28  1  0  0  0  0
  9 10  1  0  0  0  0
  9 29  1  0  0  0  0
 10 11  2  0  0  0  0
 10 12  1  0  0  0  0
 12 19  1  0  0  0  0
 12 13  1  0  0  0  0
 13 14  1  0  0  0  0
 13 30  1  0  0  0  0
 13 31  1  0  0  0  0
 14 15  1  0  0  0  0
 14 16  1  0  0  0  0
 14 32  1  0  0  0  0
 15 33  1  0  0  0  0
 15 34  1  0  0  0  0
 15 35  1  0  0  0  0
 16 17  1  0  0  0  0
 17 18  1  0  0  0  0
 17 19  1  0  0  0  0
 17 36  1  0  0  0  0
 18 37  1  0  0  0  0
 18 38  1  0  0  0  0
 18 39  1  0  0  0  0
 19 40  1  0  0  0  0
 19 41  1  0  0  0  0
M  CHG  1   7   1
M  END
> <s_m_source_file>
AV-unprocessed.smi

> <i_m_source_file_index>
1419

> <i_lp_mmshare_version>
43012

> <i_f3d_flags>
0

> <s_epik_input>
W2NIXTFuW2NIXVtjSF1uMVtDSDJdW0NAQEhdKFtDSDNdKVtOSF1DKD1PKU4yW0NIMl1bQ0BASF0oW0NIM10pT1tDQEBIXShbQ0gzXSlbQ0gyXTI=

> <s_epik_cmdline>
J2VwaWtfcHl0aG9uJywgJy1waCcsICc3LjAnLCAnLXRuJywgJzgnLCAnLW1hJywgJzIwMCcsICctbWV0YWxfYmluZGluZycsICctaW1hZScsICc8aW5maWxlLm1hZT4nLCAnLW9tYWUnLCAnPG91dGZpbGUubWFlPic=

> <r_lp_tautomer_probability>
1

> <r_epik_Ionization_Penalty>
0.253607

> <r_epik_Ionization_Penalty_Charging>
0

> <r_epik_Ionization_Penalty_Neutral>
0.253607

> <r_epik_State_Penalty>
0.245018

> <r_epik_Charging_Adjusted_Penalty>
0.245018

> <i_epik_Tot_Q>
1

> <i_epik_Tot_abs_Q>
1

> <r_epik_Metal_State_Penalty>
0.535379

> <b_epik_Metal_Only>
0

> <s_lp_Force_Field>
OPLS_2005

> <r_lp_Energy>
29.1854

> <b_lp_Chiralities_Consistent>
1

> <s_lp_Variant>
AV-unprocessed.smi:1419-2

> <Gold.Version>
5.8.1

> <Gold.Id.Protein>
6NUR|6NUR_protein|mol2

> <Gold.PLP.Fitness>
45.3753

> <Gold.PLP.PLP>
-36.5180

> <Gold.PLP.part.hbond>
-1.9145

> <Gold.PLP.part.metal>
0.0000

> <Gold.PLP.part.buried>
-5.6798

> <Gold.PLP.part.nonpolar>
-29.6014

> <Gold.PLP.part.repulsive>
0.2487

> <Gold.PLP.ligand.clash>
0.0000

> <Gold.PLP.ligand.torsion>
0.7930

> <Gold.PLP.Chemscore.Hbond>
2.5760

> <Gold.PLP.Chemscore.CHOScore>
0.8769

> <Gold.PLP.Chemscore.Metal>
0.0000

> <Gold.Chemscore.Hbonds>
donor molecule, donor type, donor heavy atom, donor atom, acceptor molecule, acceptor atom, score
      L1  H     7    42       P1 10186  1.95
      L1  H     9    29       P1 10747  0.62
      L1  C     8    28       P1 10952  1.00

> <Gold.PLP.Chemscore.Internal.Correction>
0.0844

> <Gold.Rescore>
     Score         DG    S(hbond)    S(metal)    S(lipo)     H(rot)  DE(clash)    DE(int)     intcor
     13.28     -15.34       1.58        0.00      74.70       1.63       0.21       1.86       ----

> <Gold.Chemscore.Fitness>
13.2781

> <Gold.Chemscore.DG>
-15.3391

> <Gold.Chemscore.ZeroCoef>
-5.4800

> <Gold.Chemscore.Hbond>
1.5823

> <Gold.Chemscore.Metal>
0.0000

> <Gold.Chemscore.Lipo>
74.7013

> <Gold.Chemscore.Internal_Hbond>
0.0000

> <Gold.Chemscore.DEClash>
0.2059

> <Gold.Chemscore.DEInternal>
1.8551

> <Gold.Chemscore.Rot>
1.6273

> <Gold.Chemscore.Internal.Correction>
   9.000000E+99

> <Gold.Chemscore.Hbonds>
donor molecule, donor type, donor heavy atom, donor atom, acceptor molecule, acceptor atom, score
      L1  H     7    42       P1 10186  0.87
      L1  H     9    29       P1 10747  0.57

> <Gold.Chemscore.Hbond.Weighted>
-5.2849

> <Gold.Chemscore.Metal.Weighted>
-0.0000

> <Gold.Chemscore.Lipo.Weighted>
-8.7400

> <Gold.Chemscore.Internal_Hbond.Weighted>
0.0000

> <Gold.Chemscore.DEClash.Weighted>
0.2059

> <Gold.Chemscore.DEInternal.Weighted>
1.8551

> <Gold.Chemscore.Rot.Weighted>
4.1658

> <Gold.Chemscore.Internal.Correction.Weighted>
   9.000000E+99

> <Gold.Protein.RotatedTorsions>
[ 6907 6896 6895 6894 ] final   27.21 input  -60.11 | X-H torsion
[ 7974 7965 7964 7962 ] final  -77.02 input  175.53 | X-H torsion
[ 8008 7997 7996 7995 ] final   89.53 input   59.86 | X-H torsion
[ 10167 10162 10161 10158 ] final   84.51 input  -65.29 | X-H torsion
[ 10718 10713 10712 10709 ] final -171.91 input   66.30 | X-H torsion
[ 10763 10752 10751 10750 ] final -113.58 input  -60.55 | X-H torsion
[ 11005 11000 10999 10996 ] final   49.79 input  -57.11 | X-H torsion

> <Gold.Protein.ActiveResidues>
 VAL166  LYS551  ARG553  GLY616  TRP617  ASP618  TYR619  PRO620  LYS621  CYS622 
 ASP623  PHE694  ASN695  SER759  ASP760  ASP761  ALA762  ILE779  LEU786  VAL792 
 PHE793  MET794  SER795  GLU796  ALA797  LYS798  CYS799  TRP800  GLU811  SER814 

> <Gold.Protein.RotatedAtoms>
  151.9989  134.9939  160.0564 H   0  0  0  0  0  0  0  0  0  0  0  0  # atno 6907 bound_to 6896
  152.1538  133.4534  159.4835 H   0  0  0  0  0  0  0  0  0  0  0  0  # atno 6908 bound_to 6896
  150.6879  134.2074  159.4389 H   0  0  0  0  0  0  0  0  0  0  0  0  # atno 6909 bound_to 6896
  145.6051  140.9400  143.1219 H   0  0  0  0  0  0  0  0  0  0  0  0  # atno 7974 bound_to 7965
  156.0011  140.3359  155.6846 H   0  0  0  0  0  0  0  0  0  0  0  0  # atno 8008 bound_to 7997
  155.6289  140.0683  157.2673 H   0  0  0  0  0  0  0  0  0  0  0  0  # atno 8009 bound_to 7997
  154.4249  140.1763  156.1438 H   0  0  0  0  0  0  0  0  0  0  0  0  # atno 8010 bound_to 7997
  139.9073  144.6293  150.8574 H   0  0  0  0  0  0  0  0  0  0  0  0  # atno 10167 bound_to 10162
  156.7478  130.9367  151.3113 H   0  0  0  0  0  0  0  0  0  0  0  0  # atno 10718 bound_to 10713
  154.8402  135.4449  154.1371 H   0  0  0  0  0  0  0  0  0  0  0  0  # atno 10763 bound_to 10752
  153.2566  135.6932  153.7628 H   0  0  0  0  0  0  0  0  0  0  0  0  # atno 10764 bound_to 10752
  153.6920  135.3385  155.3180 H   0  0  0  0  0  0  0  0  0  0  0  0  # atno 10765 bound_to 10752
  140.1073  134.5002  155.8709 H   0  0  0  0  0  0  0  0  0  0  0  0  # atno 11005 bound_to 11000
  144.7293  139.7775  143.7353 LP  0  0  0  0  0  0  0  0  0  0  0  0  # atno 17320 bound_to 7965
  146.1546  139.4640  143.0027 LP  0  0  0  0  0  0  0  0  0  0  0  0  # atno 17321 bound_to 7965
  140.7693  143.3392  151.2244 LP  0  0  0  0  0  0  0  0  0  0  0  0  # atno 17342 bound_to 10162
  139.6973  143.9591  152.2889 LP  0  0  0  0  0  0  0  0  0  0  0  0  # atno 17343 bound_to 10162
  157.6790  130.9122  150.0221 LP  0  0  0  0  0  0  0  0  0  0  0  0  # atno 17370 bound_to 10713
  156.1421  130.3642  149.9566 LP  0  0  0  0  0  0  0  0  0  0  0  0  # atno 17371 bound_to 10713
  141.2121  133.6715  156.6635 LP  0  0  0  0  0  0  0  0  0  0  0  0  # atno 17394 bound_to 11000
  140.3139  134.8063  157.4198 LP  0  0  0  0  0  0  0  0  0  0  0  0  # atno 17395 bound_to 11000

$$$$
