AV-unprocessed.smi:109|AV-procd|sdf|1052|dock9
  -GOLD-   2262018113D 1   1.00000     0.00000
 Structure written by MMmdl.
 58 61  0  0  0  0  0  0  0  0  1 V2000
  141.2447  135.1407  159.2962 O   0  0  0  0  0  0  0  0  0  0  0  0
  142.5901  134.9904  159.6945 C   0  0  0  0  0  0  0  0  0  0  0  0
  143.4281  136.1632  159.1608 C   0  0  0  0  0  0  0  0  0  0  0  0
  144.9453  135.8725  159.1741 C   0  0  1  0  0  0  0  0  0  0  0  0
  145.6666  136.9708  158.5309 N   0  0  0  0  0  0  0  0  0  0  0  0
  145.4040  137.3462  157.2592 C   0  0  0  0  0  0  0  0  0  0  0  0
  145.4699  138.6483  156.8773 N   0  0  0  0  0  0  0  0  0  0  0  0
  145.2174  138.9861  155.6097 C   0  0  0  0  0  0  0  0  0  0  0  0
  144.8907  138.1957  154.5854 N   0  0  0  0  0  0  0  0  0  0  0  0
  144.8200  136.8861  154.9617 C   0  0  0  0  0  0  0  0  0  0  0  0
  145.0583  136.3864  156.2729 C   0  0  0  0  0  0  0  0  0  0  0  0
  144.8928  135.0080  156.2893 N   0  0  0  0  0  0  0  0  0  0  0  0
  144.5765  134.7140  155.0569 C   0  0  0  0  0  0  0  0  0  0  0  0
  144.5123  135.7820  154.1895 N   0  0  0  0  0  0  0  0  0  0  0  0
  144.1891  135.7379  152.7256 C   0  0  2  0  0  0  0  0  0  0  0  0
  143.9230  134.4192  152.3488 O   0  0  0  0  0  0  0  0  0  0  0  0
  144.8217  134.0029  151.3240 C   0  0  1  0  0  0  0  0  0  0  0  0
  144.1676  132.9460  150.4169 C   0  0  0  0  0  0  0  0  0  0  0  0
  144.9956  132.6683  149.3077 O   0  0  0  0  0  0  0  0  0  0  0  0
  145.2866  135.3059  150.6570 C   0  0  1  0  0  0  0  0  0  0  0  0
  144.3640  135.7455  149.6772 O   0  0  0  0  0  0  0  0  0  0  0  0
  145.3211  136.2771  151.8264 C   0  0  2  0  0  0  0  0  0  0  0  0
  146.5974  136.2751  152.4409 O   0  0  0  0  0  0  0  0  0  0  0  0
  145.5262  135.5871  160.5861 C   0  0  0  0  0  0  0  0  0  0  0  0
  147.0281  135.9288  160.6945 C   0  0  0  0  0  0  0  0  0  0  0  0
  147.5456  135.7359  162.1294 C   0  0  0  0  0  0  0  0  0  0  0  0
  147.2775  134.3082  162.6306 C   0  0  0  0  0  0  0  0  0  0  0  0
  145.7865  133.9521  162.5226 C   0  0  0  0  0  0  0  0  0  0  0  0
  145.2689  134.1476  161.0878 C   0  0  0  0  0  0  0  0  0  0  0  0
  143.2696  136.3166  152.6300 H   0  0  0  0  0  0  0  0  0  0  0  0
  145.6820  133.5512  151.8191 H   0  0  0  0  0  0  0  0  0  0  0  0
  146.2597  135.1935  150.1770 H   0  0  0  0  0  0  0  0  0  0  0  0
  145.0952  137.3015  151.5271 H   0  0  0  0  0  0  0  0  0  0  0  0
  141.0036  136.0494  159.3916 H   0  0  0  0  0  0  0  0  0  0  0  0
  142.6347  134.9498  160.7832 H   0  0  0  0  0  0  0  0  0  0  0  0
  142.9634  134.0382  159.3165 H   0  0  0  0  0  0  0  0  0  0  0  0
  143.1019  136.4124  158.1502 H   0  0  0  0  0  0  0  0  0  0  0  0
  143.2115  137.0367  159.7747 H   0  0  0  0  0  0  0  0  0  0  0  0
  145.0863  134.9713  158.5765 H   0  0  0  0  0  0  0  0  0  0  0  0
  146.4026  137.3896  159.0814 H   0  0  0  0  0  0  0  0  0  0  0  0
  145.2898  140.0392  155.3820 H   0  0  0  0  0  0  0  0  0  0  0  0
  144.3821  133.6988  154.7429 H   0  0  0  0  0  0  0  0  0  0  0  0
  144.0223  132.0205  150.9746 H   0  0  0  0  0  0  0  0  0  0  0  0
  143.1840  133.2650  150.0718 H   0  0  0  0  0  0  0  0  0  0  0  0
  145.4224  133.4692  149.0435 H   0  0  0  0  0  0  0  0  0  0  0  0
  144.7617  135.6390  148.8263 H   0  0  0  0  0  0  0  0  0  0  0  0
  147.2547  136.2211  151.7641 H   0  0  0  0  0  0  0  0  0  0  0  0
  145.0168  136.2593  161.2785 H   0  0  0  0  0  0  0  0  0  0  0  0
  147.6138  135.3015  160.0230 H   0  0  0  0  0  0  0  0  0  0  0  0
  147.1987  136.9597  160.3824 H   0  0  0  0  0  0  0  0  0  0  0  0
  148.6142  135.9494  162.1704 H   0  0  0  0  0  0  0  0  0  0  0  0
  147.0613  136.4537  162.7926 H   0  0  0  0  0  0  0  0  0  0  0  0
  147.8654  133.5998  162.0455 H   0  0  0  0  0  0  0  0  0  0  0  0
  147.6103  134.2078  163.6641 H   0  0  0  0  0  0  0  0  0  0  0  0
  145.6278  132.9201  162.8370 H   0  0  0  0  0  0  0  0  0  0  0  0
  145.2105  134.5756  163.2075 H   0  0  0  0  0  0  0  0  0  0  0  0
  144.2033  133.9191  161.0547 H   0  0  0  0  0  0  0  0  0  0  0  0
  145.7604  133.4268  160.4340 H   0  0  0  0  0  0  0  0  0  0  0  0
  1  2  1  0  0  0  0
  1 34  1  0  0  0  0
  2  3  1  0  0  0  0
  2 35  1  0  0  0  0
  2 36  1  0  0  0  0
  3  4  1  0  0  0  0
  3 37  1  0  0  0  0
  3 38  1  0  0  0  0
  4  5  1  0  0  0  0
  4 24  1  0  0  0  0
  4 39  1  0  0  0  0
  5  6  1  0  0  0  0
  5 40  1  0  0  0  0
  6 11  1  0  0  0  0
  6  7  2  0  0  0  0
  7  8  1  0  0  0  0
  8  9  2  0  0  0  0
  8 41  1  0  0  0  0
  9 10  1  0  0  0  0
 10 14  1  0  0  0  0
 10 11  2  0  0  0  0
 11 12  1  0  0  0  0
 12 13  2  0  0  0  0
 13 14  1  0  0  0  0
 13 42  1  0  0  0  0
 14 15  1  0  0  0  0
 15 30  1  0  0  0  0
 15 22  1  0  0  0  0
 15 16  1  0  0  0  0
 16 17  1  0  0  0  0
 17 31  1  0  0  0  0
 17 18  1  0  0  0  0
 17 20  1  0  0  0  0
 18 19  1  0  0  0  0
 18 43  1  0  0  0  0
 18 44  1  0  0  0  0
 19 45  1  0  0  0  0
 20 32  1  0  0  0  0
 20 21  1  0  0  0  0
 20 22  1  0  0  0  0
 21 46  1  0  0  0  0
 22 33  1  0  0  0  0
 22 23  1  0  0  0  0
 23 47  1  0  0  0  0
 24 29  1  0  0  0  0
 24 25  1  0  0  0  0
 24 48  1  0  0  0  0
 25 26  1  0  0  0  0
 25 49  1  0  0  0  0
 25 50  1  0  0  0  0
 26 27  1  0  0  0  0
 26 51  1  0  0  0  0
 26 52  1  0  0  0  0
 27 28  1  0  0  0  0
 27 53  1  0  0  0  0
 27 54  1  0  0  0  0
 28 29  1  0  0  0  0
 28 55  1  0  0  0  0
 28 56  1  0  0  0  0
 29 57  1  0  0  0  0
 29 58  1  0  0  0  0
M  END
> <s_m_source_file>
AV-unprocessed.smi

> <i_m_source_file_index>
109

> <i_lp_mmshare_version>
43012

> <i_f3d_flags>
0

> <s_epik_input>
W0NIMl0xW0NIMl1bQ0gyXVtDSDJdW0NIMl1bQ0hdMVtDQEhdKFtDSDJdW0NIMl1bT0hdKVtOSF1jKG5bY0hdbjIpYyhjMjMpbltjSF1uM1tDQEBIXTRPW0NASF0oW0NIMl1bT0hdKVtDQEBIXShbT0hdKVtDQEhdNFtPSF0=

> <s_epik_cmdline>
J2VwaWtfcHl0aG9uJywgJy1waCcsICc3LjAnLCAnLXRuJywgJzgnLCAnLW1hJywgJzIwMCcsICctbWV0YWxfYmluZGluZycsICctaW1hZScsICc8aW5maWxlLm1hZT4nLCAnLW9tYWUnLCAnPG91dGZpbGUubWFlPic=

> <r_lp_tautomer_probability>
1

> <r_epik_Ionization_Penalty>
0.000793976

> <r_epik_Ionization_Penalty_Charging>
0

> <r_epik_Ionization_Penalty_Neutral>
0.000793976

> <r_epik_State_Penalty>
-0

> <r_epik_Charging_Adjusted_Penalty>
0

> <i_epik_Tot_Q>
0

> <i_epik_Tot_abs_Q>
0

> <r_epik_Metal_State_Penalty>
-0

> <b_epik_Metal_Only>
0

> <s_epik_Chemistry_Notes>
This compound contains an acetal/aminal-like group ( X-CH(R)-Y where X, Y are N, S, or O) that may be acid/base labile, releasing an aldehyde.

> <s_lp_Force_Field>
OPLS_2005

> <r_lp_Energy>
55.7279

> <b_lp_Chiralities_Consistent>
1

> <s_lp_Variant>
AV-unprocessed.smi:109-22

> <Gold.Version>
5.8.1

> <Gold.Id.Protein>
6NUR|6NUR_protein|mol2

> <Gold.PLP.Fitness>
44.2005

> <Gold.PLP.PLP>
-32.2093

> <Gold.PLP.part.hbond>
-4.6096

> <Gold.PLP.part.metal>
0.0000

> <Gold.PLP.part.buried>
-5.5047

> <Gold.PLP.part.nonpolar>
-22.6520

> <Gold.PLP.part.repulsive>
0.2812

> <Gold.PLP.ligand.clash>
0.0000

> <Gold.PLP.ligand.torsion>
0.9388

> <Gold.PLP.Chemscore.Hbond>
3.6400

> <Gold.PLP.Chemscore.CHOScore>
0.8606

> <Gold.PLP.Chemscore.Metal>
0.0000

> <Gold.Chemscore.Hbonds>
donor molecule, donor type, donor heavy atom, donor atom, acceptor molecule, acceptor atom, score
      L1  H    19    45       P1  7921  0.91
      L1  H    21    46       P1  7921  1.00
      L1  H    23    47       P1  7948  0.66
      P1  H 11000 11005       L1     1  1.00
      L1  C    13    42       P1 10957  0.87

> <Gold.PLP.Chemscore.Internal.Correction>
0.3671

> <Gold.Rescore>
     Score         DG    S(hbond)    S(metal)    S(lipo)     H(rot)  DE(clash)    DE(int)     intcor
      8.17     -10.08       3.19        0.00      67.90       5.47       0.03       1.87       ----

> <Gold.Chemscore.Fitness>
8.1743

> <Gold.Chemscore.DG>
-10.0832

> <Gold.Chemscore.ZeroCoef>
-5.4800

> <Gold.Chemscore.Hbond>
3.1892

> <Gold.Chemscore.Metal>
0.0000

> <Gold.Chemscore.Lipo>
67.9044

> <Gold.Chemscore.Internal_Hbond>
0.0000

> <Gold.Chemscore.DEClash>
0.0348

> <Gold.Chemscore.DEInternal>
1.8742

> <Gold.Chemscore.Rot>
5.4662

> <Gold.Chemscore.Internal.Correction>
   9.000000E+99

> <Gold.Chemscore.Hbonds>
donor molecule, donor type, donor heavy atom, donor atom, acceptor molecule, acceptor atom, score
      L1  H    19    45       P1  7921  0.30
      L1  H    21    46       P1  7921  0.94
      L1  H    23    47       P1  7948  0.66
      P1  H 11000 11005       L1     1  0.81

> <Gold.Chemscore.Hbond.Weighted>
-10.6519

> <Gold.Chemscore.Metal.Weighted>
-0.0000

> <Gold.Chemscore.Lipo.Weighted>
-7.9448

> <Gold.Chemscore.Internal_Hbond.Weighted>
0.0000

> <Gold.Chemscore.DEClash.Weighted>
0.0348

> <Gold.Chemscore.DEInternal.Weighted>
1.8742

> <Gold.Chemscore.Rot.Weighted>
13.9935

> <Gold.Chemscore.Internal.Correction.Weighted>
   9.000000E+99

> <Gold.Protein.RotatedTorsions>
[ 6907 6896 6895 6894 ] final  118.69 input  -60.11 | X-H torsion
[ 7974 7965 7964 7962 ] final   77.93 input  175.53 | X-H torsion
[ 8008 7997 7996 7995 ] final   91.70 input   59.86 | X-H torsion
[ 10167 10162 10161 10158 ] final  -29.35 input  -65.29 | X-H torsion
[ 10718 10713 10712 10709 ] final  -43.10 input   66.30 | X-H torsion
[ 10763 10752 10751 10750 ] final -139.73 input  -60.55 | X-H torsion
[ 11005 11000 10999 10996 ] final -147.39 input  -57.11 | X-H torsion

> <Gold.Protein.ActiveResidues>
 VAL166  LYS551  ARG553  GLY616  TRP617  ASP618  TYR619  PRO620  LYS621  CYS622 
 ASP623  PHE694  ASN695  SER759  ASP760  ASP761  ALA762  ILE779  LEU786  VAL792 
 PHE793  MET794  SER795  GLU796  ALA797  LYS798  CYS799  TRP800  GLU811  SER814 

> <Gold.Protein.RotatedAtoms>
  152.4525  133.7657  159.6770 H   0  0  0  0  0  0  0  0  0  0  0  0  # atno 6907 bound_to 6896
  150.8441  133.7879  159.3056 H   0  0  0  0  0  0  0  0  0  0  0  0  # atno 6908 bound_to 6896
  151.5495  135.1070  159.9998 H   0  0  0  0  0  0  0  0  0  0  0  0  # atno 6909 bound_to 6896
  145.6836  139.2531  143.1800 H   0  0  0  0  0  0  0  0  0  0  0  0  # atno 7974 bound_to 7965
  156.0268  140.3334  155.7097 H   0  0  0  0  0  0  0  0  0  0  0  0  # atno 8008 bound_to 7997
  155.5943  140.0649  157.2768 H   0  0  0  0  0  0  0  0  0  0  0  0  # atno 8009 bound_to 7997
  154.4337  140.1821  156.1095 H   0  0  0  0  0  0  0  0  0  0  0  0  # atno 8010 bound_to 7997
  140.7261  143.3936  151.1387 H   0  0  0  0  0  0  0  0  0  0  0  0  # atno 10167 bound_to 10162
  156.2525  130.4189  149.8633 H   0  0  0  0  0  0  0  0  0  0  0  0  # atno 10718 bound_to 10713
  154.8600  135.3574  154.5593 H   0  0  0  0  0  0  0  0  0  0  0  0  # atno 10763 bound_to 10752
  153.6209  135.7006  153.5316 H   0  0  0  0  0  0  0  0  0  0  0  0  # atno 10764 bound_to 10752
  153.3130  135.4173  155.1312 H   0  0  0  0  0  0  0  0  0  0  0  0  # atno 10765 bound_to 10752
  140.7721  134.3177  157.5072 H   0  0  0  0  0  0  0  0  0  0  0  0  # atno 11005 bound_to 11000
  146.0942  140.7620  142.9580 LP  0  0  0  0  0  0  0  0  0  0  0  0  # atno 17320 bound_to 7965
  144.7018  140.3686  143.7150 LP  0  0  0  0  0  0  0  0  0  0  0  0  # atno 17321 bound_to 7965
  139.7545  143.8729  152.3085 LP  0  0  0  0  0  0  0  0  0  0  0  0  # atno 17342 bound_to 10162
  139.8593  144.7125  150.9118 LP  0  0  0  0  0  0  0  0  0  0  0  0  # atno 17343 bound_to 10162
  156.6176  130.8613  151.3468 LP  0  0  0  0  0  0  0  0  0  0  0  0  # atno 17370 bound_to 10713
  157.7220  130.9571  150.1477 LP  0  0  0  0  0  0  0  0  0  0  0  0  # atno 17371 bound_to 10713
  139.8754  134.9267  156.3407 LP  0  0  0  0  0  0  0  0  0  0  0  0  # atno 17394 bound_to 11000
  140.9564  133.7417  156.0341 LP  0  0  0  0  0  0  0  0  0  0  0  0  # atno 17395 bound_to 11000

$$$$
