AV-unprocessed.smi:2923|AV-procd|sdf|11203|dock1
  -GOLD-   2272016 93D 1   1.00000     0.00000
 Structure written by MMmdl.
 47 49  0  0  0  0  0  0  0  0  2 V2000
  148.5757  127.8158  153.5298 C   0  0  0  0  0  0  0  0  0  0  0  0
  147.7199  128.8679  152.9924 N   0  0  0  0  0  0  0  0  0  0  0  0
  146.5345  128.5278  152.2161 C   0  0  0  0  0  0  0  0  0  0  0  0
  148.0565  130.2222  153.2047 C   0  0  0  0  0  0  0  0  0  0  0  0
  149.0914  130.6374  154.0782 C   0  0  0  0  0  0  0  0  0  0  0  0
  149.3653  132.0115  154.2378 C   0  0  0  0  0  0  0  0  0  0  0  0
  148.6132  132.9665  153.5225 C   0  0  0  0  0  0  0  0  0  0  0  0
  148.9174  134.3394  153.7308 N   0  0  0  0  0  0  0  0  0  0  0  0
  149.4096  134.9338  154.8316 C   0  0  0  0  0  0  0  0  0  0  0  0
  149.6445  134.3722  155.9010 O   0  0  0  0  0  0  0  0  0  0  0  0
  149.6025  136.2437  154.6300 N   0  0  0  0  0  0  0  0  0  0  0  0
  150.1151  137.1630  155.6388 C   0  0  1  0  0  0  0  0  0  0  0  0
  151.6112  136.9792  155.8920 C   0  0  2  0  0  0  0  0  0  0  0  0
  152.4259  136.5129  157.0452 C   0  0  0  0  0  0  0  0  0  0  0  0
  153.4897  137.6431  157.0236 C   0  0  0  0  0  0  0  0  0  0  0  0
  152.9868  138.6446  156.1054 O   0  0  0  0  0  0  0  0  0  0  0  0
  151.5854  138.4723  156.1552 C   0  0  1  0  0  0  0  0  0  0  0  0
  150.4992  138.5791  155.0660 C   0  0  0  0  0  0  0  0  0  0  0  0
  150.9619  138.7122  153.6008 C   0  0  0  0  0  0  0  0  0  0  0  0
  149.4587  139.6773  155.2881 C   0  0  0  0  0  0  0  0  0  0  0  0
  147.5843  132.5023  152.6689 C   0  0  0  0  0  0  0  0  0  0  0  0
  147.3554  131.1772  152.5464 N   0  3  0  0  0  0  0  0  0  0  0  0
  149.5795  127.8865  153.1091 H   0  0  0  0  0  0  0  0  0  0  0  0
  148.1842  126.8258  153.2953 H   0  0  0  0  0  0  0  0  0  0  0  0
  148.6473  127.8965  154.6150 H   0  0  0  0  0  0  0  0  0  0  0  0
  145.6369  128.9186  152.6961 H   0  0  0  0  0  0  0  0  0  0  0  0
  146.4188  127.4479  152.1225 H   0  0  0  0  0  0  0  0  0  0  0  0
  146.6020  128.9428  151.2101 H   0  0  0  0  0  0  0  0  0  0  0  0
  149.6815  129.9235  154.6331 H   0  0  0  0  0  0  0  0  0  0  0  0
  150.1532  132.3264  154.9066 H   0  0  0  0  0  0  0  0  0  0  0  0
  148.7105  134.9511  152.9547 H   0  0  0  0  0  0  0  0  0  0  0  0
  149.3806  136.6326  153.7253 H   0  0  0  0  0  0  0  0  0  0  0  0
  149.5258  137.1945  156.5599 H   0  0  0  0  0  0  0  0  0  0  0  0
  152.1237  136.7170  154.9635 H   0  0  0  0  0  0  0  0  0  0  0  0
  151.8535  136.5065  157.9739 H   0  0  0  0  0  0  0  0  0  0  0  0
  152.8602  135.5255  156.8865 H   0  0  0  0  0  0  0  0  0  0  0  0
  153.6231  138.0705  158.0181 H   0  0  0  0  0  0  0  0  0  0  0  0
  154.4588  137.2841  156.6762 H   0  0  0  0  0  0  0  0  0  0  0  0
  151.1989  138.7408  157.1452 H   0  0  0  0  0  0  0  0  0  0  0  0
  151.4171  139.6866  153.4214 H   0  0  0  0  0  0  0  0  0  0  0  0
  150.1233  138.6167  152.9103 H   0  0  0  0  0  0  0  0  0  0  0  0
  151.6973  137.9675  153.3025 H   0  0  0  0  0  0  0  0  0  0  0  0
  149.8863  140.6693  155.1394 H   0  0  0  0  0  0  0  0  0  0  0  0
  149.0555  139.6483  156.3009 H   0  0  0  0  0  0  0  0  0  0  0  0
  148.6148  139.5747  154.6053 H   0  0  0  0  0  0  0  0  0  0  0  0
  146.9247  133.1277  152.0869 H   0  0  0  0  0  0  0  0  0  0  0  0
  146.6063  130.8787  151.9215 H   0  0  0  0  0  0  0  0  0  0  0  0
  1  2  1  0  0  0  0
  1 23  1  0  0  0  0
  1 24  1  0  0  0  0
  1 25  1  0  0  0  0
  2  3  1  0  0  0  0
  2  4  1  0  0  0  0
  3 26  1  0  0  0  0
  3 27  1  0  0  0  0
  3 28  1  0  0  0  0
  4 22  1  0  0  0  0
  4  5  2  0  0  0  0
  5  6  1  0  0  0  0
  5 29  1  0  0  0  0
  6  7  2  0  0  0  0
  6 30  1  0  0  0  0
  7  8  1  0  0  0  0
  7 21  1  0  0  0  0
  8  9  1  0  0  0  0
  8 31  1  0  0  0  0
  9 10  2  0  0  0  0
  9 11  1  0  0  0  0
 11 12  1  0  0  0  0
 11 32  1  0  0  0  0
 12 18  1  0  0  0  0
 12 13  1  0  0  0  0
 12 33  1  0  0  0  0
 13 17  1  0  0  0  0
 13 14  1  0  0  0  0
 13 34  1  0  0  0  0
 14 15  1  0  0  0  0
 14 35  1  0  0  0  0
 14 36  1  0  0  0  0
 15 16  1  0  0  0  0
 15 37  1  0  0  0  0
 15 38  1  0  0  0  0
 16 17  1  0  0  0  0
 17 18  1  0  0  0  0
 17 39  1  0  0  0  0
 18 19  1  0  0  0  0
 18 20  1  0  0  0  0
 19 40  1  0  0  0  0
 19 41  1  0  0  0  0
 19 42  1  0  0  0  0
 20 43  1  0  0  0  0
 20 44  1  0  0  0  0
 20 45  1  0  0  0  0
 21 22  2  0  0  0  0
 21 46  1  0  0  0  0
 22 47  1  0  0  0  0
M  CHG  1  22   1
M  END
> <s_m_source_file>
AV-unprocessed.smi

> <i_m_source_file_index>
2923

> <i_lp_mmshare_version>
43012

> <i_f3d_flags>
0

> <s_epik_input>
W0NIM11OKFtDSDNdKWMxW2NIXVtjSF1jKFtjSF1uMSlbTkhdQyg9TylbTkhdW0NASF0yQyhbQ0gzXSkoW0NIM10pW0NAQEhdKFtDQEhdMjMpT1tDSDJdW0NIMl0z

> <s_epik_cmdline>
J2VwaWtfcHl0aG9uJywgJy1waCcsICc3LjAnLCAnLXRuJywgJzgnLCAnLW1hJywgJzIwMCcsICctbWV0YWxfYmluZGluZycsICctaW1hZScsICc8aW5maWxlLm1hZT4nLCAnLW9tYWUnLCAnPG91dGZpbGUubWFlPic=

> <r_lp_tautomer_probability>
0.999994

> <r_epik_Ionization_Penalty>
0.252205

> <r_epik_Ionization_Penalty_Charging>
0.252185

> <r_epik_Ionization_Penalty_Neutral>
1.99479e-05

> <r_epik_State_Penalty>
0.243573

> <r_epik_Charging_Adjusted_Penalty>
0.495758

> <i_epik_Tot_Q>
1

> <i_epik_Tot_abs_Q>
1

> <r_epik_Metal_State_Penalty>
0.534372

> <b_epik_Metal_Only>
0

> <s_lp_Force_Field>
OPLS_2005

> <r_lp_Energy>
67.7909

> <b_lp_Chiralities_Consistent>
1

> <s_lp_Variant>
AV-unprocessed.smi:2923-2

> <Gold.Version>
5.8.1

> <Gold.Id.Protein>
6NUR|6NUR_protein|mol2

> <Gold.PLP.Fitness>
38.1372

> <Gold.PLP.PLP>
-29.8422

> <Gold.PLP.part.hbond>
-4.0000

> <Gold.PLP.part.metal>
0.0000

> <Gold.PLP.part.buried>
-1.1960

> <Gold.PLP.part.nonpolar>
-23.3995

> <Gold.PLP.part.repulsive>
0.0539

> <Gold.PLP.ligand.clash>
0.0000

> <Gold.PLP.ligand.torsion>
0.3537

> <Gold.PLP.Chemscore.Hbond>
2.9120

> <Gold.PLP.Chemscore.CHOScore>
0.0000

> <Gold.PLP.Chemscore.Metal>
0.0000

> <Gold.Chemscore.Hbonds>
donor molecule, donor type, donor heavy atom, donor atom, acceptor molecule, acceptor atom, score
      L1  H     8    31       P1  7948  1.00
      L1  H    11    32       P1  7948  0.91
      P1  H  7997  8008       L1    16  0.79

> <Gold.PLP.Chemscore.Internal.Correction>
0.2666

> <Gold.Rescore>
     Score         DG    S(hbond)    S(metal)    S(lipo)     H(rot)  DE(clash)    DE(int)     intcor
     15.67     -17.33       1.69        0.00      74.77       1.00       0.09       1.57       ----

> <Gold.Chemscore.Fitness>
15.6654

> <Gold.Chemscore.DG>
-17.3268

> <Gold.Chemscore.ZeroCoef>
-5.4800

> <Gold.Chemscore.Hbond>
1.6943

> <Gold.Chemscore.Metal>
0.0000

> <Gold.Chemscore.Lipo>
74.7696

> <Gold.Chemscore.Internal_Hbond>
0.0000

> <Gold.Chemscore.DEClash>
0.0873

> <Gold.Chemscore.DEInternal>
1.5741

> <Gold.Chemscore.Rot>
1.0000

> <Gold.Chemscore.Internal.Correction>
   9.000000E+99

> <Gold.Chemscore.Hbonds>
donor molecule, donor type, donor heavy atom, donor atom, acceptor molecule, acceptor atom, score
      L1  H     8    31       P1  7948  0.34
      L1  H    11    32       P1  7948  0.79
      P1  H  7997  8008       L1    16  0.10

> <Gold.Chemscore.Hbond.Weighted>
-5.6588

> <Gold.Chemscore.Metal.Weighted>
-0.0000

> <Gold.Chemscore.Lipo.Weighted>
-8.7480

> <Gold.Chemscore.Internal_Hbond.Weighted>
0.0000

> <Gold.Chemscore.DEClash.Weighted>
0.0873

> <Gold.Chemscore.DEInternal.Weighted>
1.5741

> <Gold.Chemscore.Rot.Weighted>
2.5600

> <Gold.Chemscore.Internal.Correction.Weighted>
   9.000000E+99

> <Gold.Protein.RotatedTorsions>
[ 6907 6896 6895 6894 ] final  -24.38 input  -60.11 | X-H torsion
[ 7974 7965 7964 7962 ] final -125.39 input  175.53 | X-H torsion
[ 8008 7997 7996 7995 ] final  -56.08 input   59.86 | X-H torsion
[ 10167 10162 10161 10158 ] final -161.76 input  -65.29 | X-H torsion
[ 10718 10713 10712 10709 ] final  105.79 input   66.30 | X-H torsion
[ 10763 10752 10751 10750 ] final   30.87 input  -60.55 | X-H torsion
[ 11005 11000 10999 10996 ] final   55.52 input  -57.11 | X-H torsion

> <Gold.Protein.ActiveResidues>
 VAL166  LYS551  ARG553  GLY616  TRP617  ASP618  TYR619  PRO620  LYS621  CYS622 
 ASP623  PHE694  ASN695  SER759  ASP760  ASP761  ALA762  ILE779  LEU786  VAL792 
 PHE793  MET794  SER795  GLU796  ALA797  LYS798  CYS799  TRP800  GLU811  SER814 

> <Gold.Protein.RotatedAtoms>
  151.1903  135.0399  159.8829 H   0  0  0  0  0  0  0  0  0  0  0  0  # atno 6907 bound_to 6896
  152.5440  134.0963  159.8309 H   0  0  0  0  0  0  0  0  0  0  0  0  # atno 6908 bound_to 6896
  151.1091  133.5139  159.2638 H   0  0  0  0  0  0  0  0  0  0  0  0  # atno 6909 bound_to 6896
  144.9980  140.7794  143.4513 H   0  0  0  0  0  0  0  0  0  0  0  0  # atno 7974 bound_to 7965
  154.4217  140.1138  156.5580 H   0  0  0  0  0  0  0  0  0  0  0  0  # atno 8008 bound_to 7997
  155.6341  140.3496  155.4673 H   0  0  0  0  0  0  0  0  0  0  0  0  # atno 8009 bound_to 7997
  155.9924  140.1182  157.0615 H   0  0  0  0  0  0  0  0  0  0  0  0  # atno 8010 bound_to 7997
  139.6441  144.0204  152.2114 H   0  0  0  0  0  0  0  0  0  0  0  0  # atno 10167 bound_to 10162
  157.6692  131.0836  150.5909 H   0  0  0  0  0  0  0  0  0  0  0  0  # atno 10718 bound_to 10713
  153.0347  135.6453  154.1111 H   0  0  0  0  0  0  0  0  0  0  0  0  # atno 10763 bound_to 10752
  154.0828  135.2872  155.3288 H   0  0  0  0  0  0  0  0  0  0  0  0  # atno 10764 bound_to 10752
  154.6518  135.5423  153.7975 H   0  0  0  0  0  0  0  0  0  0  0  0  # atno 10765 bound_to 10752
  140.0601  134.5615  155.9162 H   0  0  0  0  0  0  0  0  0  0  0  0  # atno 11005 bound_to 11000
  145.2192  139.2167  143.5102 LP  0  0  0  0  0  0  0  0  0  0  0  0  # atno 17320 bound_to 7965
  146.3446  140.2046  142.8589 LP  0  0  0  0  0  0  0  0  0  0  0  0  # atno 17321 bound_to 7965
  139.9901  144.6367  150.7822 LP  0  0  0  0  0  0  0  0  0  0  0  0  # atno 17342 bound_to 10162
  140.7506  143.2958  151.3209 LP  0  0  0  0  0  0  0  0  0  0  0  0  # atno 17343 bound_to 10162
  156.6209  130.4405  149.5822 LP  0  0  0  0  0  0  0  0  0  0  0  0  # atno 17370 bound_to 10713
  156.2356  130.6821  151.1506 LP  0  0  0  0  0  0  0  0  0  0  0  0  # atno 17371 bound_to 10713
  141.1969  133.6594  156.5715 LP  0  0  0  0  0  0  0  0  0  0  0  0  # atno 17394 bound_to 11000
  140.3784  134.7545  157.4645 LP  0  0  0  0  0  0  0  0  0  0  0  0  # atno 17395 bound_to 11000

$$$$
