AV-unprocessed.smi:2583|AV-procd|sdf|10140|dock10
  -GOLD-   2272014153D 1   1.00000     0.00000
 Structure written by MMmdl.
 54 56  0  0  0  0  0  0  0  0  2 V2000
  150.9188  144.4540  158.6824 C   0  0  0  0  0  0  0  0  0  0  0  0
  151.6572  143.6811  159.7554 C   0  0  0  0  0  0  0  0  0  0  0  0
  151.8967  144.2464  161.0247 C   0  0  0  0  0  0  0  0  0  0  0  0
  152.5391  143.5935  162.0157 N   0  0  0  0  0  0  0  0  0  0  0  0
  152.9769  142.3409  161.7678 C   0  0  0  0  0  0  0  0  0  0  0  0
  152.8083  141.6829  160.5312 C   0  0  0  0  0  0  0  0  0  0  0  0
  153.3114  140.3594  160.4082 N   0  0  0  0  0  0  0  0  0  0  0  0
  154.3261  139.7849  161.0766 C   0  0  0  0  0  0  0  0  0  0  0  0
  155.0200  140.3359  161.9309 O   0  0  0  0  0  0  0  0  0  0  0  0
  154.4843  138.5047  160.7112 N   0  0  0  0  0  0  0  0  0  0  0  0
  155.4790  137.5919  161.2670 C   0  0  0  0  0  0  0  0  0  0  0  0
  155.3070  136.1941  160.6679 C   0  0  0  0  0  0  0  0  0  0  0  0
  156.2761  135.1918  161.3185 C   0  0  0  0  0  0  0  0  0  0  0  0
  156.0660  135.0902  162.7729 N   0  0  0  0  0  0  0  0  0  0  0  0
  156.9509  134.0654  163.3747 C   0  0  2  0  0  0  0  0  0  0  0  0
  156.7839  132.6578  162.7458 C   0  0  0  0  0  0  0  0  0  0  0  0
  155.4240  132.0279  163.0973 C   0  0  0  0  0  0  0  0  0  0  0  0
  155.2422  131.9319  164.5664 N   0  3  2  0  0  0  0  0  0  0  0  0
  153.9800  131.2555  164.9346 C   0  0  0  0  0  0  0  0  0  0  0  0
  155.3977  133.2449  165.2394 C   0  0  0  0  0  0  0  0  0  0  0  0
  156.7578  133.8825  164.9025 C   0  0  0  0  0  0  0  0  0  0  0  0
  156.2969  136.4210  163.3600 C   0  0  0  0  0  0  0  0  0  0  0  0
  155.3363  137.4779  162.7893 C   0  0  0  0  0  0  0  0  0  0  0  0
  152.1183  142.3731  159.5054 C   0  0  0  0  0  0  0  0  0  0  0  0
  150.6278  145.4439  159.0351 H   0  0  0  0  0  0  0  0  0  0  0  0
  150.0167  143.9195  158.3841 H   0  0  0  0  0  0  0  0  0  0  0  0
  151.5513  144.5776  157.8030 H   0  0  0  0  0  0  0  0  0  0  0  0
  151.5600  145.2466  161.2552 H   0  0  0  0  0  0  0  0  0  0  0  0
  153.4852  141.8497  162.5848 H   0  0  0  0  0  0  0  0  0  0  0  0
  152.7897  139.7554  159.7899 H   0  0  0  0  0  0  0  0  0  0  0  0
  153.8688  138.1324  160.0032 H   0  0  0  0  0  0  0  0  0  0  0  0
  156.4793  137.9550  161.0226 H   0  0  0  0  0  0  0  0  0  0  0  0
  154.2813  135.8481  160.8049 H   0  0  0  0  0  0  0  0  0  0  0  0
  155.4814  136.2267  159.5919 H   0  0  0  0  0  0  0  0  0  0  0  0
  156.0993  134.2389  160.8271 H   0  0  0  0  0  0  0  0  0  0  0  0
  157.3091  135.4739  161.1086 H   0  0  0  0  0  0  0  0  0  0  0  0
  157.9781  134.3924  163.2052 H   0  0  0  0  0  0  0  0  0  0  0  0
  156.9487  132.6428  161.6710 H   0  0  0  0  0  0  0  0  0  0  0  0
  157.5694  132.0115  163.1404 H   0  0  0  0  0  0  0  0  0  0  0  0
  154.6128  132.6139  162.6624 H   0  0  0  0  0  0  0  0  0  0  0  0
  155.3627  131.0302  162.6607 H   0  0  0  0  0  0  0  0  0  0  0  0
  153.1155  131.8269  164.5941 H   0  0  0  0  0  0  0  0  0  0  0  0
  153.9078  131.1367  166.0161 H   0  0  0  0  0  0  0  0  0  0  0  0
  153.9314  130.2621  164.4876 H   0  0  0  0  0  0  0  0  0  0  0  0
  154.5847  133.9100  164.9440 H   0  0  0  0  0  0  0  0  0  0  0  0
  155.3187  133.1082  166.3186 H   0  0  0  0  0  0  0  0  0  0  0  0
  157.5428  133.2197  165.2692 H   0  0  0  0  0  0  0  0  0  0  0  0
  156.9081  134.7998  165.4680 H   0  0  0  0  0  0  0  0  0  0  0  0
  156.1231  136.4104  164.4328 H   0  0  0  0  0  0  0  0  0  0  0  0
  157.3330  136.7256  163.2028 H   0  0  0  0  0  0  0  0  0  0  0  0
  155.5374  138.4414  163.2588 H   0  0  0  0  0  0  0  0  0  0  0  0
  154.3102  137.2153  163.0518 H   0  0  0  0  0  0  0  0  0  0  0  0
  151.9233  141.9247  158.5437 H   0  0  0  0  0  0  0  0  0  0  0  0
  155.9903  131.3461  164.9088 H   0  0  0  0  0  0  0  0  0  0  0  0
  1  2  1  0  0  0  0
  1 25  1  0  0  0  0
  1 26  1  0  0  0  0
  1 27  1  0  0  0  0
  2 24  1  0  0  0  0
  2  3  2  0  0  0  0
  3  4  1  0  0  0  0
  3 28  1  0  0  0  0
  4  5  2  0  0  0  0
  5  6  1  0  0  0  0
  5 29  1  0  0  0  0
  6  7  1  0  0  0  0
  6 24  2  0  0  0  0
  7  8  1  0  0  0  0
  7 30  1  0  0  0  0
  8  9  2  0  0  0  0
  8 10  1  0  0  0  0
 10 11  1  0  0  0  0
 10 31  1  0  0  0  0
 11 23  1  0  0  0  0
 11 12  1  0  0  0  0
 11 32  1  0  0  0  0
 12 13  1  0  0  0  0
 12 33  1  0  0  0  0
 12 34  1  0  0  0  0
 13 14  1  0  0  0  0
 13 35  1  0  0  0  0
 13 36  1  0  0  0  0
 14 15  1  0  0  0  0
 14 22  1  0  0  0  0
 15 21  1  0  0  0  0
 15 16  1  0  0  0  0
 15 37  1  0  0  0  0
 16 17  1  0  0  0  0
 16 38  1  0  0  0  0
 16 39  1  0  0  0  0
 17 18  1  0  0  0  0
 17 40  1  0  0  0  0
 17 41  1  0  0  0  0
 18 19  1  0  0  0  0
 18 20  1  0  0  0  0
 18 54  1  0  0  0  0
 19 42  1  0  0  0  0
 19 43  1  0  0  0  0
 19 44  1  0  0  0  0
 20 21  1  0  0  0  0
 20 45  1  0  0  0  0
 20 46  1  0  0  0  0
 21 47  1  0  0  0  0
 21 48  1  0  0  0  0
 22 23  1  0  0  0  0
 22 49  1  0  0  0  0
 22 50  1  0  0  0  0
 23 51  1  0  0  0  0
 23 52  1  0  0  0  0
 24 53  1  0  0  0  0
M  CHG  1  18   1
M  END
> <s_m_source_file>
AV-unprocessed.smi

> <i_m_source_file_index>
2583

> <i_lp_mmshare_version>
43012

> <i_f3d_flags>
0

> <s_epik_input>
W0NIM11jMVtjSF1uW2NIXWMoW2NIXTEpW05IXUMoPU8pW05IXVtDSF0yW0NIMl1bQ0gyXU4oW0NIMl1bQ0gyXTIpW0NIXTNbQ0gyXVtDSDJdTihbQ0gzXSlbQ0gyXVtDSDJdMw==

> <s_epik_cmdline>
J2VwaWtfcHl0aG9uJywgJy1waCcsICc3LjAnLCAnLXRuJywgJzgnLCAnLW1hJywgJzIwMCcsICctbWV0YWxfYmluZGluZycsICctaW1hZScsICc8aW5maWxlLm1hZT4nLCAnLW9tYWUnLCAnPG91dGZpbGUubWFlPic=

> <r_epik_Ionization_Penalty>
1.01912

> <r_epik_Ionization_Penalty_Charging>
0.000974969

> <r_epik_Ionization_Penalty_Neutral>
1.01814

> <r_epik_State_Penalty>
1.10721

> <r_epik_Charging_Adjusted_Penalty>
1.10819

> <i_epik_Tot_Q>
1

> <i_epik_Tot_abs_Q>
1

> <r_epik_Metal_State_Penalty>
1.10135

> <b_epik_Metal_Only>
0

> <s_lp_Force_Field>
OPLS_2005

> <r_lp_Energy>
36.2524

> <b_lp_Chiralities_Consistent>
1

> <s_lp_Variant>
AV-unprocessed.smi:2583-6

> <Gold.Version>
5.8.1

> <Gold.Id.Protein>
6NUR|6NUR_protein|mol2

> <Gold.PLP.Fitness>
46.3772

> <Gold.PLP.PLP>
-46.6901

> <Gold.PLP.part.hbond>
0.0000

> <Gold.PLP.part.metal>
0.0000

> <Gold.PLP.part.buried>
-6.8240

> <Gold.PLP.part.nonpolar>
-39.9808

> <Gold.PLP.part.repulsive>
0.2438

> <Gold.PLP.ligand.clash>
0.0000

> <Gold.PLP.ligand.torsion>
0.1583

> <Gold.PLP.Chemscore.Hbond>
0.0000

> <Gold.PLP.Chemscore.CHOScore>
0.0000

> <Gold.PLP.Chemscore.Metal>
0.0000

> <Gold.PLP.Chemscore.Internal.Correction>
0.0036

> <Gold.Rescore>
     Score         DG    S(hbond)    S(metal)    S(lipo)     H(rot)  DE(clash)    DE(int)     intcor
     13.63     -16.69       0.00        0.00     122.05       1.20       0.02       3.05       ----

> <Gold.Chemscore.Fitness>
13.6313

> <Gold.Chemscore.DG>
-16.6950

> <Gold.Chemscore.ZeroCoef>
-5.4800

> <Gold.Chemscore.Hbond>
0.0000

> <Gold.Chemscore.Metal>
0.0000

> <Gold.Chemscore.Lipo>
122.0531

> <Gold.Chemscore.Internal_Hbond>
0.0000

> <Gold.Chemscore.DEClash>
0.0158

> <Gold.Chemscore.DEInternal>
3.0480

> <Gold.Chemscore.Rot>
1.1974

> <Gold.Chemscore.Internal.Correction>
   9.000000E+99

> <Gold.Chemscore.Hbond.Weighted>
-0.0000

> <Gold.Chemscore.Metal.Weighted>
-0.0000

> <Gold.Chemscore.Lipo.Weighted>
-14.2802

> <Gold.Chemscore.Internal_Hbond.Weighted>
0.0000

> <Gold.Chemscore.DEClash.Weighted>
0.0158

> <Gold.Chemscore.DEInternal.Weighted>
3.0480

> <Gold.Chemscore.Rot.Weighted>
3.0652

> <Gold.Chemscore.Internal.Correction.Weighted>
   9.000000E+99

> <Gold.Protein.RotatedTorsions>
[ 6907 6896 6895 6894 ] final  120.10 input  -60.11 | X-H torsion
[ 7974 7965 7964 7962 ] final   55.68 input  175.53 | X-H torsion
[ 8008 7997 7996 7995 ] final -178.87 input   59.86 | X-H torsion
[ 10167 10162 10161 10158 ] final  151.19 input  -65.29 | X-H torsion
[ 10718 10713 10712 10709 ] final -134.66 input   66.30 | X-H torsion
[ 10763 10752 10751 10750 ] final  170.08 input  -60.55 | X-H torsion
[ 11005 11000 10999 10996 ] final  -89.65 input  -57.11 | X-H torsion

> <Gold.Protein.ActiveResidues>
 VAL166  LYS551  ARG553  GLY616  TRP617  ASP618  TYR619  PRO620  LYS621  CYS622 
 ASP623  PHE694  ASN695  SER759  ASP760  ASP761  ALA762  ILE779  LEU786  VAL792 
 PHE793  MET794  SER795  GLU796  ALA797  LYS798  CYS799  TRP800  GLU811  SER814 

> <Gold.Protein.RotatedAtoms>
  152.4423  133.7471  159.6673 H   0  0  0  0  0  0  0  0  0  0  0  0  # atno 6907 bound_to 6896
  150.8316  133.8071  159.3102 H   0  0  0  0  0  0  0  0  0  0  0  0  # atno 6908 bound_to 6896
  151.5723  135.1064  160.0050 H   0  0  0  0  0  0  0  0  0  0  0  0  # atno 6909 bound_to 6896
  145.9478  139.3945  143.0324 H   0  0  0  0  0  0  0  0  0  0  0  0  # atno 7974 bound_to 7965
  156.0239  140.1267  157.0328 H   0  0  0  0  0  0  0  0  0  0  0  0  # atno 8008 bound_to 7997
  154.4322  140.1063  156.6073 H   0  0  0  0  0  0  0  0  0  0  0  0  # atno 8009 bound_to 7997
  155.5904  140.3469  155.4567 H   0  0  0  0  0  0  0  0  0  0  0  0  # atno 8010 bound_to 7997
  139.4843  144.5461  151.7482 H   0  0  0  0  0  0  0  0  0  0  0  0  # atno 10167 bound_to 10162
  156.2578  130.7192  151.1115 H   0  0  0  0  0  0  0  0  0  0  0  0  # atno 10718 bound_to 10713
  154.3924  135.2754  155.2146 H   0  0  0  0  0  0  0  0  0  0  0  0  # atno 10763 bound_to 10752
  154.4207  135.6001  153.6011 H   0  0  0  0  0  0  0  0  0  0  0  0  # atno 10764 bound_to 10752
  152.9832  135.5972  154.4181 H   0  0  0  0  0  0  0  0  0  0  0  0  # atno 10765 bound_to 10752
  141.1580  133.7643  156.9626 H   0  0  0  0  0  0  0  0  0  0  0  0  # atno 11005 bound_to 11000
  145.8212  140.9678  143.0898 LP  0  0  0  0  0  0  0  0  0  0  0  0  # atno 17320 bound_to 7965
  144.6790  140.0044  143.7484 LP  0  0  0  0  0  0  0  0  0  0  0  0  # atno 17321 bound_to 7965
  140.5008  144.1172  150.5970 LP  0  0  0  0  0  0  0  0  0  0  0  0  # atno 17342 bound_to 10162
  140.4065  143.2678  151.9885 LP  0  0  0  0  0  0  0  0  0  0  0  0  # atno 17343 bound_to 10162
  157.7239  131.0663  150.6016 LP  0  0  0  0  0  0  0  0  0  0  0  0  # atno 17370 bound_to 10713
  156.6102  130.4378  149.5862 LP  0  0  0  0  0  0  0  0  0  0  0  0  # atno 17371 bound_to 10713
  140.1183  134.9433  157.2166 LP  0  0  0  0  0  0  0  0  0  0  0  0  # atno 17394 bound_to 11000
  140.3105  134.3029  155.7268 LP  0  0  0  0  0  0  0  0  0  0  0  0  # atno 17395 bound_to 11000

$$$$
