AV-unprocessed.smi:2245|AV-procd|sdf|9076|dock9
  -GOLD-   2272012283D 1   1.00000     0.00000
 Structure written by MMmdl.
 44 45  0  0  0  0  0  0  0  0  1 V2000
  152.1185  145.6870  160.4832 C   0  0  0  0  0  0  0  0  0  0  0  0
  152.0536  144.3576  159.7608 C   0  0  0  0  0  0  0  0  0  0  0  0
  152.9100  143.2981  160.1162 C   0  0  0  0  0  0  0  0  0  0  0  0
  152.8018  142.0880  159.4035 C   0  0  0  0  0  0  0  0  0  0  0  0
  153.6973  140.9110  159.7284 C   0  0  0  0  0  0  0  0  0  0  0  0
  151.9193  141.9010  158.3990 N   0  0  0  0  0  0  0  0  0  0  0  0
  151.0894  142.9144  158.0481 C   0  0  0  0  0  0  0  0  0  0  0  0
  150.1381  142.8254  156.9981 N   0  0  0  0  0  0  0  0  0  0  0  0
  149.6701  141.7196  156.3931 C   0  0  0  0  0  0  0  0  0  0  0  0
  149.9293  140.5616  156.7225 O   0  0  0  0  0  0  0  0  0  0  0  0
  148.8696  142.0332  155.3656 N   0  0  0  0  0  0  0  0  0  0  0  0
  148.2429  141.0650  154.4745 C   0  0  0  0  0  0  0  0  0  0  0  0
  146.7606  141.4078  154.2569 C   0  0  2  0  0  0  0  0  0  0  0  0
  146.5067  142.6831  153.4498 C   0  0  0  0  0  0  0  0  0  0  0  0
  145.3795  143.4032  154.1981 C   0  0  0  0  0  0  0  0  0  0  0  0
  144.8234  142.3910  155.0896 N   0  0  0  0  0  0  0  0  0  0  0  0
  144.0675  142.9468  156.2100 C   0  0  0  0  0  0  0  0  0  0  0  0
  142.6396  143.3762  155.8209 C   0  0  0  0  0  0  0  0  0  0  0  0
  141.9971  143.7643  156.9218 F   0  0  0  0  0  0  0  0  0  0  0  0
  142.6525  144.3975  154.9649 F   0  0  0  0  0  0  0  0  0  0  0  0
  141.9751  142.3542  155.2805 F   0  0  0  0  0  0  0  0  0  0  0  0
  145.9904  141.6548  155.5522 C   0  0  0  0  0  0  0  0  0  0  0  0
  151.1314  144.1602  158.7135 C   0  0  0  0  0  0  0  0  0  0  0  0
  152.9159  145.6961  161.2269 H   0  0  0  0  0  0  0  0  0  0  0  0
  151.1747  145.8869  160.9911 H   0  0  0  0  0  0  0  0  0  0  0  0
  152.3053  146.4937  159.7740 H   0  0  0  0  0  0  0  0  0  0  0  0
  153.6321  143.4099  160.9119 H   0  0  0  0  0  0  0  0  0  0  0  0
  154.1842  141.0421  160.6950 H   0  0  0  0  0  0  0  0  0  0  0  0
  154.4702  140.8050  158.9670 H   0  0  0  0  0  0  0  0  0  0  0  0
  153.1195  139.9867  159.7630 H   0  0  0  0  0  0  0  0  0  0  0  0
  149.8084  143.7080  156.6368 H   0  0  0  0  0  0  0  0  0  0  0  0
  148.7039  143.0090  155.1676 H   0  0  0  0  0  0  0  0  0  0  0  0
  148.7565  141.0578  153.5115 H   0  0  0  0  0  0  0  0  0  0  0  0
  148.3485  140.0661  154.8999 H   0  0  0  0  0  0  0  0  0  0  0  0
  146.2802  140.5744  153.7405 H   0  0  0  0  0  0  0  0  0  0  0  0
  147.3892  143.3218  153.3961 H   0  0  0  0  0  0  0  0  0  0  0  0
  146.2135  142.4383  152.4284 H   0  0  0  0  0  0  0  0  0  0  0  0
  145.7934  144.2282  154.7803 H   0  0  0  0  0  0  0  0  0  0  0  0
  144.6282  143.8061  153.5187 H   0  0  0  0  0  0  0  0  0  0  0  0
  143.9916  142.1733  156.9756 H   0  0  0  0  0  0  0  0  0  0  0  0
  144.6092  143.7790  156.6613 H   0  0  0  0  0  0  0  0  0  0  0  0
  145.7147  140.7286  156.0579 H   0  0  0  0  0  0  0  0  0  0  0  0
  146.5769  142.2659  156.2409 H   0  0  0  0  0  0  0  0  0  0  0  0
  150.4661  144.9606  158.4229 H   0  0  0  0  0  0  0  0  0  0  0  0
  1  2  1  0  0  0  0
  1 24  1  0  0  0  0
  1 25  1  0  0  0  0
  1 26  1  0  0  0  0
  2 23  1  0  0  0  0
  2  3  2  0  0  0  0
  3  4  1  0  0  0  0
  3 27  1  0  0  0  0
  4  5  1  0  0  0  0
  4  6  2  0  0  0  0
  5 28  1  0  0  0  0
  5 29  1  0  0  0  0
  5 30  1  0  0  0  0
  6  7  1  0  0  0  0
  7  8  1  0  0  0  0
  7 23  2  0  0  0  0
  8  9  1  0  0  0  0
  8 31  1  0  0  0  0
  9 10  2  0  0  0  0
  9 11  1  0  0  0  0
 11 12  1  0  0  0  0
 11 32  1  0  0  0  0
 12 13  1  0  0  0  0
 12 33  1  0  0  0  0
 12 34  1  0  0  0  0
 13 22  1  0  0  0  0
 13 14  1  0  0  0  0
 13 35  1  0  0  0  0
 14 15  1  0  0  0  0
 14 36  1  0  0  0  0
 14 37  1  0  0  0  0
 15 16  1  0  0  0  0
 15 38  1  0  0  0  0
 15 39  1  0  0  0  0
 16 17  1  0  0  0  0
 16 22  1  0  0  0  0
 17 18  1  0  0  0  0
 17 40  1  0  0  0  0
 17 41  1  0  0  0  0
 18 19  1  0  0  0  0
 18 20  1  0  0  0  0
 18 21  1  0  0  0  0
 22 42  1  0  0  0  0
 22 43  1  0  0  0  0
 23 44  1  0  0  0  0
M  END
> <s_m_source_file>
AV-unprocessed.smi

> <i_m_source_file_index>
2245

> <i_lp_mmshare_version>
43012

> <i_f3d_flags>
0

> <s_epik_input>
W0NIM11jMVtjSF1jKFtDSDNdKW5jKFtjSF0xKVtOSF1DKD1PKVtOSF1bQ0gyXVtDQEBIXTJbQ0gyXVtDSDJdTihbQ0gyXTIpW0NIMl1DKEYpKEYpRg==

> <s_epik_cmdline>
J2VwaWtfcHl0aG9uJywgJy1waCcsICc3LjAnLCAnLXRuJywgJzgnLCAnLW1hJywgJzIwMCcsICctbWV0YWxfYmluZGluZycsICctaW1hZScsICc8aW5maWxlLm1hZT4nLCAnLW9tYWUnLCAnPG91dGZpbGUubWFlPic=

> <r_epik_Ionization_Penalty>
0.252219

> <r_epik_Ionization_Penalty_Charging>
0

> <r_epik_Ionization_Penalty_Neutral>
0.252219

> <r_epik_State_Penalty>
0.24335

> <r_epik_Charging_Adjusted_Penalty>
0.24335

> <i_epik_Tot_Q>
0

> <i_epik_Tot_abs_Q>
0

> <r_epik_Metal_State_Penalty>
0.243337

> <b_epik_Metal_Only>
0

> <s_lp_Force_Field>
OPLS_2005

> <r_lp_Energy>
29.2312

> <b_lp_Chiralities_Consistent>
1

> <s_lp_Variant>
AV-unprocessed.smi:2245-1

> <Gold.Version>
5.8.1

> <Gold.Id.Protein>
6NUR|6NUR_protein|mol2

> <Gold.PLP.Fitness>
47.2454

> <Gold.PLP.PLP>
-41.6272

> <Gold.PLP.part.hbond>
-2.0000

> <Gold.PLP.part.metal>
0.0000

> <Gold.PLP.part.buried>
-7.4415

> <Gold.PLP.part.nonpolar>
-32.9015

> <Gold.PLP.part.repulsive>
0.3700

> <Gold.PLP.ligand.clash>
0.0000

> <Gold.PLP.ligand.torsion>
0.3619

> <Gold.PLP.Chemscore.Hbond>
1.9920

> <Gold.PLP.Chemscore.CHOScore>
0.0000

> <Gold.PLP.Chemscore.Metal>
0.0000

> <Gold.Chemscore.Hbonds>
donor molecule, donor type, donor heavy atom, donor atom, acceptor molecule, acceptor atom, score
      L1  H     8    31       P1  8028  1.00
      L1  H    11    32       P1  8028  0.99

> <Gold.PLP.Chemscore.Internal.Correction>
0.3660

> <Gold.Rescore>
     Score         DG    S(hbond)    S(metal)    S(lipo)     H(rot)  DE(clash)    DE(int)     intcor
     17.45     -19.21       1.86        0.00      98.83       1.58       0.08       1.68       ----

> <Gold.Chemscore.Fitness>
17.4548

> <Gold.Chemscore.DG>
-19.2149

> <Gold.Chemscore.ZeroCoef>
-5.4800

> <Gold.Chemscore.Hbond>
1.8633

> <Gold.Chemscore.Metal>
0.0000

> <Gold.Chemscore.Lipo>
98.8286

> <Gold.Chemscore.Internal_Hbond>
0.0000

> <Gold.Chemscore.DEClash>
0.0791

> <Gold.Chemscore.DEInternal>
1.6809

> <Gold.Chemscore.Rot>
1.5826

> <Gold.Chemscore.Internal.Correction>
   9.000000E+99

> <Gold.Chemscore.Hbonds>
donor molecule, donor type, donor heavy atom, donor atom, acceptor molecule, acceptor atom, score
      L1  H     8    31       P1  8028  0.99
      L1  H    11    32       P1  8028  0.94

> <Gold.Chemscore.Hbond.Weighted>
-6.2234

> <Gold.Chemscore.Metal.Weighted>
-0.0000

> <Gold.Chemscore.Lipo.Weighted>
-11.5629

> <Gold.Chemscore.Internal_Hbond.Weighted>
0.0000

> <Gold.Chemscore.DEClash.Weighted>
0.0791

> <Gold.Chemscore.DEInternal.Weighted>
1.6809

> <Gold.Chemscore.Rot.Weighted>
4.0515

> <Gold.Chemscore.Internal.Correction.Weighted>
   9.000000E+99

> <Gold.Protein.RotatedTorsions>
[ 6907 6896 6895 6894 ] final  -49.87 input  -60.11 | X-H torsion
[ 7974 7965 7964 7962 ] final  -72.37 input  175.53 | X-H torsion
[ 8008 7997 7996 7995 ] final  -35.26 input   59.86 | X-H torsion
[ 10167 10162 10161 10158 ] final -174.40 input  -65.29 | X-H torsion
[ 10718 10713 10712 10709 ] final -121.54 input   66.30 | X-H torsion
[ 10763 10752 10751 10750 ] final -153.91 input  -60.55 | X-H torsion
[ 11005 11000 10999 10996 ] final  179.70 input  -57.11 | X-H torsion

> <Gold.Protein.ActiveResidues>
 VAL166  LYS551  ARG553  GLY616  TRP617  ASP618  TYR619  PRO620  LYS621  CYS622 
 ASP623  PHE694  ASN695  SER759  ASP760  ASP761  ALA762  ILE779  LEU786  VAL792 
 PHE793  MET794  SER795  GLU796  ALA797  LYS798  CYS799  TRP800  GLU811  SER814 

> <Gold.Protein.RotatedAtoms>
  150.8762  134.8145  159.7191 H   0  0  0  0  0  0  0  0  0  0  0  0  # atno 6907 bound_to 6896
  152.4748  134.4868  159.9692 H   0  0  0  0  0  0  0  0  0  0  0  0  # atno 6908 bound_to 6896
  151.4949  133.3478  159.2895 H   0  0  0  0  0  0  0  0  0  0  0  0  # atno 6909 bound_to 6896
  145.6661  140.9237  143.0908 H   0  0  0  0  0  0  0  0  0  0  0  0  # atno 7974 bound_to 7965
  154.4100  140.1662  156.2182 H   0  0  0  0  0  0  0  0  0  0  0  0  # atno 8008 bound_to 7997
  155.9386  140.3409  155.6285 H   0  0  0  0  0  0  0  0  0  0  0  0  # atno 8009 bound_to 7997
  155.7017  140.0746  157.2398 H   0  0  0  0  0  0  0  0  0  0  0  0  # atno 8010 bound_to 7997
  139.5636  144.1810  152.1277 H   0  0  0  0  0  0  0  0  0  0  0  0  # atno 10167 bound_to 10162
  156.1345  130.6420  150.9674 H   0  0  0  0  0  0  0  0  0  0  0  0  # atno 10718 bound_to 10713
  154.7895  135.3202  154.7810 H   0  0  0  0  0  0  0  0  0  0  0  0  # atno 10763 bound_to 10752
  153.8502  135.6863  153.4797 H   0  0  0  0  0  0  0  0  0  0  0  0  # atno 10764 bound_to 10752
  153.1559  135.4680  154.9644 H   0  0  0  0  0  0  0  0  0  0  0  0  # atno 10765 bound_to 10752
  140.4090  134.6709  157.4604 H   0  0  0  0  0  0  0  0  0  0  0  0  # atno 11005 bound_to 11000
  144.7073  139.8511  143.7426 LP  0  0  0  0  0  0  0  0  0  0  0  0  # atno 17320 bound_to 7965
  146.1085  139.4087  143.0302 LP  0  0  0  0  0  0  0  0  0  0  0  0  # atno 17321 bound_to 7965
  140.1329  144.5272  150.6791 LP  0  0  0  0  0  0  0  0  0  0  0  0  # atno 17342 bound_to 10162
  140.6918  143.2380  151.5111 LP  0  0  0  0  0  0  0  0  0  0  0  0  # atno 17343 bound_to 10162
  157.6519  131.0895  150.8031 LP  0  0  0  0  0  0  0  0  0  0  0  0  # atno 17370 bound_to 10713
  156.8113  130.4953  149.5355 LP  0  0  0  0  0  0  0  0  0  0  0  0  # atno 17371 bound_to 10713
  140.0281  134.6447  155.9145 LP  0  0  0  0  0  0  0  0  0  0  0  0  # atno 17394 bound_to 11000
  141.1828  133.6549  156.5091 LP  0  0  0  0  0  0  0  0  0  0  0  0  # atno 17395 bound_to 11000

$$$$
