#       Name:                AV-unprocessed.smi:1992
#       Creating user name   scv26
#       Creation time:       Fri Mar 27 10:27:46 2020


#       File generated by GOLD software.
#

@<TRIPOS>MOLECULE
AV-unprocessed.smi:1992
    51    52     1
SMALL
NO_CHARGES


@<TRIPOS>ATOM
      1 ****        -5.8607   4.9965   0.7248 C.3            1 S1                 0.0000
      2 ****        -6.0463   3.5858   0.7665 O.3            1 S1                 0.0000
      3 ****        -4.9295   2.7810   0.8611 C.ar           1 S1                 0.0000
      4 ****        -5.1069   1.3841   0.9074 C.ar           1 S1                 0.0000
      5 ****        -3.9707   0.5595   1.0060 C.ar           1 S1                 0.0000
      6 ****        -2.6920   1.1508   1.0442 C.ar           1 S1                 0.0000
      7 ****        -1.5645   0.2946   1.1634 N.am           1 S1                 0.0000
      8 ****        -0.2839   0.5521   0.8477 C.2            1 S1                 0.0000
      9 ****         0.1325   1.6021   0.3601 O.2            1 S1                 0.0000
     10 ****         0.4992  -0.5038   1.1090 N.am           1 S1                 0.0000
     11 ****         1.9423  -0.5696   0.8792 C.3            1 S1                 0.0000
     12 ****         2.3284  -1.3127  -0.4393 C.3            1 S1                 0.0000
     13 ****         1.5579  -2.6053  -0.5292 N.4            1 S1                 1.0000
     14 ****         1.9739  -3.6327   0.4596 C.3            1 S1                 0.0000
     15 ****         1.4174  -3.2049  -1.8803 C.3            1 S1                 0.0000
     16 ****         2.1241  -0.3689  -1.6531 C.3            1 S1                 0.0000
     17 ****         3.3156   0.5943  -1.6331 C.3            1 S1                 0.0000
     18 ****         4.4521  -0.1707  -0.9409 C.3            1 S1                 0.0000
     19 ****         3.8577  -1.5156  -0.4969 C.3            1 S1                 0.0000
     20 ****        -2.6187   2.5648   1.0028 C.ar           1 S1                 0.0000
     21 ****        -3.7050   3.3611   0.9113 N.ar           1 S1                 0.0000
     22 ****        -6.8318   5.4862   0.6535 H              1 S1                 0.0000
     23 ****        -5.2747   5.2961  -0.1454 H              1 S1                 0.0000
     24 ****        -5.3719   5.3617   1.6293 H              1 S1                 0.0000
     25 ****        -6.0966   0.9534   0.8706 H              1 S1                 0.0000
     26 ****        -4.0833  -0.5140   1.0476 H              1 S1                 0.0000
     27 ****        -1.7670  -0.6427   1.4786 H              1 S1                 0.0000
     28 ****         0.0676  -1.3173   1.5227 H              1 S1                 0.0000
     29 ****         2.3774   0.4297   0.9200 H              1 S1                 0.0000
     30 ****         2.3716  -1.0819   1.7396 H              1 S1                 0.0000
     31 ****         2.9698  -4.0179   0.2389 H              1 S1                 0.0000
     32 ****         1.2829  -4.4762   0.4454 H              1 S1                 0.0000
     33 ****         1.9734  -3.2474   1.4779 H              1 S1                 0.0000
     34 ****         2.3865  -3.3695  -2.3518 H              1 S1                 0.0000
     35 ****         0.8063  -2.5792  -2.5304 H              1 S1                 0.0000
     36 ****         0.9085  -4.1678  -1.8248 H              1 S1                 0.0000
     37 ****         2.1942  -0.8992  -2.6012 H              1 S1                 0.0000
     38 ****         1.1652   0.1475  -1.6533 H              1 S1                 0.0000
     39 ****         3.5911   0.9151  -2.6383 H              1 S1                 0.0000
     40 ****         3.0677   1.4919  -1.0652 H              1 S1                 0.0000
     41 ****         5.3045  -0.3182  -1.6050 H              1 S1                 0.0000
     42 ****         4.8075   0.3941  -0.0782 H              1 S1                 0.0000
     43 ****         4.2812  -1.8539   0.4494 H              1 S1                 0.0000
     44 ****         4.1119  -2.2675  -1.2448 H              1 S1                 0.0000
     45 ****        -1.6792   3.0912   1.0650 H              1 S1                 0.0000
     46 ****         0.6143  -2.3552  -0.2704 H              1 S1                 0.0000
     47 ****        -6.5284   3.3258  -0.0702 LP             1 S1                 0.0000
     48 ****        -6.6227   3.3864   1.5590 LP             1 S1                 0.0000
     49 ****        -0.5024   2.3503   0.1677 LP             1 S1                 0.0000
     50 ****         1.1058   1.7073   0.1562 LP             1 S1                 0.0000
     51 ****        -3.6088   4.3560   0.8812 LP             1 S1                 0.0000
@<TRIPOS>BOND
    1    1    2 1     
    2    1   22 1     
    3    1   23 1     
    4    1   24 1     
    5    2    3 1     
    6    3   21 ar    
    7    3    4 ar    
    8    4    5 ar    
    9    4   25 1     
   10    5    6 ar    
   11    5   26 1     
   12    6    7 1     
   13    6   20 ar    
   14    7    8 am    
   15    7   27 1     
   16    8    9 2     
   17    8   10 am    
   18   10   11 1     
   19   10   28 1     
   20   11   12 1     
   21   11   29 1     
   22   11   30 1     
   23   12   19 1     
   24   12   13 1     
   25   12   16 1     
   26   13   14 1     
   27   13   15 1     
   28   13   46 1     
   29   14   31 1     
   30   14   32 1     
   31   14   33 1     
   32   15   34 1     
   33   15   35 1     
   34   15   36 1     
   35   16   17 1     
   36   16   37 1     
   37   16   38 1     
   38   17   18 1     
   39   17   39 1     
   40   17   40 1     
   41   18   19 1     
   42   18   41 1     
   43   18   42 1     
   44   19   43 1     
   45   19   44 1     
   46   20   21 ar    
   47   20   45 1     
   48    2   47 1     
   49    2   48 1     
   50    9   49 1     
   51    9   50 1     
   52   21   51 1     
@<TRIPOS>SUBSTRUCTURE
      1 S1             1
@<TRIPOS>SET
LONE_PAIRS      STATIC     ATOMS    <user>   **** ""
5 47 48 49 50 51
DONOR_HYDROGENS      STATIC     ATOMS    <user>   **** ""
3 27 28 46
ATOM$BLUE        STATIC     ATOMS    COLORGROUP SYSTEM
5 47 48 49 50 51
ATOM$RED        STATIC     ATOMS    COLORGROUP SYSTEM
3 27 28 46
