AV-unprocessed.smi:203|AV-procd|sdf|1583|dock3
  -GOLD-   2262019473D 1   1.00000     0.00000
 Structure written by MMmdl.
 57 61  0  0  0  0  0  0  0  0  1 V2000
  144.9008  131.8089  149.9352 O   0  0  0  0  0  0  0  0  0  0  0  0
  145.1367  132.7718  150.6610 C   0  0  0  0  0  0  0  0  0  0  0  0
  145.1878  132.6865  152.1767 C   0  0  0  0  0  0  0  0  0  0  0  0
  145.2750  134.1597  152.6219 C   0  0  2  0  0  0  0  0  0  0  0  0
  143.9985  134.6751  153.3597 C   0  0  2  0  0  0  0  0  0  0  0  0
  142.7064  134.5006  152.5179 C   0  0  0  0  0  0  0  0  0  0  0  0
  141.4673  135.0121  153.2646 C   0  0  0  0  0  0  0  0  0  0  0  0
  141.6751  136.4715  153.6820 C   0  0  0  0  0  0  0  0  0  0  0  0
  142.9540  136.6099  154.5181 C   0  0  0  0  0  0  0  0  0  0  0  0
  144.1155  136.0745  153.8085 N   0  0  0  0  0  0  0  0  0  0  0  0
  145.2522  136.4052  154.4607 C   0  0  0  0  0  0  0  0  0  0  0  0
  145.4596  135.8328  155.6718 N   0  0  0  0  0  0  0  0  0  0  0  0
  146.5647  136.1226  156.3653 C   0  0  0  0  0  0  0  0  0  0  0  0
  147.5698  136.9362  156.0338 N   0  0  0  0  0  0  0  0  0  0  0  0
  147.3661  137.5049  154.8109 C   0  0  0  0  0  0  0  0  0  0  0  0
  146.2418  137.2992  153.9637 C   0  0  0  0  0  0  0  0  0  0  0  0
  146.3785  138.0488  152.8018 N   0  0  0  0  0  0  0  0  0  0  0  0
  147.5206  138.6614  152.9523 C   0  0  0  0  0  0  0  0  0  0  0  0
  148.1900  138.3769  154.1215 N   0  0  0  0  0  0  0  0  0  0  0  0
  149.4785  138.9037  154.5363 C   0  0  0  0  0  0  0  0  0  0  0  0
  149.4614  140.4229  154.8251 C   0  0  2  0  0  0  0  0  0  0  0  0
  149.4663  141.1136  153.5928 O   0  0  0  0  0  0  0  0  0  0  0  0
  150.5968  140.9839  155.7144 C   0  0  2  0  0  0  0  0  0  0  0  0
  150.7747  140.3413  157.0919 C   0  0  0  0  0  0  0  0  0  0  0  0
  151.5331  141.4237  157.8268 C   0  0  0  0  0  0  0  0  0  0  0  0
  150.8876  142.6949  157.2794 C   0  0  0  0  0  0  0  0  0  0  0  0
  150.4438  142.3790  155.9621 O   0  0  0  0  0  0  0  0  0  0  0  0
  145.6176  134.9456  151.3360 C   0  0  0  0  0  0  0  0  0  0  0  0
  145.3845  134.0136  150.2501 N   0  0  0  0  0  0  0  0  0  0  0  0
  144.3229  132.1607  152.5813 H   0  0  0  0  0  0  0  0  0  0  0  0
  146.0818  132.1348  152.4692 H   0  0  0  0  0  0  0  0  0  0  0  0
  146.1264  134.2260  153.2997 H   0  0  0  0  0  0  0  0  0  0  0  0
  143.8751  134.0654  154.2553 H   0  0  0  0  0  0  0  0  0  0  0  0
  142.7928  135.0394  151.5741 H   0  0  0  0  0  0  0  0  0  0  0  0
  142.5502  133.4545  152.2573 H   0  0  0  0  0  0  0  0  0  0  0  0
  140.5833  134.9232  152.6326 H   0  0  0  0  0  0  0  0  0  0  0  0
  141.2867  134.3961  154.1463 H   0  0  0  0  0  0  0  0  0  0  0  0
  141.7455  137.1029  152.7952 H   0  0  0  0  0  0  0  0  0  0  0  0
  140.8156  136.8263  154.2512 H   0  0  0  0  0  0  0  0  0  0  0  0
  143.1165  137.6614  154.7605 H   0  0  0  0  0  0  0  0  0  0  0  0
  142.8326  136.0814  155.4649 H   0  0  0  0  0  0  0  0  0  0  0  0
  146.6582  135.6306  157.3222 H   0  0  0  0  0  0  0  0  0  0  0  0
  147.9139  139.3311  152.2015 H   0  0  0  0  0  0  0  0  0  0  0  0
  149.8083  138.3521  155.4175 H   0  0  0  0  0  0  0  0  0  0  0  0
  150.2017  138.6823  153.7505 H   0  0  0  0  0  0  0  0  0  0  0  0
  148.5146  140.6705  155.3062 H   0  0  0  0  0  0  0  0  0  0  0  0
  149.4376  140.4791  152.8933 H   0  0  0  0  0  0  0  0  0  0  0  0
  151.5402  140.8892  155.1732 H   0  0  0  0  0  0  0  0  0  0  0  0
  149.8187  140.1688  157.5842 H   0  0  0  0  0  0  0  0  0  0  0  0
  151.3138  139.3944  157.0524 H   0  0  0  0  0  0  0  0  0  0  0  0
  151.4584  141.3409  158.9113 H   0  0  0  0  0  0  0  0  0  0  0  0
  152.5886  141.3912  157.5534 H   0  0  0  0  0  0  0  0  0  0  0  0
  150.0202  142.9715  157.8795 H   0  0  0  0  0  0  0  0  0  0  0  0
  151.5761  143.5402  157.2744 H   0  0  0  0  0  0  0  0  0  0  0  0
  145.0214  135.8495  151.2102 H   0  0  0  0  0  0  0  0  0  0  0  0
  146.6674  135.2409  151.3304 H   0  0  0  0  0  0  0  0  0  0  0  0
  145.4018  134.2946  149.2803 H   0  0  0  0  0  0  0  0  0  0  0  0
  1  2  2  0  0  0  0
  2 29  1  0  0  0  0
  2  3  1  0  0  0  0
  3  4  1  0  0  0  0
  3 30  1  0  0  0  0
  3 31  1  0  0  0  0
  4  5  1  0  0  0  0
  4 28  1  0  0  0  0
  4 32  1  0  0  0  0
  5 10  1  0  0  0  0
  5  6  1  0  0  0  0
  5 33  1  0  0  0  0
  6  7  1  0  0  0  0
  6 34  1  0  0  0  0
  6 35  1  0  0  0  0
  7  8  1  0  0  0  0
  7 36  1  0  0  0  0
  7 37  1  0  0  0  0
  8  9  1  0  0  0  0
  8 38  1  0  0  0  0
  8 39  1  0  0  0  0
  9 10  1  0  0  0  0
  9 40  1  0  0  0  0
  9 41  1  0  0  0  0
 10 11  1  0  0  0  0
 11 16  1  0  0  0  0
 11 12  2  0  0  0  0
 12 13  1  0  0  0  0
 13 14  2  0  0  0  0
 13 42  1  0  0  0  0
 14 15  1  0  0  0  0
 15 19  1  0  0  0  0
 15 16  2  0  0  0  0
 16 17  1  0  0  0  0
 17 18  2  0  0  0  0
 18 19  1  0  0  0  0
 18 43  1  0  0  0  0
 19 20  1  0  0  0  0
 20 21  1  0  0  0  0
 20 44  1  0  0  0  0
 20 45  1  0  0  0  0
 21 22  1  0  0  0  0
 21 23  1  0  0  0  0
 21 46  1  0  0  0  0
 22 47  1  0  0  0  0
 23 27  1  0  0  0  0
 23 24  1  0  0  0  0
 23 48  1  0  0  0  0
 24 25  1  0  0  0  0
 24 49  1  0  0  0  0
 24 50  1  0  0  0  0
 25 26  1  0  0  0  0
 25 51  1  0  0  0  0
 25 52  1  0  0  0  0
 26 27  1  0  0  0  0
 26 53  1  0  0  0  0
 26 54  1  0  0  0  0
 28 29  1  0  0  0  0
 28 55  1  0  0  0  0
 28 56  1  0  0  0  0
 29 57  1  0  0  0  0
M  END
> <s_m_source_file>
AV-unprocessed.smi

> <i_m_source_file_index>
203

> <i_lp_mmshare_version>
43012

> <i_f3d_flags>
0

> <s_epik_input>
Tz1DMVtDSDJdW0NASF0oW0NIMl1bTkhdMSlbQ0BASF0yW0NIMl1bQ0gyXVtDSDJdW0NIMl1OMmMobltjSF1uMyljKGMzNCluW2NIXW40W0NIMl1bQ0BIXShbT0hdKVtDQEBIXTVbQ0gyXVtDSDJdW0NIMl1PNQ==

> <s_epik_cmdline>
J2VwaWtfcHl0aG9uJywgJy1waCcsICc3LjAnLCAnLXRuJywgJzgnLCAnLW1hJywgJzIwMCcsICctbWV0YWxfYmluZGluZycsICctaW1hZScsICc8aW5maWxlLm1hZT4nLCAnLW9tYWUnLCAnPG91dGZpbGUubWFlPic=

> <r_lp_tautomer_probability>
1

> <r_epik_Ionization_Penalty>
0.00175146

> <r_epik_Ionization_Penalty_Charging>
0

> <r_epik_Ionization_Penalty_Neutral>
0.00175146

> <r_epik_State_Penalty>
0.00109045

> <r_epik_Charging_Adjusted_Penalty>
0.00109045

> <i_epik_Tot_Q>
0

> <i_epik_Tot_abs_Q>
0

> <r_epik_Metal_State_Penalty>
-0

> <b_epik_Metal_Only>
0

> <s_lp_Force_Field>
OPLS_2005

> <r_lp_Energy>
56.3505

> <b_lp_Chiralities_Consistent>
1

> <s_lp_Variant>
AV-unprocessed.smi:203-2

> <Gold.Version>
5.8.1

> <Gold.Id.Protein>
6NUR|6NUR_protein|mol2

> <Gold.PLP.Fitness>
46.9918

> <Gold.PLP.PLP>
-38.4220

> <Gold.PLP.part.hbond>
-4.4588

> <Gold.PLP.part.metal>
0.0000

> <Gold.PLP.part.buried>
-3.5200

> <Gold.PLP.part.nonpolar>
-30.8395

> <Gold.PLP.part.repulsive>
1.4174

> <Gold.PLP.ligand.clash>
0.0000

> <Gold.PLP.ligand.torsion>
0.3355

> <Gold.PLP.Chemscore.Hbond>
1.9846

> <Gold.PLP.Chemscore.CHOScore>
1.0000

> <Gold.PLP.Chemscore.Metal>
0.0000

> <Gold.Chemscore.Hbonds>
donor molecule, donor type, donor heavy atom, donor atom, acceptor molecule, acceptor atom, score
      L1  H    22    47       P1  7957  1.00
      L1  H    29    57       P1  7921  1.00
      P1  H  7989  7998       L1    22  0.03
      P1  H  8011  8017       L1    22  0.40
      L1  C    18    43       P1  7957  1.00

> <Gold.PLP.Chemscore.Internal.Correction>
0.2871

> <Gold.Rescore>
     Score         DG    S(hbond)    S(metal)    S(lipo)     H(rot)  DE(clash)    DE(int)     intcor
     13.48     -14.56       1.99        0.00      80.13       2.72       0.57       0.51       ----

> <Gold.Chemscore.Fitness>
13.4793

> <Gold.Chemscore.DG>
-14.5608

> <Gold.Chemscore.ZeroCoef>
-5.4800

> <Gold.Chemscore.Hbond>
1.9943

> <Gold.Chemscore.Metal>
0.0000

> <Gold.Chemscore.Lipo>
80.1321

> <Gold.Chemscore.Internal_Hbond>
0.0000

> <Gold.Chemscore.DEClash>
0.5740

> <Gold.Chemscore.DEInternal>
0.5074

> <Gold.Chemscore.Rot>
2.7171

> <Gold.Chemscore.Internal.Correction>
   9.000000E+99

> <Gold.Chemscore.Hbonds>
donor molecule, donor type, donor heavy atom, donor atom, acceptor molecule, acceptor atom, score
      L1  H    22    47       P1  7957  0.95
      L1  H    29    57       P1  7921  0.94
      P1  H  8011  8017       L1    22  0.01

> <Gold.Chemscore.Hbond.Weighted>
-6.6610

> <Gold.Chemscore.Metal.Weighted>
-0.0000

> <Gold.Chemscore.Lipo.Weighted>
-9.3755

> <Gold.Chemscore.Internal_Hbond.Weighted>
0.0000

> <Gold.Chemscore.DEClash.Weighted>
0.5740

> <Gold.Chemscore.DEInternal.Weighted>
0.5074

> <Gold.Chemscore.Rot.Weighted>
6.9557

> <Gold.Chemscore.Internal.Correction.Weighted>
   9.000000E+99

> <Gold.Protein.RotatedTorsions>
[ 6907 6896 6895 6894 ] final  -13.80 input  -60.11 | X-H torsion
[ 7974 7965 7964 7962 ] final -150.76 input  175.53 | X-H torsion
[ 8008 7997 7996 7995 ] final  -22.39 input   59.86 | X-H torsion
[ 10167 10162 10161 10158 ] final   12.86 input  -65.29 | X-H torsion
[ 10718 10713 10712 10709 ] final -168.28 input   66.30 | X-H torsion
[ 10763 10752 10751 10750 ] final  175.29 input  -60.55 | X-H torsion
[ 11005 11000 10999 10996 ] final -122.09 input  -57.11 | X-H torsion

> <Gold.Protein.ActiveResidues>
 VAL166  LYS551  ARG553  GLY616  TRP617  ASP618  TYR619  PRO620  LYS621  CYS622 
 ASP623  PHE694  ASN695  SER759  ASP760  ASP761  ALA762  ILE779  LEU786  VAL792 
 PHE793  MET794  SER795  GLU796  ALA797  LYS798  CYS799  TRP800  GLU811  SER814 

> <Gold.Protein.RotatedAtoms>
  151.3493  135.0881  159.9397 H   0  0  0  0  0  0  0  0  0  0  0  0  # atno 6907 bound_to 6896
  152.5191  133.9368  159.7617 H   0  0  0  0  0  0  0  0  0  0  0  0  # atno 6908 bound_to 6896
  150.9741  133.6260  159.2763 H   0  0  0  0  0  0  0  0  0  0  0  0  # atno 6909 bound_to 6896
  144.7889  140.4889  143.5787 H   0  0  0  0  0  0  0  0  0  0  0  0  # atno 7974 bound_to 7965
  154.4647  140.2009  156.0149 H   0  0  0  0  0  0  0  0  0  0  0  0  # atno 8008 bound_to 7997
  156.0905  140.3258  155.7781 H   0  0  0  0  0  0  0  0  0  0  0  0  # atno 8009 bound_to 7997
  155.4964  140.0550  157.2937 H   0  0  0  0  0  0  0  0  0  0  0  0  # atno 8010 bound_to 7997
  140.6041  143.8545  150.6995 H   0  0  0  0  0  0  0  0  0  0  0  0  # atno 10167 bound_to 10162
  156.6946  130.9173  151.3073 H   0  0  0  0  0  0  0  0  0  0  0  0  # atno 10718 bound_to 10713
  154.4656  135.2769  155.1681 H   0  0  0  0  0  0  0  0  0  0  0  0  # atno 10763 bound_to 10752
  154.3451  135.6162  153.5618 H   0  0  0  0  0  0  0  0  0  0  0  0  # atno 10764 bound_to 10752
  152.9859  135.5798  154.5027 H   0  0  0  0  0  0  0  0  0  0  0  0  # atno 10765 bound_to 10752
  141.0021  134.0388  157.3524 H   0  0  0  0  0  0  0  0  0  0  0  0  # atno 11005 bound_to 11000
  145.5847  139.1491  143.3215 LP  0  0  0  0  0  0  0  0  0  0  0  0  # atno 17320 bound_to 7965
  146.2133  140.5976  142.9050 LP  0  0  0  0  0  0  0  0  0  0  0  0  # atno 17321 bound_to 7965
  140.2098  143.3893  152.1727 LP  0  0  0  0  0  0  0  0  0  0  0  0  # atno 17342 bound_to 10162
  139.5312  144.7160  151.5050 LP  0  0  0  0  0  0  0  0  0  0  0  0  # atno 17343 bound_to 10162
  157.6996  130.9318  150.0745 LP  0  0  0  0  0  0  0  0  0  0  0  0  # atno 17370 bound_to 10713
  156.1772  130.3648  149.9084 LP  0  0  0  0  0  0  0  0  0  0  0  0  # atno 17371 bound_to 10713
  139.9044  135.0175  156.7419 LP  0  0  0  0  0  0  0  0  0  0  0  0  # atno 17394 bound_to 11000
  140.6872  133.9422  155.7945 LP  0  0  0  0  0  0  0  0  0  0  0  0  # atno 17395 bound_to 11000

$$$$
