AV-unprocessed.smi:2455|AV-procd|sdf|9699|dock1
  -GOLD-   2272013333D 1   1.00000     0.00000
 Structure written by MMmdl.
 36 36  0  0  0  0  0  0  0  0  2 V2000
  145.8875  134.7891  158.2197 C   0  0  0  0  0  0  0  0  0  0  0  0
  146.0506  135.8697  159.3055 C   0  0  0  0  0  0  0  0  0  0  0  0
  147.1879  135.6366  160.3500 C   0  0  0  0  0  0  0  0  0  0  0  0
  146.8718  134.3052  161.0993 C   0  0  0  0  0  0  0  0  0  0  0  0
  147.5347  134.1102  162.4771 C   0  0  0  0  0  0  0  0  0  0  0  0
  148.5827  135.5681  159.6475 C   0  0  0  0  0  0  0  0  0  0  0  0
  148.8890  136.7577  158.8546 N   0  0  0  0  0  0  0  0  0  0  0  0
  150.0922  137.0940  158.3653 C   0  0  0  0  0  0  0  0  0  0  0  0
  151.1116  136.4262  158.5355 O   0  0  0  0  0  0  0  0  0  0  0  0
  150.1561  138.3913  157.5584 C   0  0  0  0  0  0  0  0  0  0  0  0
  150.5921  138.1392  156.1960 N   0  0  0  0  0  0  0  0  0  0  0  0
  151.4436  138.8923  155.4136 C   0  0  0  0  0  0  0  0  0  0  0  0
  151.5532  138.2617  154.2074 C   0  0  0  0  0  0  0  0  0  0  0  0
  150.7176  137.1185  154.3471 C   0  0  0  0  0  0  0  0  0  0  0  0
  150.1418  137.0496  155.5364 N   0  0  0  0  0  0  0  0  0  0  0  0
  147.1577  136.8022  161.3772 C   0  0  0  0  0  0  0  0  0  0  0  0
  148.0160  136.8246  162.2881 O   0  0  0  0  0  0  0  0  0  0  0  0
  146.2598  137.6632  161.2387 O   0  5  0  0  0  0  0  0  0  0  0  0
  145.0885  135.0616  157.5301 H   0  0  0  0  0  0  0  0  0  0  0  0
  145.6263  133.8223  158.6488 H   0  0  0  0  0  0  0  0  0  0  0  0
  146.7950  134.6624  157.6295 H   0  0  0  0  0  0  0  0  0  0  0  0
  146.2042  136.8268  158.8045 H   0  0  0  0  0  0  0  0  0  0  0  0
  145.0966  135.9822  159.8214 H   0  0  0  0  0  0  0  0  0  0  0  0
  145.7931  134.2126  161.2351 H   0  0  0  0  0  0  0  0  0  0  0  0
  147.1451  133.4602  160.4673 H   0  0  0  0  0  0  0  0  0  0  0  0
  147.2529  133.1458  162.8994 H   0  0  0  0  0  0  0  0  0  0  0  0
  147.2273  134.8746  163.1904 H   0  0  0  0  0  0  0  0  0  0  0  0
  148.6215  134.1277  162.4146 H   0  0  0  0  0  0  0  0  0  0  0  0
  149.3769  135.4864  160.3903 H   0  0  0  0  0  0  0  0  0  0  0  0
  148.6745  134.6664  159.0406 H   0  0  0  0  0  0  0  0  0  0  0  0
  148.1140  137.3735  158.6571 H   0  0  0  0  0  0  0  0  0  0  0  0
  149.1721  138.8629  157.5490 H   0  0  0  0  0  0  0  0  0  0  0  0
  150.8456  139.0994  158.0205 H   0  0  0  0  0  0  0  0  0  0  0  0
  151.8980  139.8018  155.7780 H   0  0  0  0  0  0  0  0  0  0  0  0
  152.1405  138.5697  153.3551 H   0  0  0  0  0  0  0  0  0  0  0  0
  150.5128  136.3428  153.6239 H   0  0  0  0  0  0  0  0  0  0  0  0
  1  2  1  0  0  0  0
  1 19  1  0  0  0  0
  1 20  1  0  0  0  0
  1 21  1  0  0  0  0
  2  3  1  0  0  0  0
  2 22  1  0  0  0  0
  2 23  1  0  0  0  0
  3  4  1  0  0  0  0
  3  6  1  0  0  0  0
  3 16  1  0  0  0  0
  4  5  1  0  0  0  0
  4 24  1  0  0  0  0
  4 25  1  0  0  0  0
  5 26  1  0  0  0  0
  5 27  1  0  0  0  0
  5 28  1  0  0  0  0
  6  7  1  0  0  0  0
  6 29  1  0  0  0  0
  6 30  1  0  0  0  0
  7  8  1  0  0  0  0
  7 31  1  0  0  0  0
  8  9  2  0  0  0  0
  8 10  1  0  0  0  0
 10 11  1  0  0  0  0
 10 32  1  0  0  0  0
 10 33  1  0  0  0  0
 11 15  1  0  0  0  0
 11 12  1  0  0  0  0
 12 13  2  0  0  0  0
 12 34  1  0  0  0  0
 13 14  1  0  0  0  0
 13 35  1  0  0  0  0
 14 15  2  0  0  0  0
 14 36  1  0  0  0  0
 16 17  2  0  0  0  0
 16 18  1  0  0  0  0
M  CHG  1  18  -1
M  END
> <s_m_source_file>
AV-unprocessed.smi

> <i_m_source_file_index>
2455

> <i_lp_mmshare_version>
43012

> <i_f3d_flags>
0

> <s_epik_input>
W0NIM11bQ0gyXUMoW0NIMl1bQ0gzXSkoQyg9TylbT0hdKVtDSDJdW05IXUMoPU8pW0NIMl1uMVtjSF1bY0hdW2NIXW4x

> <s_epik_cmdline>
J2VwaWtfcHl0aG9uJywgJy1waCcsICc3LjAnLCAnLXRuJywgJzgnLCAnLW1hJywgJzIwMCcsICctbWV0YWxfYmluZGluZycsICctaW1hZScsICc8aW5maWxlLm1hZT4nLCAnLW9tYWUnLCAnPG91dGZpbGUubWFlPic=

> <r_lp_tautomer_probability>
1

> <r_epik_Ionization_Penalty>
0.00236672

> <r_epik_Ionization_Penalty_Charging>
0.00235221

> <r_epik_Ionization_Penalty_Neutral>
1.45156e-05

> <r_epik_State_Penalty>
0.00162453

> <r_epik_Charging_Adjusted_Penalty>
0.00397673

> <i_epik_Tot_Q>
-1

> <i_epik_Tot_abs_Q>
1

> <r_epik_Metal_State_Penalty>
-0

> <b_epik_Metal_Only>
0

> <s_lp_Force_Field>
OPLS_2005

> <r_lp_Energy>
9.36787

> <b_lp_Chiralities_Consistent>
1

> <s_lp_Variant>
AV-unprocessed.smi:2455-1

> <Gold.Version>
5.8.1

> <Gold.Id.Protein>
6NUR|6NUR_protein|mol2

> <Gold.PLP.Fitness>
43.4271

> <Gold.PLP.PLP>
-26.7659

> <Gold.PLP.part.hbond>
-3.0000

> <Gold.PLP.part.metal>
0.0000

> <Gold.PLP.part.buried>
-3.1777

> <Gold.PLP.part.nonpolar>
-20.3729

> <Gold.PLP.part.repulsive>
0.2343

> <Gold.PLP.ligand.clash>
0.0000

> <Gold.PLP.ligand.torsion>
0.6971

> <Gold.PLP.Chemscore.Hbond>
4.9120

> <Gold.PLP.Chemscore.CHOScore>
1.0290

> <Gold.PLP.Chemscore.Metal>
0.0000

> <Gold.Chemscore.Hbonds>
donor molecule, donor type, donor heavy atom, donor atom, acceptor molecule, acceptor atom, score
      P1  H  6896  6909       L1     9  0.72
      P1  H  6931  6943       L1    17  2.00
      P1  H  6934  6947       L1    18  2.00
      L1  C    14    36       P1  7948  0.27
      L1  C    14    36       P1  7949  0.38

> <Gold.PLP.Chemscore.Internal.Correction>
0.2323

> <Gold.Rescore>
     Score         DG    S(hbond)    S(metal)    S(lipo)     H(rot)  DE(clash)    DE(int)     intcor
      9.85     -11.18       1.93        0.00      51.18       2.63       0.01       1.33       ----

> <Gold.Chemscore.Fitness>
9.8488

> <Gold.Chemscore.DG>
-11.1803

> <Gold.Chemscore.ZeroCoef>
-5.4800

> <Gold.Chemscore.Hbond>
1.9310

> <Gold.Chemscore.Metal>
0.0000

> <Gold.Chemscore.Lipo>
51.1777

> <Gold.Chemscore.Internal_Hbond>
0.0000

> <Gold.Chemscore.DEClash>
0.0057

> <Gold.Chemscore.DEInternal>
1.3258

> <Gold.Chemscore.Rot>
2.6316

> <Gold.Chemscore.Internal.Correction>
   9.000000E+99

> <Gold.Chemscore.Hbonds>
donor molecule, donor type, donor heavy atom, donor atom, acceptor molecule, acceptor atom, score
      P1  H  6896  6909       L1     9  0.72
      P1  H  6931  6943       L1    17  0.50
      P1  H  6934  6947       L1    18  0.34

> <Gold.Chemscore.Hbond.Weighted>
-6.4495

> <Gold.Chemscore.Metal.Weighted>
-0.0000

> <Gold.Chemscore.Lipo.Weighted>
-5.9878

> <Gold.Chemscore.Internal_Hbond.Weighted>
0.0000

> <Gold.Chemscore.DEClash.Weighted>
0.0057

> <Gold.Chemscore.DEInternal.Weighted>
1.3258

> <Gold.Chemscore.Rot.Weighted>
6.7370

> <Gold.Chemscore.Internal.Correction.Weighted>
   9.000000E+99

> <Gold.Protein.RotatedTorsions>
[ 6907 6896 6895 6894 ] final  104.28 input  -60.11 | X-H torsion
[ 7974 7965 7964 7962 ] final  152.92 input  175.53 | X-H torsion
[ 8008 7997 7996 7995 ] final  -75.16 input   59.86 | X-H torsion
[ 10167 10162 10161 10158 ] final  -52.48 input  -65.29 | X-H torsion
[ 10718 10713 10712 10709 ] final  -30.55 input   66.30 | X-H torsion
[ 10763 10752 10751 10750 ] final  161.70 input  -60.55 | X-H torsion
[ 11005 11000 10999 10996 ] final  -24.31 input  -57.11 | X-H torsion

> <Gold.Protein.ActiveResidues>
 VAL166  LYS551  ARG553  GLY616  TRP617  ASP618  TYR619  PRO620  LYS621  CYS622 
 ASP623  PHE694  ASN695  SER759  ASP760  ASP761  ALA762  ILE779  LEU786  VAL792 
 PHE793  MET794  SER795  GLU796  ALA797  LYS798  CYS799  TRP800  GLU811  SER814 

> <Gold.Protein.RotatedAtoms>
  152.5269  133.9700  159.7756 H   0  0  0  0  0  0  0  0  0  0  0  0  # atno 6907 bound_to 6896
  150.9973  133.6082  159.2707 H   0  0  0  0  0  0  0  0  0  0  0  0  # atno 6908 bound_to 6896
  151.3204  135.0823  159.9357 H   0  0  0  0  0  0  0  0  0  0  0  0  # atno 6909 bound_to 6896
  144.8189  139.6732  143.6109 H   0  0  0  0  0  0  0  0  0  0  0  0  # atno 7974 bound_to 7965
  154.5393  140.0749  156.8482 H   0  0  0  0  0  0  0  0  0  0  0  0  # atno 8008 bound_to 7997
  155.3214  140.3396  155.4223 H   0  0  0  0  0  0  0  0  0  0  0  0  # atno 8009 bound_to 7997
  156.1858  140.1668  156.8173 H   0  0  0  0  0  0  0  0  0  0  0  0  # atno 8010 bound_to 7997
  140.6535  143.2582  151.4653 H   0  0  0  0  0  0  0  0  0  0  0  0  # atno 10167 bound_to 10162
  156.3984  130.4386  149.7341 H   0  0  0  0  0  0  0  0  0  0  0  0  # atno 10718 bound_to 10713
  154.2670  135.2767  155.2754 H   0  0  0  0  0  0  0  0  0  0  0  0  # atno 10763 bound_to 10752
  154.5335  135.5723  153.6782 H   0  0  0  0  0  0  0  0  0  0  0  0  # atno 10764 bound_to 10752
  152.9952  135.6233  154.2823 H   0  0  0  0  0  0  0  0  0  0  0  0  # atno 10765 bound_to 10752
  140.8833  133.7638  156.0329 H   0  0  0  0  0  0  0  0  0  0  0  0  # atno 11005 bound_to 11000
  146.2494  139.6167  142.9437 LP  0  0  0  0  0  0  0  0  0  0  0  0  # atno 17320 bound_to 7965
  145.5149  141.0434  143.2467 LP  0  0  0  0  0  0  0  0  0  0  0  0  # atno 17321 bound_to 7965
  139.5754  144.1831  152.1895 LP  0  0  0  0  0  0  0  0  0  0  0  0  # atno 17342 bound_to 10162
  140.1140  144.5432  150.6906 LP  0  0  0  0  0  0  0  0  0  0  0  0  # atno 17343 bound_to 10162
  156.4367  130.7841  151.2862 LP  0  0  0  0  0  0  0  0  0  0  0  0  # atno 17370 bound_to 10713
  157.7503  131.0137  150.3436 LP  0  0  0  0  0  0  0  0  0  0  0  0  # atno 17371 bound_to 10713
  140.8435  134.3039  157.5304 LP  0  0  0  0  0  0  0  0  0  0  0  0  # atno 17394 bound_to 11000
  139.8722  134.9429  156.3837 LP  0  0  0  0  0  0  0  0  0  0  0  0  # atno 17395 bound_to 11000

$$$$
