AV-unprocessed.smi:2178|AV-procd|sdf|8852|dock6
  -GOLD-   2272012 43D 1   1.00000     0.00000
 Structure written by MMmdl.
 46 48  0  0  0  0  0  0  0  0  1 V2000
  154.6867  135.8762  159.5886 C   0  0  0  0  0  0  0  0  0  0  0  0
  154.7241  135.4894  161.0557 C   0  0  0  0  0  0  0  0  0  0  0  0
  155.0249  134.1581  161.4103 C   0  0  0  0  0  0  0  0  0  0  0  0
  155.0466  133.7714  162.7629 C   0  0  0  0  0  0  0  0  0  0  0  0
  154.7623  134.7133  163.7686 C   0  0  0  0  0  0  0  0  0  0  0  0
  154.4630  136.0481  163.4264 C   0  0  0  0  0  0  0  0  0  0  0  0
  154.1506  137.0526  164.5198 C   0  0  0  0  0  0  0  0  0  0  0  0
  154.4577  136.4426  162.0682 C   0  0  0  0  0  0  0  0  0  0  0  0
  154.1661  137.7420  161.7422 O   0  0  0  0  0  0  0  0  0  0  0  0
  155.2294  138.4191  161.0881 C   0  0  0  0  0  0  0  0  0  0  0  0
  154.6721  139.6782  160.4077 C   0  0  2  0  0  0  0  0  0  0  0  0
  155.0276  140.8045  161.1859 O   0  0  0  0  0  0  0  0  0  0  0  0
  153.1376  139.6237  160.2665 C   0  0  0  0  0  0  0  0  0  0  0  0
  152.5998  140.7604  159.5307 N   0  0  0  0  0  0  0  0  0  0  0  0
  152.1741  140.7971  158.2426 C   0  0  0  0  0  0  0  0  0  0  0  0
  152.1971  139.5887  157.3576 C   0  0  0  0  0  0  0  0  0  0  0  0
  152.9008  139.8081  156.1540 O   0  0  0  0  0  0  0  0  0  0  0  0
  151.7256  141.9767  157.8125 N   0  0  0  0  0  0  0  0  0  0  0  0
  151.8709  142.7809  158.9259 C   0  0  0  0  0  0  0  0  0  0  0  0
  151.5711  144.1489  159.1147 C   0  0  0  0  0  0  0  0  0  0  0  0
  151.8075  144.7664  160.3605 C   0  0  0  0  0  0  0  0  0  0  0  0
  152.3453  144.0259  161.4330 C   0  0  0  0  0  0  0  0  0  0  0  0
  152.6505  142.6613  161.2664 C   0  0  0  0  0  0  0  0  0  0  0  0
  152.4137  142.0499  160.0205 C   0  0  0  0  0  0  0  0  0  0  0  0
  154.4273  135.0185  158.9673 H   0  0  0  0  0  0  0  0  0  0  0  0
  155.6623  136.2439  159.2705 H   0  0  0  0  0  0  0  0  0  0  0  0
  153.9470  136.6558  159.4041 H   0  0  0  0  0  0  0  0  0  0  0  0
  155.2371  133.4268  160.6442 H   0  0  0  0  0  0  0  0  0  0  0  0
  155.2755  132.7499  163.0291 H   0  0  0  0  0  0  0  0  0  0  0  0
  154.7737  134.4058  164.8042 H   0  0  0  0  0  0  0  0  0  0  0  0
  153.2515  137.6191  164.2756 H   0  0  0  0  0  0  0  0  0  0  0  0
  154.9778  137.7525  164.6383 H   0  0  0  0  0  0  0  0  0  0  0  0
  153.9851  136.5574  165.4772 H   0  0  0  0  0  0  0  0  0  0  0  0
  155.9641  138.7051  161.8425 H   0  0  0  0  0  0  0  0  0  0  0  0
  155.7463  137.7791  160.3715 H   0  0  0  0  0  0  0  0  0  0  0  0
  155.1199  139.7824  159.4191 H   0  0  0  0  0  0  0  0  0  0  0  0
  155.9593  140.7808  161.3417 H   0  0  0  0  0  0  0  0  0  0  0  0
  152.8358  138.7067  159.7602 H   0  0  0  0  0  0  0  0  0  0  0  0
  152.6671  139.5901  161.2500 H   0  0  0  0  0  0  0  0  0  0  0  0
  152.6682  138.7617  157.8904 H   0  0  0  0  0  0  0  0  0  0  0  0
  151.1793  139.2738  157.1297 H   0  0  0  0  0  0  0  0  0  0  0  0
  153.0497  138.9731  155.7376 H   0  0  0  0  0  0  0  0  0  0  0  0
  151.1583  144.7240  158.2991 H   0  0  0  0  0  0  0  0  0  0  0  0
  151.5752  145.8128  160.4933 H   0  0  0  0  0  0  0  0  0  0  0  0
  152.5239  144.5065  162.3837 H   0  0  0  0  0  0  0  0  0  0  0  0
  153.0638  142.0926  162.0859 H   0  0  0  0  0  0  0  0  0  0  0  0
  1  2  1  0  0  0  0
  1 25  1  0  0  0  0
  1 26  1  0  0  0  0
  1 27  1  0  0  0  0
  2  8  1  0  0  0  0
  2  3  2  0  0  0  0
  3  4  1  0  0  0  0
  3 28  1  0  0  0  0
  4  5  2  0  0  0  0
  4 29  1  0  0  0  0
  5  6  1  0  0  0  0
  5 30  1  0  0  0  0
  6  7  1  0  0  0  0
  6  8  2  0  0  0  0
  7 31  1  0  0  0  0
  7 32  1  0  0  0  0
  7 33  1  0  0  0  0
  8  9  1  0  0  0  0
  9 10  1  0  0  0  0
 10 11  1  0  0  0  0
 10 34  1  0  0  0  0
 10 35  1  0  0  0  0
 11 12  1  0  0  0  0
 11 13  1  0  0  0  0
 11 36  1  0  0  0  0
 12 37  1  0  0  0  0
 13 14  1  0  0  0  0
 13 38  1  0  0  0  0
 13 39  1  0  0  0  0
 14 24  1  0  0  0  0
 14 15  1  0  0  0  0
 15 16  1  0  0  0  0
 15 18  2  0  0  0  0
 16 17  1  0  0  0  0
 16 40  1  0  0  0  0
 16 41  1  0  0  0  0
 17 42  1  0  0  0  0
 18 19  1  0  0  0  0
 19 24  2  0  0  0  0
 19 20  1  0  0  0  0
 20 21  2  0  0  0  0
 20 43  1  0  0  0  0
 21 22  1  0  0  0  0
 21 44  1  0  0  0  0
 22 23  2  0  0  0  0
 22 45  1  0  0  0  0
 23 24  1  0  0  0  0
 23 46  1  0  0  0  0
M  END
> <s_m_source_file>
AV-unprocessed.smi

> <i_m_source_file_index>
2178

> <i_lp_mmshare_version>
43012

> <i_f3d_flags>
0

> <s_epik_input>
W0NIM11jMVtjSF1bY0hdW2NIXWMoW0NIM10pYzFPW0NIMl1bQ0BIXShbT0hdKVtDSDJdbihjKG4yKVtDSDJdW09IXSljKGMyMylbY0hdW2NIXVtjSF1bY0hdMw==

> <s_epik_cmdline>
J2VwaWtfcHl0aG9uJywgJy1waCcsICc3LjAnLCAnLXRuJywgJzgnLCAnLW1hJywgJzIwMCcsICctbWV0YWxfYmluZGluZycsICctaW1hZScsICc8aW5maWxlLm1hZT4nLCAnLW9tYWUnLCAnPG91dGZpbGUubWFlPic=

> <r_lp_tautomer_probability>
1

> <r_epik_Ionization_Penalty>
0.0555874

> <r_epik_Ionization_Penalty_Charging>
0

> <r_epik_Ionization_Penalty_Neutral>
0.0555874

> <r_epik_State_Penalty>
0.0478234

> <r_epik_Charging_Adjusted_Penalty>
0.0478234

> <i_epik_Tot_Q>
0

> <i_epik_Tot_abs_Q>
0

> <r_epik_Metal_State_Penalty>
4.98044e-05

> <b_epik_Metal_Only>
0

> <s_lp_Force_Field>
OPLS_2005

> <r_lp_Energy>
19.7692

> <b_lp_Chiralities_Consistent>
1

> <s_lp_Variant>
AV-unprocessed.smi:2178-1

> <Gold.Version>
5.8.1

> <Gold.Id.Protein>
6NUR|6NUR_protein|mol2

> <Gold.PLP.Fitness>
49.0917

> <Gold.PLP.PLP>
-47.8910

> <Gold.PLP.part.hbond>
-2.0000

> <Gold.PLP.part.metal>
0.0000

> <Gold.PLP.part.buried>
-5.8150

> <Gold.PLP.part.nonpolar>
-39.5269

> <Gold.PLP.part.repulsive>
0.0241

> <Gold.PLP.ligand.clash>
0.0000

> <Gold.PLP.ligand.torsion>
0.9628

> <Gold.PLP.Chemscore.Hbond>
1.0000

> <Gold.PLP.Chemscore.CHOScore>
0.0000

> <Gold.PLP.Chemscore.Metal>
0.0000

> <Gold.Chemscore.Hbonds>
donor molecule, donor type, donor heavy atom, donor atom, acceptor molecule, acceptor atom, score
      P1  H  7997  8009       L1    17  0.81

> <Gold.PLP.Chemscore.Internal.Correction>
0.1264

> <Gold.Rescore>
     Score         DG    S(hbond)    S(metal)    S(lipo)     H(rot)  DE(clash)    DE(int)     intcor
     14.97     -16.09       0.94        0.00     128.55       2.96       0.01       1.11       ----

> <Gold.Chemscore.Fitness>
14.9740

> <Gold.Chemscore.DG>
-16.0906

> <Gold.Chemscore.ZeroCoef>
-5.4800

> <Gold.Chemscore.Hbond>
0.9394

> <Gold.Chemscore.Metal>
0.0000

> <Gold.Chemscore.Lipo>
128.5511

> <Gold.Chemscore.Internal_Hbond>
0.0000

> <Gold.Chemscore.DEClash>
0.0060

> <Gold.Chemscore.DEInternal>
1.1106

> <Gold.Chemscore.Rot>
2.9561

> <Gold.Chemscore.Internal.Correction>
   9.000000E+99

> <Gold.Chemscore.Hbonds>
donor molecule, donor type, donor heavy atom, donor atom, acceptor molecule, acceptor atom, score
      P1  H  7997  8009       L1    17  0.09

> <Gold.Chemscore.Hbond.Weighted>
-3.1378

> <Gold.Chemscore.Metal.Weighted>
-0.0000

> <Gold.Chemscore.Lipo.Weighted>
-15.0405

> <Gold.Chemscore.Internal_Hbond.Weighted>
0.0000

> <Gold.Chemscore.DEClash.Weighted>
0.0060

> <Gold.Chemscore.DEInternal.Weighted>
1.1106

> <Gold.Chemscore.Rot.Weighted>
7.5677

> <Gold.Chemscore.Internal.Correction.Weighted>
   9.000000E+99

> <Gold.Protein.RotatedTorsions>
[ 6907 6896 6895 6894 ] final  -84.16 input  -60.11 | X-H torsion
[ 7974 7965 7964 7962 ] final  152.33 input  175.53 | X-H torsion
[ 8008 7997 7996 7995 ] final -172.69 input   59.86 | X-H torsion
[ 10167 10162 10161 10158 ] final  156.29 input  -65.29 | X-H torsion
[ 10718 10713 10712 10709 ] final  129.14 input   66.30 | X-H torsion
[ 10763 10752 10751 10750 ] final   17.80 input  -60.55 | X-H torsion
[ 11005 11000 10999 10996 ] final   86.57 input  -57.11 | X-H torsion

> <Gold.Protein.ActiveResidues>
 VAL166  LYS551  ARG553  GLY616  TRP617  ASP618  TYR619  PRO620  LYS621  CYS622 
 ASP623  PHE694  ASN695  SER759  ASP760  ASP761  ALA762  ILE779  LEU786  VAL792 
 PHE793  MET794  SER795  GLU796  ALA797  LYS798  CYS799  TRP800  GLU811  SER814 

> <Gold.Protein.RotatedAtoms>
  150.6879  134.3401  159.4863 H   0  0  0  0  0  0  0  0  0  0  0  0  # atno 6907 bound_to 6896
  152.1255  134.9171  160.0570 H   0  0  0  0  0  0  0  0  0  0  0  0  # atno 6908 bound_to 6896
  152.0361  133.3923  159.4354 H   0  0  0  0  0  0  0  0  0  0  0  0  # atno 6909 bound_to 6896
  144.8230  139.6655  143.6092 H   0  0  0  0  0  0  0  0  0  0  0  0  # atno 7974 bound_to 7965
  155.9479  140.1121  157.1002 H   0  0  0  0  0  0  0  0  0  0  0  0  # atno 8008 bound_to 7997
  154.4103  140.1206  156.5079 H   0  0  0  0  0  0  0  0  0  0  0  0  # atno 8009 bound_to 7997
  155.6880  140.3473  155.4884 H   0  0  0  0  0  0  0  0  0  0  0  0  # atno 8010 bound_to 7997
  139.4821  144.5022  151.8151 H   0  0  0  0  0  0  0  0  0  0  0  0  # atno 10167 bound_to 10162
  157.5181  131.1098  150.9194 H   0  0  0  0  0  0  0  0  0  0  0  0  # atno 10718 bound_to 10713
  153.1306  135.6739  153.9185 H   0  0  0  0  0  0  0  0  0  0  0  0  # atno 10763 bound_to 10752
  153.8672  135.3074  155.3442 H   0  0  0  0  0  0  0  0  0  0  0  0  # atno 10764 bound_to 10752
  154.7704  135.4942  153.9718 H   0  0  0  0  0  0  0  0  0  0  0  0  # atno 10765 bound_to 10752
  139.8941  134.8364  156.2739 H   0  0  0  0  0  0  0  0  0  0  0  0  # atno 11005 bound_to 11000
  146.2535  139.6251  142.9411 LP  0  0  0  0  0  0  0  0  0  0  0  0  # atno 17320 bound_to 7965
  145.5063  141.0436  143.2512 LP  0  0  0  0  0  0  0  0  0  0  0  0  # atno 17321 bound_to 7965
  140.4517  144.1846  150.5898 LP  0  0  0  0  0  0  0  0  0  0  0  0  # atno 17342 bound_to 10162
  140.4578  143.2461  151.9261 LP  0  0  0  0  0  0  0  0  0  0  0  0  # atno 17343 bound_to 10162
  156.9813  130.5528  149.5296 LP  0  0  0  0  0  0  0  0  0  0  0  0  # atno 17370 bound_to 10713
  156.0334  130.5424  150.8593 LP  0  0  0  0  0  0  0  0  0  0  0  0  # atno 17371 bound_to 10713
  141.0083  133.7110  156.1070 LP  0  0  0  0  0  0  0  0  0  0  0  0  # atno 17394 bound_to 11000
  140.7403  134.4157  157.5555 LP  0  0  0  0  0  0  0  0  0  0  0  0  # atno 17395 bound_to 11000

$$$$
