AV-unprocessed.smi:3140|AV-procd|sdf|11958|dock8
  -GOLD-   2272017353D 1   1.00000     0.00000
 Structure written by MMmdl.
 38 39  0  0  0  0  0  0  0  0  2 V2000
  146.0314  133.1392  154.0666 C   0  0  0  0  0  0  0  0  0  0  0  0
  146.8768  133.7652  152.9447 C   0  0  2  0  0  0  0  0  0  0  0  0
  147.0355  132.7825  151.7676 C   0  0  0  0  0  0  0  0  0  0  0  0
  145.9210  132.8468  150.8381 N   0  0  0  0  0  0  0  0  0  0  0  0
  145.7884  132.2229  149.6154 C   0  0  0  0  0  0  0  0  0  0  0  0
  144.5691  132.5738  149.1107 C   0  0  0  0  0  0  0  0  0  0  0  0
  144.0226  133.4283  150.1085 C   0  0  0  0  0  0  0  0  0  0  0  0
  144.8331  133.5878  151.1424 N   0  0  0  0  0  0  0  0  0  0  0  0
  148.2071  134.1779  153.4487 N   0  3  0  0  0  0  0  0  0  0  0  0
  149.2095  133.0988  153.5574 C   0  0  0  0  0  0  0  0  0  0  0  0
  149.9784  133.2030  154.8831 C   0  0  0  0  0  0  0  0  0  0  0  0
  150.7223  131.9795  155.1695 N   0  0  0  0  0  0  0  0  0  0  0  0
  150.5691  130.7999  154.3345 C   0  0  0  0  0  0  0  0  0  0  0  0
  151.6437  129.8213  154.8301 C   0  0  0  0  0  0  0  0  0  0  0  0
  152.1159  130.3704  156.1809 C   0  0  0  0  0  0  0  0  0  0  0  0
  151.5494  131.7800  156.2022 C   0  0  0  0  0  0  0  0  0  0  0  0
  151.8346  132.6034  157.0704 O   0  0  0  0  0  0  0  0  0  0  0  0
  145.0648  132.8065  153.6873 H   0  0  0  0  0  0  0  0  0  0  0  0
  145.8309  133.8500  154.8681 H   0  0  0  0  0  0  0  0  0  0  0  0
  146.5304  132.2738  154.5039 H   0  0  0  0  0  0  0  0  0  0  0  0
  146.3579  134.6505  152.5736 H   0  0  0  0  0  0  0  0  0  0  0  0
  147.9634  132.9722  151.2250 H   0  0  0  0  0  0  0  0  0  0  0  0
  147.0992  131.7590  152.1398 H   0  0  0  0  0  0  0  0  0  0  0  0
  146.5629  131.5876  149.2109 H   0  0  0  0  0  0  0  0  0  0  0  0
  144.1343  132.2686  148.1703 H   0  0  0  0  0  0  0  0  0  0  0  0
  143.0674  133.9325  150.1134 H   0  0  0  0  0  0  0  0  0  0  0  0
  148.5694  134.9132  152.8585 H   0  0  0  0  0  0  0  0  0  0  0  0
  148.7087  132.1314  153.4988 H   0  0  0  0  0  0  0  0  0  0  0  0
  149.9004  133.1576  152.7165 H   0  0  0  0  0  0  0  0  0  0  0  0
  150.6710  134.0459  154.8532 H   0  0  0  0  0  0  0  0  0  0  0  0
  149.2855  133.4035  155.7016 H   0  0  0  0  0  0  0  0  0  0  0  0
  149.5694  130.3864  154.4741 H   0  0  0  0  0  0  0  0  0  0  0  0
  150.6963  131.0392  153.2780 H   0  0  0  0  0  0  0  0  0  0  0  0
  151.2574  128.8048  154.9139 H   0  0  0  0  0  0  0  0  0  0  0  0
  152.4796  129.7974  154.1296 H   0  0  0  0  0  0  0  0  0  0  0  0
  151.6984  129.7997  157.0112 H   0  0  0  0  0  0  0  0  0  0  0  0
  153.2028  130.3738  156.2683 H   0  0  0  0  0  0  0  0  0  0  0  0
  148.0702  134.5552  154.3762 H   0  0  0  0  0  0  0  0  0  0  0  0
  1  2  1  0  0  0  0
  1 18  1  0  0  0  0
  1 19  1  0  0  0  0
  1 20  1  0  0  0  0
  2  3  1  0  0  0  0
  2  9  1  0  0  0  0
  2 21  1  0  0  0  0
  3  4  1  0  0  0  0
  3 22  1  0  0  0  0
  3 23  1  0  0  0  0
  4  8  1  0  0  0  0
  4  5  1  0  0  0  0
  5  6  2  0  0  0  0
  5 24  1  0  0  0  0
  6  7  1  0  0  0  0
  6 25  1  0  0  0  0
  7  8  2  0  0  0  0
  7 26  1  0  0  0  0
  9 10  1  0  0  0  0
  9 27  1  0  0  0  0
  9 38  1  0  0  0  0
 10 11  1  0  0  0  0
 10 28  1  0  0  0  0
 10 29  1  0  0  0  0
 11 12  1  0  0  0  0
 11 30  1  0  0  0  0
 11 31  1  0  0  0  0
 12 16  1  0  0  0  0
 12 13  1  0  0  0  0
 13 14  1  0  0  0  0
 13 32  1  0  0  0  0
 13 33  1  0  0  0  0
 14 15  1  0  0  0  0
 14 34  1  0  0  0  0
 14 35  1  0  0  0  0
 15 16  1  0  0  0  0
 15 36  1  0  0  0  0
 15 37  1  0  0  0  0
 16 17  2  0  0  0  0
M  CHG  1   9   1
M  END
> <s_m_source_file>
AV-unprocessed.smi

> <i_m_source_file_index>
3140

> <i_lp_mmshare_version>
43012

> <i_f3d_flags>
0

> <s_epik_input>
bjFbY0hdW2NIXVtjSF1uMVtDSDJdW0NAQEhdKFtDSDNdKVtOSF1bQ0gyXVtDSDJdTjJbQ0gyXVtDSDJdW0NIMl1DMj1P

> <s_epik_cmdline>
J2VwaWtfcHl0aG9uJywgJy1waCcsICc3LjAnLCAnLXRuJywgJzgnLCAnLW1hJywgJzIwMCcsICctbWV0YWxfYmluZGluZycsICctaW1hZScsICc8aW5maWxlLm1hZT4nLCAnLW9tYWUnLCAnPG91dGZpbGUubWFlPic=

> <r_lp_tautomer_probability>
1

> <r_epik_Ionization_Penalty>
0.00826299

> <r_epik_Ionization_Penalty_Charging>
0.00825899

> <r_epik_Ionization_Penalty_Neutral>
3.99893e-06

> <r_epik_State_Penalty>
0.00621436

> <r_epik_Charging_Adjusted_Penalty>
0.0144734

> <i_epik_Tot_Q>
1

> <i_epik_Tot_abs_Q>
1

> <r_epik_Metal_State_Penalty>
0.00621472

> <b_epik_Metal_Only>
0

> <s_lp_Force_Field>
OPLS_2005

> <r_lp_Energy>
18.6849

> <b_lp_Chiralities_Consistent>
1

> <s_lp_Variant>
AV-unprocessed.smi:3140-1

> <Gold.Version>
5.8.1

> <Gold.Id.Protein>
6NUR|6NUR_protein|mol2

> <Gold.PLP.Fitness>
46.8422

> <Gold.PLP.PLP>
-33.8151

> <Gold.PLP.part.hbond>
-2.0000

> <Gold.PLP.part.metal>
0.0000

> <Gold.PLP.part.buried>
-3.0211

> <Gold.PLP.part.nonpolar>
-28.0514

> <Gold.PLP.part.repulsive>
0.1134

> <Gold.PLP.ligand.clash>
0.0000

> <Gold.PLP.ligand.torsion>
0.9411

> <Gold.PLP.Chemscore.Hbond>
2.9440

> <Gold.PLP.Chemscore.CHOScore>
2.0000

> <Gold.PLP.Chemscore.Metal>
0.0000

> <Gold.Chemscore.Hbonds>
donor molecule, donor type, donor heavy atom, donor atom, acceptor molecule, acceptor atom, score
      L1  H     9    27       P1  7948  2.00
      P1  H  6896  6908       L1    17  0.31
      L1  C     5    24       P1 10747  0.55
      L1  C     7    26       P1 10186  1.00

> <Gold.PLP.Chemscore.Internal.Correction>
0.0773

> <Gold.Rescore>
     Score         DG    S(hbond)    S(metal)    S(lipo)     H(rot)  DE(clash)    DE(int)     intcor
     14.24     -15.04       1.91        0.00      72.15       2.06       0.00       0.80       ----

> <Gold.Chemscore.Fitness>
14.2425

> <Gold.Chemscore.DG>
-15.0442

> <Gold.Chemscore.ZeroCoef>
-5.4800

> <Gold.Chemscore.Hbond>
1.9117

> <Gold.Chemscore.Metal>
0.0000

> <Gold.Chemscore.Lipo>
72.1520

> <Gold.Chemscore.Internal_Hbond>
0.0000

> <Gold.Chemscore.DEClash>
0.0000

> <Gold.Chemscore.DEInternal>
0.8017

> <Gold.Chemscore.Rot>
2.0557

> <Gold.Chemscore.Internal.Correction>
   9.000000E+99

> <Gold.Chemscore.Hbonds>
donor molecule, donor type, donor heavy atom, donor atom, acceptor molecule, acceptor atom, score
      L1  H     9    27       P1  7948  0.40
      P1  H  6896  6908       L1    17  0.30

> <Gold.Chemscore.Hbond.Weighted>
-6.3851

> <Gold.Chemscore.Metal.Weighted>
-0.0000

> <Gold.Chemscore.Lipo.Weighted>
-8.4418

> <Gold.Chemscore.Internal_Hbond.Weighted>
0.0000

> <Gold.Chemscore.DEClash.Weighted>
0.0000

> <Gold.Chemscore.DEInternal.Weighted>
0.8017

> <Gold.Chemscore.Rot.Weighted>
5.2627

> <Gold.Chemscore.Internal.Correction.Weighted>
   9.000000E+99

> <Gold.Protein.RotatedTorsions>
[ 6907 6896 6895 6894 ] final   74.50 input  -60.11 | X-H torsion
[ 7974 7965 7964 7962 ] final  160.97 input  175.53 | X-H torsion
[ 8008 7997 7996 7995 ] final -162.64 input   59.86 | X-H torsion
[ 10167 10162 10161 10158 ] final -145.99 input  -65.29 | X-H torsion
[ 10718 10713 10712 10709 ] final  133.00 input   66.30 | X-H torsion
[ 10763 10752 10751 10750 ] final  -14.46 input  -60.55 | X-H torsion
[ 11005 11000 10999 10996 ] final  -47.12 input  -57.11 | X-H torsion

> <Gold.Protein.ActiveResidues>
 VAL166  LYS551  ARG553  GLY616  TRP617  ASP618  TYR619  PRO620  LYS621  CYS622 
 ASP623  PHE694  ASN695  SER759  ASP760  ASP761  ALA762  ILE779  LEU786  VAL792 
 PHE793  MET794  SER795  GLU796  ALA797  LYS798  CYS799  TRP800  GLU811  SER814 

> <Gold.Protein.RotatedAtoms>
  152.4979  134.4262  159.9496 H   0  0  0  0  0  0  0  0  0  0  0  0  # atno 6907 bound_to 6896
  151.4237  133.3684  159.2767 H   0  0  0  0  0  0  0  0  0  0  0  0  # atno 6908 bound_to 6896
  150.9204  134.8644  159.7544 H   0  0  0  0  0  0  0  0  0  0  0  0  # atno 6909 bound_to 6896
  144.7709  139.7832  143.6297 H   0  0  0  0  0  0  0  0  0  0  0  0  # atno 7974 bound_to 7965
  155.8097  140.0904  157.1911 H   0  0  0  0  0  0  0  0  0  0  0  0  # atno 8008 bound_to 7997
  154.3980  140.1457  156.3431 H   0  0  0  0  0  0  0  0  0  0  0  0  # atno 8009 bound_to 7997
  155.8378  140.3440  155.5615 H   0  0  0  0  0  0  0  0  0  0  0  0  # atno 8010 bound_to 7997
  139.7754  143.8177  152.2631 H   0  0  0  0  0  0  0  0  0  0  0  0  # atno 10167 bound_to 10162
  157.4816  131.1086  150.9674 H   0  0  0  0  0  0  0  0  0  0  0  0  # atno 10718 bound_to 10713
  153.5287  135.7015  153.5694 H   0  0  0  0  0  0  0  0  0  0  0  0  # atno 10763 bound_to 10752
  153.3711  135.3944  155.1789 H   0  0  0  0  0  0  0  0  0  0  0  0  # atno 10764 bound_to 10752
  154.8687  135.3812  154.4782 H   0  0  0  0  0  0  0  0  0  0  0  0  # atno 10765 bound_to 10752
  141.0621  133.6706  156.3252 H   0  0  0  0  0  0  0  0  0  0  0  0  # atno 11005 bound_to 11000
  146.1855  139.5068  142.9839 LP  0  0  0  0  0  0  0  0  0  0  0  0  # atno 17320 bound_to 7965
  145.6326  141.0301  143.1855 LP  0  0  0  0  0  0  0  0  0  0  0  0  # atno 17321 bound_to 7965
  139.8224  144.7290  150.9555 LP  0  0  0  0  0  0  0  0  0  0  0  0  # atno 17342 bound_to 10162
  140.7816  143.4146  151.0937 LP  0  0  0  0  0  0  0  0  0  0  0  0  # atno 17343 bound_to 10162
  157.0405  130.5747  149.5355 LP  0  0  0  0  0  0  0  0  0  0  0  0  # atno 17370 bound_to 10713
  156.0124  130.5217  150.8031 LP  0  0  0  0  0  0  0  0  0  0  0  0  # atno 17371 bound_to 10713
  140.5848  134.5710  157.5487 LP  0  0  0  0  0  0  0  0  0  0  0  0  # atno 17394 bound_to 11000
  139.9442  134.7732  156.0603 LP  0  0  0  0  0  0  0  0  0  0  0  0  # atno 17395 bound_to 11000

$$$$
