AV-unprocessed.smi:1389|AV-procd|sdf|5655|dock10
  -GOLD-   22720 5283D 1   1.00000     0.00000
 Structure written by MMmdl.
 52 54  0  0  0  0  0  0  0  0  4 V2000
  150.1165  138.4587  154.6779 C   0  0  0  0  0  0  0  0  0  0  0  0
  150.3744  137.0350  155.2260 C   0  0  1  0  0  0  0  0  0  0  0  0
  150.4185  136.9690  156.7774 C   0  0  0  0  0  0  0  0  0  0  0  0
  151.7370  137.3721  157.2781 N   0  5  0  0  0  0  0  0  0  0  0  0
  152.0342  138.6018  157.7771 C   0  0  0  0  0  0  0  0  0  0  0  0
  153.0326  138.9328  158.4267 O   0  0  0  0  0  0  0  0  0  0  0  0
  151.0889  139.5098  157.4811 N   0  0  0  0  0  0  0  0  0  0  0  0
  151.0953  140.9057  157.7544 C   0  0  0  0  0  0  0  0  0  0  0  0
  151.9752  141.4540  158.7215 C   0  0  0  0  0  0  0  0  0  0  0  0
  151.9134  142.8261  159.0288 C   0  0  0  0  0  0  0  0  0  0  0  0
  150.9587  143.6259  158.3771 C   0  0  0  0  0  0  0  0  0  0  0  0
  150.1253  143.0707  157.4730 N   0  3  0  0  0  0  0  0  0  0  0  0
  150.1465  141.7601  157.1229 C   0  0  0  0  0  0  0  0  0  0  0  0
  149.2214  141.3191  156.1495 N   0  0  0  0  0  0  0  0  0  0  0  0
  147.7912  141.5325  156.3387 C   0  0  0  0  0  0  0  0  0  0  0  0
  147.1686  141.2818  154.9680 C   0  0  0  0  0  0  0  0  0  0  0  0
  148.2414  141.8088  154.0196 C   0  0  0  0  0  0  0  0  0  0  0  0
  149.5539  141.4758  154.7365 C   0  0  0  0  0  0  0  0  0  0  0  0
  149.4371  136.0098  154.6687 N   0  3  0  0  0  0  0  0  0  0  0  0
  149.8148  134.5822  154.8580 C   0  0  0  0  0  0  0  0  0  0  0  0
  148.8505  133.6772  154.0753 C   0  0  0  0  0  0  0  0  0  0  0  0
  147.5177  133.9155  154.5123 O   0  0  0  0  0  0  0  0  0  0  0  0
  147.1101  135.2580  154.2764 C   0  0  0  0  0  0  0  0  0  0  0  0
  148.0206  136.2250  155.0518 C   0  0  0  0  0  0  0  0  0  0  0  0
  150.8961  139.1573  154.9879 H   0  0  0  0  0  0  0  0  0  0  0  0
  149.1612  138.8726  155.0062 H   0  0  0  0  0  0  0  0  0  0  0  0
  150.1149  138.4587  153.5876 H   0  0  0  0  0  0  0  0  0  0  0  0
  151.3791  136.7694  154.8930 H   0  0  0  0  0  0  0  0  0  0  0  0
  149.6203  137.5899  157.1861 H   0  0  0  0  0  0  0  0  0  0  0  0
  150.1802  135.9529  157.0922 H   0  0  0  0  0  0  0  0  0  0  0  0
  150.3556  139.1868  156.8670 H   0  0  0  0  0  0  0  0  0  0  0  0
  152.6846  140.8327  159.2474 H   0  0  0  0  0  0  0  0  0  0  0  0
  152.5803  143.2547  159.7626 H   0  0  0  0  0  0  0  0  0  0  0  0
  150.8333  144.6845  158.5526 H   0  0  0  0  0  0  0  0  0  0  0  0
  147.3851  140.8617  157.0966 H   0  0  0  0  0  0  0  0  0  0  0  0
  147.5951  142.5605  156.6463 H   0  0  0  0  0  0  0  0  0  0  0  0
  147.0272  140.2114  154.8108 H   0  0  0  0  0  0  0  0  0  0  0  0
  146.2044  141.7751  154.8417 H   0  0  0  0  0  0  0  0  0  0  0  0
  148.1812  141.3734  153.0219 H   0  0  0  0  0  0  0  0  0  0  0  0
  148.1415  142.8906  153.9207 H   0  0  0  0  0  0  0  0  0  0  0  0
  150.3034  142.2512  154.5715 H   0  0  0  0  0  0  0  0  0  0  0  0
  149.9539  140.5322  154.3635 H   0  0  0  0  0  0  0  0  0  0  0  0
  150.8357  134.4071  154.5177 H   0  0  0  0  0  0  0  0  0  0  0  0
  149.7764  134.3183  155.9155 H   0  0  0  0  0  0  0  0  0  0  0  0
  148.9337  133.8535  153.0015 H   0  0  0  0  0  0  0  0  0  0  0  0
  149.0961  132.6291  154.2470 H   0  0  0  0  0  0  0  0  0  0  0  0
  147.1356  135.4743  153.2070 H   0  0  0  0  0  0  0  0  0  0  0  0
  146.0758  135.3753  154.5998 H   0  0  0  0  0  0  0  0  0  0  0  0
  147.9029  136.0790  156.1264 H   0  0  0  0  0  0  0  0  0  0  0  0
  147.7246  137.2513  154.8301 H   0  0  0  0  0  0  0  0  0  0  0  0
  149.4677  136.1761  153.6718 H   0  0  0  0  0  0  0  0  0  0  0  0
  149.4425  143.6765  157.0179 H   0  0  0  0  0  0  0  0  0  0  0  0
  1  2  1  0  0  0  0
  1 25  1  0  0  0  0
  1 26  1  0  0  0  0
  1 27  1  0  0  0  0
  2  3  1  0  0  0  0
  2 19  1  0  0  0  0
  2 28  1  0  0  0  0
  3  4  1  0  0  0  0
  3 29  1  0  0  0  0
  3 30  1  0  0  0  0
  4  5  1  0  0  0  0
  5  6  2  0  0  0  0
  5  7  1  0  0  0  0
  7  8  1  0  0  0  0
  7 31  1  0  0  0  0
  8 13  1  0  0  0  0
  8  9  2  0  0  0  0
  9 10  1  0  0  0  0
  9 32  1  0  0  0  0
 10 11  2  0  0  0  0
 10 33  1  0  0  0  0
 11 12  1  0  0  0  0
 11 34  1  0  0  0  0
 12 13  2  0  0  0  0
 12 52  1  0  0  0  0
 13 14  1  0  0  0  0
 14 18  1  0  0  0  0
 14 15  1  0  0  0  0
 15 16  1  0  0  0  0
 15 35  1  0  0  0  0
 15 36  1  0  0  0  0
 16 17  1  0  0  0  0
 16 37  1  0  0  0  0
 16 38  1  0  0  0  0
 17 18  1  0  0  0  0
 17 39  1  0  0  0  0
 17 40  1  0  0  0  0
 18 41  1  0  0  0  0
 18 42  1  0  0  0  0
 19 24  1  0  0  0  0
 19 20  1  0  0  0  0
 19 51  1  0  0  0  0
 20 21  1  0  0  0  0
 20 43  1  0  0  0  0
 20 44  1  0  0  0  0
 21 22  1  0  0  0  0
 21 45  1  0  0  0  0
 21 46  1  0  0  0  0
 22 23  1  0  0  0  0
 23 24  1  0  0  0  0
 23 47  1  0  0  0  0
 23 48  1  0  0  0  0
 24 49  1  0  0  0  0
 24 50  1  0  0  0  0
M  CHG  1   4  -1
M  CHG  1  12   1
M  CHG  1  19   1
M  END
> <s_m_source_file>
AV-unprocessed.smi

> <i_m_source_file_index>
1389

> <i_lp_mmshare_version>
43012

> <i_f3d_flags>
0

> <s_epik_input>
W0NIMl0xW0NIMl1PW0NIMl1bQ0gyXU4xW0NASF0oW0NIM10pW0NIMl1bTkhdQyg9TylbTkhdYzJbY0hdW2NIXVtjSF1uYzJOM1tDSDJdW0NIMl1bQ0gyXVtDSDJdMw==

> <s_epik_cmdline>
J2VwaWtfcHl0aG9uJywgJy1waCcsICc3LjAnLCAnLXRuJywgJzgnLCAnLW1hJywgJzIwMCcsICctbWV0YWxfYmluZGluZycsICctaW1hZScsICc8aW5maWxlLm1hZT4nLCAnLW9tYWUnLCAnPG91dGZpbGUubWFlPic=

> <r_lp_tautomer_probability>
0.999994

> <r_epik_Ionization_Penalty>
8.58362

> <r_epik_Ionization_Penalty_Charging>
8.58361

> <r_epik_Ionization_Penalty_Neutral>
3.55275e-06

> <r_epik_State_Penalty>
8.57766

> <r_epik_Charging_Adjusted_Penalty>
17.1613

> <i_epik_Tot_Q>
1

> <i_epik_Tot_abs_Q>
3

> <r_epik_Metal_State_Penalty>
4.57399

> <b_epik_Metal_Only>
1

> <s_lp_Force_Field>
OPLS_2005

> <r_lp_Energy>
47.3553

> <b_lp_Chiralities_Consistent>
1

> <s_lp_Variant>
AV-unprocessed.smi:1389-10

> <Gold.Version>
5.8.1

> <Gold.Id.Protein>
6NUR|6NUR_protein|mol2

> <Gold.PLP.Fitness>
48.0941

> <Gold.PLP.PLP>
-35.4457

> <Gold.PLP.part.hbond>
-3.0000

> <Gold.PLP.part.metal>
0.0000

> <Gold.PLP.part.buried>
-3.7165

> <Gold.PLP.part.nonpolar>
-27.8670

> <Gold.PLP.part.repulsive>
0.2379

> <Gold.PLP.ligand.clash>
1.0764

> <Gold.PLP.ligand.torsion>
0.9789

> <Gold.PLP.Chemscore.Hbond>
5.0000

> <Gold.PLP.Chemscore.CHOScore>
0.0000

> <Gold.PLP.Chemscore.Metal>
0.0000

> <Gold.Chemscore.Hbonds>
donor molecule, donor type, donor heavy atom, donor atom, acceptor molecule, acceptor atom, score
      L1  H    12    52       P1  8028  2.00
      L1  H    19    51       P1  7948  2.00

> <Gold.PLP.Chemscore.Internal.Correction>
0.6825

> <Gold.Rescore>
     Score         DG    S(hbond)    S(metal)    S(lipo)     H(rot)  DE(clash)    DE(int)     intcor
     18.28     -21.30       2.86        0.00      89.21       1.63       0.23       2.78       ----

> <Gold.Chemscore.Fitness>
18.2832

> <Gold.Chemscore.DG>
-21.2968

> <Gold.Chemscore.ZeroCoef>
-5.4800

> <Gold.Chemscore.Hbond>
2.8606

> <Gold.Chemscore.Metal>
0.0000

> <Gold.Chemscore.Lipo>
89.2052

> <Gold.Chemscore.Internal_Hbond>
0.0000

> <Gold.Chemscore.DEClash>
0.2326

> <Gold.Chemscore.DEInternal>
2.7810

> <Gold.Chemscore.Rot>
1.6307

> <Gold.Chemscore.Internal.Correction>
   9.000000E+99

> <Gold.Chemscore.Hbonds>
donor molecule, donor type, donor heavy atom, donor atom, acceptor molecule, acceptor atom, score
      L1  H    12    52       P1  8028  0.83
      L1  H    19    51       P1  7948  0.65
      P1  H  7997  8010       L1     6  0.03

> <Gold.Chemscore.Hbond.Weighted>
-9.5543

> <Gold.Chemscore.Metal.Weighted>
-0.0000

> <Gold.Chemscore.Lipo.Weighted>
-10.4370

> <Gold.Chemscore.Internal_Hbond.Weighted>
0.0000

> <Gold.Chemscore.DEClash.Weighted>
0.2326

> <Gold.Chemscore.DEInternal.Weighted>
2.7810

> <Gold.Chemscore.Rot.Weighted>
4.1746

> <Gold.Chemscore.Internal.Correction.Weighted>
   9.000000E+99

> <Gold.Protein.RotatedTorsions>
[ 6907 6896 6895 6894 ] final  -57.73 input  -60.11 | X-H torsion
[ 7974 7965 7964 7962 ] final  147.45 input  175.53 | X-H torsion
[ 8008 7997 7996 7995 ] final   51.13 input   59.86 | X-H torsion
[ 10167 10162 10161 10158 ] final   93.51 input  -65.29 | X-H torsion
[ 10718 10713 10712 10709 ] final -132.74 input   66.30 | X-H torsion
[ 10763 10752 10751 10750 ] final  156.99 input  -60.55 | X-H torsion
[ 11005 11000 10999 10996 ] final   41.41 input  -57.11 | X-H torsion

> <Gold.Protein.ActiveResidues>
 VAL166  LYS551  ARG553  GLY616  TRP617  ASP618  TYR619  PRO620  LYS621  CYS622 
 ASP623  PHE694  ASN695  SER759  ASP760  ASP761  ALA762  ILE779  LEU786  VAL792 
 PHE793  MET794  SER795  GLU796  ALA797  LYS798  CYS799  TRP800  GLU811  SER814 

> <Gold.Protein.RotatedAtoms>
  150.8063  134.7189  159.6646 H   0  0  0  0  0  0  0  0  0  0  0  0  # atno 6907 bound_to 6896
  152.4182  134.6000  160.0007 H   0  0  0  0  0  0  0  0  0  0  0  0  # atno 6908 bound_to 6896
  151.6223  133.3301  159.3126 H   0  0  0  0  0  0  0  0  0  0  0  0  # atno 6909 bound_to 6896
  144.8591  139.6030  143.5939 H   0  0  0  0  0  0  0  0  0  0  0  0  # atno 7974 bound_to 7965
  155.4302  140.3450  155.4279 H   0  0  0  0  0  0  0  0  0  0  0  0  # atno 8008 bound_to 7997
  156.1341  140.1522  156.9052 H   0  0  0  0  0  0  0  0  0  0  0  0  # atno 8009 bound_to 7997
  154.4918  140.0839  156.7590 H   0  0  0  0  0  0  0  0  0  0  0  0  # atno 8010 bound_to 7997
  139.8172  144.6747  150.9564 H   0  0  0  0  0  0  0  0  0  0  0  0  # atno 10167 bound_to 10162
  156.2377  130.7076  151.0924 H   0  0  0  0  0  0  0  0  0  0  0  0  # atno 10718 bound_to 10713
  154.1931  135.2794  155.3015 H   0  0  0  0  0  0  0  0  0  0  0  0  # atno 10763 bound_to 10752
  154.5913  135.5559  153.7285 H   0  0  0  0  0  0  0  0  0  0  0  0  # atno 10764 bound_to 10752
  153.0107  135.6369  154.2069 H   0  0  0  0  0  0  0  0  0  0  0  0  # atno 10765 bound_to 10752
  140.1837  134.4072  155.8185 H   0  0  0  0  0  0  0  0  0  0  0  0  # atno 11005 bound_to 11000
  146.2846  139.6969  142.9204 LP  0  0  0  0  0  0  0  0  0  0  0  0  # atno 17320 bound_to 7965
  145.4348  141.0418  143.2890 LP  0  0  0  0  0  0  0  0  0  0  0  0  # atno 17321 bound_to 7965
  140.7815  143.4126  151.0968 LP  0  0  0  0  0  0  0  0  0  0  0  0  # atno 17342 bound_to 10162
  139.7789  143.8384  152.3134 LP  0  0  0  0  0  0  0  0  0  0  0  0  # atno 17343 bound_to 10162
  157.7161  131.0708  150.6319 LP  0  0  0  0  0  0  0  0  0  0  0  0  # atno 17370 bound_to 10713
  156.6390  130.4453  149.5759 LP  0  0  0  0  0  0  0  0  0  0  0  0  # atno 17371 bound_to 10713
  141.2224  133.7013  156.7975 LP  0  0  0  0  0  0  0  0  0  0  0  0  # atno 17394 bound_to 11000
  140.2238  134.8737  157.3405 LP  0  0  0  0  0  0  0  0  0  0  0  0  # atno 17395 bound_to 11000

$$$$
