AV-unprocessed.smi:275|AV-procd|sdf|2068|dock10
  -GOLD-   2262021323D 1   1.00000     0.00000
 Structure written by MMmdl.
 65 69  0  0  0  0  0  0  0  0  1 V2000
  153.1691  138.9879  158.5269 C   0  0  0  0  0  0  0  0  0  0  0  0
  153.1363  140.4812  158.8964 C   0  0  0  0  0  0  0  0  0  0  0  0
  153.4042  140.6325  160.4033 C   0  0  0  0  0  0  0  0  0  0  0  0
  151.8095  141.1492  158.4975 C   0  0  2  0  0  0  0  0  0  0  0  0
  151.6231  141.2579  157.0525 N   0  0  0  0  0  0  0  0  0  0  0  0
  150.9140  140.1961  156.4278 C   0  0  0  0  0  0  0  0  0  0  0  0
  150.7557  140.1415  155.0770 N   0  0  0  0  0  0  0  0  0  0  0  0
  150.0787  139.1401  154.5069 C   0  0  0  0  0  0  0  0  0  0  0  0
  149.4814  138.0995  155.0897 N   0  0  0  0  0  0  0  0  0  0  0  0
  149.6352  138.1435  156.4434 C   0  0  0  0  0  0  0  0  0  0  0  0
  150.3290  139.1435  157.1807 C   0  0  0  0  0  0  0  0  0  0  0  0
  150.2715  138.8585  158.5391 N   0  0  0  0  0  0  0  0  0  0  0  0
  149.5808  137.7529  158.6025 C   0  0  0  0  0  0  0  0  0  0  0  0
  149.1539  137.2575  157.3914 N   0  0  0  0  0  0  0  0  0  0  0  0
  148.3725  136.0519  157.1774 C   0  0  0  0  0  0  0  0  0  0  0  0
  149.2226  134.8442  156.7071 C   0  0  1  0  0  0  0  0  0  0  0  0
  148.8585  133.5644  157.5039 C   0  0  0  0  0  0  0  0  0  0  0  0
  148.8172  133.8012  158.8952 O   0  0  0  0  0  0  0  0  0  0  0  0
  149.0767  134.6420  155.1730 C   0  0  1  0  0  0  0  0  0  0  0  0
  149.7563  133.3987  154.6217 C   0  0  0  0  0  0  0  0  0  0  0  0
  149.0837  133.2312  153.2643 C   0  0  0  0  0  0  0  0  0  0  0  0
  147.7559  133.7102  153.4342 O   0  0  0  0  0  0  0  0  0  0  0  0
  147.6463  134.4097  154.6697 C   0  0  0  0  0  0  0  0  0  0  0  0
  150.8417  142.4728  157.2221 C   0  0  0  0  0  0  0  0  0  0  0  0
  151.6073  142.6840  158.5384 C   0  0  0  0  0  0  0  0  0  0  0  0
  150.7775  143.2104  159.7201 C   0  0  0  0  0  0  0  0  0  0  0  0
  150.3810  144.6872  159.5564 C   0  0  0  0  0  0  0  0  0  0  0  0
  151.6169  145.5790  159.3783 C   0  0  0  0  0  0  0  0  0  0  0  0
  152.5101  145.0698  158.2396 C   0  0  0  0  0  0  0  0  0  0  0  0
  152.8597  143.5837  158.4291 C   0  0  0  0  0  0  0  0  0  0  0  0
  152.3339  138.4493  158.9759 H   0  0  0  0  0  0  0  0  0  0  0  0
  154.0910  138.5181  158.8704 H   0  0  0  0  0  0  0  0  0  0  0  0
  153.1210  138.8405  157.4486 H   0  0  0  0  0  0  0  0  0  0  0  0
  153.9584  140.9666  158.3693 H   0  0  0  0  0  0  0  0  0  0  0  0
  152.6254  140.1455  160.9910 H   0  0  0  0  0  0  0  0  0  0  0  0
  153.4403  141.6759  160.7115 H   0  0  0  0  0  0  0  0  0  0  0  0
  154.3578  140.1821  160.6801 H   0  0  0  0  0  0  0  0  0  0  0  0
  150.9557  140.6607  158.9713 H   0  0  0  0  0  0  0  0  0  0  0  0
  150.0041  139.1803  153.4303 H   0  0  0  0  0  0  0  0  0  0  0  0
  149.3578  137.2664  159.5410 H   0  0  0  0  0  0  0  0  0  0  0  0
  147.8450  135.8053  158.0995 H   0  0  0  0  0  0  0  0  0  0  0  0
  147.6075  136.2994  156.4420 H   0  0  0  0  0  0  0  0  0  0  0  0
  150.2651  135.0866  156.9205 H   0  0  0  0  0  0  0  0  0  0  0  0
  147.8714  133.1910  157.2350 H   0  0  0  0  0  0  0  0  0  0  0  0
  149.5647  132.7614  157.2902 H   0  0  0  0  0  0  0  0  0  0  0  0
  148.5076  133.0180  159.3241 H   0  0  0  0  0  0  0  0  0  0  0  0
  149.4872  135.5111  154.6559 H   0  0  0  0  0  0  0  0  0  0  0  0
  150.8381  133.4999  154.5310 H   0  0  0  0  0  0  0  0  0  0  0  0
  149.5442  132.5352  155.2540 H   0  0  0  0  0  0  0  0  0  0  0  0
  149.5821  133.8471  152.5147 H   0  0  0  0  0  0  0  0  0  0  0  0
  149.0954  132.1978  152.9167 H   0  0  0  0  0  0  0  0  0  0  0  0
  147.0882  133.7811  155.3648 H   0  0  0  0  0  0  0  0  0  0  0  0
  147.0944  135.3406  154.5371 H   0  0  0  0  0  0  0  0  0  0  0  0
  151.0320  143.2219  156.4535 H   0  0  0  0  0  0  0  0  0  0  0  0
  149.7738  142.2994  157.3663 H   0  0  0  0  0  0  0  0  0  0  0  0
  149.8721  142.6146  159.8404 H   0  0  0  0  0  0  0  0  0  0  0  0
  151.3337  143.0888  160.6503 H   0  0  0  0  0  0  0  0  0  0  0  0
  149.7245  144.7948  158.6921 H   0  0  0  0  0  0  0  0  0  0  0  0
  149.8074  145.0172  160.4228 H   0  0  0  0  0  0  0  0  0  0  0  0
  151.3129  146.6082  159.1852 H   0  0  0  0  0  0  0  0  0  0  0  0
  152.1889  145.5943  160.3069 H   0  0  0  0  0  0  0  0  0  0  0  0
  152.0021  145.2111  157.2853 H   0  0  0  0  0  0  0  0  0  0  0  0
  153.4235  145.6632  158.1913 H   0  0  0  0  0  0  0  0  0  0  0  0
  153.4795  143.4878  159.3197 H   0  0  0  0  0  0  0  0  0  0  0  0
  153.4901  143.2642  157.5986 H   0  0  0  0  0  0  0  0  0  0  0  0
  1  2  1  0  0  0  0
  1 31  1  0  0  0  0
  1 32  1  0  0  0  0
  1 33  1  0  0  0  0
  2  3  1  0  0  0  0
  2  4  1  0  0  0  0
  2 34  1  0  0  0  0
  3 35  1  0  0  0  0
  3 36  1  0  0  0  0
  3 37  1  0  0  0  0
  4 25  1  0  0  0  0
  4  5  1  0  0  0  0
  4 38  1  0  0  0  0
  5  6  1  0  0  0  0
  5 24  1  0  0  0  0
  6 11  1  0  0  0  0
  6  7  2  0  0  0  0
  7  8  1  0  0  0  0
  8  9  2  0  0  0  0
  8 39  1  0  0  0  0
  9 10  1  0  0  0  0
 10 14  1  0  0  0  0
 10 11  2  0  0  0  0
 11 12  1  0  0  0  0
 12 13  2  0  0  0  0
 13 14  1  0  0  0  0
 13 40  1  0  0  0  0
 14 15  1  0  0  0  0
 15 16  1  0  0  0  0
 15 41  1  0  0  0  0
 15 42  1  0  0  0  0
 16 17  1  0  0  0  0
 16 19  1  0  0  0  0
 16 43  1  0  0  0  0
 17 18  1  0  0  0  0
 17 44  1  0  0  0  0
 17 45  1  0  0  0  0
 18 46  1  0  0  0  0
 19 23  1  0  0  0  0
 19 20  1  0  0  0  0
 19 47  1  0  0  0  0
 20 21  1  0  0  0  0
 20 48  1  0  0  0  0
 20 49  1  0  0  0  0
 21 22  1  0  0  0  0
 21 50  1  0  0  0  0
 21 51  1  0  0  0  0
 22 23  1  0  0  0  0
 23 52  1  0  0  0  0
 23 53  1  0  0  0  0
 24 25  1  0  0  0  0
 24 54  1  0  0  0  0
 24 55  1  0  0  0  0
 25 30  1  0  0  0  0
 25 26  1  0  0  0  0
 26 27  1  0  0  0  0
 26 56  1  0  0  0  0
 26 57  1  0  0  0  0
 27 28  1  0  0  0  0
 27 58  1  0  0  0  0
 27 59  1  0  0  0  0
 28 29  1  0  0  0  0
 28 60  1  0  0  0  0
 28 61  1  0  0  0  0
 29 30  1  0  0  0  0
 29 62  1  0  0  0  0
 29 63  1  0  0  0  0
 30 64  1  0  0  0  0
 30 65  1  0  0  0  0
M  END
> <s_m_source_file>
AV-unprocessed.smi

> <i_m_source_file_index>
275

> <i_lp_mmshare_version>
43012

> <i_f3d_flags>
0

> <s_epik_input>
W0NIMl0xW0NIMl1bQ0gyXVtDSDJdW0NIMl1DMTJbQ0BIXShbQ0hdKFtDSDNdKVtDSDNdKU4oW0NIMl0yKWMobltjSF1uMyljKGMzNCluW2NIXW40W0NIMl1bQ0BIXShbQ0gyXVtPSF0pW0NAQEhdNVtDSDJdW0NIMl1PW0NIMl01

> <s_epik_cmdline>
J2VwaWtfcHl0aG9uJywgJy1waCcsICc3LjAnLCAnLXRuJywgJzgnLCAnLW1hJywgJzIwMCcsICctbWV0YWxfYmluZGluZycsICctaW1hZScsICc8aW5maWxlLm1hZT4nLCAnLW9tYWUnLCAnPG91dGZpbGUubWFlPic=

> <r_lp_tautomer_probability>
1

> <r_epik_Ionization_Penalty>
0.00375122

> <r_epik_Ionization_Penalty_Charging>
0

> <r_epik_Ionization_Penalty_Neutral>
0.00375122

> <r_epik_State_Penalty>
0.00260593

> <r_epik_Charging_Adjusted_Penalty>
0.00260593

> <i_epik_Tot_Q>
0

> <i_epik_Tot_abs_Q>
0

> <r_epik_Metal_State_Penalty>
-0

> <b_epik_Metal_Only>
0

> <s_lp_Force_Field>
OPLS_2005

> <r_lp_Energy>
64.3005

> <b_lp_Chiralities_Consistent>
1

> <s_lp_Variant>
AV-unprocessed.smi:275-7

> <Gold.Version>
5.8.1

> <Gold.Id.Protein>
6NUR|6NUR_protein|mol2

> <Gold.PLP.Fitness>
49.1959

> <Gold.PLP.PLP>
-42.3457

> <Gold.PLP.part.hbond>
-2.0000

> <Gold.PLP.part.metal>
0.0000

> <Gold.PLP.part.buried>
-3.9479

> <Gold.PLP.part.nonpolar>
-36.2253

> <Gold.PLP.part.repulsive>
0.3368

> <Gold.PLP.ligand.clash>
0.0000

> <Gold.PLP.ligand.torsion>
1.3833

> <Gold.PLP.Chemscore.Hbond>
2.0000

> <Gold.PLP.Chemscore.CHOScore>
1.0000

> <Gold.PLP.Chemscore.Metal>
0.0000

> <Gold.Chemscore.Hbonds>
donor molecule, donor type, donor heavy atom, donor atom, acceptor molecule, acceptor atom, score
      P1  H  6896  6907       L1    18  1.00
      P1  H  7989  7998       L1     7  1.00
      L1  C     8    39       P1  7957  1.00

> <Gold.PLP.Chemscore.Internal.Correction>
0.6169

> <Gold.Rescore>
     Score         DG    S(hbond)    S(metal)    S(lipo)     H(rot)  DE(clash)    DE(int)     intcor
     13.54     -18.43       1.27        0.00     130.09       2.54       0.93       3.96       ----

> <Gold.Chemscore.Fitness>
13.5402

> <Gold.Chemscore.DG>
-18.4310

> <Gold.Chemscore.ZeroCoef>
-5.4800

> <Gold.Chemscore.Hbond>
1.2654

> <Gold.Chemscore.Metal>
0.0000

> <Gold.Chemscore.Lipo>
130.0944

> <Gold.Chemscore.Internal_Hbond>
0.0000

> <Gold.Chemscore.DEClash>
0.9321

> <Gold.Chemscore.DEInternal>
3.9587

> <Gold.Chemscore.Rot>
2.5377

> <Gold.Chemscore.Internal.Correction>
   9.000000E+99

> <Gold.Chemscore.Hbonds>
donor molecule, donor type, donor heavy atom, donor atom, acceptor molecule, acceptor atom, score
      P1  H  6896  6907       L1    18  0.14
      P1  H  7989  7998       L1     7  0.25

> <Gold.Chemscore.Hbond.Weighted>
-4.2265

> <Gold.Chemscore.Metal.Weighted>
-0.0000

> <Gold.Chemscore.Lipo.Weighted>
-15.2210

> <Gold.Chemscore.Internal_Hbond.Weighted>
0.0000

> <Gold.Chemscore.DEClash.Weighted>
0.9321

> <Gold.Chemscore.DEInternal.Weighted>
3.9587

> <Gold.Chemscore.Rot.Weighted>
6.4966

> <Gold.Chemscore.Internal.Correction.Weighted>
   9.000000E+99

> <Gold.Protein.RotatedTorsions>
[ 6907 6896 6895 6894 ] final -113.25 input  -60.11 | X-H torsion
[ 7974 7965 7964 7962 ] final -161.76 input  175.53 | X-H torsion
[ 8008 7997 7996 7995 ] final   79.48 input   59.86 | X-H torsion
[ 10167 10162 10161 10158 ] final -111.68 input  -65.29 | X-H torsion
[ 10718 10713 10712 10709 ] final  -37.61 input   66.30 | X-H torsion
[ 10763 10752 10751 10750 ] final  -63.22 input  -60.55 | X-H torsion
[ 11005 11000 10999 10996 ] final  -68.47 input  -57.11 | X-H torsion

> <Gold.Protein.ActiveResidues>
 VAL166  LYS551  ARG553  GLY616  TRP617  ASP618  TYR619  PRO620  LYS621  CYS622 
 ASP623  PHE694  ASN695  SER759  ASP760  ASP761  ALA762  ILE779  LEU786  VAL792 
 PHE793  MET794  SER795  GLU796  ALA797  LYS798  CYS799  TRP800  GLU811  SER814 

> <Gold.Protein.RotatedAtoms>
  150.7815  133.8972  159.3330 H   0  0  0  0  0  0  0  0  0  0  0  0  # atno 6907 bound_to 6896
  151.6833  135.0956  160.0229 H   0  0  0  0  0  0  0  0  0  0  0  0  # atno 6908 bound_to 6896
  152.3868  133.6584  159.6241 H   0  0  0  0  0  0  0  0  0  0  0  0  # atno 6909 bound_to 6896
  144.7380  140.3351  143.6145 H   0  0  0  0  0  0  0  0  0  0  0  0  # atno 7974 bound_to 7965
  155.8702  140.3449  155.5816 H   0  0  0  0  0  0  0  0  0  0  0  0  # atno 8008 bound_to 7997
  155.7836  140.0862  157.2066 H   0  0  0  0  0  0  0  0  0  0  0  0  # atno 8009 bound_to 7997
  154.4017  140.1496  156.3067 H   0  0  0  0  0  0  0  0  0  0  0  0  # atno 8010 bound_to 7997
  140.1309  143.4361  152.1628 H   0  0  0  0  0  0  0  0  0  0  0  0  # atno 10167 bound_to 10162
  156.3132  130.4255  149.8030 H   0  0  0  0  0  0  0  0  0  0  0  0  # atno 10718 bound_to 10713
  154.3118  135.6214  153.5469 H   0  0  0  0  0  0  0  0  0  0  0  0  # atno 10763 bound_to 10752
  152.9829  135.5703  154.5169 H   0  0  0  0  0  0  0  0  0  0  0  0  # atno 10764 bound_to 10752
  154.4820  135.2863  155.1540 H   0  0  0  0  0  0  0  0  0  0  0  0  # atno 10765 bound_to 10752
  141.1533  133.6741  156.6451 H   0  0  0  0  0  0  0  0  0  0  0  0  # atno 11005 bound_to 11000
  145.7432  139.1770  143.2364 LP  0  0  0  0  0  0  0  0  0  0  0  0  # atno 17320 bound_to 7965
  146.1118  140.7419  142.9499 LP  0  0  0  0  0  0  0  0  0  0  0  0  # atno 17321 bound_to 7965
  139.5520  144.7345  151.4406 LP  0  0  0  0  0  0  0  0  0  0  0  0  # atno 17342 bound_to 10162
  140.6817  143.8066  150.7131 LP  0  0  0  0  0  0  0  0  0  0  0  0  # atno 17343 bound_to 10162
  156.5366  130.8281  151.3255 LP  0  0  0  0  0  0  0  0  0  0  0  0  # atno 17370 bound_to 10713
  157.7396  130.9834  150.2322 LP  0  0  0  0  0  0  0  0  0  0  0  0  # atno 17371 bound_to 10713
  140.3363  134.7886  157.4364 LP  0  0  0  0  0  0  0  0  0  0  0  0  # atno 17394 bound_to 11000
  140.0975  134.5518  155.8385 LP  0  0  0  0  0  0  0  0  0  0  0  0  # atno 17395 bound_to 11000

$$$$
