AV-unprocessed.smi:999|AV-procd|sdf|4351|dock7
  -GOLD-   22720 2253D 1   1.00000     0.00000
 Structure written by MMmdl.
 37 38  0  0  0  0  0  0  0  0  2 V2000
  145.1578  130.9426  151.2186 C   0  0  0  0  0  0  0  0  0  0  0  0
  146.1964  132.0652  151.4207 C   0  0  2  0  0  0  0  0  0  0  0  0
  146.8070  132.0677  152.8315 C   0  0  0  0  0  0  0  0  0  0  0  0
  146.1019  132.2571  153.8235 O   0  0  0  0  0  0  0  0  0  0  0  0
  148.1301  131.8506  152.9022 N   0  0  0  0  0  0  0  0  0  0  0  0
  148.9222  131.8280  154.1274 C   0  0  2  0  0  0  0  0  0  0  0  0
  149.7206  133.1380  154.2445 C   0  0  0  0  0  0  0  0  0  0  0  0
  150.6125  133.1458  155.4962 C   0  0  0  0  0  0  0  0  0  0  0  0
  151.5658  131.9271  155.5239 C   0  0  1  0  0  0  0  0  0  0  0  0
  152.4521  131.9107  156.7870 C   0  0  0  0  0  0  0  0  0  0  0  0
  151.8912  131.8944  157.9055 O   0  0  0  0  0  0  0  0  0  0  0  0
  153.6913  131.9410  156.6175 O   0  5  0  0  0  0  0  0  0  0  0  0
  150.7659  130.6104  155.3910 C   0  0  0  0  0  0  0  0  0  0  0  0
  149.8706  130.6133  154.1415 C   0  0  0  0  0  0  0  0  0  0  0  0
  145.6569  133.3817  151.0988 N   0  0  0  0  0  0  0  0  0  0  0  0
  146.2469  134.6126  151.3047 C   0  0  0  0  0  0  0  0  0  0  0  0
  145.3639  135.5672  150.8882 C   0  0  0  0  0  0  0  0  0  0  0  0
  144.2387  134.8169  150.4483 C   0  0  0  0  0  0  0  0  0  0  0  0
  144.4121  133.5126  150.5833 N   0  0  0  0  0  0  0  0  0  0  0  0
  145.5984  129.9623  151.4031 H   0  0  0  0  0  0  0  0  0  0  0  0
  144.7811  130.9427  150.1955 H   0  0  0  0  0  0  0  0  0  0  0  0
  144.3013  131.0494  151.8856 H   0  0  0  0  0  0  0  0  0  0  0  0
  147.0111  131.8745  150.7201 H   0  0  0  0  0  0  0  0  0  0  0  0
  148.6305  131.7016  152.0382 H   0  0  0  0  0  0  0  0  0  0  0  0
  148.2495  131.7622  154.9849 H   0  0  0  0  0  0  0  0  0  0  0  0
  150.3427  133.2736  153.3584 H   0  0  0  0  0  0  0  0  0  0  0  0
  149.0392  133.9892  154.2768 H   0  0  0  0  0  0  0  0  0  0  0  0
  151.1819  134.0761  155.5187 H   0  0  0  0  0  0  0  0  0  0  0  0
  149.9812  133.1459  156.3863 H   0  0  0  0  0  0  0  0  0  0  0  0
  152.2422  132.0043  154.6716 H   0  0  0  0  0  0  0  0  0  0  0  0
  151.4394  129.7539  155.3386 H   0  0  0  0  0  0  0  0  0  0  0  0
  150.1469  130.4627  156.2773 H   0  0  0  0  0  0  0  0  0  0  0  0
  149.2973  129.6862  154.1052 H   0  0  0  0  0  0  0  0  0  0  0  0
  150.4976  130.6233  153.2488 H   0  0  0  0  0  0  0  0  0  0  0  0
  147.2368  134.7058  151.7264 H   0  0  0  0  0  0  0  0  0  0  0  0
  145.4993  136.6385  150.9004 H   0  0  0  0  0  0  0  0  0  0  0  0
  143.3060  135.1785  150.0412 H   0  0  0  0  0  0  0  0  0  0  0  0
  1  2  1  0  0  0  0
  1 20  1  0  0  0  0
  1 21  1  0  0  0  0
  1 22  1  0  0  0  0
  2  3  1  0  0  0  0
  2 15  1  0  0  0  0
  2 23  1  0  0  0  0
  3  4  2  0  0  0  0
  3  5  1  0  0  0  0
  5  6  1  0  0  0  0
  5 24  1  0  0  0  0
  6 14  1  0  0  0  0
  6  7  1  0  0  0  0
  6 25  1  0  0  0  0
  7  8  1  0  0  0  0
  7 26  1  0  0  0  0
  7 27  1  0  0  0  0
  8  9  1  0  0  0  0
  8 28  1  0  0  0  0
  8 29  1  0  0  0  0
  9 10  1  0  0  0  0
  9 13  1  0  0  0  0
  9 30  1  0  0  0  0
 10 11  2  0  0  0  0
 10 12  1  0  0  0  0
 13 14  1  0  0  0  0
 13 31  1  0  0  0  0
 13 32  1  0  0  0  0
 14 33  1  0  0  0  0
 14 34  1  0  0  0  0
 15 19  1  0  0  0  0
 15 16  1  0  0  0  0
 16 17  2  0  0  0  0
 16 35  1  0  0  0  0
 17 18  1  0  0  0  0
 17 36  1  0  0  0  0
 18 19  2  0  0  0  0
 18 37  1  0  0  0  0
M  CHG  1  12  -1
M  END
> <s_m_source_file>
AV-unprocessed.smi

> <i_m_source_file_index>
999

> <i_lp_mmshare_version>
43012

> <i_f3d_flags>
0

> <s_epik_input>
bjFbY0hdW2NIXVtjSF1uMVtDQEhdKFtDSDNdKUMoPU8pW05IXVtDQEBIXTJbQ0gyXVtDSDJdW0NAQEhdKEMoPU8pW09IXSlbQ0gyXVtDSDJdMg==

> <s_epik_cmdline>
J2VwaWtfcHl0aG9uJywgJy1waCcsICc3LjAnLCAnLXRuJywgJzgnLCAnLW1hJywgJzIwMCcsICctbWV0YWxfYmluZGluZycsICctaW1hZScsICc8aW5maWxlLm1hZT4nLCAnLW9tYWUnLCAnPG91dGZpbGUubWFlPic=

> <r_lp_tautomer_probability>
1

> <r_epik_Ionization_Penalty>
0.00221712

> <r_epik_Ionization_Penalty_Charging>
0.00217268

> <r_epik_Ionization_Penalty_Neutral>
4.44343e-05

> <r_epik_State_Penalty>
0.0014925

> <r_epik_Charging_Adjusted_Penalty>
0.00366518

> <i_epik_Tot_Q>
-1

> <i_epik_Tot_abs_Q>
1

> <r_epik_Metal_State_Penalty>
-0

> <b_epik_Metal_Only>
0

> <s_lp_Force_Field>
OPLS_2005

> <r_lp_Energy>
14.6475

> <b_lp_Chiralities_Consistent>
1

> <s_lp_Variant>
AV-unprocessed.smi:999-1

> <Gold.Version>
5.8.1

> <Gold.Id.Protein>
6NUR|6NUR_protein|mol2

> <Gold.PLP.Fitness>
47.9569

> <Gold.PLP.PLP>
-33.7148

> <Gold.PLP.part.hbond>
-2.0000

> <Gold.PLP.part.metal>
0.0000

> <Gold.PLP.part.buried>
-5.0187

> <Gold.PLP.part.nonpolar>
-27.3420

> <Gold.PLP.part.repulsive>
0.2996

> <Gold.PLP.ligand.clash>
0.0000

> <Gold.PLP.ligand.torsion>
0.4410

> <Gold.PLP.Chemscore.Hbond>
3.0000

> <Gold.PLP.Chemscore.CHOScore>
2.0000

> <Gold.PLP.Chemscore.Metal>
0.0000

> <Gold.Chemscore.Hbonds>
donor molecule, donor type, donor heavy atom, donor atom, acceptor molecule, acceptor atom, score
      L1  H     5    24       P1 10747  1.00
      P1  H  6896  6908       L1    11  2.00
      L1  C    16    35       P1  7948  1.00
      L1  C    18    37       P1 10186  1.00

> <Gold.PLP.Chemscore.Internal.Correction>
0.1241

> <Gold.Rescore>
     Score         DG    S(hbond)    S(metal)    S(lipo)     H(rot)  DE(clash)    DE(int)     intcor
     14.83     -15.19       1.98        0.00      69.63       1.98       0.09       0.27       ----

> <Gold.Chemscore.Fitness>
14.8283

> <Gold.Chemscore.DG>
-15.1905

> <Gold.Chemscore.ZeroCoef>
-5.4800

> <Gold.Chemscore.Hbond>
1.9837

> <Gold.Chemscore.Metal>
0.0000

> <Gold.Chemscore.Lipo>
69.6315

> <Gold.Chemscore.Internal_Hbond>
0.0000

> <Gold.Chemscore.DEClash>
0.0930

> <Gold.Chemscore.DEInternal>
0.2692

> <Gold.Chemscore.Rot>
1.9774

> <Gold.Chemscore.Internal.Correction>
   9.000000E+99

> <Gold.Chemscore.Hbonds>
donor molecule, donor type, donor heavy atom, donor atom, acceptor molecule, acceptor atom, score
      L1  H     5    24       P1 10747  0.95
      P1  H  6896  6908       L1    11  0.98

> <Gold.Chemscore.Hbond.Weighted>
-6.6256

> <Gold.Chemscore.Metal.Weighted>
-0.0000

> <Gold.Chemscore.Lipo.Weighted>
-8.1469

> <Gold.Chemscore.Internal_Hbond.Weighted>
0.0000

> <Gold.Chemscore.DEClash.Weighted>
0.0930

> <Gold.Chemscore.DEInternal.Weighted>
0.2692

> <Gold.Chemscore.Rot.Weighted>
5.0620

> <Gold.Chemscore.Internal.Correction.Weighted>
   9.000000E+99

> <Gold.Protein.RotatedTorsions>
[ 6907 6896 6895 6894 ] final   53.73 input  -60.11 | X-H torsion
[ 7974 7965 7964 7962 ] final -138.31 input  175.53 | X-H torsion
[ 8008 7997 7996 7995 ] final  -77.03 input   59.86 | X-H torsion
[ 10167 10162 10161 10158 ] final -132.16 input  -65.29 | X-H torsion
[ 10718 10713 10712 10709 ] final   74.05 input   66.30 | X-H torsion
[ 10763 10752 10751 10750 ] final -103.96 input  -60.55 | X-H torsion
[ 11005 11000 10999 10996 ] final -167.72 input  -57.11 | X-H torsion

> <Gold.Protein.ActiveResidues>
 VAL166  LYS551  ARG553  GLY616  TRP617  ASP618  TYR619  PRO620  LYS621  CYS622 
 ASP623  PHE694  ASN695  SER759  ASP760  ASP761  ALA762  ILE779  LEU786  VAL792 
 PHE793  MET794  SER795  GLU796  ALA797  LYS798  CYS799  TRP800  GLU811  SER814 

> <Gold.Protein.RotatedAtoms>
  152.3367  134.7188  160.0274 H   0  0  0  0  0  0  0  0  0  0  0  0  # atno 6907 bound_to 6896
  151.7587  133.3327  159.3420 H   0  0  0  0  0  0  0  0  0  0  0  0  # atno 6908 bound_to 6896
  150.7455  134.6058  159.6105 H   0  0  0  0  0  0  0  0  0  0  0  0  # atno 6909 bound_to 6896
  144.8769  140.6450  143.5231 H   0  0  0  0  0  0  0  0  0  0  0  0  # atno 7974 bound_to 7965
  154.5559  140.0717  156.8743 H   0  0  0  0  0  0  0  0  0  0  0  0  # atno 8008 bound_to 7997
  155.2903  140.3377  155.4235 H   0  0  0  0  0  0  0  0  0  0  0  0  # atno 8009 bound_to 7997
  156.2002  140.1718  156.7902 H   0  0  0  0  0  0  0  0  0  0  0  0  # atno 8010 bound_to 7997
  139.9115  143.6489  152.2574 H   0  0  0  0  0  0  0  0  0  0  0  0  # atno 10167 bound_to 10162
  157.6575  130.9658  150.1156 H   0  0  0  0  0  0  0  0  0  0  0  0  # atno 10718 bound_to 10713
  154.7845  135.4804  153.9915 H   0  0  0  0  0  0  0  0  0  0  0  0  # atno 10763 bound_to 10752
  153.1540  135.6796  153.8847 H   0  0  0  0  0  0  0  0  0  0  0  0  # atno 10764 bound_to 10752
  153.8482  135.3170  155.3409 H   0  0  0  0  0  0  0  0  0  0  0  0  # atno 10765 bound_to 10752
  140.5500  134.5437  157.5120 H   0  0  0  0  0  0  0  0  0  0  0  0  # atno 11005 bound_to 11000
  145.4026  139.1595  143.4169 LP  0  0  0  0  0  0  0  0  0  0  0  0  # atno 17320 bound_to 7965
  146.2968  140.4124  142.8718 LP  0  0  0  0  0  0  0  0  0  0  0  0  # atno 17321 bound_to 7965
  139.6939  144.7643  151.1391 LP  0  0  0  0  0  0  0  0  0  0  0  0  # atno 17342 bound_to 10162
  140.7684  143.5551  150.9161 LP  0  0  0  0  0  0  0  0  0  0  0  0  # atno 17343 bound_to 10162
  156.2041  130.3662  149.8752 LP  0  0  0  0  0  0  0  0  0  0  0  0  # atno 17370 bound_to 10713
  156.6648  130.8796  151.3553 LP  0  0  0  0  0  0  0  0  0  0  0  0  # atno 17371 bound_to 10713
  139.9460  134.7702  156.0562 LP  0  0  0  0  0  0  0  0  0  0  0  0  # atno 17394 bound_to 11000
  141.1177  133.6622  156.3135 LP  0  0  0  0  0  0  0  0  0  0  0  0  # atno 17395 bound_to 11000

$$$$
