AV-unprocessed.smi:166|AV-procd|sdf|1391|dock2
  -GOLD-   2262019133D 1   1.00000     0.00000
 Structure written by MMmdl.
 54 58  0  0  0  0  0  0  0  0  1 V2000
  146.2632  139.9195  153.1180 O   0  0  0  0  0  0  0  0  0  0  0  0
  147.1427  140.6718  153.9363 C   0  0  2  0  0  0  0  0  0  0  0  0
  148.6062  140.3306  153.5683 C   0  0  0  0  0  0  0  0  0  0  0  0
  149.5463  140.5251  154.6615 N   0  0  0  0  0  0  0  0  0  0  0  0
  149.7332  141.6720  155.4004 C   0  0  0  0  0  0  0  0  0  0  0  0
  150.6411  141.5910  156.3345 N   0  0  0  0  0  0  0  0  0  0  0  0
  151.1108  140.2868  156.2377 C   0  0  0  0  0  0  0  0  0  0  0  0
  152.0884  139.5250  156.9376 C   0  0  0  0  0  0  0  0  0  0  0  0
  152.8424  139.9902  157.9551 N   0  0  0  0  0  0  0  0  0  0  0  0
  152.9386  139.0537  159.0706 C   0  0  0  0  0  0  0  0  0  0  0  0
  153.9935  139.5264  160.0838 C   0  0  0  0  0  0  0  0  0  0  0  0
  153.7053  140.9657  160.5387 C   0  0  0  0  0  0  0  0  0  0  0  0
  153.6001  141.9061  159.3251 C   0  0  2  0  0  0  0  0  0  0  0  0
  153.2385  143.1921  159.8113 O   0  0  0  0  0  0  0  0  0  0  0  0
  152.0980  143.2024  160.6563 C   0  0  0  0  0  0  0  0  0  0  0  0
  151.2382  144.3952  160.2977 C   0  0  0  0  0  0  0  0  0  0  0  0
  151.3134  144.9999  158.9141 C   0  0  0  0  0  0  0  0  0  0  0  0
  151.8539  145.7614  160.0971 C   0  0  0  0  0  0  0  0  0  0  0  0
  152.5494  141.3717  158.3292 C   0  0  0  0  0  0  0  0  0  0  0  0
  152.2745  138.2340  156.5704 N   0  0  0  0  0  0  0  0  0  0  0  0
  151.5544  137.7144  155.5714 C   0  0  0  0  0  0  0  0  0  0  0  0
  150.6156  138.3011  154.8250 N   0  0  0  0  0  0  0  0  0  0  0  0
  150.4258  139.6002  155.1966 C   0  0  0  0  0  0  0  0  0  0  0  0
  146.8198  140.3635  155.3943 C   0  0  0  0  0  0  0  0  0  0  0  0
  145.7828  141.4207  155.7471 C   0  0  0  0  0  0  0  0  0  0  0  0
  146.2738  142.5682  155.0769 O   0  0  0  0  0  0  0  0  0  0  0  0
  146.7755  142.1660  153.8067 C   0  0  0  0  0  0  0  0  0  0  0  0
  145.4508  140.3948  153.0327 H   0  0  0  0  0  0  0  0  0  0  0  0
  148.6790  139.2935  153.2377 H   0  0  0  0  0  0  0  0  0  0  0  0
  148.9327  140.9417  152.7258 H   0  0  0  0  0  0  0  0  0  0  0  0
  149.1716  142.5780  155.2253 H   0  0  0  0  0  0  0  0  0  0  0  0
  151.9670  138.9689  159.5593 H   0  0  0  0  0  0  0  0  0  0  0  0
  153.1988  138.0606  158.7009 H   0  0  0  0  0  0  0  0  0  0  0  0
  154.0123  138.8572  160.9442 H   0  0  0  0  0  0  0  0  0  0  0  0
  154.9838  139.4779  159.6293 H   0  0  0  0  0  0  0  0  0  0  0  0
  152.7727  140.9883  161.1044 H   0  0  0  0  0  0  0  0  0  0  0  0
  154.4890  141.3094  161.2145 H   0  0  0  0  0  0  0  0  0  0  0  0
  154.5772  141.9554  158.8406 H   0  0  0  0  0  0  0  0  0  0  0  0
  151.5220  142.2831  160.5396 H   0  0  0  0  0  0  0  0  0  0  0  0
  152.3876  143.2875  161.7034 H   0  0  0  0  0  0  0  0  0  0  0  0
  150.2464  144.3719  160.7456 H   0  0  0  0  0  0  0  0  0  0  0  0
  152.0345  144.5804  158.2151 H   0  0  0  0  0  0  0  0  0  0  0  0
  150.3849  145.3532  158.4700 H   0  0  0  0  0  0  0  0  0  0  0  0
  151.2864  146.6222  160.4450 H   0  0  0  0  0  0  0  0  0  0  0  0
  152.9350  145.8492  160.1864 H   0  0  0  0  0  0  0  0  0  0  0  0
  152.5272  141.9864  157.4290 H   0  0  0  0  0  0  0  0  0  0  0  0
  151.5590  141.4285  158.7818 H   0  0  0  0  0  0  0  0  0  0  0  0
  151.7589  136.6800  155.3373 H   0  0  0  0  0  0  0  0  0  0  0  0
  146.4676  139.3448  155.5620 H   0  0  0  0  0  0  0  0  0  0  0  0
  147.7026  140.5145  156.0173 H   0  0  0  0  0  0  0  0  0  0  0  0
  144.7999  141.1555  155.3546 H   0  0  0  0  0  0  0  0  0  0  0  0
  145.6957  141.5864  156.8210 H   0  0  0  0  0  0  0  0  0  0  0  0
  147.6331  142.7912  153.5611 H   0  0  0  0  0  0  0  0  0  0  0  0
  146.0165  142.3375  153.0414 H   0  0  0  0  0  0  0  0  0  0  0  0
  1  2  1  0  0  0  0
  1 28  1  0  0  0  0
  2 27  1  0  0  0  0
  2  3  1  0  0  0  0
  2 24  1  0  0  0  0
  3  4  1  0  0  0  0
  3 29  1  0  0  0  0
  3 30  1  0  0  0  0
  4 23  1  0  0  0  0
  4  5  1  0  0  0  0
  5  6  2  0  0  0  0
  5 31  1  0  0  0  0
  6  7  1  0  0  0  0
  7 23  2  0  0  0  0
  7  8  1  0  0  0  0
  8  9  1  0  0  0  0
  8 20  2  0  0  0  0
  9 19  1  0  0  0  0
  9 10  1  0  0  0  0
 10 11  1  0  0  0  0
 10 32  1  0  0  0  0
 10 33  1  0  0  0  0
 11 12  1  0  0  0  0
 11 34  1  0  0  0  0
 11 35  1  0  0  0  0
 12 13  1  0  0  0  0
 12 36  1  0  0  0  0
 12 37  1  0  0  0  0
 13 14  1  0  0  0  0
 13 19  1  0  0  0  0
 13 38  1  0  0  0  0
 14 15  1  0  0  0  0
 15 16  1  0  0  0  0
 15 39  1  0  0  0  0
 15 40  1  0  0  0  0
 16 18  1  0  0  0  0
 16 17  1  0  0  0  0
 16 41  1  0  0  0  0
 17 18  1  0  0  0  0
 17 42  1  0  0  0  0
 17 43  1  0  0  0  0
 18 44  1  0  0  0  0
 18 45  1  0  0  0  0
 19 46  1  0  0  0  0
 19 47  1  0  0  0  0
 20 21  1  0  0  0  0
 21 22  2  0  0  0  0
 21 48  1  0  0  0  0
 22 23  1  0  0  0  0
 24 25  1  0  0  0  0
 24 49  1  0  0  0  0
 24 50  1  0  0  0  0
 25 26  1  0  0  0  0
 25 51  1  0  0  0  0
 25 52  1  0  0  0  0
 26 27  1  0  0  0  0
 27 53  1  0  0  0  0
 27 54  1  0  0  0  0
M  END
> <s_m_source_file>
AV-unprocessed.smi

> <i_m_source_file_index>
166

> <i_lp_mmshare_version>
43012

> <i_f3d_flags>
0

> <s_epik_input>
W0NIMl0xT1tDSDJdW0NIMl1bQ0BAXTEoW09IXSlbQ0gyXW4oW2NIXW4yKWMoYzIzKW5bY0hdbmMzTjRbQ0gyXVtDSDJdW0NIMl1bQ0BIXShbQ0gyXTQpT1tDSDJdW0NIXTVbQ0gyXVtDSDJdNQ==

> <s_epik_cmdline>
J2VwaWtfcHl0aG9uJywgJy1waCcsICc3LjAnLCAnLXRuJywgJzgnLCAnLW1hJywgJzIwMCcsICctbWV0YWxfYmluZGluZycsICctaW1hZScsICc8aW5maWxlLm1hZT4nLCAnLW9tYWUnLCAnPG91dGZpbGUubWFlPic=

> <r_lp_tautomer_probability>
1

> <r_epik_Ionization_Penalty>
0.00342552

> <r_epik_Ionization_Penalty_Charging>
0

> <r_epik_Ionization_Penalty_Neutral>
0.00342552

> <r_epik_State_Penalty>
0.0022204

> <r_epik_Charging_Adjusted_Penalty>
0.0022204

> <i_epik_Tot_Q>
0

> <i_epik_Tot_abs_Q>
0

> <r_epik_Metal_State_Penalty>
-0

> <b_epik_Metal_Only>
0

> <s_lp_Force_Field>
OPLS_2005

> <r_lp_Energy>
47.9091

> <b_lp_Chiralities_Consistent>
1

> <s_lp_Variant>
AV-unprocessed.smi:166-4

> <Gold.Version>
5.8.1

> <Gold.Id.Protein>
6NUR|6NUR_protein|mol2

> <Gold.PLP.Fitness>
55.2830

> <Gold.PLP.PLP>
-48.0385

> <Gold.PLP.part.hbond>
-2.0000

> <Gold.PLP.part.metal>
0.0000

> <Gold.PLP.part.buried>
-4.7177

> <Gold.PLP.part.nonpolar>
-40.5742

> <Gold.PLP.part.repulsive>
0.3942

> <Gold.PLP.ligand.clash>
0.0000

> <Gold.PLP.ligand.torsion>
1.3009

> <Gold.PLP.Chemscore.Hbond>
1.9840

> <Gold.PLP.Chemscore.CHOScore>
1.0000

> <Gold.PLP.Chemscore.Metal>
0.0000

> <Gold.Chemscore.Hbonds>
donor molecule, donor type, donor heavy atom, donor atom, acceptor molecule, acceptor atom, score
      L1  H     1    28       P1 10175  1.00
      P1  H  7997  8010       L1     9  0.99
      L1  C     5    31       P1  8028  1.00

> <Gold.PLP.Chemscore.Internal.Correction>
0.8944

> <Gold.Rescore>
     Score         DG    S(hbond)    S(metal)    S(lipo)     H(rot)  DE(clash)    DE(int)     intcor
      8.93     -12.91       0.05        0.00     120.77       2.68       1.67       2.31       ----

> <Gold.Chemscore.Fitness>
8.9274

> <Gold.Chemscore.DG>
-12.9144

> <Gold.Chemscore.ZeroCoef>
-5.4800

> <Gold.Chemscore.Hbond>
0.0506

> <Gold.Chemscore.Metal>
0.0000

> <Gold.Chemscore.Lipo>
120.7720

> <Gold.Chemscore.Internal_Hbond>
0.0000

> <Gold.Chemscore.DEClash>
1.6736

> <Gold.Chemscore.DEInternal>
2.3134

> <Gold.Chemscore.Rot>
2.6817

> <Gold.Chemscore.Internal.Correction>
   9.000000E+99

> <Gold.Chemscore.Hbonds>
donor molecule, donor type, donor heavy atom, donor atom, acceptor molecule, acceptor atom, score
      L1  H     1    28       P1 10175  0.90
      P1  H  7997  8010       L1     9  0.08

> <Gold.Chemscore.Hbond.Weighted>
-0.1691

> <Gold.Chemscore.Metal.Weighted>
-0.0000

> <Gold.Chemscore.Lipo.Weighted>
-14.1303

> <Gold.Chemscore.Internal_Hbond.Weighted>
0.0000

> <Gold.Chemscore.DEClash.Weighted>
1.6736

> <Gold.Chemscore.DEInternal.Weighted>
2.3134

> <Gold.Chemscore.Rot.Weighted>
6.8651

> <Gold.Chemscore.Internal.Correction.Weighted>
   9.000000E+99

> <Gold.Protein.RotatedTorsions>
[ 6907 6896 6895 6894 ] final   -6.16 input  -60.11 | X-H torsion
[ 7974 7965 7964 7962 ] final  -12.83 input  175.53 | X-H torsion
[ 8008 7997 7996 7995 ] final   31.15 input   59.86 | X-H torsion
[ 10167 10162 10161 10158 ] final  -93.75 input  -65.29 | X-H torsion
[ 10718 10713 10712 10709 ] final   22.19 input   66.30 | X-H torsion
[ 10763 10752 10751 10750 ] final -126.73 input  -60.55 | X-H torsion
[ 11005 11000 10999 10996 ] final  102.18 input  -57.11 | X-H torsion

> <Gold.Protein.ActiveResidues>
 VAL166  LYS551  ARG553  GLY616  TRP617  ASP618  TYR619  PRO620  LYS621  CYS622 
 ASP623  PHE694  ASN695  SER759  ASP760  ASP761  ALA762  ILE779  LEU786  VAL792 
 PHE793  MET794  SER795  GLU796  ALA797  LYS798  CYS799  TRP800  GLU811  SER814 

> <Gold.Protein.RotatedAtoms>
  151.4699  135.1045  159.9748 H   0  0  0  0  0  0  0  0  0  0  0  0  # atno 6907 bound_to 6896
  152.4820  133.8275  159.7096 H   0  0  0  0  0  0  0  0  0  0  0  0  # atno 6908 bound_to 6896
  150.8900  133.7196  159.2934 H   0  0  0  0  0  0  0  0  0  0  0  0  # atno 6909 bound_to 6896
  146.2137  140.3115  142.8383 H   0  0  0  0  0  0  0  0  0  0  0  0  # atno 7974 bound_to 7965
  155.1018  140.3230  155.4545 H   0  0  0  0  0  0  0  0  0  0  0  0  # atno 8008 bound_to 7997
  156.2715  140.2059  156.6091 H   0  0  0  0  0  0  0  0  0  0  0  0  # atno 8009 bound_to 7997
  154.6823  140.0525  157.0266 H   0  0  0  0  0  0  0  0  0  0  0  0  # atno 8010 bound_to 7997
  140.3215  143.3046  152.0041 H   0  0  0  0  0  0  0  0  0  0  0  0  # atno 10167 bound_to 10162
  157.1489  130.6666  149.6005 H   0  0  0  0  0  0  0  0  0  0  0  0  # atno 10718 bound_to 10713
  154.8748  135.3985  154.3479 H   0  0  0  0  0  0  0  0  0  0  0  0  # atno 10763 bound_to 10752
  153.4269  135.7024  153.6262 H   0  0  0  0  0  0  0  0  0  0  0  0  # atno 10764 bound_to 10752
  153.4900  135.3750  155.2457 H   0  0  0  0  0  0  0  0  0  0  0  0  # atno 10765 bound_to 10752
  139.8776  134.9214  156.5019 H   0  0  0  0  0  0  0  0  0  0  0  0  # atno 11005 bound_to 11000
  144.8985  140.7613  143.5882 LP  0  0  0  0  0  0  0  0  0  0  0  0  # atno 17320 bound_to 7965
  145.3040  139.1841  143.4674 LP  0  0  0  0  0  0  0  0  0  0  0  0  # atno 17321 bound_to 7965
  139.4873  144.6307  151.7075 LP  0  0  0  0  0  0  0  0  0  0  0  0  # atno 17342 bound_to 10162
  140.5479  144.0473  150.6115 LP  0  0  0  0  0  0  0  0  0  0  0  0  # atno 17343 bound_to 10162
  155.9774  130.4751  150.6591 LP  0  0  0  0  0  0  0  0  0  0  0  0  # atno 17370 bound_to 10713
  157.4238  131.0840  151.1105 LP  0  0  0  0  0  0  0  0  0  0  0  0  # atno 17371 bound_to 10713
  140.8583  133.8079  155.9239 LP  0  0  0  0  0  0  0  0  0  0  0  0  # atno 17394 bound_to 11000
  140.9075  134.2302  157.5005 LP  0  0  0  0  0  0  0  0  0  0  0  0  # atno 17395 bound_to 11000

$$$$
