AV-unprocessed.smi:2771|AV-procd|sdf|10662|dock2
  -GOLD-   2272015103D 1   1.00000     0.00000
 Structure written by MMmdl.
 43 44  0  0  0  0  0  0  0  0  1 V2000
  146.7913  129.1042  153.5408 C   0  0  0  0  0  0  0  0  0  0  0  0
  146.6454  130.4160  152.7988 C   0  0  0  0  0  0  0  0  0  0  0  0
  145.7648  130.5371  151.7061 C   0  0  0  0  0  0  0  0  0  0  0  0
  145.6770  131.7836  151.0607 C   0  0  0  0  0  0  0  0  0  0  0  0
  146.4683  132.8498  151.5307 C   0  0  0  0  0  0  0  0  0  0  0  0
  147.3284  132.6439  152.6330 C   0  0  0  0  0  0  0  0  0  0  0  0
  148.0835  133.7796  153.0296 N   0  0  0  0  0  0  0  0  0  0  0  0
  148.7402  133.9774  154.1863 C   0  0  0  0  0  0  0  0  0  0  0  0
  148.7996  133.1749  155.1184 O   0  0  0  0  0  0  0  0  0  0  0  0
  149.3429  135.1748  154.2036 N   0  0  0  0  0  0  0  0  0  0  0  0
  150.1476  135.6979  155.3037 C   0  0  0  0  0  0  0  0  0  0  0  0
  150.7627  137.0734  154.9531 C   0  0  2  0  0  0  0  0  0  0  0  0
  151.8778  136.8082  154.1223 O   0  0  0  0  0  0  0  0  0  0  0  0
  151.2653  137.8922  156.1756 C   0  0  0  0  0  0  0  0  0  0  0  0
  150.2119  137.9899  157.3082 C   0  0  0  0  0  0  0  0  0  0  0  0
  150.7076  138.8269  158.4992 C   0  0  0  0  0  0  0  0  0  0  0  0
  151.1313  140.2334  158.0596 C   0  0  0  0  0  0  0  0  0  0  0  0
  152.1903  140.1566  156.9533 C   0  0  0  0  0  0  0  0  0  0  0  0
  151.6894  139.3252  155.7620 C   0  0  0  0  0  0  0  0  0  0  0  0
  147.4055  131.4376  153.2481 N   0  0  0  0  0  0  0  0  0  0  0  0
  145.9967  128.4081  153.2711 H   0  0  0  0  0  0  0  0  0  0  0  0
  146.7474  129.2670  154.6181 H   0  0  0  0  0  0  0  0  0  0  0  0
  147.7487  128.6406  153.3020 H   0  0  0  0  0  0  0  0  0  0  0  0
  145.1717  129.6994  151.3698 H   0  0  0  0  0  0  0  0  0  0  0  0
  145.0146  131.9210  150.2189 H   0  0  0  0  0  0  0  0  0  0  0  0
  146.4125  133.8137  151.0460 H   0  0  0  0  0  0  0  0  0  0  0  0
  148.1310  134.5271  152.3532 H   0  0  0  0  0  0  0  0  0  0  0  0
  149.2425  135.7695  153.3941 H   0  0  0  0  0  0  0  0  0  0  0  0
  149.4533  135.7800  156.1362 H   0  0  0  0  0  0  0  0  0  0  0  0
  150.9120  134.9871  155.6237 H   0  0  0  0  0  0  0  0  0  0  0  0
  150.0418  137.6721  154.3943 H   0  0  0  0  0  0  0  0  0  0  0  0
  151.5912  136.8230  153.2213 H   0  0  0  0  0  0  0  0  0  0  0  0
  152.1435  137.3866  156.5807 H   0  0  0  0  0  0  0  0  0  0  0  0
  149.2905  138.4231  156.9166 H   0  0  0  0  0  0  0  0  0  0  0  0
  149.9517  137.0039  157.6881 H   0  0  0  0  0  0  0  0  0  0  0  0
  149.9249  138.8953  159.2555 H   0  0  0  0  0  0  0  0  0  0  0  0
  151.5510  138.3228  158.9728 H   0  0  0  0  0  0  0  0  0  0  0  0
  150.2613  140.7841  157.6995 H   0  0  0  0  0  0  0  0  0  0  0  0
  151.5215  140.7901  158.9122 H   0  0  0  0  0  0  0  0  0  0  0  0
  152.4527  141.1614  156.6205 H   0  0  0  0  0  0  0  0  0  0  0  0
  153.1048  139.7138  157.3496 H   0  0  0  0  0  0  0  0  0  0  0  0
  152.4798  139.2936  155.0120 H   0  0  0  0  0  0  0  0  0  0  0  0
  150.8462  139.8355  155.2942 H   0  0  0  0  0  0  0  0  0  0  0  0
  1  2  1  0  0  0  0
  1 21  1  0  0  0  0
  1 22  1  0  0  0  0
  1 23  1  0  0  0  0
  2 20  1  0  0  0  0
  2  3  2  0  0  0  0
  3  4  1  0  0  0  0
  3 24  1  0  0  0  0
  4  5  2  0  0  0  0
  4 25  1  0  0  0  0
  5  6  1  0  0  0  0
  5 26  1  0  0  0  0
  6  7  1  0  0  0  0
  6 20  2  0  0  0  0
  7  8  1  0  0  0  0
  7 27  1  0  0  0  0
  8  9  2  0  0  0  0
  8 10  1  0  0  0  0
 10 11  1  0  0  0  0
 10 28  1  0  0  0  0
 11 12  1  0  0  0  0
 11 29  1  0  0  0  0
 11 30  1  0  0  0  0
 12 13  1  0  0  0  0
 12 14  1  0  0  0  0
 12 31  1  0  0  0  0
 13 32  1  0  0  0  0
 14 19  1  0  0  0  0
 14 15  1  0  0  0  0
 14 33  1  0  0  0  0
 15 16  1  0  0  0  0
 15 34  1  0  0  0  0
 15 35  1  0  0  0  0
 16 17  1  0  0  0  0
 16 36  1  0  0  0  0
 16 37  1  0  0  0  0
 17 18  1  0  0  0  0
 17 38  1  0  0  0  0
 17 39  1  0  0  0  0
 18 19  1  0  0  0  0
 18 40  1  0  0  0  0
 18 41  1  0  0  0  0
 19 42  1  0  0  0  0
 19 43  1  0  0  0  0
M  END
> <s_m_source_file>
AV-unprocessed.smi

> <i_m_source_file_index>
2771

> <i_lp_mmshare_version>
43012

> <i_f3d_flags>
0

> <s_epik_input>
W0NIM11jMVtjSF1bY0hdW2NIXWMobjEpW05IXUMoPU8pW05IXVtDSDJdW0NASF0oW09IXSlbQ0hdMltDSDJdW0NIMl1bQ0gyXVtDSDJdW0NIMl0y

> <s_epik_cmdline>
J2VwaWtfcHl0aG9uJywgJy1waCcsICc3LjAnLCAnLXRuJywgJzgnLCAnLW1hJywgJzIwMCcsICctbWV0YWxfYmluZGluZycsICctaW1hZScsICc8aW5maWxlLm1hZT4nLCAnLW9tYWUnLCAnPG91dGZpbGUubWFlPic=

> <r_lp_tautomer_probability>
1

> <r_epik_Ionization_Penalty>
8.92802e-05

> <r_epik_Ionization_Penalty_Charging>
0

> <r_epik_Ionization_Penalty_Neutral>
8.92802e-05

> <r_epik_State_Penalty>
-0

> <r_epik_Charging_Adjusted_Penalty>
0

> <i_epik_Tot_Q>
0

> <i_epik_Tot_abs_Q>
0

> <r_epik_Metal_State_Penalty>
-0

> <b_epik_Metal_Only>
0

> <s_lp_Force_Field>
OPLS_2005

> <r_lp_Energy>
16.1378

> <b_lp_Chiralities_Consistent>
1

> <s_lp_Variant>
AV-unprocessed.smi:2771-1

> <Gold.Version>
5.8.1

> <Gold.Id.Protein>
6NUR|6NUR_protein|mol2

> <Gold.PLP.Fitness>
42.8398

> <Gold.PLP.PLP>
-31.6018

> <Gold.PLP.part.hbond>
-4.0312

> <Gold.PLP.part.metal>
0.0000

> <Gold.PLP.part.buried>
-2.9967

> <Gold.PLP.part.nonpolar>
-23.8833

> <Gold.PLP.part.repulsive>
0.1486

> <Gold.PLP.ligand.clash>
0.0000

> <Gold.PLP.ligand.torsion>
0.3187

> <Gold.PLP.Chemscore.Hbond>
3.9440

> <Gold.PLP.Chemscore.CHOScore>
0.0000

> <Gold.PLP.Chemscore.Metal>
0.0000

> <Gold.Chemscore.Hbonds>
donor molecule, donor type, donor heavy atom, donor atom, acceptor molecule, acceptor atom, score
      L1  H     7    27       P1  7948  0.94
      L1  H    10    28       P1  7948  1.00
      L1  H    13    32       P1  7949  1.00
      P1  H 10752 10763       L1    13  1.00

> <Gold.PLP.Chemscore.Internal.Correction>
0.0432

> <Gold.Rescore>
     Score         DG    S(hbond)    S(metal)    S(lipo)     H(rot)  DE(clash)    DE(int)     intcor
     17.85     -19.56       3.16        0.00      73.02       1.95       0.14       1.56       ----

> <Gold.Chemscore.Fitness>
17.8538

> <Gold.Chemscore.DG>
-19.5619

> <Gold.Chemscore.ZeroCoef>
-5.4800

> <Gold.Chemscore.Hbond>
3.1555

> <Gold.Chemscore.Metal>
0.0000

> <Gold.Chemscore.Lipo>
73.0246

> <Gold.Chemscore.Internal_Hbond>
0.0000

> <Gold.Chemscore.DEClash>
0.1434

> <Gold.Chemscore.DEInternal>
1.5647

> <Gold.Chemscore.Rot>
1.9536

> <Gold.Chemscore.Internal.Correction>
   9.000000E+99

> <Gold.Chemscore.Hbonds>
donor molecule, donor type, donor heavy atom, donor atom, acceptor molecule, acceptor atom, score
      L1  H     7    27       P1  7948  0.23
      L1  H    10    28       P1  7948  0.54
      L1  H    13    32       P1  7949  0.90
      P1  H 10752 10763       L1    13  0.72

> <Gold.Chemscore.Hbond.Weighted>
-10.5393

> <Gold.Chemscore.Metal.Weighted>
-0.0000

> <Gold.Chemscore.Lipo.Weighted>
-8.5439

> <Gold.Chemscore.Internal_Hbond.Weighted>
0.0000

> <Gold.Chemscore.DEClash.Weighted>
0.1434

> <Gold.Chemscore.DEInternal.Weighted>
1.5647

> <Gold.Chemscore.Rot.Weighted>
5.0013

> <Gold.Chemscore.Internal.Correction.Weighted>
   9.000000E+99

> <Gold.Protein.RotatedTorsions>
[ 6907 6896 6895 6894 ] final  156.37 input  -60.11 | X-H torsion
[ 7974 7965 7964 7962 ] final  -61.40 input  175.53 | X-H torsion
[ 8008 7997 7996 7995 ] final  -86.13 input   59.86 | X-H torsion
[ 10167 10162 10161 10158 ] final   14.86 input  -65.29 | X-H torsion
[ 10718 10713 10712 10709 ] final  -13.41 input   66.30 | X-H torsion
[ 10763 10752 10751 10750 ] final   44.66 input  -60.55 | X-H torsion
[ 11005 11000 10999 10996 ] final   52.06 input  -57.11 | X-H torsion

> <Gold.Protein.ActiveResidues>
 VAL166  LYS551  ARG553  GLY616  TRP617  ASP618  TYR619  PRO620  LYS621  CYS622 
 ASP623  PHE694  ASN695  SER759  ASP760  ASP761  ALA762  ILE779  LEU786  VAL792 
 PHE793  MET794  SER795  GLU796  ALA797  LYS798  CYS799  TRP800  GLU811  SER814 

> <Gold.Protein.RotatedAtoms>
  152.0307  133.3936  159.4295 H   0  0  0  0  0  0  0  0  0  0  0  0  # atno 6907 bound_to 6896
  150.6882  134.3524  159.4924 H   0  0  0  0  0  0  0  0  0  0  0  0  # atno 6908 bound_to 6896
  152.1309  134.9135  160.0609 H   0  0  0  0  0  0  0  0  0  0  0  0  # atno 6909 bound_to 6896
  145.8039  140.8639  143.0217 H   0  0  0  0  0  0  0  0  0  0  0  0  # atno 7974 bound_to 7965
  154.6485  140.0582  156.9928 H   0  0  0  0  0  0  0  0  0  0  0  0  # atno 8008 bound_to 7997
  155.1408  140.3265  155.4434 H   0  0  0  0  0  0  0  0  0  0  0  0  # atno 8009 bound_to 7997
  156.2565  140.1964  156.6523 H   0  0  0  0  0  0  0  0  0  0  0  0  # atno 8010 bound_to 7997
  140.5907  143.8802  150.6871 H   0  0  0  0  0  0  0  0  0  0  0  0  # atno 10167 bound_to 10162
  156.6306  130.4900  149.6130 H   0  0  0  0  0  0  0  0  0  0  0  0  # atno 10718 bound_to 10713
  152.9837  135.6064  154.3310 H   0  0  0  0  0  0  0  0  0  0  0  0  # atno 10763 bound_to 10752
  154.3013  135.2773  155.2611 H   0  0  0  0  0  0  0  0  0  0  0  0  # atno 10764 bound_to 10752
  154.4862  135.5904  153.6482 H   0  0  0  0  0  0  0  0  0  0  0  0  # atno 10765 bound_to 10752
  140.0881  134.5247  155.8879 H   0  0  0  0  0  0  0  0  0  0  0  0  # atno 11005 bound_to 11000
  144.6765  140.0298  143.7482 LP  0  0  0  0  0  0  0  0  0  0  0  0  # atno 17320 bound_to 7965
  145.9849  139.2969  143.1020 LP  0  0  0  0  0  0  0  0  0  0  0  0  # atno 17321 bound_to 7965
  140.2324  143.3726  152.1555 LP  0  0  0  0  0  0  0  0  0  0  0  0  # atno 17342 bound_to 10162
  139.5225  144.7060  151.5352 LP  0  0  0  0  0  0  0  0  0  0  0  0  # atno 17343 bound_to 10162
  156.2238  130.6753  151.1395 LP  0  0  0  0  0  0  0  0  0  0  0  0  # atno 17370 bound_to 10713
  157.7201  131.0687  150.6171 LP  0  0  0  0  0  0  0  0  0  0  0  0  # atno 17371 bound_to 10713
  141.2069  133.6659  156.6271 LP  0  0  0  0  0  0  0  0  0  0  0  0  # atno 17394 bound_to 11000
  140.3392  134.7863  157.4385 LP  0  0  0  0  0  0  0  0  0  0  0  0  # atno 17395 bound_to 11000

$$$$
