AV-unprocessed.smi:3156|AV-procd|sdf|12031|dock9
  -GOLD-   2272017453D 1   1.00000     0.00000
 Structure written by MMmdl.
 41 42  0  0  0  0  0  0  0  0  2 V2000
  152.2449  139.2367  155.2927 C   0  0  0  0  0  0  0  0  0  0  0  0
  151.0674  140.1979  155.0381 C   0  0  2  0  0  0  0  0  0  0  0  0
  151.2002  141.3969  155.8995 N   0  3  0  0  0  0  0  0  0  0  0  0
  151.1117  141.1468  157.3540 C   0  0  0  0  0  0  0  0  0  0  0  0
  151.8956  142.2002  158.1514 C   0  0  1  0  0  0  0  0  0  0  0  0
  151.3775  143.6339  157.9114 C   0  0  0  0  0  0  0  0  0  0  0  0
  152.1205  144.6339  158.8046 C   0  0  0  0  0  0  0  0  0  0  0  0
  152.0473  144.1759  160.2647 C   0  0  0  0  0  0  0  0  0  0  0  0
  152.5248  142.7207  160.3918 C   0  0  0  0  0  0  0  0  0  0  0  0
  151.7565  141.8818  159.5340 O   0  0  0  0  0  0  0  0  0  0  0  0
  149.6895  139.5224  155.2828 C   0  0  2  0  0  0  0  0  0  0  0  0
  149.6432  138.0519  154.8276 C   0  0  0  0  0  0  0  0  0  0  0  0
  148.6014  140.2590  154.6477 N   0  0  0  0  0  0  0  0  0  0  0  0
  148.2687  141.5892  154.8036 C   0  0  0  0  0  0  0  0  0  0  0  0
  147.1678  141.8291  154.0327 C   0  0  0  0  0  0  0  0  0  0  0  0
  146.8859  140.5657  153.4428 C   0  0  0  0  0  0  0  0  0  0  0  0
  147.7416  139.6280  153.8156 N   0  0  0  0  0  0  0  0  0  0  0  0
  152.2206  138.3828  154.6167 H   0  0  0  0  0  0  0  0  0  0  0  0
  152.2314  138.8547  156.3138 H   0  0  0  0  0  0  0  0  0  0  0  0
  153.2063  139.7247  155.1358 H   0  0  0  0  0  0  0  0  0  0  0  0
  151.1083  140.5213  153.9965 H   0  0  0  0  0  0  0  0  0  0  0  0
  152.1136  141.7918  155.7246 H   0  0  0  0  0  0  0  0  0  0  0  0
  150.0720  141.1285  157.6800 H   0  0  0  0  0  0  0  0  0  0  0  0
  151.5264  140.1586  157.5578 H   0  0  0  0  0  0  0  0  0  0  0  0
  152.9520  142.1347  157.8827 H   0  0  0  0  0  0  0  0  0  0  0  0
  151.4980  143.9160  156.8651 H   0  0  0  0  0  0  0  0  0  0  0  0
  150.3091  143.6800  158.1260 H   0  0  0  0  0  0  0  0  0  0  0  0
  153.1634  144.7020  158.4928 H   0  0  0  0  0  0  0  0  0  0  0  0
  151.6941  145.6316  158.6969 H   0  0  0  0  0  0  0  0  0  0  0  0
  152.6504  144.8287  160.8962 H   0  0  0  0  0  0  0  0  0  0  0  0
  151.0200  144.2544  160.6229 H   0  0  0  0  0  0  0  0  0  0  0  0
  153.5851  142.6357  160.1483 H   0  0  0  0  0  0  0  0  0  0  0  0
  152.4068  142.3767  161.4194 H   0  0  0  0  0  0  0  0  0  0  0  0
  149.4934  139.5390  156.3563 H   0  0  0  0  0  0  0  0  0  0  0  0
  150.3179  137.4251  155.4095 H   0  0  0  0  0  0  0  0  0  0  0  0
  149.9144  137.9508  153.7762 H   0  0  0  0  0  0  0  0  0  0  0  0
  148.6421  137.6370  154.9511 H   0  0  0  0  0  0  0  0  0  0  0  0
  148.8367  142.2489  155.4435 H   0  0  0  0  0  0  0  0  0  0  0  0
  146.6394  142.7634  153.9135 H   0  0  0  0  0  0  0  0  0  0  0  0
  146.0893  140.3033  152.7623 H   0  0  0  0  0  0  0  0  0  0  0  0
  150.5014  142.0740  155.6296 H   0  0  0  0  0  0  0  0  0  0  0  0
  1  2  1  0  0  0  0
  1 18  1  0  0  0  0
  1 19  1  0  0  0  0
  1 20  1  0  0  0  0
  2  3  1  0  0  0  0
  2 11  1  0  0  0  0
  2 21  1  0  0  0  0
  3  4  1  0  0  0  0
  3 22  1  0  0  0  0
  3 41  1  0  0  0  0
  4  5  1  0  0  0  0
  4 23  1  0  0  0  0
  4 24  1  0  0  0  0
  5 10  1  0  0  0  0
  5  6  1  0  0  0  0
  5 25  1  0  0  0  0
  6  7  1  0  0  0  0
  6 26  1  0  0  0  0
  6 27  1  0  0  0  0
  7  8  1  0  0  0  0
  7 28  1  0  0  0  0
  7 29  1  0  0  0  0
  8  9  1  0  0  0  0
  8 30  1  0  0  0  0
  8 31  1  0  0  0  0
  9 10  1  0  0  0  0
  9 32  1  0  0  0  0
  9 33  1  0  0  0  0
 11 12  1  0  0  0  0
 11 13  1  0  0  0  0
 11 34  1  0  0  0  0
 12 35  1  0  0  0  0
 12 36  1  0  0  0  0
 12 37  1  0  0  0  0
 13 17  1  0  0  0  0
 13 14  1  0  0  0  0
 14 15  2  0  0  0  0
 14 38  1  0  0  0  0
 15 16  1  0  0  0  0
 15 39  1  0  0  0  0
 16 17  2  0  0  0  0
 16 40  1  0  0  0  0
M  CHG  1   3   1
M  END
> <s_m_source_file>
AV-unprocessed.smi

> <i_m_source_file_index>
3156

> <i_lp_mmshare_version>
43012

> <i_f3d_flags>
0

> <s_epik_input>
bjFbY0hdW2NIXVtjSF1uMVtDQEBIXShbQ0gzXSlbQ0BIXShbQ0gzXSlbTkhdW0NIMl1bQ0BASF0yW0NIMl1bQ0gyXVtDSDJdW0NIMl1PMg==

> <s_epik_cmdline>
J2VwaWtfcHl0aG9uJywgJy1waCcsICc3LjAnLCAnLXRuJywgJzgnLCAnLW1hJywgJzIwMCcsICctbWV0YWxfYmluZGluZycsICctaW1hZScsICc8aW5maWxlLm1hZT4nLCAnLW9tYWUnLCAnPG91dGZpbGUubWFlPic=

> <r_lp_tautomer_probability>
1

> <r_epik_Ionization_Penalty>
0.00658015

> <r_epik_Ionization_Penalty_Charging>
0.00656881

> <r_epik_Ionization_Penalty_Neutral>
1.13431e-05

> <r_epik_State_Penalty>
0.0048654

> <r_epik_Charging_Adjusted_Penalty>
0.0114342

> <i_epik_Tot_Q>
1

> <i_epik_Tot_abs_Q>
1

> <r_epik_Metal_State_Penalty>
-0

> <b_epik_Metal_Only>
0

> <s_lp_Force_Field>
OPLS_2005

> <r_lp_Energy>
18.0883

> <b_lp_Chiralities_Consistent>
1

> <s_lp_Variant>
AV-unprocessed.smi:3156-3

> <Gold.Version>
5.8.1

> <Gold.Id.Protein>
6NUR|6NUR_protein|mol2

> <Gold.PLP.Fitness>
42.5716

> <Gold.PLP.PLP>
-37.5876

> <Gold.PLP.part.hbond>
0.0000

> <Gold.PLP.part.metal>
0.0000

> <Gold.PLP.part.buried>
-2.5729

> <Gold.PLP.part.nonpolar>
-35.2539

> <Gold.PLP.part.repulsive>
0.3433

> <Gold.PLP.ligand.clash>
0.0000

> <Gold.PLP.ligand.torsion>
0.5509

> <Gold.PLP.Chemscore.Hbond>
0.0000

> <Gold.PLP.Chemscore.CHOScore>
2.0000

> <Gold.PLP.Chemscore.Metal>
0.0000

> <Gold.Chemscore.Hbonds>
donor molecule, donor type, donor heavy atom, donor atom, acceptor molecule, acceptor atom, score
      L1  C    14    38       P1  8028  1.00
      L1  C    16    40       P1 10175  1.00

> <Gold.PLP.Chemscore.Internal.Correction>
0.0858

> <Gold.Rescore>
     Score         DG    S(hbond)    S(metal)    S(lipo)     H(rot)  DE(clash)    DE(int)     intcor
     13.18     -13.83       0.00        0.00     106.27       1.59       0.18       0.48       ----

> <Gold.Chemscore.Fitness>
13.1769

> <Gold.Chemscore.DG>
-13.8333

> <Gold.Chemscore.ZeroCoef>
-5.4800

> <Gold.Chemscore.Hbond>
0.0000

> <Gold.Chemscore.Metal>
0.0000

> <Gold.Chemscore.Lipo>
106.2700

> <Gold.Chemscore.Internal_Hbond>
0.0000

> <Gold.Chemscore.DEClash>
0.1768

> <Gold.Chemscore.DEInternal>
0.4797

> <Gold.Chemscore.Rot>
1.5938

> <Gold.Chemscore.Internal.Correction>
   9.000000E+99

> <Gold.Chemscore.Hbond.Weighted>
-0.0000

> <Gold.Chemscore.Metal.Weighted>
-0.0000

> <Gold.Chemscore.Lipo.Weighted>
-12.4336

> <Gold.Chemscore.Internal_Hbond.Weighted>
0.0000

> <Gold.Chemscore.DEClash.Weighted>
0.1768

> <Gold.Chemscore.DEInternal.Weighted>
0.4797

> <Gold.Chemscore.Rot.Weighted>
4.0802

> <Gold.Chemscore.Internal.Correction.Weighted>
   9.000000E+99

> <Gold.Protein.RotatedTorsions>
[ 6907 6896 6895 6894 ] final    8.85 input  -60.11 | X-H torsion
[ 7974 7965 7964 7962 ] final  -38.48 input  175.53 | X-H torsion
[ 8008 7997 7996 7995 ] final   34.39 input   59.86 | X-H torsion
[ 10167 10162 10161 10158 ] final  -81.26 input  -65.29 | X-H torsion
[ 10718 10713 10712 10709 ] final -141.20 input   66.30 | X-H torsion
[ 10763 10752 10751 10750 ] final   96.86 input  -60.55 | X-H torsion
[ 11005 11000 10999 10996 ] final  -18.21 input  -57.11 | X-H torsion

> <Gold.Protein.ActiveResidues>
 VAL166  LYS551  ARG553  GLY616  TRP617  ASP618  TYR619  PRO620  LYS621  CYS622 
 ASP623  PHE694  ASN695  SER759  ASP760  ASP761  ALA762  ILE779  LEU786  VAL792 
 PHE793  MET794  SER795  GLU796  ALA797  LYS798  CYS799  TRP800  GLU811  SER814 

> <Gold.Protein.RotatedAtoms>
  151.7127  135.0909  160.0270 H   0  0  0  0  0  0  0  0  0  0  0  0  # atno 6907 bound_to 6896
  152.3651  133.6342  159.6053 H   0  0  0  0  0  0  0  0  0  0  0  0  # atno 6908 bound_to 6896
  150.7632  133.9277  159.3459 H   0  0  0  0  0  0  0  0  0  0  0  0  # atno 6909 bound_to 6896
  146.0482  140.6517  142.9054 H   0  0  0  0  0  0  0  0  0  0  0  0  # atno 7974 bound_to 7965
  155.1541  140.3277  155.4425 H   0  0  0  0  0  0  0  0  0  0  0  0  # atno 8008 bound_to 7997
  156.2564  140.1972  156.6601 H   0  0  0  0  0  0  0  0  0  0  0  0  # atno 8009 bound_to 7997
  154.6452  140.0565  156.9878 H   0  0  0  0  0  0  0  0  0  0  0  0  # atno 8010 bound_to 7997
  140.4428  143.2509  151.8601 H   0  0  0  0  0  0  0  0  0  0  0  0  # atno 10167 bound_to 10162
  156.3313  130.7587  151.1706 H   0  0  0  0  0  0  0  0  0  0  0  0  # atno 10718 bound_to 10713
  153.2699  135.4204  155.0978 H   0  0  0  0  0  0  0  0  0  0  0  0  # atno 10763 bound_to 10752
  154.8452  135.3469  154.6258 H   0  0  0  0  0  0  0  0  0  0  0  0  # atno 10764 bound_to 10752
  153.6678  135.7045  153.5214 H   0  0  0  0  0  0  0  0  0  0  0  0  # atno 10765 bound_to 10752
  140.8246  133.8043  155.9694 H   0  0  0  0  0  0  0  0  0  0  0  0  # atno 11005 bound_to 11000
  144.7109  140.4034  143.7081 LP  0  0  0  0  0  0  0  0  0  0  0  0  # atno 17320 bound_to 7965
  145.6769  139.1610  143.2723 LP  0  0  0  0  0  0  0  0  0  0  0  0  # atno 17321 bound_to 7965
  139.4791  144.5209  151.8802 LP  0  0  0  0  0  0  0  0  0  0  0  0  # atno 17342 bound_to 10162
  140.4298  144.2131  150.5888 LP  0  0  0  0  0  0  0  0  0  0  0  0  # atno 17343 bound_to 10162
  157.7431  131.0480  150.4975 LP  0  0  0  0  0  0  0  0  0  0  0  0  # atno 17370 bound_to 10713
  156.5142  130.4146  149.6285 LP  0  0  0  0  0  0  0  0  0  0  0  0  # atno 17371 bound_to 10713
  140.9063  134.2316  157.5012 LP  0  0  0  0  0  0  0  0  0  0  0  0  # atno 17394 bound_to 11000
  139.8707  134.9730  156.4792 LP  0  0  0  0  0  0  0  0  0  0  0  0  # atno 17395 bound_to 11000

$$$$
