#       Name:                AV-unprocessed.smi:3349
#       Creating user name   scv26
#       Creation time:       Fri Mar 27 19:36:05 2020


#       File generated by GOLD software.
#

@<TRIPOS>MOLECULE
AV-unprocessed.smi:3349
    47    48     1
SMALL
NO_CHARGES


@<TRIPOS>ATOM
      1 ****        -0.4625   1.9012  -1.4537 C.3            1 S1                 0.0000
      2 ****        -1.0468   1.0602  -0.2897 C.3            1 S1                 0.0000
      3 ****        -0.4505  -0.3728  -0.3578 C.3            1 S1                 0.0000
      4 ****         1.0077  -0.3706  -0.3207 N.am           1 S1                 0.0000
      5 ****         1.7790  -1.4370  -0.5786 C.2            1 S1                 0.0000
      6 ****         1.3220  -2.5447  -0.8628 O.2            1 S1                 0.0000
      7 ****         3.2994  -1.2227  -0.4905 C.3            1 S1                 0.0000
      8 ****         3.9897  -1.7628  -1.7619 C.3            1 S1                 0.0000
      9 ****         3.8483  -1.7956   0.7423 N.pl3          1 S1                 0.0000
     10 ****         3.3247  -1.8995   1.9702 C.2            1 S1                 0.0000
     11 ****         4.1535  -2.4004   2.8752 N.2            1 S1                 0.0000
     12 ****         5.2610  -2.5723   2.0965 C.2            1 S1                 0.0000
     13 ****         5.1410  -2.2026   0.8219 N.2            1 S1                 0.0000
     14 ****        -2.5282   1.0789  -0.2599 N.3            1 S1                 0.0000
     15 ****        -3.0858   0.3056   0.8559 C.3            1 S1                 0.0000
     16 ****        -4.6231   0.3503   0.9051 C.3            1 S1                 0.0000
     17 ****        -5.0625   1.6995   0.9781 O.3            1 S1                 0.0000
     18 ****        -4.6093   2.4682  -0.1274 C.3            1 S1                 0.0000
     19 ****        -3.0722   2.4401  -0.1822 C.3            1 S1                 0.0000
     20 ****         0.6240   1.8446  -1.5078 H              1 S1                 0.0000
     21 ****        -0.6844   2.9621  -1.3489 H              1 S1                 0.0000
     22 ****        -0.8543   1.5677  -2.4152 H              1 S1                 0.0000
     23 ****        -0.6882   1.5083   0.6384 H              1 S1                 0.0000
     24 ****        -0.7644  -0.9789   0.4907 H              1 S1                 0.0000
     25 ****        -0.7994  -0.8773  -1.2607 H              1 S1                 0.0000
     26 ****         1.4588   0.5033  -0.0917 H              1 S1                 0.0000
     27 ****         3.4870  -0.1485  -0.4451 H              1 S1                 0.0000
     28 ****         3.5038  -1.3914  -2.6650 H              1 S1                 0.0000
     29 ****         3.9676  -2.8529  -1.7985 H              1 S1                 0.0000
     30 ****         5.0327  -1.4488  -1.8106 H              1 S1                 0.0000
     31 ****         2.3161  -1.5989   2.2143 H              1 S1                 0.0000
     32 ****         6.1888  -2.9671   2.4838 H              1 S1                 0.0000
     33 ****        -2.8048  -0.7427   0.7781 H              1 S1                 0.0000
     34 ****        -2.6820   0.6743   1.8001 H              1 S1                 0.0000
     35 ****        -5.0522  -0.1341   0.0263 H              1 S1                 0.0000
     36 ****        -4.9890  -0.1898   1.7784 H              1 S1                 0.0000
     37 ****        -5.0369   2.0794  -1.0530 H              1 S1                 0.0000
     38 ****        -4.9648   3.4926  -0.0165 H              1 S1                 0.0000
     39 ****        -2.6702   2.9496   0.6949 H              1 S1                 0.0000
     40 ****        -2.7751   3.0236  -1.0516 H              1 S1                 0.0000
     41 ****         0.3324  -2.6802  -0.9097 LP             1 S1                 0.0000
     42 ****         1.9406  -3.3086  -1.0467 LP             1 S1                 0.0000
     43 ****         4.0094  -2.5954   3.8453 LP             1 S1                 0.0000
     44 ****         5.8335  -2.2205   0.1007 LP             1 S1                 0.0000
     45 ****        -2.7998   0.6562  -1.1245 LP             1 S1                 0.0000
     46 ****        -4.7116   2.1081   1.8207 LP             1 S1                 0.0000
     47 ****        -6.0623   1.7130   0.9923 LP             1 S1                 0.0000
@<TRIPOS>BOND
    1    1    2 1     
    2    1   20 1     
    3    1   21 1     
    4    1   22 1     
    5    2    3 1     
    6    2   14 1     
    7    2   23 1     
    8    3    4 1     
    9    3   24 1     
   10    3   25 1     
   11    4    5 am    
   12    4   26 1     
   13    5    6 2     
   14    5    7 1     
   15    7    8 1     
   16    7    9 1     
   17    7   27 1     
   18    8   28 1     
   19    8   29 1     
   20    8   30 1     
   21    9   13 1     
   22    9   10 1     
   23   10   11 2     
   24   10   31 1     
   25   11   12 1     
   26   12   13 2     
   27   12   32 1     
   28   14   19 1     
   29   14   15 1     
   30   15   16 1     
   31   15   33 1     
   32   15   34 1     
   33   16   17 1     
   34   16   35 1     
   35   16   36 1     
   36   17   18 1     
   37   18   19 1     
   38   18   37 1     
   39   18   38 1     
   40   19   39 1     
   41   19   40 1     
   42    6   41 1     
   43    6   42 1     
   44   11   43 1     
   45   13   44 1     
   46   14   45 1     
   47   17   46 1     
   48   17   47 1     
@<TRIPOS>SUBSTRUCTURE
      1 S1             1
@<TRIPOS>SET
LONE_PAIRS      STATIC     ATOMS    <user>   **** ""
7 41 42 43 44 45 46 47
DONOR_HYDROGENS      STATIC     ATOMS    <user>   **** ""
1 26
ATOM$BLUE        STATIC     ATOMS    COLORGROUP SYSTEM
7 41 42 43 44 45 46 47
ATOM$RED        STATIC     ATOMS    COLORGROUP SYSTEM
1 26
