AV-unprocessed.smi:2079|AV-procd|sdf|8476|dock1
  -GOLD-   2272011183D 1   1.00000     0.00000
 Structure written by MMmdl.
 42 43  0  0  0  0  0  0  0  0  2 V2000
  145.7654  129.8246  151.7354 C   0  0  0  0  0  0  0  0  0  0  0  0
  145.7886  131.2835  151.4319 C   0  0  0  0  0  0  0  0  0  0  0  0
  146.4253  132.3447  152.0120 C   0  0  0  0  0  0  0  0  0  0  0  0
  146.0016  133.4439  151.2186 C   0  0  0  0  0  0  0  0  0  0  0  0
  146.4473  134.7605  151.5001 N   0  0  0  0  0  0  0  0  0  0  0  0
  145.6920  135.8388  151.7700 C   0  0  0  0  0  0  0  0  0  0  0  0
  144.4610  135.8550  151.8016 O   0  0  0  0  0  0  0  0  0  0  0  0
  146.4480  136.9219  152.0022 N   0  0  0  0  0  0  0  0  0  0  0  0
  145.9249  138.2417  152.3358 C   0  0  0  0  0  0  0  0  0  0  0  0
  146.6729  138.8585  153.5349 C   0  0  0  0  0  0  0  0  0  0  0  0
  146.1723  140.2068  153.9160 N   0  3  1  0  0  0  0  0  0  0  0  0
  145.7490  140.2568  155.3420 C   0  0  0  0  0  0  0  0  0  0  0  0
  145.0392  141.5787  155.6735 C   0  0  0  0  0  0  0  0  0  0  0  0
  145.9246  142.7799  155.3268 C   0  0  0  0  0  0  0  0  0  0  0  0
  146.3593  142.6981  153.8574 C   0  0  0  0  0  0  0  0  0  0  0  0
  147.0490  141.3572  153.5261 C   0  0  1  0  0  0  0  0  0  0  0  0
  148.4763  141.2760  154.1095 C   0  0  0  0  0  0  0  0  0  0  0  0
  145.1817  133.0864  150.2419 N   0  0  0  0  0  0  0  0  0  0  0  0
  145.0403  131.7000  150.3742 O   0  0  0  0  0  0  0  0  0  0  0  0
  146.6207  129.5412  152.3491 H   0  0  0  0  0  0  0  0  0  0  0  0
  145.7995  129.2367  150.8180 H   0  0  0  0  0  0  0  0  0  0  0  0
  144.8570  129.5576  152.2756 H   0  0  0  0  0  0  0  0  0  0  0  0
  147.0855  132.3327  152.8666 H   0  0  0  0  0  0  0  0  0  0  0  0
  147.4478  134.8922  151.5038 H   0  0  0  0  0  0  0  0  0  0  0  0
  147.4520  136.8241  151.9581 H   0  0  0  0  0  0  0  0  0  0  0  0
  145.9931  138.8738  151.4502 H   0  0  0  0  0  0  0  0  0  0  0  0
  144.8645  138.1405  152.5688 H   0  0  0  0  0  0  0  0  0  0  0  0
  146.5420  138.1902  154.3871 H   0  0  0  0  0  0  0  0  0  0  0  0
  147.7469  138.8971  153.3521 H   0  0  0  0  0  0  0  0  0  0  0  0
  145.0664  139.4320  155.5500 H   0  0  0  0  0  0  0  0  0  0  0  0
  146.6115  140.1146  155.9939 H   0  0  0  0  0  0  0  0  0  0  0  0
  144.1023  141.6410  155.1182 H   0  0  0  0  0  0  0  0  0  0  0  0
  144.7741  141.6043  156.7308 H   0  0  0  0  0  0  0  0  0  0  0  0
  145.3839  143.7095  155.5076 H   0  0  0  0  0  0  0  0  0  0  0  0
  146.7990  142.7986  155.9781 H   0  0  0  0  0  0  0  0  0  0  0  0
  145.4802  142.8145  153.2217 H   0  0  0  0  0  0  0  0  0  0  0  0
  147.0175  143.5334  153.6156 H   0  0  0  0  0  0  0  0  0  0  0  0
  147.1515  141.3451  152.4419 H   0  0  0  0  0  0  0  0  0  0  0  0
  149.0602  142.1501  153.8197 H   0  0  0  0  0  0  0  0  0  0  0  0
  149.0166  140.4050  153.7394 H   0  0  0  0  0  0  0  0  0  0  0  0
  148.4788  141.2325  155.1980 H   0  0  0  0  0  0  0  0  0  0  0  0
  145.3208  140.3315  153.3873 H   0  0  0  0  0  0  0  0  0  0  0  0
  1  2  1  0  0  0  0
  1 20  1  0  0  0  0
  1 21  1  0  0  0  0
  1 22  1  0  0  0  0
  2 19  1  0  0  0  0
  2  3  2  0  0  0  0
  3  4  1  0  0  0  0
  3 23  1  0  0  0  0
  4  5  1  0  0  0  0
  4 18  2  0  0  0  0
  5  6  1  0  0  0  0
  5 24  1  0  0  0  0
  6  7  2  0  0  0  0
  6  8  1  0  0  0  0
  8  9  1  0  0  0  0
  8 25  1  0  0  0  0
  9 10  1  0  0  0  0
  9 26  1  0  0  0  0
  9 27  1  0  0  0  0
 10 11  1  0  0  0  0
 10 28  1  0  0  0  0
 10 29  1  0  0  0  0
 11 16  1  0  0  0  0
 11 12  1  0  0  0  0
 11 42  1  0  0  0  0
 12 13  1  0  0  0  0
 12 30  1  0  0  0  0
 12 31  1  0  0  0  0
 13 14  1  0  0  0  0
 13 32  1  0  0  0  0
 13 33  1  0  0  0  0
 14 15  1  0  0  0  0
 14 34  1  0  0  0  0
 14 35  1  0  0  0  0
 15 16  1  0  0  0  0
 15 36  1  0  0  0  0
 15 37  1  0  0  0  0
 16 17  1  0  0  0  0
 16 38  1  0  0  0  0
 17 39  1  0  0  0  0
 17 40  1  0  0  0  0
 17 41  1  0  0  0  0
 18 19  1  0  0  0  0
M  CHG  1  11   1
M  END
> <s_m_source_file>
AV-unprocessed.smi

> <i_m_source_file_index>
2079

> <i_lp_mmshare_version>
43012

> <i_f3d_flags>
0

> <s_epik_input>
W0NIM11jMVtjSF1jKG5vMSlbTkhdQyg9TylbTkhdW0NIMl1bQ0gyXU4yW0NIMl1bQ0gyXVtDSDJdW0NIMl1bQ0BIXTJbQ0gzXQ==

> <s_epik_cmdline>
J2VwaWtfcHl0aG9uJywgJy1waCcsICc3LjAnLCAnLXRuJywgJzgnLCAnLW1hJywgJzIwMCcsICctbWV0YWxfYmluZGluZycsICctaW1hZScsICc8aW5maWxlLm1hZT4nLCAnLW9tYWUnLCAnPG91dGZpbGUubWFlPic=

> <r_epik_Ionization_Penalty>
0.00265971

> <r_epik_Ionization_Penalty_Charging>
0.00262393

> <r_epik_Ionization_Penalty_Neutral>
3.57846e-05

> <r_epik_State_Penalty>
0.00182566

> <r_epik_Charging_Adjusted_Penalty>
0.00444959

> <i_epik_Tot_Q>
1

> <i_epik_Tot_abs_Q>
1

> <r_epik_Metal_State_Penalty>
0.0216344

> <b_epik_Metal_Only>
0

> <s_lp_Force_Field>
OPLS_2005

> <r_lp_Energy>
16.3098

> <b_lp_Chiralities_Consistent>
1

> <s_lp_Variant>
AV-unprocessed.smi:2079-2

> <Gold.Version>
5.8.1

> <Gold.Id.Protein>
6NUR|6NUR_protein|mol2

> <Gold.PLP.Fitness>
41.8096

> <Gold.PLP.PLP>
-32.6303

> <Gold.PLP.part.hbond>
-3.0000

> <Gold.PLP.part.metal>
0.0000

> <Gold.PLP.part.buried>
-5.4625

> <Gold.PLP.part.nonpolar>
-24.6706

> <Gold.PLP.part.repulsive>
0.5818

> <Gold.PLP.ligand.clash>
0.0000

> <Gold.PLP.ligand.torsion>
1.3039

> <Gold.PLP.Chemscore.Hbond>
3.9120

> <Gold.PLP.Chemscore.CHOScore>
0.0000

> <Gold.PLP.Chemscore.Metal>
0.0000

> <Gold.Chemscore.Hbonds>
donor molecule, donor type, donor heavy atom, donor atom, acceptor molecule, acceptor atom, score
      L1  H     5    24       P1  7948  0.93
      L1  H     8    25       P1  7948  1.00
      L1  H    11    42       P1 10175  2.00

> <Gold.PLP.Chemscore.Internal.Correction>
0.0511

> <Gold.Rescore>
     Score         DG    S(hbond)    S(metal)    S(lipo)     H(rot)  DE(clash)    DE(int)     intcor
     17.09     -18.40       2.64        0.00      69.40       1.57       0.21       1.10       ----

> <Gold.Chemscore.Fitness>
17.0866

> <Gold.Chemscore.DG>
-18.3997

> <Gold.Chemscore.ZeroCoef>
-5.4800

> <Gold.Chemscore.Hbond>
2.6402

> <Gold.Chemscore.Metal>
0.0000

> <Gold.Chemscore.Lipo>
69.4008

> <Gold.Chemscore.Internal_Hbond>
0.0000

> <Gold.Chemscore.DEClash>
0.2137

> <Gold.Chemscore.DEInternal>
1.0993

> <Gold.Chemscore.Rot>
1.5697

> <Gold.Chemscore.Internal.Correction>
   9.000000E+99

> <Gold.Chemscore.Hbonds>
donor molecule, donor type, donor heavy atom, donor atom, acceptor molecule, acceptor atom, score
      L1  H     5    24       P1  7948  0.48
      L1  H     8    25       P1  7948  0.98
      L1  H    11    42       P1 10175  0.99

> <Gold.Chemscore.Hbond.Weighted>
-8.8183

> <Gold.Chemscore.Metal.Weighted>
-0.0000

> <Gold.Chemscore.Lipo.Weighted>
-8.1199

> <Gold.Chemscore.Internal_Hbond.Weighted>
0.0000

> <Gold.Chemscore.DEClash.Weighted>
0.2137

> <Gold.Chemscore.DEInternal.Weighted>
1.0993

> <Gold.Chemscore.Rot.Weighted>
4.0185

> <Gold.Chemscore.Internal.Correction.Weighted>
   9.000000E+99

> <Gold.Protein.RotatedTorsions>
[ 6907 6896 6895 6894 ] final -168.01 input  -60.11 | X-H torsion
[ 7974 7965 7964 7962 ] final   39.35 input  175.53 | X-H torsion
[ 8008 7997 7996 7995 ] final  -27.08 input   59.86 | X-H torsion
[ 10167 10162 10161 10158 ] final -135.09 input  -65.29 | X-H torsion
[ 10718 10713 10712 10709 ] final  173.28 input   66.30 | X-H torsion
[ 10763 10752 10751 10750 ] final -121.85 input  -60.55 | X-H torsion
[ 11005 11000 10999 10996 ] final  -69.50 input  -57.11 | X-H torsion

> <Gold.Protein.ActiveResidues>
 VAL166  LYS551  ARG553  GLY616  TRP617  ASP618  TYR619  PRO620  LYS621  CYS622 
 ASP623  PHE694  ASN695  SER759  ASP760  ASP761  ALA762  ILE779  LEU786  VAL792 
 PHE793  MET794  SER795  GLU796  ALA797  LYS798  CYS799  TRP800  GLU811  SER814 

> <Gold.Protein.RotatedAtoms>
  151.4687  133.3574  159.2819 H   0  0  0  0  0  0  0  0  0  0  0  0  # atno 6907 bound_to 6896
  150.8975  134.8387  159.7348 H   0  0  0  0  0  0  0  0  0  0  0  0  # atno 6908 bound_to 6896
  152.4860  134.4604  159.9655 H   0  0  0  0  0  0  0  0  0  0  0  0  # atno 6909 bound_to 6896
  146.0991  139.5662  142.9426 H   0  0  0  0  0  0  0  0  0  0  0  0  # atno 7974 bound_to 7965
  154.4394  140.1882  156.0875 H   0  0  0  0  0  0  0  0  0  0  0  0  # atno 8008 bound_to 7997
  156.0391  140.3322  155.7198 H   0  0  0  0  0  0  0  0  0  0  0  0  # atno 8009 bound_to 7997
  155.5726  140.0614  157.2793 H   0  0  0  0  0  0  0  0  0  0  0  0  # atno 8010 bound_to 7997
  139.8814  143.6835  152.2626 H   0  0  0  0  0  0  0  0  0  0  0  0  # atno 10167 bound_to 10162
  156.9667  131.0077  151.2915 H   0  0  0  0  0  0  0  0  0  0  0  0  # atno 10718 bound_to 10713
  154.8677  135.4153  154.2687 H   0  0  0  0  0  0  0  0  0  0  0  0  # atno 10763 bound_to 10752
  153.3601  135.7003  153.6724 H   0  0  0  0  0  0  0  0  0  0  0  0  # atno 10764 bound_to 10752
  153.5629  135.3606  155.2779 H   0  0  0  0  0  0  0  0  0  0  0  0  # atno 10765 bound_to 10752
  141.1555  133.6766  156.6609 H   0  0  0  0  0  0  0  0  0  0  0  0  # atno 11005 bound_to 11000
  145.5890  141.0372  143.2080 LP  0  0  0  0  0  0  0  0  0  0  0  0  # atno 17320 bound_to 7965
  144.7418  139.7427  143.7307 LP  0  0  0  0  0  0  0  0  0  0  0  0  # atno 17321 bound_to 7965
  139.7193  144.7606  151.0982 LP  0  0  0  0  0  0  0  0  0  0  0  0  # atno 17342 bound_to 10162
  140.7744  143.5229  150.9515 LP  0  0  0  0  0  0  0  0  0  0  0  0  # atno 17343 bound_to 10162
  157.5621  130.8253  149.8279 LP  0  0  0  0  0  0  0  0  0  0  0  0  # atno 17370 bound_to 10713
  156.0300  130.3767  150.1715 LP  0  0  0  0  0  0  0  0  0  0  0  0  # atno 17371 bound_to 10713
  140.3248  134.7978  157.4281 LP  0  0  0  0  0  0  0  0  0  0  0  0  # atno 17394 bound_to 11000
  140.1066  134.5401  155.8304 LP  0  0  0  0  0  0  0  0  0  0  0  0  # atno 17395 bound_to 11000

$$$$
