AV-unprocessed.smi:470|AV-procd|sdf|2655|dock4
  -GOLD-   2262023 63D 1   1.00000     0.00000
 Structure written by MMmdl.
 33 34  0  0  0  0  0  0  0  0  1 V2000
  146.6426  139.0230  151.0659 N   0  0  0  0  0  0  0  0  0  0  0  0
  146.5060  138.3749  152.2260 C   0  0  0  0  0  0  0  0  0  0  0  0
  145.4894  137.7463  152.5126 O   0  0  0  0  0  0  0  0  0  0  0  0
  147.6773  138.4447  153.2075 C   0  0  0  0  0  0  0  0  0  0  0  0
  147.8309  139.8411  153.7353 C   0  0  0  0  0  0  0  0  0  0  0  0
  147.0402  140.9267  153.4452 C   0  0  0  0  0  0  0  0  0  0  0  0
  147.5642  142.3609  154.2869 S   0  0  0  0  0  0  0  0  0  0  0  0
  148.8779  141.4266  154.9844 C   0  0  0  0  0  0  0  0  0  0  0  0
  149.7891  141.9913  155.9156 N   0  0  0  0  0  0  0  0  0  0  0  0
  150.7705  141.4159  156.6409 C   0  0  0  0  0  0  0  0  0  0  0  0
  150.9635  140.2049  156.5456 O   0  0  0  0  0  0  0  0  0  0  0  0
  151.6505  142.2385  157.6053 C   0  0  1  0  0  0  0  0  0  0  0  0
  151.3236  143.7509  157.5473 C   0  0  0  0  0  0  0  0  0  0  0  0
  152.0313  144.5267  158.6445 C   0  0  0  0  0  0  0  0  0  0  0  0
  152.5659  143.9448  159.7320 C   0  0  0  0  0  0  0  0  0  0  0  0
  152.5174  142.4484  159.9872 C   0  0  0  0  0  0  0  0  0  0  0  0
  151.5210  141.7320  159.0566 C   0  0  0  0  0  0  0  0  0  0  0  0
  148.8695  140.1399  154.6226 N   0  0  0  0  0  0  0  0  0  0  0  0
  145.8968  138.9960  150.3859 H   0  0  0  0  0  0  0  0  0  0  0  0
  147.4933  139.5303  150.8691 H   0  0  0  0  0  0  0  0  0  0  0  0
  147.5133  137.7362  154.0210 H   0  0  0  0  0  0  0  0  0  0  0  0
  148.5886  138.1244  152.7014 H   0  0  0  0  0  0  0  0  0  0  0  0
  146.1774  140.9654  152.7969 H   0  0  0  0  0  0  0  0  0  0  0  0
  149.6680  142.9810  156.0744 H   0  0  0  0  0  0  0  0  0  0  0  0
  152.6908  142.1562  157.2939 H   0  0  0  0  0  0  0  0  0  0  0  0
  151.6259  144.1580  156.5819 H   0  0  0  0  0  0  0  0  0  0  0  0
  150.2542  143.9386  157.6513 H   0  0  0  0  0  0  0  0  0  0  0  0
  152.0825  145.5994  158.5283 H   0  0  0  0  0  0  0  0  0  0  0  0
  153.0685  144.5497  160.4725 H   0  0  0  0  0  0  0  0  0  0  0  0
  153.5212  142.0481  159.8412 H   0  0  0  0  0  0  0  0  0  0  0  0
  152.2503  142.2677  161.0285 H   0  0  0  0  0  0  0  0  0  0  0  0
  150.5048  141.9115  159.4117 H   0  0  0  0  0  0  0  0  0  0  0  0
  151.6760  140.6541  159.1161 H   0  0  0  0  0  0  0  0  0  0  0  0
  1  2  1  0  0  0  0
  1 19  1  0  0  0  0
  1 20  1  0  0  0  0
  2  3  2  0  0  0  0
  2  4  1  0  0  0  0
  4  5  1  0  0  0  0
  4 21  1  0  0  0  0
  4 22  1  0  0  0  0
  5 18  1  0  0  0  0
  5  6  2  0  0  0  0
  6  7  1  0  0  0  0
  6 23  1  0  0  0  0
  7  8  1  0  0  0  0
  8  9  1  0  0  0  0
  8 18  2  0  0  0  0
  9 10  1  0  0  0  0
  9 24  1  0  0  0  0
 10 11  2  0  0  0  0
 10 12  1  0  0  0  0
 12 17  1  0  0  0  0
 12 13  1  0  0  0  0
 12 25  1  0  0  0  0
 13 14  1  0  0  0  0
 13 26  1  0  0  0  0
 13 27  1  0  0  0  0
 14 15  2  0  0  0  0
 14 28  1  0  0  0  0
 15 16  1  0  0  0  0
 15 29  1  0  0  0  0
 16 17  1  0  0  0  0
 16 30  1  0  0  0  0
 16 31  1  0  0  0  0
 17 32  1  0  0  0  0
 17 33  1  0  0  0  0
M  END
> <s_m_source_file>
AV-unprocessed.smi

> <i_m_source_file_index>
470

> <i_lp_mmshare_version>
43012

> <i_f3d_flags>
0

> <s_epik_input>
W05IMl1DKD1PKVtDSDJdYzFbY0hdc2MobjEpW05IXUMoPU8pW0NAQEhdMltDSDJdW0NIXT1bQ0hdW0NIMl1bQ0gyXTI=

> <s_epik_cmdline>
J2VwaWtfcHl0aG9uJywgJy1waCcsICc3LjAnLCAnLXRuJywgJzgnLCAnLW1hJywgJzIwMCcsICctbWV0YWxfYmluZGluZycsICctaW1hZScsICc8aW5maWxlLm1hZT4nLCAnLW9tYWUnLCAnPG91dGZpbGUubWFlPic=

> <r_lp_tautomer_probability>
1

> <r_epik_Ionization_Penalty>
0.00025496

> <r_epik_Ionization_Penalty_Charging>
0

> <r_epik_Ionization_Penalty_Neutral>
0.00025496

> <r_epik_State_Penalty>
-0

> <r_epik_Charging_Adjusted_Penalty>
0

> <i_epik_Tot_Q>
0

> <i_epik_Tot_abs_Q>
0

> <r_epik_Metal_State_Penalty>
0.149391

> <b_epik_Metal_Only>
0

> <s_lp_Force_Field>
OPLS_2005

> <r_lp_Energy>
12.0987

> <b_lp_Chiralities_Consistent>
1

> <s_lp_Variant>
AV-unprocessed.smi:470-2

> <Gold.Version>
5.8.1

> <Gold.Id.Protein>
6NUR|6NUR_protein|mol2

> <Gold.PLP.Fitness>
47.1063

> <Gold.PLP.PLP>
-36.6226

> <Gold.PLP.part.hbond>
-2.7897

> <Gold.PLP.part.metal>
0.0000

> <Gold.PLP.part.buried>
0.1713

> <Gold.PLP.part.nonpolar>
-35.5326

> <Gold.PLP.part.repulsive>
0.5711

> <Gold.PLP.ligand.clash>
0.0000

> <Gold.PLP.ligand.torsion>
0.0834

> <Gold.PLP.Chemscore.Hbond>
2.5438

> <Gold.PLP.Chemscore.CHOScore>
0.9998

> <Gold.PLP.Chemscore.Metal>
0.0000

> <Gold.Chemscore.Hbonds>
donor molecule, donor type, donor heavy atom, donor atom, acceptor molecule, acceptor atom, score
      L1  H     1    19       P1 10171  0.80
      L1  H     1    20       P1  7957  0.75
      L1  H     9    24       P1  8028  1.00
      L1  C     6    23       P1 10175  0.95

> <Gold.PLP.Chemscore.Internal.Correction>
0.0196

> <Gold.Rescore>
     Score         DG    S(hbond)    S(metal)    S(lipo)     H(rot)  DE(clash)    DE(int)     intcor
     16.49     -18.76       2.19        0.00      92.49       1.90       0.81       1.46       ----

> <Gold.Chemscore.Fitness>
16.4854

> <Gold.Chemscore.DG>
-18.7601

> <Gold.Chemscore.ZeroCoef>
-5.4800

> <Gold.Chemscore.Hbond>
2.1899

> <Gold.Chemscore.Metal>
0.0000

> <Gold.Chemscore.Lipo>
92.4918

> <Gold.Chemscore.Internal_Hbond>
0.0000

> <Gold.Chemscore.DEClash>
0.8146

> <Gold.Chemscore.DEInternal>
1.4601

> <Gold.Chemscore.Rot>
1.8968

> <Gold.Chemscore.Internal.Correction>
   9.000000E+99

> <Gold.Chemscore.Hbonds>
donor molecule, donor type, donor heavy atom, donor atom, acceptor molecule, acceptor atom, score
      L1  H     1    19       P1 10171  0.76
      L1  H     1    20       P1  7957  0.48
      L1  H     9    24       P1  8028  0.96

> <Gold.Chemscore.Hbond.Weighted>
-7.3143

> <Gold.Chemscore.Metal.Weighted>
-0.0000

> <Gold.Chemscore.Lipo.Weighted>
-10.8215

> <Gold.Chemscore.Internal_Hbond.Weighted>
0.0000

> <Gold.Chemscore.DEClash.Weighted>
0.8146

> <Gold.Chemscore.DEInternal.Weighted>
1.4601

> <Gold.Chemscore.Rot.Weighted>
4.8558

> <Gold.Chemscore.Internal.Correction.Weighted>
   9.000000E+99

> <Gold.Protein.RotatedTorsions>
[ 6907 6896 6895 6894 ] final -133.21 input  -60.11 | X-H torsion
[ 7974 7965 7964 7962 ] final -176.31 input  175.53 | X-H torsion
[ 8008 7997 7996 7995 ] final  170.50 input   59.86 | X-H torsion
[ 10167 10162 10161 10158 ] final  -56.80 input  -65.29 | X-H torsion
[ 10718 10713 10712 10709 ] final  -66.85 input   66.30 | X-H torsion
[ 10763 10752 10751 10750 ] final -132.19 input  -60.55 | X-H torsion
[ 11005 11000 10999 10996 ] final   49.08 input  -57.11 | X-H torsion

> <Gold.Protein.ActiveResidues>
 VAL166  LYS551  ARG553  GLY616  TRP617  ASP618  TYR619  PRO620  LYS621  CYS622 
 ASP623  PHE694  ASN695  SER759  ASP760  ASP761  ALA762  ILE779  LEU786  VAL792 
 PHE793  MET794  SER795  GLU796  ALA797  LYS798  CYS799  TRP800  GLU811  SER814 

> <Gold.Protein.RotatedAtoms>
  150.9713  133.6341  159.2737 H   0  0  0  0  0  0  0  0  0  0  0  0  # atno 6907 bound_to 6896
  151.3628  135.0906  159.9450 H   0  0  0  0  0  0  0  0  0  0  0  0  # atno 6908 bound_to 6896
  152.5184  133.9283  159.7623 H   0  0  0  0  0  0  0  0  0  0  0  0  # atno 6909 bound_to 6896
  144.7127  140.1189  143.6406 H   0  0  0  0  0  0  0  0  0  0  0  0  # atno 7974 bound_to 7965
  156.1359  140.1536  156.8995 H   0  0  0  0  0  0  0  0  0  0  0  0  # atno 8008 bound_to 7997
  154.4947  140.0841  156.7710 H   0  0  0  0  0  0  0  0  0  0  0  0  # atno 8009 bound_to 7997
  155.4169  140.3421  155.4270 H   0  0  0  0  0  0  0  0  0  0  0  0  # atno 8010 bound_to 7997
  140.6296  143.2453  151.5275 H   0  0  0  0  0  0  0  0  0  0  0  0  # atno 10167 bound_to 10162
  156.0589  130.4268  150.1769 H   0  0  0  0  0  0  0  0  0  0  0  0  # atno 10718 bound_to 10713
  154.8745  135.3806  154.4370 H   0  0  0  0  0  0  0  0  0  0  0  0  # atno 10763 bound_to 10752
  153.5058  135.7030  153.5812 H   0  0  0  0  0  0  0  0  0  0  0  0  # atno 10764 bound_to 10752
  153.4124  135.3921  155.2025 H   0  0  0  0  0  0  0  0  0  0  0  0  # atno 10765 bound_to 10752
  140.1134  134.4924  155.8658 H   0  0  0  0  0  0  0  0  0  0  0  0  # atno 11005 bound_to 11000
  145.9389  139.2655  143.1281 LP  0  0  0  0  0  0  0  0  0  0  0  0  # atno 17320 bound_to 7965
  145.9445  140.8955  143.0291 LP  0  0  0  0  0  0  0  0  0  0  0  0  # atno 17321 bound_to 7965
  139.5512  144.2392  152.1533 LP  0  0  0  0  0  0  0  0  0  0  0  0  # atno 17342 bound_to 10162
  140.1632  144.5006  150.6621 LP  0  0  0  0  0  0  0  0  0  0  0  0  # atno 17343 bound_to 10162
  156.9840  130.9873  151.3430 LP  0  0  0  0  0  0  0  0  0  0  0  0  # atno 17370 bound_to 10713
  157.5583  130.8228  149.8232 LP  0  0  0  0  0  0  0  0  0  0  0  0  # atno 17371 bound_to 10713
  141.2135  133.6735  156.6749 LP  0  0  0  0  0  0  0  0  0  0  0  0  # atno 17394 bound_to 11000
  140.3060  134.8124  157.4137 LP  0  0  0  0  0  0  0  0  0  0  0  0  # atno 17395 bound_to 11000

$$$$
