AV-unprocessed.smi:3336|AV-procd|sdf|12854|dock1
  -GOLD-   2272019243D 1   1.00000     0.00000
 Structure written by MMmdl.
 42 43  0  0  0  0  0  0  0  0  2 V2000
  145.7265  137.5219  152.3546 C   0  0  0  0  0  0  0  0  0  0  0  0
  145.5736  135.9912  152.2681 C   0  0  1  0  0  0  0  0  0  0  0  0
  145.2563  135.5142  150.8358 C   0  0  0  0  0  0  0  0  0  0  0  0
  145.2091  134.0679  150.7143 N   0  0  0  0  0  0  0  0  0  0  0  0
  144.1452  133.2701  150.3480 C   0  0  0  0  0  0  0  0  0  0  0  0
  144.5827  131.9768  150.3657 C   0  0  0  0  0  0  0  0  0  0  0  0
  145.9481  132.0865  150.7515 C   0  0  0  0  0  0  0  0  0  0  0  0
  146.3205  133.3398  150.9565 N   0  0  0  0  0  0  0  0  0  0  0  0
  146.7999  135.3107  152.7481 N   0  3  0  0  0  0  0  0  0  0  0  0
  146.8134  134.9164  154.1788 C   0  0  2  0  0  0  0  0  0  0  0  0
  146.3702  136.1158  155.0333 C   0  0  0  0  0  0  0  0  0  0  0  0
  148.2111  134.4306  154.6218 C   0  0  0  0  0  0  0  0  0  0  0  0
  148.7797  135.0533  155.5208 O   0  0  0  0  0  0  0  0  0  0  0  0
  148.7783  133.3479  154.0325 N   0  0  0  0  0  0  0  0  0  0  0  0
  150.1086  132.8504  154.4001 C   0  0  0  0  0  0  0  0  0  0  0  0
  149.9611  131.4337  154.9811 C   0  0  0  0  0  0  0  0  0  0  0  0
  149.3389  130.5877  154.0184 O   0  0  0  0  0  0  0  0  0  0  0  0
  148.0520  131.0514  153.6204 C   0  0  0  0  0  0  0  0  0  0  0  0
  148.1668  132.4686  153.0284 C   0  0  0  0  0  0  0  0  0  0  0  0
  144.8115  138.0309  152.0507 H   0  0  0  0  0  0  0  0  0  0  0  0
  146.5310  137.8752  151.7088 H   0  0  0  0  0  0  0  0  0  0  0  0
  145.9476  137.8520  153.3691 H   0  0  0  0  0  0  0  0  0  0  0  0
  144.7412  135.6923  152.9067 H   0  0  0  0  0  0  0  0  0  0  0  0
  144.2982  135.9189  150.5061 H   0  0  0  0  0  0  0  0  0  0  0  0
  146.0083  135.8870  150.1386 H   0  0  0  0  0  0  0  0  0  0  0  0
  143.1759  133.6829  150.1095 H   0  0  0  0  0  0  0  0  0  0  0  0
  144.0152  131.0875  150.1346 H   0  0  0  0  0  0  0  0  0  0  0  0
  146.6748  131.2986  150.8863 H   0  0  0  0  0  0  0  0  0  0  0  0
  146.9223  134.4642  152.2097 H   0  0  0  0  0  0  0  0  0  0  0  0
  146.0861  134.1150  154.2918 H   0  0  0  0  0  0  0  0  0  0  0  0
  146.3306  135.8674  156.0939 H   0  0  0  0  0  0  0  0  0  0  0  0
  145.3740  136.4521  154.7439 H   0  0  0  0  0  0  0  0  0  0  0  0
  147.0503  136.9610  154.9185 H   0  0  0  0  0  0  0  0  0  0  0  0
  150.7430  132.8282  153.5128 H   0  0  0  0  0  0  0  0  0  0  0  0
  150.6229  133.4883  155.1199 H   0  0  0  0  0  0  0  0  0  0  0  0
  150.9398  131.0245  155.2314 H   0  0  0  0  0  0  0  0  0  0  0  0
  149.3745  131.4491  155.9010 H   0  0  0  0  0  0  0  0  0  0  0  0
  147.6437  130.3642  152.8790 H   0  0  0  0  0  0  0  0  0  0  0  0
  147.3728  131.0390  154.4742 H   0  0  0  0  0  0  0  0  0  0  0  0
  147.1834  132.7872  152.6920 H   0  0  0  0  0  0  0  0  0  0  0  0
  148.7957  132.4510  152.1371 H   0  0  0  0  0  0  0  0  0  0  0  0
  147.5846  135.9200  152.5677 H   0  0  0  0  0  0  0  0  0  0  0  0
  1  2  1  0  0  0  0
  1 20  1  0  0  0  0
  1 21  1  0  0  0  0
  1 22  1  0  0  0  0
  2  3  1  0  0  0  0
  2  9  1  0  0  0  0
  2 23  1  0  0  0  0
  3  4  1  0  0  0  0
  3 24  1  0  0  0  0
  3 25  1  0  0  0  0
  4  8  1  0  0  0  0
  4  5  1  0  0  0  0
  5  6  2  0  0  0  0
  5 26  1  0  0  0  0
  6  7  1  0  0  0  0
  6 27  1  0  0  0  0
  7  8  2  0  0  0  0
  7 28  1  0  0  0  0
  9 10  1  0  0  0  0
  9 29  1  0  0  0  0
  9 42  1  0  0  0  0
 10 11  1  0  0  0  0
 10 12  1  0  0  0  0
 10 30  1  0  0  0  0
 11 31  1  0  0  0  0
 11 32  1  0  0  0  0
 11 33  1  0  0  0  0
 12 13  2  0  0  0  0
 12 14  1  0  0  0  0
 14 19  1  0  0  0  0
 14 15  1  0  0  0  0
 15 16  1  0  0  0  0
 15 34  1  0  0  0  0
 15 35  1  0  0  0  0
 16 17  1  0  0  0  0
 16 36  1  0  0  0  0
 16 37  1  0  0  0  0
 17 18  1  0  0  0  0
 18 19  1  0  0  0  0
 18 38  1  0  0  0  0
 18 39  1  0  0  0  0
 19 40  1  0  0  0  0
 19 41  1  0  0  0  0
M  CHG  1   9   1
M  END
> <s_m_source_file>
AV-unprocessed.smi

> <i_m_source_file_index>
3336

> <i_lp_mmshare_version>
43012

> <i_f3d_flags>
0

> <s_epik_input>
bjFbY0hdW2NIXVtjSF1uMVtDSDJdW0NAQEhdKFtDSDNdKVtOSF1bQ0BIXShbQ0gzXSlDKD1PKU4yW0NIMl1bQ0gyXU9bQ0gyXVtDSDJdMg==

> <s_epik_cmdline>
J2VwaWtfcHl0aG9uJywgJy1waCcsICc3LjAnLCAnLXRuJywgJzgnLCAnLW1hJywgJzIwMCcsICctbWV0YWxfYmluZGluZycsICctaW1hZScsICc8aW5maWxlLm1hZT4nLCAnLW9tYWUnLCAnPG91dGZpbGUubWFlPic=

> <r_lp_tautomer_probability>
1

> <r_epik_Ionization_Penalty>
0.200288

> <r_epik_Ionization_Penalty_Charging>
0.200285

> <r_epik_Ionization_Penalty_Neutral>
3.37705e-06

> <r_epik_State_Penalty>
0.190126

> <r_epik_Charging_Adjusted_Penalty>
0.39041

> <i_epik_Tot_Q>
1

> <i_epik_Tot_abs_Q>
1

> <r_epik_Metal_State_Penalty>
0.190133

> <b_epik_Metal_Only>
0

> <s_lp_Force_Field>
OPLS_2005

> <r_lp_Energy>
27.5118

> <b_lp_Chiralities_Consistent>
1

> <s_lp_Variant>
AV-unprocessed.smi:3336-2

> <Gold.Version>
5.8.1

> <Gold.Id.Protein>
6NUR|6NUR_protein|mol2

> <Gold.PLP.Fitness>
43.2850

> <Gold.PLP.PLP>
-32.0222

> <Gold.PLP.part.hbond>
-0.9980

> <Gold.PLP.part.metal>
0.0000

> <Gold.PLP.part.buried>
-5.4864

> <Gold.PLP.part.nonpolar>
-26.8897

> <Gold.PLP.part.repulsive>
0.3348

> <Gold.PLP.ligand.clash>
0.0000

> <Gold.PLP.ligand.torsion>
0.5782

> <Gold.PLP.Chemscore.Hbond>
2.0000

> <Gold.PLP.Chemscore.CHOScore>
2.0000

> <Gold.PLP.Chemscore.Metal>
0.0000

> <Gold.Chemscore.Hbonds>
donor molecule, donor type, donor heavy atom, donor atom, acceptor molecule, acceptor atom, score
      L1  H     9    42       P1  7948  1.98
      L1  C     5    26       P1 10186  1.00
      L1  C     7    28       P1 10747  1.00

> <Gold.PLP.Chemscore.Internal.Correction>
0.4193

> <Gold.Rescore>
     Score         DG    S(hbond)    S(metal)    S(lipo)     H(rot)  DE(clash)    DE(int)     intcor
     11.65     -12.51       0.98        0.00      72.61       1.85       0.10       0.76       ----

> <Gold.Chemscore.Fitness>
11.6487

> <Gold.Chemscore.DG>
-12.5121

> <Gold.Chemscore.ZeroCoef>
-5.4800

> <Gold.Chemscore.Hbond>
0.9831

> <Gold.Chemscore.Metal>
0.0000

> <Gold.Chemscore.Lipo>
72.6069

> <Gold.Chemscore.Internal_Hbond>
0.0000

> <Gold.Chemscore.DEClash>
0.0991

> <Gold.Chemscore.DEInternal>
0.7643

> <Gold.Chemscore.Rot>
1.8541

> <Gold.Chemscore.Internal.Correction>
   9.000000E+99

> <Gold.Chemscore.Hbonds>
donor molecule, donor type, donor heavy atom, donor atom, acceptor molecule, acceptor atom, score
      L1  H     9    42       P1  7948  0.91

> <Gold.Chemscore.Hbond.Weighted>
-3.2836

> <Gold.Chemscore.Metal.Weighted>
-0.0000

> <Gold.Chemscore.Lipo.Weighted>
-8.4950

> <Gold.Chemscore.Internal_Hbond.Weighted>
0.0000

> <Gold.Chemscore.DEClash.Weighted>
0.0991

> <Gold.Chemscore.DEInternal.Weighted>
0.7643

> <Gold.Chemscore.Rot.Weighted>
4.7465

> <Gold.Chemscore.Internal.Correction.Weighted>
   9.000000E+99

> <Gold.Protein.RotatedTorsions>
[ 6907 6896 6895 6894 ] final -169.75 input  -60.11 | X-H torsion
[ 7974 7965 7964 7962 ] final -119.79 input  175.53 | X-H torsion
[ 8008 7997 7996 7995 ] final  -53.97 input   59.86 | X-H torsion
[ 10167 10162 10161 10158 ] final  103.65 input  -65.29 | X-H torsion
[ 10718 10713 10712 10709 ] final   89.11 input   66.30 | X-H torsion
[ 10763 10752 10751 10750 ] final  -66.61 input  -60.55 | X-H torsion
[ 11005 11000 10999 10996 ] final  166.63 input  -57.11 | X-H torsion

> <Gold.Protein.ActiveResidues>
 VAL166  LYS551  ARG553  GLY616  TRP617  ASP618  TYR619  PRO620  LYS621  CYS622 
 ASP623  PHE694  ASN695  SER759  ASP760  ASP761  ALA762  ILE779  LEU786  VAL792 
 PHE793  MET794  SER795  GLU796  ALA797  LYS798  CYS799  TRP800  GLU811  SER814 

> <Gold.Protein.RotatedAtoms>
  151.4967  133.3513  159.2861 H   0  0  0  0  0  0  0  0  0  0  0  0  # atno 6907 bound_to 6896
  150.8799  134.8191  159.7228 H   0  0  0  0  0  0  0  0  0  0  0  0  # atno 6908 bound_to 6896
  152.4756  134.4863  159.9733 H   0  0  0  0  0  0  0  0  0  0  0  0  # atno 6909 bound_to 6896
  145.0586  140.8273  143.4166 H   0  0  0  0  0  0  0  0  0  0  0  0  # atno 7974 bound_to 7965
  154.4149  140.1187  156.5240 H   0  0  0  0  0  0  0  0  0  0  0  0  # atno 8008 bound_to 7997
  155.6673  140.3496  155.4786 H   0  0  0  0  0  0  0  0  0  0  0  0  # atno 8009 bound_to 7997
  155.9662  140.1132  157.0842 H   0  0  0  0  0  0  0  0  0  0  0  0  # atno 8010 bound_to 7997
  139.7245  144.7051  151.0820 H   0  0  0  0  0  0  0  0  0  0  0  0  # atno 10167 bound_to 10162
  157.6953  131.0320  150.3376 H   0  0  0  0  0  0  0  0  0  0  0  0  # atno 10718 bound_to 10713
  154.3624  135.6113  153.5697 H   0  0  0  0  0  0  0  0  0  0  0  0  # atno 10763 bound_to 10752
  152.9793  135.5818  154.4618 H   0  0  0  0  0  0  0  0  0  0  0  0  # atno 10764 bound_to 10752
  154.4358  135.2849  155.1859 H   0  0  0  0  0  0  0  0  0  0  0  0  # atno 10765 bound_to 10752
  140.2684  134.7846  157.3653 H   0  0  0  0  0  0  0  0  0  0  0  0  # atno 11005 bound_to 11000
  145.1437  139.2556  143.5477 LP  0  0  0  0  0  0  0  0  0  0  0  0  # atno 17320 bound_to 7965
  146.3523  140.1121  142.8603 LP  0  0  0  0  0  0  0  0  0  0  0  0  # atno 17321 bound_to 7965
  140.7760  143.5123  150.9637 LP  0  0  0  0  0  0  0  0  0  0  0  0  # atno 17342 bound_to 10162
  139.8811  143.7071  152.3157 LP  0  0  0  0  0  0  0  0  0  0  0  0  # atno 17343 bound_to 10162
  156.3841  130.3886  149.7079 LP  0  0  0  0  0  0  0  0  0  0  0  0  # atno 17370 bound_to 10713
  156.4452  130.7880  151.2901 LP  0  0  0  0  0  0  0  0  0  0  0  0  # atno 17371 bound_to 10713
  140.1396  134.4988  155.8041 LP  0  0  0  0  0  0  0  0  0  0  0  0  # atno 17394 bound_to 11000
  141.2181  133.6820  156.7187 LP  0  0  0  0  0  0  0  0  0  0  0  0  # atno 17395 bound_to 11000

$$$$
