AV-unprocessed.smi:1952|AV-procd|sdf|7890|dock5
  -GOLD-   2272010 43D 1   1.00000     0.00000
 Structure written by MMmdl.
 39 40  0  0  0  0  0  0  0  0  3 V2000
  154.2563  137.2883  156.5932 C   0  0  0  0  0  0  0  0  0  0  0  0
  153.2729  137.7751  155.5849 C   0  0  0  0  0  0  0  0  0  0  0  0
  152.1891  137.1963  154.9878 C   0  0  0  0  0  0  0  0  0  0  0  0
  151.7094  138.2190  154.1254 C   0  0  0  0  0  0  0  0  0  0  0  0
  150.6397  138.1341  153.3195 N   0  5  0  0  0  0  0  0  0  0  0  0
  149.5380  138.8739  153.5750 C   0  0  0  0  0  0  0  0  0  0  0  0
  149.4689  139.8397  154.3381 O   0  0  0  0  0  0  0  0  0  0  0  0
  148.4410  138.4456  152.9319 N   0  0  0  0  0  0  0  0  0  0  0  0
  147.0799  138.9646  153.0801 C   0  0  1  0  0  0  0  0  0  0  0  0
  147.0720  140.4649  152.7577 C   0  0  0  0  0  0  0  0  0  0  0  0
  146.0968  138.1863  152.1760 C   0  0  0  0  0  0  0  0  0  0  0  0
  146.2241  136.7150  152.3270 N   0  3  0  0  0  0  0  0  0  0  0  0
  146.0636  136.2441  153.7229 C   0  0  0  0  0  0  0  0  0  0  0  0
  146.3271  134.7315  153.7982 C   0  0  0  0  0  0  0  0  0  0  0  0
  145.4378  134.0511  152.9201 O   0  0  0  0  0  0  0  0  0  0  0  0
  145.6235  134.4413  151.5644 C   0  0  0  0  0  0  0  0  0  0  0  0
  145.3459  135.9471  151.4155 C   0  0  0  0  0  0  0  0  0  0  0  0
  152.4299  139.3257  154.2021 N   0  0  0  0  0  0  0  0  0  0  0  0
  153.4389  139.0466  155.1314 O   0  0  0  0  0  0  0  0  0  0  0  0
  154.3704  138.0095  157.4026 H   0  0  0  0  0  0  0  0  0  0  0  0
  155.2333  137.1342  156.1354 H   0  0  0  0  0  0  0  0  0  0  0  0
  153.9324  136.3423  157.0273 H   0  0  0  0  0  0  0  0  0  0  0  0
  151.8027  136.1999  155.1406 H   0  0  0  0  0  0  0  0  0  0  0  0
  148.5572  137.6576  152.3110 H   0  0  0  0  0  0  0  0  0  0  0  0
  146.7635  138.8635  154.1192 H   0  0  0  0  0  0  0  0  0  0  0  0
  146.0750  140.8878  152.8847 H   0  0  0  0  0  0  0  0  0  0  0  0
  147.3852  140.6534  151.7302 H   0  0  0  0  0  0  0  0  0  0  0  0
  147.7472  141.0114  153.4171 H   0  0  0  0  0  0  0  0  0  0  0  0
  145.0667  138.4928  152.3639 H   0  0  0  0  0  0  0  0  0  0  0  0
  146.3089  138.4548  151.1400 H   0  0  0  0  0  0  0  0  0  0  0  0
  146.7547  136.7684  154.3824 H   0  0  0  0  0  0  0  0  0  0  0  0
  145.0552  136.4675  154.0741 H   0  0  0  0  0  0  0  0  0  0  0  0
  147.3626  134.5032  153.5394 H   0  0  0  0  0  0  0  0  0  0  0  0
  146.1655  134.3721  154.8145 H   0  0  0  0  0  0  0  0  0  0  0  0
  146.6368  134.1988  151.2398 H   0  0  0  0  0  0  0  0  0  0  0  0
  144.9419  133.8690  150.9351 H   0  0  0  0  0  0  0  0  0  0  0  0
  144.3006  136.1646  151.6401 H   0  0  0  0  0  0  0  0  0  0  0  0
  145.5258  136.2503  150.3836 H   0  0  0  0  0  0  0  0  0  0  0  0
  147.1712  136.4924  152.0518 H   0  0  0  0  0  0  0  0  0  0  0  0
  1  2  1  0  0  0  0
  1 20  1  0  0  0  0
  1 21  1  0  0  0  0
  1 22  1  0  0  0  0
  2 19  1  0  0  0  0
  2  3  2  0  0  0  0
  3  4  1  0  0  0  0
  3 23  1  0  0  0  0
  4  5  1  0  0  0  0
  4 18  2  0  0  0  0
  5  6  1  0  0  0  0
  6  7  2  0  0  0  0
  6  8  1  0  0  0  0
  8  9  1  0  0  0  0
  8 24  1  0  0  0  0
  9 10  1  0  0  0  0
  9 11  1  0  0  0  0
  9 25  1  0  0  0  0
 10 26  1  0  0  0  0
 10 27  1  0  0  0  0
 10 28  1  0  0  0  0
 11 12  1  0  0  0  0
 11 29  1  0  0  0  0
 11 30  1  0  0  0  0
 12 17  1  0  0  0  0
 12 13  1  0  0  0  0
 12 39  1  0  0  0  0
 13 14  1  0  0  0  0
 13 31  1  0  0  0  0
 13 32  1  0  0  0  0
 14 15  1  0  0  0  0
 14 33  1  0  0  0  0
 14 34  1  0  0  0  0
 15 16  1  0  0  0  0
 16 17  1  0  0  0  0
 16 35  1  0  0  0  0
 16 36  1  0  0  0  0
 17 37  1  0  0  0  0
 17 38  1  0  0  0  0
 18 19  1  0  0  0  0
M  CHG  1   5  -1
M  CHG  1  12   1
M  END
> <s_m_source_file>
AV-unprocessed.smi

> <i_m_source_file_index>
1952

> <i_lp_mmshare_version>
43012

> <i_f3d_flags>
0

> <s_epik_input>
W0NIM11jMVtjSF1jKG5vMSlbTkhdQyg9TylbTkhdW0NASF0oW0NIM10pW0NIMl1OMltDSDJdW0NIMl1PW0NIMl1bQ0gyXTI=

> <s_epik_cmdline>
J2VwaWtfcHl0aG9uJywgJy1waCcsICc3LjAnLCAnLXRuJywgJzgnLCAnLW1hJywgJzIwMCcsICctbWV0YWxfYmluZGluZycsICctaW1hZScsICc8aW5maWxlLm1hZT4nLCAnLW9tYWUnLCAnPG91dGZpbGUubWFlPic=

> <r_epik_Ionization_Penalty>
6.62152

> <r_epik_Ionization_Penalty_Charging>
6.62142

> <r_epik_Ionization_Penalty_Neutral>
9.8734e-05

> <r_epik_State_Penalty>
6.82189

> <r_epik_Charging_Adjusted_Penalty>
13.4433

> <i_epik_Tot_Q>
0

> <i_epik_Tot_abs_Q>
2

> <r_epik_Metal_State_Penalty>
2.76365

> <b_epik_Metal_Only>
1

> <s_lp_Force_Field>
OPLS_2005

> <r_lp_Energy>
7.85101

> <b_lp_Chiralities_Consistent>
1

> <s_lp_Variant>
AV-unprocessed.smi:1952-8

> <Gold.Version>
5.8.1

> <Gold.Id.Protein>
6NUR|6NUR_protein|mol2

> <Gold.PLP.Fitness>
41.6018

> <Gold.PLP.PLP>
-28.4165

> <Gold.PLP.part.hbond>
-5.0000

> <Gold.PLP.part.metal>
0.0000

> <Gold.PLP.part.buried>
-2.0144

> <Gold.PLP.part.nonpolar>
-22.7860

> <Gold.PLP.part.repulsive>
0.5907

> <Gold.PLP.ligand.clash>
0.0000

> <Gold.PLP.ligand.torsion>
0.7532

> <Gold.PLP.Chemscore.Hbond>
4.8640

> <Gold.PLP.Chemscore.CHOScore>
0.0000

> <Gold.PLP.Chemscore.Metal>
0.0000

> <Gold.Chemscore.Hbonds>
donor molecule, donor type, donor heavy atom, donor atom, acceptor molecule, acceptor atom, score
      L1  H     8    24       P1  7948  0.98
      L1  H    12    39       P1  7948  2.00
      P1  H  7989  7998       L1    18  0.58
      P1  H  7997  8009       L1    19  1.00

> <Gold.PLP.Chemscore.Internal.Correction>
0.0997

> <Gold.Rescore>
     Score         DG    S(hbond)    S(metal)    S(lipo)     H(rot)  DE(clash)    DE(int)     intcor
     17.61     -19.14       3.53        0.00      50.48       1.58       0.57       0.95       ----

> <Gold.Chemscore.Fitness>
17.6130

> <Gold.Chemscore.DG>
-19.1405

> <Gold.Chemscore.ZeroCoef>
-5.4800

> <Gold.Chemscore.Hbond>
3.5326

> <Gold.Chemscore.Metal>
0.0000

> <Gold.Chemscore.Lipo>
50.4777

> <Gold.Chemscore.Internal_Hbond>
0.0000

> <Gold.Chemscore.DEClash>
0.5745

> <Gold.Chemscore.DEInternal>
0.9531

> <Gold.Chemscore.Rot>
1.5798

> <Gold.Chemscore.Internal.Correction>
   9.000000E+99

> <Gold.Chemscore.Hbonds>
donor molecule, donor type, donor heavy atom, donor atom, acceptor molecule, acceptor atom, score
      L1  H     8    24       P1  7948  0.91
      L1  H    12    39       P1  7948  1.00
      P1  H  7989  7998       L1    18  0.55
      P1  H  7997  8009       L1    19  0.92

> <Gold.Chemscore.Hbond.Weighted>
-11.7988

> <Gold.Chemscore.Metal.Weighted>
-0.0000

> <Gold.Chemscore.Lipo.Weighted>
-5.9059

> <Gold.Chemscore.Internal_Hbond.Weighted>
0.0000

> <Gold.Chemscore.DEClash.Weighted>
0.5745

> <Gold.Chemscore.DEInternal.Weighted>
0.9531

> <Gold.Chemscore.Rot.Weighted>
4.0442

> <Gold.Chemscore.Internal.Correction.Weighted>
   9.000000E+99

> <Gold.Protein.RotatedTorsions>
[ 6907 6896 6895 6894 ] final   72.63 input  -60.11 | X-H torsion
[ 7974 7965 7964 7962 ] final -113.31 input  175.53 | X-H torsion
[ 8008 7997 7996 7995 ] final -147.52 input   59.86 | X-H torsion
[ 10167 10162 10161 10158 ] final  137.02 input  -65.29 | X-H torsion
[ 10718 10713 10712 10709 ] final   41.36 input   66.30 | X-H torsion
[ 10763 10752 10751 10750 ] final   -4.91 input  -60.55 | X-H torsion
[ 11005 11000 10999 10996 ] final  -46.89 input  -57.11 | X-H torsion

> <Gold.Protein.ActiveResidues>
 VAL166  LYS551  ARG553  GLY616  TRP617  ASP618  TYR619  PRO620  LYS621  CYS622 
 ASP623  PHE694  ASN695  SER759  ASP760  ASP761  ALA762  ILE779  LEU786  VAL792 
 PHE793  MET794  SER795  GLU796  ALA797  LYS798  CYS799  TRP800  GLU811  SER814 

> <Gold.Protein.RotatedAtoms>
  152.4879  134.4542  159.9584 H   0  0  0  0  0  0  0  0  0  0  0  0  # atno 6907 bound_to 6896
  151.4535  133.3605  159.2806 H   0  0  0  0  0  0  0  0  0  0  0  0  # atno 6908 bound_to 6896
  150.9005  134.8441  159.7417 H   0  0  0  0  0  0  0  0  0  0  0  0  # atno 6909 bound_to 6896
  145.1336  140.8738  143.3743 H   0  0  0  0  0  0  0  0  0  0  0  0  # atno 7974 bound_to 7965
  155.5769  140.0639  157.2793 H   0  0  0  0  0  0  0  0  0  0  0  0  # atno 8008 bound_to 7997
  154.4344  140.1859  156.0983 H   0  0  0  0  0  0  0  0  0  0  0  0  # atno 8009 bound_to 7997
  156.0334  140.3304  155.7168 H   0  0  0  0  0  0  0  0  0  0  0  0  # atno 8010 bound_to 7997
  139.5159  144.6433  151.5509 H   0  0  0  0  0  0  0  0  0  0  0  0  # atno 10167 bound_to 10162
  157.3927  130.7816  149.7283 H   0  0  0  0  0  0  0  0  0  0  0  0  # atno 10718 bound_to 10713
  153.3913  135.7002  153.6492 H   0  0  0  0  0  0  0  0  0  0  0  0  # atno 10763 bound_to 10752
  153.5064  135.3641  155.2565 H   0  0  0  0  0  0  0  0  0  0  0  0  # atno 10764 bound_to 10752
  154.8702  135.4124  154.3231 H   0  0  0  0  0  0  0  0  0  0  0  0  # atno 10765 bound_to 10752
  141.0607  133.6710  156.3220 H   0  0  0  0  0  0  0  0  0  0  0  0  # atno 11005 bound_to 11000
  145.0609  139.3106  143.5881 LP  0  0  0  0  0  0  0  0  0  0  0  0  # atno 17320 bound_to 7965
  146.3512  140.0050  142.8672 LP  0  0  0  0  0  0  0  0  0  0  0  0  # atno 17321 bound_to 7965
  140.6208  143.9262  150.6524 LP  0  0  0  0  0  0  0  0  0  0  0  0  # atno 17342 bound_to 10162
  140.2535  143.3576  152.1385 LP  0  0  0  0  0  0  0  0  0  0  0  0  # atno 17343 bound_to 10162
  155.9802  130.4031  150.3540 LP  0  0  0  0  0  0  0  0  0  0  0  0  # atno 17370 bound_to 10713
  157.1658  131.0356  151.2819 LP  0  0  0  0  0  0  0  0  0  0  0  0  # atno 17371 bound_to 10713
  140.5874  134.5685  157.5492 LP  0  0  0  0  0  0  0  0  0  0  0  0  # atno 17394 bound_to 11000
  139.9430  134.7752  156.0631 LP  0  0  0  0  0  0  0  0  0  0  0  0  # atno 17395 bound_to 11000

$$$$
