AV-unprocessed.smi:2190|AV-procd|sdf|8890|dock1
  -GOLD-   2272012 93D 1   1.00000     0.00000
 Structure written by MMmdl.
 47 49  0  0  0  0  0  0  0  0  2 V2000
  151.9018  145.4867  159.9564 C   0  0  0  0  0  0  0  0  0  0  0  0
  152.0955  144.0135  159.6614 C   0  0  0  0  0  0  0  0  0  0  0  0
  152.8136  143.1962  160.5557 C   0  0  0  0  0  0  0  0  0  0  0  0
  152.9904  141.8301  160.2713 C   0  0  0  0  0  0  0  0  0  0  0  0
  152.4508  141.2728  159.0934 C   0  0  0  0  0  0  0  0  0  0  0  0
  152.6517  139.7975  158.8004 C   0  0  0  0  0  0  0  0  0  0  0  0
  151.7257  142.0819  158.1884 C   0  0  0  0  0  0  0  0  0  0  0  0
  151.2257  141.4740  157.0560 O   0  0  0  0  0  0  0  0  0  0  0  0
  150.5166  142.2667  156.1138 C   0  0  0  0  0  0  0  0  0  0  0  0
  149.7045  141.3312  155.2071 C   0  0  2  0  0  0  0  0  0  0  0  0
  148.7608  142.1015  154.4904 O   0  0  0  0  0  0  0  0  0  0  0  0
  148.9886  140.2197  156.0007 C   0  0  0  0  0  0  0  0  0  0  0  0
  149.1700  138.8879  155.4029 N   0  0  0  0  0  0  0  0  0  0  0  0
  148.6637  138.3764  154.2441 C   0  0  0  0  0  0  0  0  0  0  0  0
  147.7715  139.0752  153.2712 C   0  0  0  0  0  0  0  0  0  0  0  0
  147.4693  138.2749  152.1499 O   0  0  0  0  0  0  0  0  0  0  0  0
  149.1314  137.1019  154.1268 N   0  3  0  0  0  0  0  0  0  0  0  0
  149.9402  136.7930  155.2212 C   0  0  0  0  0  0  0  0  0  0  0  0
  150.6312  135.6287  155.5422 C   0  0  0  0  0  0  0  0  0  0  0  0
  151.3679  135.6407  156.7447 C   0  0  0  0  0  0  0  0  0  0  0  0
  151.3990  136.7800  157.5748 C   0  0  0  0  0  0  0  0  0  0  0  0
  150.6965  137.9557  157.2375 C   0  0  0  0  0  0  0  0  0  0  0  0
  149.9697  137.9361  156.0468 C   0  0  0  0  0  0  0  0  0  0  0  0
  151.5542  143.4582  158.4844 C   0  0  0  0  0  0  0  0  0  0  0  0
  152.3923  145.7751  160.8866 H   0  0  0  0  0  0  0  0  0  0  0  0
  150.8400  145.7177  160.0456 H   0  0  0  0  0  0  0  0  0  0  0  0
  152.3186  146.0912  159.1503 H   0  0  0  0  0  0  0  0  0  0  0  0
  153.2320  143.6119  161.4608 H   0  0  0  0  0  0  0  0  0  0  0  0
  153.5435  141.2118  160.9628 H   0  0  0  0  0  0  0  0  0  0  0  0
  151.6904  139.3051  158.6481 H   0  0  0  0  0  0  0  0  0  0  0  0
  153.1635  139.2927  159.6205 H   0  0  0  0  0  0  0  0  0  0  0  0
  153.2495  139.6709  157.8973 H   0  0  0  0  0  0  0  0  0  0  0  0
  149.8521  142.9700  156.6193 H   0  0  0  0  0  0  0  0  0  0  0  0
  151.2258  142.8387  155.5129 H   0  0  0  0  0  0  0  0  0  0  0  0
  150.3777  140.8818  154.4765 H   0  0  0  0  0  0  0  0  0  0  0  0
  148.8896  143.0118  154.7076 H   0  0  0  0  0  0  0  0  0  0  0  0
  149.3893  140.1678  157.0138 H   0  0  0  0  0  0  0  0  0  0  0  0
  147.9248  140.4294  156.1106 H   0  0  0  0  0  0  0  0  0  0  0  0
  146.8432  139.3586  153.7679 H   0  0  0  0  0  0  0  0  0  0  0  0
  148.2480  139.9956  152.9340 H   0  0  0  0  0  0  0  0  0  0  0  0
  148.1257  137.5988  152.0770 H   0  0  0  0  0  0  0  0  0  0  0  0
  150.6093  134.7547  154.9078 H   0  0  0  0  0  0  0  0  0  0  0  0
  151.9199  134.7590  157.0363 H   0  0  0  0  0  0  0  0  0  0  0  0
  151.9734  136.7522  158.4894 H   0  0  0  0  0  0  0  0  0  0  0  0
  150.7267  138.8204  157.8834 H   0  0  0  0  0  0  0  0  0  0  0  0
  151.0108  144.1118  157.8190 H   0  0  0  0  0  0  0  0  0  0  0  0
  148.9130  136.4910  153.3503 H   0  0  0  0  0  0  0  0  0  0  0  0
  1  2  1  0  0  0  0
  1 25  1  0  0  0  0
  1 26  1  0  0  0  0
  1 27  1  0  0  0  0
  2 24  1  0  0  0  0
  2  3  2  0  0  0  0
  3  4  1  0  0  0  0
  3 28  1  0  0  0  0
  4  5  2  0  0  0  0
  4 29  1  0  0  0  0
  5  6  1  0  0  0  0
  5  7  1  0  0  0  0
  6 30  1  0  0  0  0
  6 31  1  0  0  0  0
  6 32  1  0  0  0  0
  7  8  1  0  0  0  0
  7 24  2  0  0  0  0
  8  9  1  0  0  0  0
  9 10  1  0  0  0  0
  9 33  1  0  0  0  0
  9 34  1  0  0  0  0
 10 11  1  0  0  0  0
 10 12  1  0  0  0  0
 10 35  1  0  0  0  0
 11 36  1  0  0  0  0
 12 13  1  0  0  0  0
 12 37  1  0  0  0  0
 12 38  1  0  0  0  0
 13 23  1  0  0  0  0
 13 14  1  0  0  0  0
 14 15  1  0  0  0  0
 14 17  2  0  0  0  0
 15 16  1  0  0  0  0
 15 39  1  0  0  0  0
 15 40  1  0  0  0  0
 16 41  1  0  0  0  0
 17 18  1  0  0  0  0
 17 47  1  0  0  0  0
 18 23  2  0  0  0  0
 18 19  1  0  0  0  0
 19 20  2  0  0  0  0
 19 42  1  0  0  0  0
 20 21  1  0  0  0  0
 20 43  1  0  0  0  0
 21 22  2  0  0  0  0
 21 44  1  0  0  0  0
 22 23  1  0  0  0  0
 22 45  1  0  0  0  0
 24 46  1  0  0  0  0
M  CHG  1  17   1
M  END
> <s_m_source_file>
AV-unprocessed.smi

> <i_m_source_file_index>
2190

> <i_lp_mmshare_version>
43012

> <i_f3d_flags>
0

> <s_epik_input>
W0NIM11jMVtjSF1bY0hdYyhbQ0gzXSljKFtjSF0xKU9bQ0gyXVtDQEhdKFtPSF0pW0NIMl1uKGMobjIpW0NIMl1bT0hdKWMoYzIzKVtjSF1bY0hdW2NIXVtjSF0z

> <s_epik_cmdline>
J2VwaWtfcHl0aG9uJywgJy1waCcsICc3LjAnLCAnLXRuJywgJzgnLCAnLW1hJywgJzIwMCcsICctbWV0YWxfYmluZGluZycsICctaW1hZScsICc8aW5maWxlLm1hZT4nLCAnLW9tYWUnLCAnPG91dGZpbGUubWFlPic=

> <r_lp_tautomer_probability>
1

> <r_epik_Ionization_Penalty>
1.43125

> <r_epik_Ionization_Penalty_Charging>
1.43039

> <r_epik_Ionization_Penalty_Neutral>
0.000858184

> <r_epik_State_Penalty>
1.51493

> <r_epik_Charging_Adjusted_Penalty>
2.94531

> <i_epik_Tot_Q>
1

> <i_epik_Tot_abs_Q>
1

> <r_epik_Metal_State_Penalty>
5.5599

> <b_epik_Metal_Only>
0

> <s_lp_Force_Field>
OPLS_2005

> <r_lp_Energy>
17.5717

> <b_lp_Chiralities_Consistent>
1

> <s_lp_Variant>
AV-unprocessed.smi:2190-3

> <Gold.Version>
5.8.1

> <Gold.Id.Protein>
6NUR|6NUR_protein|mol2

> <Gold.PLP.Fitness>
53.2479

> <Gold.PLP.PLP>
-42.8186

> <Gold.PLP.part.hbond>
-4.8269

> <Gold.PLP.part.metal>
0.0000

> <Gold.PLP.part.buried>
-3.4139

> <Gold.PLP.part.nonpolar>
-35.1001

> <Gold.PLP.part.repulsive>
0.0457

> <Gold.PLP.ligand.clash>
0.0000

> <Gold.PLP.ligand.torsion>
0.9466

> <Gold.PLP.Chemscore.Hbond>
4.0510

> <Gold.PLP.Chemscore.CHOScore>
0.0000

> <Gold.PLP.Chemscore.Metal>
0.0000

> <Gold.Chemscore.Hbonds>
donor molecule, donor type, donor heavy atom, donor atom, acceptor molecule, acceptor atom, score
      L1  H    11    36       P1  8028  1.00
      L1  H    16    41       P1  7948  1.00
      L1  H    17    47       P1  7948  1.78
      P1  H  8011  8017       L1    11  0.01

> <Gold.PLP.Chemscore.Internal.Correction>
0.1696

> <Gold.Rescore>
     Score         DG    S(hbond)    S(metal)    S(lipo)     H(rot)  DE(clash)    DE(int)     intcor
     21.30     -22.36       2.94        0.00     127.05       3.05       0.11       0.94       ----

> <Gold.Chemscore.Fitness>
21.2987

> <Gold.Chemscore.DG>
-22.3563

> <Gold.Chemscore.ZeroCoef>
-5.4800

> <Gold.Chemscore.Hbond>
2.9380

> <Gold.Chemscore.Metal>
0.0000

> <Gold.Chemscore.Lipo>
127.0516

> <Gold.Chemscore.Internal_Hbond>
0.0000

> <Gold.Chemscore.DEClash>
0.1139

> <Gold.Chemscore.DEInternal>
0.9437

> <Gold.Chemscore.Rot>
3.0476

> <Gold.Chemscore.Internal.Correction>
   9.000000E+99

> <Gold.Chemscore.Hbonds>
donor molecule, donor type, donor heavy atom, donor atom, acceptor molecule, acceptor atom, score
      L1  H    11    36       P1  8028  0.99
      L1  H    16    41       P1  7948  0.98
      L1  H    17    47       P1  7948  0.82

> <Gold.Chemscore.Hbond.Weighted>
-9.8131

> <Gold.Chemscore.Metal.Weighted>
-0.0000

> <Gold.Chemscore.Lipo.Weighted>
-14.8650

> <Gold.Chemscore.Internal_Hbond.Weighted>
0.0000

> <Gold.Chemscore.DEClash.Weighted>
0.1139

> <Gold.Chemscore.DEInternal.Weighted>
0.9437

> <Gold.Chemscore.Rot.Weighted>
7.8018

> <Gold.Chemscore.Internal.Correction.Weighted>
   9.000000E+99

> <Gold.Protein.RotatedTorsions>
[ 6907 6896 6895 6894 ] final -149.96 input  -60.11 | X-H torsion
[ 7974 7965 7964 7962 ] final -172.52 input  175.53 | X-H torsion
[ 8008 7997 7996 7995 ] final   11.65 input   59.86 | X-H torsion
[ 10167 10162 10161 10158 ] final  -62.72 input  -65.29 | X-H torsion
[ 10718 10713 10712 10709 ] final -131.67 input   66.30 | X-H torsion
[ 10763 10752 10751 10750 ] final   86.82 input  -60.55 | X-H torsion
[ 11005 11000 10999 10996 ] final  -58.11 input  -57.11 | X-H torsion

> <Gold.Protein.ActiveResidues>
 VAL166  LYS551  ARG553  GLY616  TRP617  ASP618  TYR619  PRO620  LYS621  CYS622 
 ASP623  PHE694  ASN695  SER759  ASP760  ASP761  ALA762  ILE779  LEU786  VAL792 
 PHE793  MET794  SER795  GLU796  ALA797  LYS798  CYS799  TRP800  GLU811  SER814 

> <Gold.Protein.RotatedAtoms>
  151.1916  133.4664  159.2594 H   0  0  0  0  0  0  0  0  0  0  0  0  # atno 6907 bound_to 6896
  151.1158  135.0052  159.8525 H   0  0  0  0  0  0  0  0  0  0  0  0  # atno 6908 bound_to 6896
  152.5453  134.1832  159.8697 H   0  0  0  0  0  0  0  0  0  0  0  0  # atno 6909 bound_to 6896
  144.7145  140.1760  143.6363 H   0  0  0  0  0  0  0  0  0  0  0  0  # atno 7974 bound_to 7965
  154.8098  140.2866  155.5861 H   0  0  0  0  0  0  0  0  0  0  0  0  # atno 8008 bound_to 7997
  156.2987  140.2570  156.2913 H   0  0  0  0  0  0  0  0  0  0  0  0  # atno 8009 bound_to 7997
  154.9461  140.0380  157.2110 H   0  0  0  0  0  0  0  0  0  0  0  0  # atno 8010 bound_to 7997
  140.5920  143.2343  151.6119 H   0  0  0  0  0  0  0  0  0  0  0  0  # atno 10167 bound_to 10162
  156.2267  130.7012  151.0815 H   0  0  0  0  0  0  0  0  0  0  0  0  # atno 10718 bound_to 10713
  153.1608  135.4566  154.9769 H   0  0  0  0  0  0  0  0  0  0  0  0  # atno 10763 bound_to 10752
  154.7896  135.3216  154.7811 H   0  0  0  0  0  0  0  0  0  0  0  0  # atno 10764 bound_to 10752
  153.8301  135.6939  153.4870 H   0  0  0  0  0  0  0  0  0  0  0  0  # atno 10765 bound_to 10752
  141.1193  133.6611  156.4871 H   0  0  0  0  0  0  0  0  0  0  0  0  # atno 11005 bound_to 11000
  145.8900  139.2370  143.1555 LP  0  0  0  0  0  0  0  0  0  0  0  0  # atno 17320 bound_to 7965
  145.9912  140.8600  143.0065 LP  0  0  0  0  0  0  0  0  0  0  0  0  # atno 17321 bound_to 7965
  139.5233  144.3136  152.0972 LP  0  0  0  0  0  0  0  0  0  0  0  0  # atno 17342 bound_to 10162
  140.2302  144.4376  150.6303 LP  0  0  0  0  0  0  0  0  0  0  0  0  # atno 17343 bound_to 10162
  157.7114  131.0732  150.6487 LP  0  0  0  0  0  0  0  0  0  0  0  0  # atno 17370 bound_to 10713
  156.6553  130.4496  149.5706 LP  0  0  0  0  0  0  0  0  0  0  0  0  # atno 17371 bound_to 10713
  140.4553  134.6891  157.5059 LP  0  0  0  0  0  0  0  0  0  0  0  0  # atno 17394 bound_to 11000
  140.0139  134.6649  155.9339 LP  0  0  0  0  0  0  0  0  0  0  0  0  # atno 17395 bound_to 11000

$$$$
