#       Name:                AV-unprocessed.smi:2171
#       Creating user name   scv26
#       Creation time:       Fri Mar 27 12:02:34 2020


#       File generated by GOLD software.
#

@<TRIPOS>MOLECULE
AV-unprocessed.smi:2171
    42    44     1
SMALL
NO_CHARGES


@<TRIPOS>ATOM
      1 ****         0.4214   2.7345  -0.7194 O.2            1 S1                 0.0000
      2 ****         1.1814   1.8507  -1.1141 C.2            1 S1                 0.0000
      3 ****         2.6901   2.0952  -1.1409 C.3            1 S1                 0.0000
      4 ****         3.2726   1.8667   0.1694 N.pl3          1 S1                 0.0000
      5 ****         3.5854   0.6656   0.7726 C.2            1 S1                 0.0000
      6 ****         4.1036   0.9508   2.0032 C.2            1 S1                 0.0000
      7 ****         4.0694   2.3720   2.0629 C.2            1 S1                 0.0000
      8 ****         3.5711   2.9167   0.9648 N.2            1 S1                 0.0000
      9 ****         0.7624   0.6416  -1.5189 N.am           1 S1                 0.0000
     10 ****        -0.6257   0.1905  -1.5152 C.3            1 S1                 0.0000
     11 ****        -0.9190  -0.8667  -2.5940 C.3            1 S1                 0.0000
     12 ****        -1.9130  -1.8491  -1.9424 C.3            1 S1                 0.0000
     13 ****        -2.1968  -1.2915  -0.6059 N.4            1 S1                 1.0000
     14 ****        -2.6432  -2.2380   0.4396 C.3            1 S1                 0.0000
     15 ****        -2.9670  -1.4560   1.7285 C.3            1 S1                 0.0000
     16 ****        -1.7880  -0.5637   2.1675 C.3            1 S1                 0.0000
     17 ****        -1.3074   0.3331   1.0105 C.3            1 S1                 0.0000
     18 ****        -0.9957  -0.5359  -0.2196 C.3            1 S1                 0.0000
     19 ****         3.1743   1.4345  -1.8615 H              1 S1                 0.0000
     20 ****         2.8924   3.1196  -1.4585 H              1 S1                 0.0000
     21 ****         3.4124  -0.2810   0.2825 H              1 S1                 0.0000
     22 ****         4.4540   0.2512   2.7474 H              1 S1                 0.0000
     23 ****         4.3887   3.0196   2.8660 H              1 S1                 0.0000
     24 ****         1.4581  -0.0191  -1.8340 H              1 S1                 0.0000
     25 ****        -1.3051   1.0321  -1.6676 H              1 S1                 0.0000
     26 ****        -1.3303  -0.4076  -3.4938 H              1 S1                 0.0000
     27 ****        -0.0128  -1.4005  -2.8846 H              1 S1                 0.0000
     28 ****        -2.8329  -1.9533  -2.5186 H              1 S1                 0.0000
     29 ****        -1.4574  -2.8364  -1.8501 H              1 S1                 0.0000
     30 ****        -3.5265  -2.7761   0.0941 H              1 S1                 0.0000
     31 ****        -1.8652  -2.9798   0.6272 H              1 S1                 0.0000
     32 ****        -3.8451  -0.8313   1.5598 H              1 S1                 0.0000
     33 ****        -3.2317  -2.1473   2.5292 H              1 S1                 0.0000
     34 ****        -2.0783   0.0485   3.0217 H              1 S1                 0.0000
     35 ****        -0.9639  -1.1935   2.5051 H              1 S1                 0.0000
     36 ****        -2.0739   1.0699   0.7669 H              1 S1                 0.0000
     37 ****        -0.4221   0.8907   1.3173 H              1 S1                 0.0000
     38 ****        -0.2040  -1.2462   0.0305 H              1 S1                 0.0000
     39 ****        -2.9330  -0.6111  -0.7293 H              1 S1                 0.0000
     40 ****         0.7908   3.6129  -0.4161 LP             1 S1                 0.0000
     41 ****        -0.5655   2.5743  -0.7019 LP             1 S1                 0.0000
     42 ****         3.4439   3.8888   0.7678 LP             1 S1                 0.0000
@<TRIPOS>BOND
    1    1    2 2     
    2    2    3 1     
    3    2    9 am    
    4    3    4 1     
    5    3   19 1     
    6    3   20 1     
    7    4    8 1     
    8    4    5 1     
    9    5    6 2     
   10    5   21 1     
   11    6    7 1     
   12    6   22 1     
   13    7    8 2     
   14    7   23 1     
   15    9   10 1     
   16    9   24 1     
   17   10   18 1     
   18   10   11 1     
   19   10   25 1     
   20   11   12 1     
   21   11   26 1     
   22   11   27 1     
   23   12   13 1     
   24   12   28 1     
   25   12   29 1     
   26   13   18 1     
   27   13   14 1     
   28   13   39 1     
   29   14   15 1     
   30   14   30 1     
   31   14   31 1     
   32   15   16 1     
   33   15   32 1     
   34   15   33 1     
   35   16   17 1     
   36   16   34 1     
   37   16   35 1     
   38   17   18 1     
   39   17   36 1     
   40   17   37 1     
   41   18   38 1     
   42    1   40 1     
   43    1   41 1     
   44    8   42 1     
@<TRIPOS>SUBSTRUCTURE
      1 S1             1
@<TRIPOS>SET
LONE_PAIRS      STATIC     ATOMS    <user>   **** ""
3 40 41 42
DONOR_HYDROGENS      STATIC     ATOMS    <user>   **** ""
2 24 39
ATOM$BLUE        STATIC     ATOMS    COLORGROUP SYSTEM
3 40 41 42
ATOM$RED        STATIC     ATOMS    COLORGROUP SYSTEM
2 24 39
