AV-unprocessed.smi:3274|AV-procd|sdf|12523|dock9
  -GOLD-   2272018433D 1   1.00000     0.00000
 Structure written by MMmdl.
 43 44  0  0  0  0  0  0  0  0  2 V2000
  151.5328  145.3336  160.1499 C   0  0  0  0  0  0  0  0  0  0  0  0
  152.1000  144.0198  160.6621 C   0  0  0  0  0  0  0  0  0  0  0  0
  152.4973  143.9198  161.9451 C   0  0  0  0  0  0  0  0  0  0  0  0
  153.1462  142.6933  162.5429 C   0  0  0  0  0  0  0  0  0  0  0  0
  153.7551  141.8096  161.4522 C   0  0  0  0  0  0  0  0  0  0  0  0
  152.7469  141.5367  160.3241 C   0  0  2  0  0  0  0  0  0  0  0  0
  153.3743  140.5708  159.3000 C   0  0  0  0  0  0  0  0  0  0  0  0
  152.2222  142.8495  159.6636 C   0  0  1  0  0  0  0  0  0  0  0  0
  150.8993  142.5670  158.9025 C   0  0  0  0  0  0  0  0  0  0  0  0
  151.1160  141.8834  157.6084 N   0  3  0  0  0  0  0  0  0  0  0  0
  149.9049  141.3177  156.9735 C   0  0  2  0  0  0  0  0  0  0  0  0
  149.3892  140.0932  157.7550 C   0  0  0  0  0  0  0  0  0  0  0  0
  150.2156  140.9937  155.4980 C   0  0  0  0  0  0  0  0  0  0  0  0
  149.0224  140.8772  154.6791 N   0  0  0  0  0  0  0  0  0  0  0  0
  148.1206  141.7940  154.3233 C   0  0  0  0  0  0  0  0  0  0  0  0
  147.1507  141.3201  153.5543 N   0  0  0  0  0  0  0  0  0  0  0  0
  147.5474  140.0156  153.4633 C   0  0  0  0  0  0  0  0  0  0  0  0
  148.6639  139.6980  154.1192 N   0  0  0  0  0  0  0  0  0  0  0  0
  152.0405  145.6384  159.2345 H   0  0  0  0  0  0  0  0  0  0  0  0
  151.6653  146.1328  160.8800 H   0  0  0  0  0  0  0  0  0  0  0  0
  150.4642  145.2483  159.9543 H   0  0  0  0  0  0  0  0  0  0  0  0
  152.3738  144.7583  162.6154 H   0  0  0  0  0  0  0  0  0  0  0  0
  153.9231  143.0045  163.2416 H   0  0  0  0  0  0  0  0  0  0  0  0
  152.3984  142.1453  163.1170 H   0  0  0  0  0  0  0  0  0  0  0  0
  154.6405  142.2970  161.0407 H   0  0  0  0  0  0  0  0  0  0  0  0
  154.0968  140.8734  161.8951 H   0  0  0  0  0  0  0  0  0  0  0  0
  151.8972  141.0263  160.7808 H   0  0  0  0  0  0  0  0  0  0  0  0
  154.2270  141.0281  158.7970 H   0  0  0  0  0  0  0  0  0  0  0  0
  152.6674  140.2578  158.5335 H   0  0  0  0  0  0  0  0  0  0  0  0
  153.7313  139.6635  159.7885 H   0  0  0  0  0  0  0  0  0  0  0  0
  152.9734  143.1662  158.9383 H   0  0  0  0  0  0  0  0  0  0  0  0
  150.2392  141.9399  159.4976 H   0  0  0  0  0  0  0  0  0  0  0  0
  150.3661  143.5048  158.7403 H   0  0  0  0  0  0  0  0  0  0  0  0
  151.4955  142.5721  156.9746 H   0  0  0  0  0  0  0  0  0  0  0  0
  149.1298  142.0857  156.9837 H   0  0  0  0  0  0  0  0  0  0  0  0
  148.4784  139.6905  157.3118 H   0  0  0  0  0  0  0  0  0  0  0  0
  149.1475  140.3433  158.7877 H   0  0  0  0  0  0  0  0  0  0  0  0
  150.1304  139.2936  157.7704 H   0  0  0  0  0  0  0  0  0  0  0  0
  150.8429  141.7748  155.0659 H   0  0  0  0  0  0  0  0  0  0  0  0
  150.7838  140.0644  155.4264 H   0  0  0  0  0  0  0  0  0  0  0  0
  148.1718  142.8269  154.6356 H   0  0  0  0  0  0  0  0  0  0  0  0
  146.9972  139.2784  152.8971 H   0  0  0  0  0  0  0  0  0  0  0  0
  151.8002  141.1497  157.7270 H   0  0  0  0  0  0  0  0  0  0  0  0
  1  2  1  0  0  0  0
  1 19  1  0  0  0  0
  1 20  1  0  0  0  0
  1 21  1  0  0  0  0
  2  8  1  0  0  0  0
  2  3  2  0  0  0  0
  3  4  1  0  0  0  0
  3 22  1  0  0  0  0
  4  5  1  0  0  0  0
  4 23  1  0  0  0  0
  4 24  1  0  0  0  0
  5  6  1  0  0  0  0
  5 25  1  0  0  0  0
  5 26  1  0  0  0  0
  6  7  1  0  0  0  0
  6  8  1  0  0  0  0
  6 27  1  0  0  0  0
  7 28  1  0  0  0  0
  7 29  1  0  0  0  0
  7 30  1  0  0  0  0
  8  9  1  0  0  0  0
  8 31  1  0  0  0  0
  9 10  1  0  0  0  0
  9 32  1  0  0  0  0
  9 33  1  0  0  0  0
 10 11  1  0  0  0  0
 10 34  1  0  0  0  0
 10 43  1  0  0  0  0
 11 12  1  0  0  0  0
 11 13  1  0  0  0  0
 11 35  1  0  0  0  0
 12 36  1  0  0  0  0
 12 37  1  0  0  0  0
 12 38  1  0  0  0  0
 13 14  1  0  0  0  0
 13 39  1  0  0  0  0
 13 40  1  0  0  0  0
 14 18  1  0  0  0  0
 14 15  1  0  0  0  0
 15 16  2  0  0  0  0
 15 41  1  0  0  0  0
 16 17  1  0  0  0  0
 17 18  2  0  0  0  0
 17 42  1  0  0  0  0
M  CHG  1  10   1
M  END
> <s_m_source_file>
AV-unprocessed.smi

> <i_m_source_file_index>
3274

> <i_lp_mmshare_version>
43012

> <i_f3d_flags>
0

> <s_epik_input>
W0NIM11DMT1bQ0hdW0NIMl1bQ0gyXVtDQEBIXShbQ0gzXSlbQ0BIXTFbQ0gyXVtOSF1bQ0BIXShbQ0gzXSlbQ0gyXW4yW2NIXW5bY0hdbjI=

> <s_epik_cmdline>
J2VwaWtfcHl0aG9uJywgJy1waCcsICc3LjAnLCAnLXRuJywgJzgnLCAnLW1hJywgJzIwMCcsICctbWV0YWxfYmluZGluZycsICctaW1hZScsICc8aW5maWxlLm1hZT4nLCAnLW9tYWUnLCAnPG91dGZpbGUubWFlPic=

> <r_lp_tautomer_probability>
1

> <r_epik_Ionization_Penalty>
0.0017527

> <r_epik_Ionization_Penalty_Charging>
0.00175191

> <r_epik_Ionization_Penalty_Neutral>
7.94565e-07

> <r_epik_State_Penalty>
0.00118605

> <r_epik_Charging_Adjusted_Penalty>
0.00293796

> <i_epik_Tot_Q>
1

> <i_epik_Tot_abs_Q>
1

> <r_epik_Metal_State_Penalty>
-0

> <b_epik_Metal_Only>
0

> <s_lp_Force_Field>
OPLS_2005

> <r_lp_Energy>
18.9317

> <b_lp_Chiralities_Consistent>
1

> <s_lp_Variant>
AV-unprocessed.smi:3274-2

> <Gold.Version>
5.8.1

> <Gold.Id.Protein>
6NUR|6NUR_protein|mol2

> <Gold.PLP.Fitness>
46.3898

> <Gold.PLP.PLP>
-44.3600

> <Gold.PLP.part.hbond>
0.0000

> <Gold.PLP.part.metal>
0.0000

> <Gold.PLP.part.buried>
-5.5355

> <Gold.PLP.part.nonpolar>
-39.0951

> <Gold.PLP.part.repulsive>
0.3672

> <Gold.PLP.ligand.clash>
0.0000

> <Gold.PLP.ligand.torsion>
0.5133

> <Gold.PLP.Chemscore.Hbond>
0.0000

> <Gold.PLP.Chemscore.CHOScore>
1.0000

> <Gold.PLP.Chemscore.Metal>
0.0000

> <Gold.Chemscore.Hbonds>
donor molecule, donor type, donor heavy atom, donor atom, acceptor molecule, acceptor atom, score
      L1  C    15    41       P1  8028  1.00

> <Gold.PLP.Chemscore.Internal.Correction>
0.0565

> <Gold.Rescore>
     Score         DG    S(hbond)    S(metal)    S(lipo)     H(rot)  DE(clash)    DE(int)     intcor
     11.85     -12.24       0.00        0.00     109.44       2.36       0.05       0.34       ----

> <Gold.Chemscore.Fitness>
11.8547

> <Gold.Chemscore.DG>
-12.2392

> <Gold.Chemscore.ZeroCoef>
-5.4800

> <Gold.Chemscore.Hbond>
0.0000

> <Gold.Chemscore.Metal>
0.0000

> <Gold.Chemscore.Lipo>
109.4411

> <Gold.Chemscore.Internal_Hbond>
0.0000

> <Gold.Chemscore.DEClash>
0.0451

> <Gold.Chemscore.DEInternal>
0.3395

> <Gold.Chemscore.Rot>
2.3615

> <Gold.Chemscore.Internal.Correction>
   9.000000E+99

> <Gold.Chemscore.Hbond.Weighted>
-0.0000

> <Gold.Chemscore.Metal.Weighted>
-0.0000

> <Gold.Chemscore.Lipo.Weighted>
-12.8046

> <Gold.Chemscore.Internal_Hbond.Weighted>
0.0000

> <Gold.Chemscore.DEClash.Weighted>
0.0451

> <Gold.Chemscore.DEInternal.Weighted>
0.3395

> <Gold.Chemscore.Rot.Weighted>
6.0454

> <Gold.Chemscore.Internal.Correction.Weighted>
   9.000000E+99

> <Gold.Protein.RotatedTorsions>
[ 6907 6896 6895 6894 ] final   84.76 input  -60.11 | X-H torsion
[ 7974 7965 7964 7962 ] final  163.65 input  175.53 | X-H torsion
[ 8008 7997 7996 7995 ] final  -34.26 input   59.86 | X-H torsion
[ 10167 10162 10161 10158 ] final -106.47 input  -65.29 | X-H torsion
[ 10718 10713 10712 10709 ] final   76.19 input   66.30 | X-H torsion
[ 10763 10752 10751 10750 ] final  -67.52 input  -60.55 | X-H torsion
[ 11005 11000 10999 10996 ] final  122.52 input  -57.11 | X-H torsion

> <Gold.Protein.ActiveResidues>
 VAL166  LYS551  ARG553  GLY616  TRP617  ASP618  TYR619  PRO620  LYS621  CYS622 
 ASP623  PHE694  ASN695  SER759  ASP760  ASP761  ALA762  ILE779  LEU786  VAL792 
 PHE793  MET794  SER795  GLU796  ALA797  LYS798  CYS799  TRP800  GLU811  SER814 

> <Gold.Protein.RotatedAtoms>
  152.5360  134.2691  159.8964 H   0  0  0  0  0  0  0  0  0  0  0  0  # atno 6907 bound_to 6896
  151.2648  133.4277  159.2625 H   0  0  0  0  0  0  0  0  0  0  0  0  # atno 6908 bound_to 6896
  151.0420  134.9629  159.8223 H   0  0  0  0  0  0  0  0  0  0  0  0  # atno 6909 bound_to 6896
  144.7580  139.8212  143.6343 H   0  0  0  0  0  0  0  0  0  0  0  0  # atno 7974 bound_to 7965
  154.4126  140.1689  156.2020 H   0  0  0  0  0  0  0  0  0  0  0  0  # atno 8008 bound_to 7997
  155.9516  140.3400  155.6389 H   0  0  0  0  0  0  0  0  0  0  0  0  # atno 8009 bound_to 7997
  155.6863  140.0728  157.2456 H   0  0  0  0  0  0  0  0  0  0  0  0  # atno 8010 bound_to 7997
  140.1874  143.3918  152.1233 H   0  0  0  0  0  0  0  0  0  0  0  0  # atno 10167 bound_to 10162
  157.6664  130.9762  150.1462 H   0  0  0  0  0  0  0  0  0  0  0  0  # atno 10718 bound_to 10713
  154.3757  135.6085  153.5763 H   0  0  0  0  0  0  0  0  0  0  0  0  # atno 10763 bound_to 10752
  152.9789  135.5848  154.4470 H   0  0  0  0  0  0  0  0  0  0  0  0  # atno 10764 bound_to 10752
  154.4231  135.2846  155.1940 H   0  0  0  0  0  0  0  0  0  0  0  0  # atno 10765 bound_to 10752
  139.9272  134.9641  156.8121 H   0  0  0  0  0  0  0  0  0  0  0  0  # atno 11005 bound_to 11000
  146.1613  139.4728  142.9987 LP  0  0  0  0  0  0  0  0  0  0  0  0  # atno 17320 bound_to 7965
  145.6713  141.0215  143.1656 LP  0  0  0  0  0  0  0  0  0  0  0  0  # atno 17321 bound_to 7965
  139.5270  144.7114  151.5193 LP  0  0  0  0  0  0  0  0  0  0  0  0  # atno 17342 bound_to 10162
  140.6479  143.8757  150.6755 LP  0  0  0  0  0  0  0  0  0  0  0  0  # atno 17343 bound_to 10162
  156.2272  130.3679  149.8487 LP  0  0  0  0  0  0  0  0  0  0  0  0  # atno 17370 bound_to 10713
  156.6323  130.8671  151.3498 LP  0  0  0  0  0  0  0  0  0  0  0  0  # atno 17371 bound_to 10713
  140.6303  133.9911  155.7659 LP  0  0  0  0  0  0  0  0  0  0  0  0  # atno 17394 bound_to 11000
  141.0837  134.0023  157.3346 LP  0  0  0  0  0  0  0  0  0  0  0  0  # atno 17395 bound_to 11000

$$$$
