AV-unprocessed.smi:1395|AV-procd|sdf|5669|dock7
  -GOLD-   22720 5293D 1   1.00000     0.00000
 Structure written by MMmdl.
 42 43  0  0  0  0  0  0  0  0  1 V2000
  152.4922  141.1403  158.4714 C   0  0  0  0  0  0  0  0  0  0  0  0
  152.1188  142.4110  159.2178 C   0  0  0  0  0  0  0  0  0  0  0  0
  152.5439  142.5776  160.5529 C   0  0  0  0  0  0  0  0  0  0  0  0
  152.1974  143.7526  161.2417 C   0  0  0  0  0  0  0  0  0  0  0  0
  151.4356  144.7176  160.5612 C   0  0  0  0  0  0  0  0  0  0  0  0
  151.0248  144.5666  159.2856 N   0  0  0  0  0  0  0  0  0  0  0  0
  151.3506  143.4381  158.6063 C   0  0  0  0  0  0  0  0  0  0  0  0
  150.9505  143.2089  157.2595 N   0  0  0  0  0  0  0  0  0  0  0  0
  150.2004  142.2075  156.7667 C   0  0  0  0  0  0  0  0  0  0  0  0
  149.7125  141.2890  157.4260 O   0  0  0  0  0  0  0  0  0  0  0  0
  150.0404  142.3321  155.4412 N   0  0  0  0  0  0  0  0  0  0  0  0
  149.2783  141.4194  154.5945 C   0  0  0  0  0  0  0  0  0  0  0  0
  147.7926  141.4729  154.9771 C   0  0  0  0  0  0  0  0  0  0  0  0
  146.9738  140.4292  154.1973 C   0  0  0  0  0  0  0  0  0  0  0  0
  147.5008  139.0778  154.4376 N   0  0  0  0  0  0  0  0  0  0  0  0
  146.6971  138.0266  153.7731 C   0  0  0  0  0  0  0  0  0  0  0  0
  146.2419  138.3761  152.3502 C   0  0  0  0  0  0  0  0  0  0  0  0
  144.9279  138.3773  152.1133 N   0  0  0  0  0  0  0  0  0  0  0  0
  147.0659  138.6381  151.4765 O   0  0  0  0  0  0  0  0  0  0  0  0
  148.8909  138.9884  153.9786 C   0  0  0  0  0  0  0  0  0  0  0  0
  149.7827  139.9757  154.7515 C   0  0  0  0  0  0  0  0  0  0  0  0
  153.0854  140.4723  159.0964 H   0  0  0  0  0  0  0  0  0  0  0  0
  153.0790  141.3773  157.5834 H   0  0  0  0  0  0  0  0  0  0  0  0
  151.5954  140.6026  158.1623 H   0  0  0  0  0  0  0  0  0  0  0  0
  153.1289  141.8155  161.0468 H   0  0  0  0  0  0  0  0  0  0  0  0
  152.5074  143.9100  162.2641 H   0  0  0  0  0  0  0  0  0  0  0  0
  151.1477  145.6349  161.0530 H   0  0  0  0  0  0  0  0  0  0  0  0
  151.2756  143.8918  156.5917 H   0  0  0  0  0  0  0  0  0  0  0  0
  150.4747  143.1190  154.9818 H   0  0  0  0  0  0  0  0  0  0  0  0
  149.3769  141.7233  153.5504 H   0  0  0  0  0  0  0  0  0  0  0  0
  147.6759  141.2936  156.0473 H   0  0  0  0  0  0  0  0  0  0  0  0
  147.3942  142.4701  154.7862 H   0  0  0  0  0  0  0  0  0  0  0  0
  145.9359  140.5066  154.5208 H   0  0  0  0  0  0  0  0  0  0  0  0
  146.9890  140.6549  153.1296 H   0  0  0  0  0  0  0  0  0  0  0  0
  147.2571  137.0892  153.7627 H   0  0  0  0  0  0  0  0  0  0  0  0
  145.7936  137.8406  154.3557 H   0  0  0  0  0  0  0  0  0  0  0  0
  144.5808  138.5999  151.1919 H   0  0  0  0  0  0  0  0  0  0  0  0
  144.2854  138.1536  152.8594 H   0  0  0  0  0  0  0  0  0  0  0  0
  149.2688  137.9773  154.1367 H   0  0  0  0  0  0  0  0  0  0  0  0
  148.9516  139.1849  152.9066 H   0  0  0  0  0  0  0  0  0  0  0  0
  150.8104  139.8958  154.3957 H   0  0  0  0  0  0  0  0  0  0  0  0
  149.7988  139.6987  155.8067 H   0  0  0  0  0  0  0  0  0  0  0  0
  1  2  1  0  0  0  0
  1 22  1  0  0  0  0
  1 23  1  0  0  0  0
  1 24  1  0  0  0  0
  2  7  1  0  0  0  0
  2  3  2  0  0  0  0
  3  4  1  0  0  0  0
  3 25  1  0  0  0  0
  4  5  2  0  0  0  0
  4 26  1  0  0  0  0
  5  6  1  0  0  0  0
  5 27  1  0  0  0  0
  6  7  2  0  0  0  0
  7  8  1  0  0  0  0
  8  9  1  0  0  0  0
  8 28  1  0  0  0  0
  9 10  2  0  0  0  0
  9 11  1  0  0  0  0
 11 12  1  0  0  0  0
 11 29  1  0  0  0  0
 12 21  1  0  0  0  0
 12 13  1  0  0  0  0
 12 30  1  0  0  0  0
 13 14  1  0  0  0  0
 13 31  1  0  0  0  0
 13 32  1  0  0  0  0
 14 15  1  0  0  0  0
 14 33  1  0  0  0  0
 14 34  1  0  0  0  0
 15 16  1  0  0  0  0
 15 20  1  0  0  0  0
 16 17  1  0  0  0  0
 16 35  1  0  0  0  0
 16 36  1  0  0  0  0
 17 18  1  0  0  0  0
 17 19  2  0  0  0  0
 18 37  1  0  0  0  0
 18 38  1  0  0  0  0
 20 21  1  0  0  0  0
 20 39  1  0  0  0  0
 20 40  1  0  0  0  0
 21 41  1  0  0  0  0
 21 42  1  0  0  0  0
M  END
> <s_m_source_file>
AV-unprocessed.smi

> <i_m_source_file_index>
1395

> <i_lp_mmshare_version>
43012

> <i_f3d_flags>
0

> <s_epik_input>
W0NIM11jMVtjSF1bY0hdW2NIXW5jMVtOSF1DKD1PKVtOSF1bQ0hdMltDSDJdW0NIMl1OKFtDSDJdW0NIMl0yKVtDSDJdQyg9TylbTkgyXQ==

> <s_epik_cmdline>
J2VwaWtfcHl0aG9uJywgJy1waCcsICc3LjAnLCAnLXRuJywgJzgnLCAnLW1hJywgJzIwMCcsICctbWV0YWxfYmluZGluZycsICctaW1hZScsICc8aW5maWxlLm1hZT4nLCAnLW9tYWUnLCAnPG91dGZpbGUubWFlPic=

> <r_epik_Ionization_Penalty>
0.164795

> <r_epik_Ionization_Penalty_Charging>
0

> <r_epik_Ionization_Penalty_Neutral>
0.164795

> <r_epik_State_Penalty>
0.154069

> <r_epik_Charging_Adjusted_Penalty>
0.154069

> <i_epik_Tot_Q>
0

> <i_epik_Tot_abs_Q>
0

> <r_epik_Metal_State_Penalty>
0.171366

> <b_epik_Metal_Only>
0

> <s_lp_Force_Field>
OPLS_2005

> <r_lp_Energy>
15.3703

> <b_lp_Chiralities_Consistent>
1

> <s_lp_Variant>
AV-unprocessed.smi:1395-1

> <Gold.Version>
5.8.1

> <Gold.Id.Protein>
6NUR|6NUR_protein|mol2

> <Gold.PLP.Fitness>
42.0619

> <Gold.PLP.PLP>
-37.6198

> <Gold.PLP.part.hbond>
-4.5150

> <Gold.PLP.part.metal>
0.0000

> <Gold.PLP.part.buried>
-3.4809

> <Gold.PLP.part.nonpolar>
-32.9063

> <Gold.PLP.part.repulsive>
3.3666

> <Gold.PLP.ligand.clash>
0.0000

> <Gold.PLP.ligand.torsion>
0.7691

> <Gold.PLP.Chemscore.Hbond>
1.9913

> <Gold.PLP.Chemscore.CHOScore>
0.0000

> <Gold.PLP.Chemscore.Metal>
0.0000

> <Gold.Chemscore.Hbonds>
donor molecule, donor type, donor heavy atom, donor atom, acceptor molecule, acceptor atom, score
      L1  H    18    37       P1 10171  1.00
      P1  H  7954  7966       L1    19  0.91

> <Gold.PLP.Chemscore.Internal.Correction>
0.0065

> <Gold.Rescore>
     Score         DG    S(hbond)    S(metal)    S(lipo)     H(rot)  DE(clash)    DE(int)     intcor
     13.26     -17.42       1.96        0.00      88.63       1.94       2.25       1.92       ----

> <Gold.Chemscore.Fitness>
13.2562

> <Gold.Chemscore.DG>
-17.4235

> <Gold.Chemscore.ZeroCoef>
-5.4800

> <Gold.Chemscore.Hbond>
1.9570

> <Gold.Chemscore.Metal>
0.0000

> <Gold.Chemscore.Lipo>
88.6257

> <Gold.Chemscore.Internal_Hbond>
0.0000

> <Gold.Chemscore.DEClash>
2.2467

> <Gold.Chemscore.DEInternal>
1.9206

> <Gold.Chemscore.Rot>
1.9383

> <Gold.Chemscore.Internal.Correction>
   9.000000E+99

> <Gold.Chemscore.Hbonds>
donor molecule, donor type, donor heavy atom, donor atom, acceptor molecule, acceptor atom, score
      L1  H    11    29       P1  8028  0.01
      L1  H    18    37       P1 10171  0.94
      P1  H  7954  7966       L1    19  0.85

> <Gold.Chemscore.Hbond.Weighted>
-6.5363

> <Gold.Chemscore.Metal.Weighted>
-0.0000

> <Gold.Chemscore.Lipo.Weighted>
-10.3692

> <Gold.Chemscore.Internal_Hbond.Weighted>
0.0000

> <Gold.Chemscore.DEClash.Weighted>
2.2467

> <Gold.Chemscore.DEInternal.Weighted>
1.9206

> <Gold.Chemscore.Rot.Weighted>
4.9620

> <Gold.Chemscore.Internal.Correction.Weighted>
   9.000000E+99

> <Gold.Protein.RotatedTorsions>
[ 6907 6896 6895 6894 ] final   24.88 input  -60.11 | X-H torsion
[ 7974 7965 7964 7962 ] final  138.83 input  175.53 | X-H torsion
[ 8008 7997 7996 7995 ] final  -62.36 input   59.86 | X-H torsion
[ 10167 10162 10161 10158 ] final   14.53 input  -65.29 | X-H torsion
[ 10718 10713 10712 10709 ] final  -17.94 input   66.30 | X-H torsion
[ 10763 10752 10751 10750 ] final   71.71 input  -60.55 | X-H torsion
[ 11005 11000 10999 10996 ] final  -81.98 input  -57.11 | X-H torsion

> <Gold.Protein.ActiveResidues>
 VAL166  LYS551  ARG553  GLY616  TRP617  ASP618  TYR619  PRO620  LYS621  CYS622 
 ASP623  PHE694  ASN695  SER759  ASP760  ASP761  ALA762  ILE779  LEU786  VAL792 
 PHE793  MET794  SER795  GLU796  ALA797  LYS798  CYS799  TRP800  GLU811  SER814 

> <Gold.Protein.RotatedAtoms>
  151.9641  135.0109  160.0549 H   0  0  0  0  0  0  0  0  0  0  0  0  # atno 6907 bound_to 6896
  152.1842  133.4723  159.4982 H   0  0  0  0  0  0  0  0  0  0  0  0  # atno 6908 bound_to 6896
  150.6923  134.1712  159.4256 H   0  0  0  0  0  0  0  0  0  0  0  0  # atno 6909 bound_to 6896
  144.9335  139.5017  143.5606 H   0  0  0  0  0  0  0  0  0  0  0  0  # atno 7974 bound_to 7965
  154.4496  140.0998  156.6575 H   0  0  0  0  0  0  0  0  0  0  0  0  # atno 8008 bound_to 7997
  155.5330  140.3482  155.4412 H   0  0  0  0  0  0  0  0  0  0  0  0  # atno 8009 bound_to 7997
  156.0651  140.1336  156.9884 H   0  0  0  0  0  0  0  0  0  0  0  0  # atno 8010 bound_to 7997
  140.5929  143.8760  150.6890 H   0  0  0  0  0  0  0  0  0  0  0  0  # atno 10167 bound_to 10162
  156.5665  130.4738  149.6382 H   0  0  0  0  0  0  0  0  0  0  0  0  # atno 10718 bound_to 10713
  153.0415  135.5127  154.7634 H   0  0  0  0  0  0  0  0  0  0  0  0  # atno 10763 bound_to 10752
  154.6568  135.2933  154.9920 H   0  0  0  0  0  0  0  0  0  0  0  0  # atno 10764 bound_to 10752
  154.0785  135.6667  153.4887 H   0  0  0  0  0  0  0  0  0  0  0  0  # atno 10765 bound_to 10752
  141.1665  133.7222  156.8503 H   0  0  0  0  0  0  0  0  0  0  0  0  # atno 11005 bound_to 11000
  146.3257  139.8303  142.8909 LP  0  0  0  0  0  0  0  0  0  0  0  0  # atno 17320 bound_to 7965
  145.3104  141.0218  143.3558 LP  0  0  0  0  0  0  0  0  0  0  0  0  # atno 17321 bound_to 7965
  140.2287  143.3752  152.1584 LP  0  0  0  0  0  0  0  0  0  0  0  0  # atno 17342 bound_to 10162
  139.5239  144.7077  151.5303 LP  0  0  0  0  0  0  0  0  0  0  0  0  # atno 17343 bound_to 10162
  156.2752  130.7040  151.1849 LP  0  0  0  0  0  0  0  0  0  0  0  0  # atno 17370 bound_to 10713
  157.7357  131.0569  150.5453 LP  0  0  0  0  0  0  0  0  0  0  0  0  # atno 17371 bound_to 10713
  140.1920  134.8959  157.3071 LP  0  0  0  0  0  0  0  0  0  0  0  0  # atno 17394 bound_to 11000
  140.2280  134.3943  155.7535 LP  0  0  0  0  0  0  0  0  0  0  0  0  # atno 17395 bound_to 11000

$$$$
