#       Name:                AV-unprocessed.smi:715
#       Creating user name   scv26
#       Creation time:       Fri Mar 27 00:47:47 2020


#       File generated by GOLD software.
#

@<TRIPOS>MOLECULE
AV-unprocessed.smi:715
    44    45     1
SMALL
NO_CHARGES


@<TRIPOS>ATOM
      1 ****        -3.3717   5.5315  -1.5806 C.3            1 S1                 0.0000
      2 ****        -3.1878   4.4566  -0.6292 N.pl3          1 S1                 0.0000
      3 ****        -2.7457   3.1715  -0.8577 C.2            1 S1                 0.0000
      4 ****        -2.7374   2.5189   0.3432 C.2            1 S1                 0.0000
      5 ****        -2.3284   1.0984   0.6311 C.3            1 S1                 0.0000
      6 ****        -3.1313   0.5360   1.6497 O.3            1 S1                 0.0000
      7 ****        -0.8595   1.0402   1.0852 C.3            1 S1                 0.0000
      8 ****        -0.3572  -0.3278   1.0616 N.am           1 S1                 0.0000
      9 ****         0.9277  -0.6683   1.2347 C.2            1 S1                 0.0000
     10 ****         1.8223   0.1545   1.4306 O.2            1 S1                 0.0000
     11 ****         1.2491  -2.1659   1.1836 C.3            1 S1                 0.0000
     12 ****         2.5263  -2.4933   0.3819 C.3            1 S1                 0.0000
     13 ****         2.4632  -2.1281  -1.1059 C.3            1 S1                 0.0000
     14 ****         3.5550  -2.9732  -1.7719 C.3            1 S1                 0.0000
     15 ****         3.8201  -4.1571  -0.8288 C.3            1 S1                 0.0000
     16 ****         2.8617  -3.9863   0.3547 C.3            1 S1                 0.0000
     17 ****        -3.1956   3.5115   1.2582 C.2            1 S1                 0.0000
     18 ****        -3.4667   4.6668   0.6732 N.2            1 S1                 0.0000
     19 ****        -2.9959   5.2332  -2.5597 H              1 S1                 0.0000
     20 ****        -2.8292   6.4174  -1.2485 H              1 S1                 0.0000
     21 ****        -4.4322   5.7705  -1.6648 H              1 S1                 0.0000
     22 ****        -2.4745   2.8299  -1.8459 H              1 S1                 0.0000
     23 ****        -2.4531   0.4874  -0.2641 H              1 S1                 0.0000
     24 ****        -4.0249   0.5034   1.3438 H              1 S1                 0.0000
     25 ****        -0.2491   1.6325   0.4008 H              1 S1                 0.0000
     26 ****        -0.7358   1.4762   2.0781 H              1 S1                 0.0000
     27 ****        -1.0346  -1.0625   0.9162 H              1 S1                 0.0000
     28 ****         1.3613  -2.5186   2.2092 H              1 S1                 0.0000
     29 ****         0.4006  -2.7084   0.7632 H              1 S1                 0.0000
     30 ****         3.3758  -1.9715   0.8268 H              1 S1                 0.0000
     31 ****         1.4905  -2.4058  -1.5148 H              1 S1                 0.0000
     32 ****         2.6021  -1.0610  -1.2829 H              1 S1                 0.0000
     33 ****         3.2494  -3.3034  -2.7655 H              1 S1                 0.0000
     34 ****         4.4659  -2.3850  -1.8897 H              1 S1                 0.0000
     35 ****         3.6735  -5.1171  -1.3251 H              1 S1                 0.0000
     36 ****         4.8535  -4.1251  -0.4809 H              1 S1                 0.0000
     37 ****         3.2943  -4.3345   1.2933 H              1 S1                 0.0000
     38 ****         1.9565  -4.5677   0.1734 H              1 S1                 0.0000
     39 ****        -3.3377   3.4254   2.3254 H              1 S1                 0.0000
     40 ****        -3.0770   1.1013   2.4727 LP             1 S1                 0.0000
     41 ****        -2.8124  -0.3885   1.8587 LP             1 S1                 0.0000
     42 ****         1.6053   1.1300   1.4666 LP             1 S1                 0.0000
     43 ****         2.7659  -0.1527   1.5536 LP             1 S1                 0.0000
     44 ****        -3.8026   5.5062   1.1004 LP             1 S1                 0.0000
@<TRIPOS>BOND
    1    1    2 1     
    2    1   19 1     
    3    1   20 1     
    4    1   21 1     
    5    2   18 1     
    6    2    3 1     
    7    3    4 2     
    8    3   22 1     
    9    4    5 1     
   10    4   17 1     
   11    5    6 1     
   12    5    7 1     
   13    5   23 1     
   14    6   24 1     
   15    7    8 1     
   16    7   25 1     
   17    7   26 1     
   18    8    9 am    
   19    8   27 1     
   20    9   10 2     
   21    9   11 1     
   22   11   12 1     
   23   11   28 1     
   24   11   29 1     
   25   12   16 1     
   26   12   13 1     
   27   12   30 1     
   28   13   14 1     
   29   13   31 1     
   30   13   32 1     
   31   14   15 1     
   32   14   33 1     
   33   14   34 1     
   34   15   16 1     
   35   15   35 1     
   36   15   36 1     
   37   16   37 1     
   38   16   38 1     
   39   17   18 2     
   40   17   39 1     
   41    6   40 1     
   42    6   41 1     
   43   10   42 1     
   44   10   43 1     
   45   18   44 1     
@<TRIPOS>SUBSTRUCTURE
      1 S1             1
@<TRIPOS>SET
LONE_PAIRS      STATIC     ATOMS    <user>   **** ""
5 40 41 42 43 44
DONOR_HYDROGENS      STATIC     ATOMS    <user>   **** ""
2 24 27
ATOM$BLUE        STATIC     ATOMS    COLORGROUP SYSTEM
5 40 41 42 43 44
ATOM$RED        STATIC     ATOMS    COLORGROUP SYSTEM
2 24 27
