#       Name:                AV-unprocessed.smi:17
#       Creating user name   scv26
#       Creation time:       Thu Mar 26 15:26:20 2020


#       File generated by GOLD software.
#

@<TRIPOS>MOLECULE
AV-unprocessed.smi:17
    65    67     1
SMALL
NO_CHARGES


@<TRIPOS>ATOM
      1 ****        -2.3965  -3.9306  -0.0126 C.3            1 S1                 0.0000
      2 ****        -3.0072  -2.5213   0.0637 C.3            1 S1                 0.0000
      3 ****        -2.4941  -1.6053  -0.9578 N.3            1 S1                 0.0000
      4 ****        -1.1439  -1.4601  -0.9811 C.ar           1 S1                 0.0000
      5 ****        -0.5151  -1.6722  -2.1641 N.ar           1 S1                 0.0000
      6 ****         0.8130  -1.5620  -2.2513 C.ar           1 S1                 0.0000
      7 ****         1.6890  -1.2560  -1.2928 N.ar           1 S1                 0.0000
      8 ****         1.0648  -1.0441  -0.0988 C.ar           1 S1                 0.0000
      9 ****        -0.3350  -1.1323   0.1464 C.ar           1 S1                 0.0000
     10 ****        -0.5941  -0.8629   1.4849 N.2            1 S1                 0.0000
     11 ****         0.5813  -0.6281   1.9989 C.2            1 S1                 0.0000
     12 ****         1.6348  -0.6985   1.1155 N.pl3          1 S1                 0.0000
     13 ****         3.0433  -0.4816   1.4149 C.3            1 S1                 0.0000
     14 ****         3.4986   1.0010   1.3239 C.3            1 S1                 0.0000
     15 ****         3.2973   1.5902  -0.0921 C.3            1 S1                 0.0000
     16 ****         4.0609   0.8848  -1.0477 O.3            1 S1                 0.0000
     17 ****         2.8308   1.8955   2.4017 C.3            1 S1                 0.0000
     18 ****         3.1145   1.4808   3.8360 C.3            1 S1                 0.0000
     19 ****         2.7529   2.7400   4.6151 C.3            1 S1                 0.0000
     20 ****         3.0655   3.8266   3.7518 O.3            1 S1                 0.0000
     21 ****         3.3331   3.3435   2.4393 C.3            1 S1                 0.0000
     22 ****        -3.2835  -0.3863  -1.1972 C.3            1 S1                 0.0000
     23 ****        -3.1167   0.6684  -0.0864 C.3            1 S1                 0.0000
     24 ****        -3.0684   0.2341  -2.5950 C.3            1 S1                 0.0000
     25 ****        -3.7836  -0.8231  -3.9296 S.o2           1 S1                 0.0000
     26 ****        -3.4619   0.1942  -5.4268 C.3            1 S1                 0.0000
     27 ****        -2.9975  -2.0615  -4.0334 O.2            1 S1                 0.0000
     28 ****        -5.2378  -0.9050  -3.7253 O.2            1 S1                 0.0000
     29 ****        -2.8662  -4.5909   0.7163 H              1 S1                 0.0000
     30 ****        -1.3264  -3.9248   0.1959 H              1 S1                 0.0000
     31 ****        -2.5449  -4.3686  -1.0002 H              1 S1                 0.0000
     32 ****        -4.0863  -2.6093  -0.0662 H              1 S1                 0.0000
     33 ****        -2.8593  -2.1033   1.0588 H              1 S1                 0.0000
     34 ****         1.2332  -1.7462  -3.2290 H              1 S1                 0.0000
     35 ****         0.7075  -0.3913   3.0445 H              1 S1                 0.0000
     36 ****         3.2454  -0.8826   2.4082 H              1 S1                 0.0000
     37 ****         3.6333  -1.0955   0.7336 H              1 S1                 0.0000
     38 ****         4.5713   1.0120   1.5236 H              1 S1                 0.0000
     39 ****         2.2467   1.5817  -0.3827 H              1 S1                 0.0000
     40 ****         3.6250   2.6282  -0.1324 H              1 S1                 0.0000
     41 ****         3.7409  -0.0039  -1.0905 H              1 S1                 0.0000
     42 ****         1.7511   1.9180   2.2484 H              1 S1                 0.0000
     43 ****         2.5426   0.6138   4.1649 H              1 S1                 0.0000
     44 ****         4.1743   1.2559   3.9644 H              1 S1                 0.0000
     45 ****         1.6834   2.7615   4.8279 H              1 S1                 0.0000
     46 ****         3.2894   2.8139   5.5611 H              1 S1                 0.0000
     47 ****         4.4105   3.3844   2.2739 H              1 S1                 0.0000
     48 ****         2.8527   3.9728   1.6901 H              1 S1                 0.0000
     49 ****        -4.3298  -0.6915  -1.1604 H              1 S1                 0.0000
     50 ****        -3.8124   1.4955  -0.2297 H              1 S1                 0.0000
     51 ****        -2.1112   1.0897  -0.0775 H              1 S1                 0.0000
     52 ****        -3.3162   0.2483   0.8995 H              1 S1                 0.0000
     53 ****        -3.5816   1.1939  -2.6541 H              1 S1                 0.0000
     54 ****        -2.0193   0.4289  -2.8137 H              1 S1                 0.0000
     55 ****        -3.8496  -0.3225  -6.3043 H              1 S1                 0.0000
     56 ****        -2.3889   0.3464  -5.5408 H              1 S1                 0.0000
     57 ****        -3.9586   1.1589  -5.3272 H              1 S1                 0.0000
     58 ****        -2.6696  -2.1110  -1.8026 LP             1 S1                 0.0000
     59 ****        -1.0487  -1.9123  -2.9751 LP             1 S1                 0.0000
     60 ****         2.6771  -1.1904  -1.4320 LP             1 S1                 0.0000
     61 ****        -1.4801  -0.8517   1.9484 LP             1 S1                 0.0000
     62 ****         5.0234   0.8841  -0.7766 LP             1 S1                 0.0000
     63 ****         3.9671   1.3206  -1.9429 LP             1 S1                 0.0000
     64 ****         3.8720   4.3047   4.0996 LP             1 S1                 0.0000
     65 ****         2.2910   4.4584   3.7207 LP             1 S1                 0.0000
@<TRIPOS>BOND
    1    1    2 1     
    2    1   29 1     
    3    1   30 1     
    4    1   31 1     
    5    2    3 1     
    6    2   32 1     
    7    2   33 1     
    8    3    4 1     
    9    3   22 1     
   10    4    9 ar    
   11    4    5 ar    
   12    5    6 ar    
   13    6    7 ar    
   14    6   34 1     
   15    7    8 ar    
   16    8   12 1     
   17    8    9 ar    
   18    9   10 1     
   19   10   11 2     
   20   11   12 1     
   21   11   35 1     
   22   12   13 1     
   23   13   14 1     
   24   13   36 1     
   25   13   37 1     
   26   14   15 1     
   27   14   17 1     
   28   14   38 1     
   29   15   16 1     
   30   15   39 1     
   31   15   40 1     
   32   16   41 1     
   33   17   21 1     
   34   17   18 1     
   35   17   42 1     
   36   18   19 1     
   37   18   43 1     
   38   18   44 1     
   39   19   20 1     
   40   19   45 1     
   41   19   46 1     
   42   20   21 1     
   43   21   47 1     
   44   21   48 1     
   45   22   23 1     
   46   22   24 1     
   47   22   49 1     
   48   23   50 1     
   49   23   51 1     
   50   23   52 1     
   51   24   25 1     
   52   24   53 1     
   53   24   54 1     
   54   25   26 1     
   55   25   27 2     
   56   25   28 2     
   57   26   55 1     
   58   26   56 1     
   59   26   57 1     
   60    3   58 1     
   61    5   59 1     
   62    7   60 1     
   63   10   61 1     
   64   16   62 1     
   65   16   63 1     
   66   20   64 1     
   67   20   65 1     
@<TRIPOS>SUBSTRUCTURE
      1 S1             1
@<TRIPOS>SET
LONE_PAIRS      STATIC     ATOMS    <user>   **** ""
10 58 59 60 61 62 63 64 65 27 28
DONOR_HYDROGENS      STATIC     ATOMS    <user>   **** ""
1 41
ATOM$BLUE        STATIC     ATOMS    COLORGROUP SYSTEM
10 58 59 60 61 62 63 64 65 27 28
ATOM$RED        STATIC     ATOMS    COLORGROUP SYSTEM
1 41
