AV-unprocessed.smi:2858|AV-procd|sdf|11002|dock7
  -GOLD-   2272015463D 1   1.00000     0.00000
 Structure written by MMmdl.
 39 40  0  0  0  0  0  0  0  0  3 V2000
  152.2025  136.6326  155.3834 O   0  0  0  0  0  0  0  0  0  0  0  0
  150.9824  136.5786  155.2472 C   0  0  0  0  0  0  0  0  0  0  0  0
  150.2499  137.9161  154.9540 C   0  0  0  0  0  0  0  0  0  0  0  0
  148.8968  137.7051  154.3620 N   0  3  2  0  0  0  0  0  0  0  0  0
  148.1527  138.9709  154.1427 C   0  0  0  0  0  0  0  0  0  0  0  0
  148.5355  140.0582  155.1601 C   0  0  0  0  0  0  0  0  0  0  0  0
  149.5523  141.0602  154.5906 C   0  0  0  0  0  0  0  0  0  0  0  0
  149.8287  142.1328  155.5389 N   0  0  0  0  0  0  0  0  0  0  0  0
  150.4789  141.9798  156.7016 C   0  0  0  0  0  0  0  0  0  0  0  0
  150.9316  140.9013  157.0871 O   0  0  0  0  0  0  0  0  0  0  0  0
  150.5551  143.1418  157.3737 N   0  0  0  0  0  0  0  0  0  0  0  0
  151.1731  143.3918  158.6279 C   0  0  0  0  0  0  0  0  0  0  0  0
  151.1608  144.7429  159.0414 C   0  0  0  0  0  0  0  0  0  0  0  0
  151.7527  145.0971  160.2692 C   0  0  0  0  0  0  0  0  0  0  0  0
  152.3428  144.0896  161.0530 C   0  0  0  0  0  0  0  0  0  0  0  0
  152.3117  142.7690  160.5683 C   0  0  0  0  0  0  0  0  0  0  0  0
  151.7444  142.4271  159.3921 N   0  0  0  0  0  0  0  0  0  0  0  0
  148.1076  136.7034  155.1242 C   0  0  0  0  0  0  0  0  0  0  0  0
  148.7908  135.3239  155.0647 C   0  0  0  0  0  0  0  0  0  0  0  0
  150.2182  135.4500  155.3793 N   0  5  0  0  0  0  0  0  0  0  0  0
  150.1650  138.4742  155.8875 H   0  0  0  0  0  0  0  0  0  0  0  0
  150.8683  138.5060  154.2778 H   0  0  0  0  0  0  0  0  0  0  0  0
  148.3800  139.3518  153.1461 H   0  0  0  0  0  0  0  0  0  0  0  0
  147.0789  138.7797  154.1622 H   0  0  0  0  0  0  0  0  0  0  0  0
  147.6501  140.6044  155.4846 H   0  0  0  0  0  0  0  0  0  0  0  0
  148.9498  139.5826  156.0503 H   0  0  0  0  0  0  0  0  0  0  0  0
  150.4792  140.5538  154.3156 H   0  0  0  0  0  0  0  0  0  0  0  0
  149.1609  141.5083  153.6769 H   0  0  0  0  0  0  0  0  0  0  0  0
  149.4903  143.0530  155.2983 H   0  0  0  0  0  0  0  0  0  0  0  0
  150.1225  143.9423  156.9374 H   0  0  0  0  0  0  0  0  0  0  0  0
  150.7033  145.5047  158.4267 H   0  0  0  0  0  0  0  0  0  0  0  0
  151.7537  146.1244  160.6026 H   0  0  0  0  0  0  0  0  0  0  0  0
  152.8075  144.3224  161.9998 H   0  0  0  0  0  0  0  0  0  0  0  0
  152.7538  141.9657  161.1389 H   0  0  0  0  0  0  0  0  0  0  0  0
  147.9988  137.0347  156.1584 H   0  0  0  0  0  0  0  0  0  0  0  0
  147.1021  136.6150  154.7115 H   0  0  0  0  0  0  0  0  0  0  0  0
  148.2821  134.6395  155.7430 H   0  0  0  0  0  0  0  0  0  0  0  0
  148.6518  134.9103  154.0655 H   0  0  0  0  0  0  0  0  0  0  0  0
  149.0426  137.2899  153.4531 H   0  0  0  0  0  0  0  0  0  0  0  0
  1  2  2  0  0  0  0
  2 20  1  0  0  0  0
  2  3  1  0  0  0  0
  3  4  1  0  0  0  0
  3 21  1  0  0  0  0
  3 22  1  0  0  0  0
  4  5  1  0  0  0  0
  4 18  1  0  0  0  0
  4 39  1  0  0  0  0
  5  6  1  0  0  0  0
  5 23  1  0  0  0  0
  5 24  1  0  0  0  0
  6  7  1  0  0  0  0
  6 25  1  0  0  0  0
  6 26  1  0  0  0  0
  7  8  1  0  0  0  0
  7 27  1  0  0  0  0
  7 28  1  0  0  0  0
  8  9  1  0  0  0  0
  8 29  1  0  0  0  0
  9 10  2  0  0  0  0
  9 11  1  0  0  0  0
 11 12  1  0  0  0  0
 11 30  1  0  0  0  0
 12 17  1  0  0  0  0
 12 13  2  0  0  0  0
 13 14  1  0  0  0  0
 13 31  1  0  0  0  0
 14 15  2  0  0  0  0
 14 32  1  0  0  0  0
 15 16  1  0  0  0  0
 15 33  1  0  0  0  0
 16 17  2  0  0  0  0
 16 34  1  0  0  0  0
 18 19  1  0  0  0  0
 18 35  1  0  0  0  0
 18 36  1  0  0  0  0
 19 20  1  0  0  0  0
 19 37  1  0  0  0  0
 19 38  1  0  0  0  0
M  CHG  1   4   1
M  CHG  1  20  -1
M  END
> <s_m_source_file>
AV-unprocessed.smi

> <i_m_source_file_index>
2858

> <i_lp_mmshare_version>
43012

> <i_f3d_flags>
0

> <s_epik_input>
Tz1DMVtDSDJdTihbQ0gyXVtDSDJdW05IXTEpW0NIMl1bQ0gyXVtDSDJdW05IXUMoPU8pW05IXWMyW2NIXVtjSF1bY0hdW2NIXW4y

> <s_epik_cmdline>
J2VwaWtfcHl0aG9uJywgJy1waCcsICc3LjAnLCAnLXRuJywgJzgnLCAnLW1hJywgJzIwMCcsICctbWV0YWxfYmluZGluZycsICctaW1hZScsICc8aW5maWxlLm1hZT4nLCAnLW9tYWUnLCAnPG91dGZpbGUubWFlPic=

> <r_epik_Ionization_Penalty>
5.09835

> <r_epik_Ionization_Penalty_Charging>
5.09831

> <r_epik_Ionization_Penalty_Neutral>
4.20822e-05

> <r_epik_State_Penalty>
5.19693

> <r_epik_Charging_Adjusted_Penalty>
10.2952

> <i_epik_Tot_Q>
0

> <i_epik_Tot_abs_Q>
2

> <r_epik_Metal_State_Penalty>
1.27693

> <b_epik_Metal_Only>
1

> <s_lp_Force_Field>
OPLS_2005

> <r_lp_Energy>
13.8629

> <b_lp_Chiralities_Consistent>
1

> <s_lp_Variant>
AV-unprocessed.smi:2858-4

> <Gold.Version>
5.8.1

> <Gold.Id.Protein>
6NUR|6NUR_protein|mol2

> <Gold.PLP.Fitness>
48.5220

> <Gold.PLP.PLP>
-35.0181

> <Gold.PLP.part.hbond>
-3.7587

> <Gold.PLP.part.metal>
0.0000

> <Gold.PLP.part.buried>
-5.8697

> <Gold.PLP.part.nonpolar>
-26.6999

> <Gold.PLP.part.repulsive>
0.3722

> <Gold.PLP.ligand.clash>
0.0000

> <Gold.PLP.ligand.torsion>
0.7704

> <Gold.PLP.Chemscore.Hbond>
5.0000

> <Gold.PLP.Chemscore.CHOScore>
0.0000

> <Gold.PLP.Chemscore.Metal>
0.0000

> <Gold.Chemscore.Hbonds>
donor molecule, donor type, donor heavy atom, donor atom, acceptor molecule, acceptor atom, score
      L1  H     4    39       P1  7948  2.00
      L1  H     8    29       P1  8028  1.00
      L1  H    11    30       P1  8028  1.00
      P1  H 10752 10764       L1     1  0.83

> <Gold.PLP.Chemscore.Internal.Correction>
0.0447

> <Gold.Rescore>
     Score         DG    S(hbond)    S(metal)    S(lipo)     H(rot)  DE(clash)    DE(int)     intcor
     19.77     -21.90       3.88        0.00      73.92       2.02       0.06       2.07       ----

> <Gold.Chemscore.Fitness>
19.7675

> <Gold.Chemscore.DG>
-21.9008

> <Gold.Chemscore.ZeroCoef>
-5.4800

> <Gold.Chemscore.Hbond>
3.8764

> <Gold.Chemscore.Metal>
0.0000

> <Gold.Chemscore.Lipo>
73.9153

> <Gold.Chemscore.Internal_Hbond>
0.0000

> <Gold.Chemscore.DEClash>
0.0637

> <Gold.Chemscore.DEInternal>
2.0697

> <Gold.Chemscore.Rot>
2.0213

> <Gold.Chemscore.Internal.Correction>
   9.000000E+99

> <Gold.Chemscore.Hbonds>
donor molecule, donor type, donor heavy atom, donor atom, acceptor molecule, acceptor atom, score
      L1  H     4    39       P1  7948  1.00
      L1  H     8    29       P1  8028  0.99
      L1  H    11    30       P1  8028  0.94
      P1  H 10752 10764       L1     1  0.75

> <Gold.Chemscore.Hbond.Weighted>
-12.9471

> <Gold.Chemscore.Metal.Weighted>
-0.0000

> <Gold.Chemscore.Lipo.Weighted>
-8.6481

> <Gold.Chemscore.Internal_Hbond.Weighted>
0.0000

> <Gold.Chemscore.DEClash.Weighted>
0.0637

> <Gold.Chemscore.DEInternal.Weighted>
2.0697

> <Gold.Chemscore.Rot.Weighted>
5.1744

> <Gold.Chemscore.Internal.Correction.Weighted>
   9.000000E+99

> <Gold.Protein.RotatedTorsions>
[ 6907 6896 6895 6894 ] final -115.17 input  -60.11 | X-H torsion
[ 7974 7965 7964 7962 ] final   67.89 input  175.53 | X-H torsion
[ 8008 7997 7996 7995 ] final  118.76 input   59.86 | X-H torsion
[ 10167 10162 10161 10158 ] final  -79.27 input  -65.29 | X-H torsion
[ 10718 10713 10712 10709 ] final  175.89 input   66.30 | X-H torsion
[ 10763 10752 10751 10750 ] final  -50.17 input  -60.55 | X-H torsion
[ 11005 11000 10999 10996 ] final   96.95 input  -57.11 | X-H torsion

> <Gold.Protein.ActiveResidues>
 VAL166  LYS551  ARG553  GLY616  TRP617  ASP618  TYR619  PRO620  LYS621  CYS622 
 ASP623  PHE694  ASN695  SER759  ASP760  ASP761  ALA762  ILE779  LEU786  VAL792 
 PHE793  MET794  SER795  GLU796  ALA797  LYS798  CYS799  TRP800  GLU811  SER814 

> <Gold.Protein.RotatedAtoms>
  150.7957  133.8696  159.3254 H   0  0  0  0  0  0  0  0  0  0  0  0  # atno 6907 bound_to 6896
  151.6522  135.0998  160.0172 H   0  0  0  0  0  0  0  0  0  0  0  0  # atno 6908 bound_to 6896
  152.4039  133.6820  159.6374 H   0  0  0  0  0  0  0  0  0  0  0  0  # atno 6909 bound_to 6896
  145.8092  139.3023  143.1109 H   0  0  0  0  0  0  0  0  0  0  0  0  # atno 7974 bound_to 7965
  156.2563  140.2867  156.0886 H   0  0  0  0  0  0  0  0  0  0  0  0  # atno 8008 bound_to 7997
  155.1488  140.0397  157.2833 H   0  0  0  0  0  0  0  0  0  0  0  0  # atno 8009 bound_to 7997
  154.6476  140.2537  155.7257 H   0  0  0  0  0  0  0  0  0  0  0  0  # atno 8010 bound_to 7997
  140.4608  143.2454  151.8351 H   0  0  0  0  0  0  0  0  0  0  0  0  # atno 10167 bound_to 10162
  156.9281  130.9962  151.2992 H   0  0  0  0  0  0  0  0  0  0  0  0  # atno 10718 bound_to 10713
  154.1060  135.6556  153.4876 H   0  0  0  0  0  0  0  0  0  0  0  0  # atno 10763 bound_to 10752
  153.0272  135.5236  154.7239 H   0  0  0  0  0  0  0  0  0  0  0  0  # atno 10764 bound_to 10752
  154.6405  135.2987  155.0079 H   0  0  0  0  0  0  0  0  0  0  0  0  # atno 10765 bound_to 10752
  139.8778  134.8976  156.4235 H   0  0  0  0  0  0  0  0  0  0  0  0  # atno 11005 bound_to 11000
  145.9796  140.8694  143.0121 LP  0  0  0  0  0  0  0  0  0  0  0  0  # atno 17320 bound_to 7965
  144.6759  140.2061  143.7382 LP  0  0  0  0  0  0  0  0  0  0  0  0  # atno 17321 bound_to 7965
  139.4806  144.5010  151.9061 LP  0  0  0  0  0  0  0  0  0  0  0  0  # atno 17342 bound_to 10162
  140.4095  144.2387  150.5889 LP  0  0  0  0  0  0  0  0  0  0  0  0  # atno 17343 bound_to 10162
  157.5864  130.8413  149.8596 LP  0  0  0  0  0  0  0  0  0  0  0  0  # atno 17370 bound_to 10713
  156.0459  130.3728  150.1318 LP  0  0  0  0  0  0  0  0  0  0  0  0  # atno 17371 bound_to 10713
  140.9117  133.7707  155.9800 LP  0  0  0  0  0  0  0  0  0  0  0  0  # atno 17394 bound_to 11000
  140.8539  134.2922  157.5264 LP  0  0  0  0  0  0  0  0  0  0  0  0  # atno 17395 bound_to 11000

$$$$
