AV-unprocessed.smi:2973|AV-procd|sdf|11346|dock10
  -GOLD-   2272016263D 1   1.00000     0.00000
 Structure written by MMmdl.
 48 50  0  0  0  0  0  0  0  0  2 V2000
  144.9511  135.0689  158.9444 C   0  0  0  0  0  0  0  0  0  0  0  0
  145.5103  135.3491  160.3567 C   0  0  1  0  0  0  0  0  0  0  0  0
  145.0175  134.2843  161.3606 C   0  0  0  0  0  0  0  0  0  0  0  0
  145.4693  134.5969  162.7947 C   0  0  0  0  0  0  0  0  0  0  0  0
  146.9949  134.7369  162.8768 C   0  0  0  0  0  0  0  0  0  0  0  0
  147.5109  135.7993  161.8914 C   0  0  0  0  0  0  0  0  0  0  0  0
  147.0620  135.5314  160.4310 C   0  0  1  0  0  0  0  0  0  0  0  0
  147.7692  134.3807  159.8909 N   0  5  0  0  0  0  0  0  0  0  0  0
  148.5393  134.7831  158.8539 C   0  0  0  0  0  0  0  0  0  0  0  0
  149.2801  134.0774  158.1706 O   0  0  0  0  0  0  0  0  0  0  0  0
  148.4116  136.1072  158.6425 N   0  0  0  0  0  0  0  0  0  0  0  0
  149.1273  136.8726  157.6093 C   0  0  0  0  0  0  0  0  0  0  0  0
  150.4936  137.4316  158.0431 C   0  0  0  0  0  0  0  0  0  0  0  0
  151.2695  136.6994  158.6569 O   0  0  0  0  0  0  0  0  0  0  0  0
  150.7884  138.7067  157.7377 N   0  0  0  0  0  0  0  0  0  0  0  0
  152.0212  139.3970  158.0954 C   0  0  0  0  0  0  0  0  0  0  0  0
  151.8098  140.3420  159.2904 C   0  0  0  0  0  0  0  0  0  0  0  0
  151.9273  141.8032  158.8997 C   0  0  0  0  0  0  0  0  0  0  0  0
  152.8029  142.6661  159.5930 C   0  0  0  0  0  0  0  0  0  0  0  0
  152.8759  144.0136  159.1903 C   0  0  0  0  0  0  0  0  0  0  0  0
  152.0751  144.4445  158.1152 C   0  0  0  0  0  0  0  0  0  0  0  0
  151.2350  143.5040  157.4865 C   0  0  0  0  0  0  0  0  0  0  0  0
  151.1582  142.2095  157.8640 N   0  0  0  0  0  0  0  0  0  0  0  0
  147.5631  136.6466  159.5248 C   0  0  0  0  0  0  0  0  0  0  0  0
  147.2300  137.8289  159.6194 O   0  0  0  0  0  0  0  0  0  0  0  0
  145.3229  134.1247  158.5460 H   0  0  0  0  0  0  0  0  0  0  0  0
  145.2144  135.8556  158.2377 H   0  0  0  0  0  0  0  0  0  0  0  0
  143.8630  135.0076  158.9637 H   0  0  0  0  0  0  0  0  0  0  0  0
  145.0659  136.2947  160.6728 H   0  0  0  0  0  0  0  0  0  0  0  0
  143.9293  134.2231  161.3331 H   0  0  0  0  0  0  0  0  0  0  0  0
  145.3855  133.2998  161.0682 H   0  0  0  0  0  0  0  0  0  0  0  0
  144.9976  135.5194  163.1351 H   0  0  0  0  0  0  0  0  0  0  0  0
  145.1332  133.8092  163.4692 H   0  0  0  0  0  0  0  0  0  0  0  0
  147.2886  135.0013  163.8927 H   0  0  0  0  0  0  0  0  0  0  0  0
  147.4633  133.7758  162.6622 H   0  0  0  0  0  0  0  0  0  0  0  0
  147.1402  136.7739  162.2135 H   0  0  0  0  0  0  0  0  0  0  0  0
  148.5991  135.8577  161.9563 H   0  0  0  0  0  0  0  0  0  0  0  0
  149.2777  136.2465  156.7284 H   0  0  0  0  0  0  0  0  0  0  0  0
  148.5097  137.7056  157.2694 H   0  0  0  0  0  0  0  0  0  0  0  0
  150.0940  139.2420  157.2354 H   0  0  0  0  0  0  0  0  0  0  0  0
  152.8078  138.6724  158.3130 H   0  0  0  0  0  0  0  0  0  0  0  0
  152.3522  139.9641  157.2249 H   0  0  0  0  0  0  0  0  0  0  0  0
  150.8261  140.1711  159.7308 H   0  0  0  0  0  0  0  0  0  0  0  0
  152.5366  140.1265  160.0748 H   0  0  0  0  0  0  0  0  0  0  0  0
  153.4056  142.3049  160.4133 H   0  0  0  0  0  0  0  0  0  0  0  0
  153.5340  144.7041  159.6965 H   0  0  0  0  0  0  0  0  0  0  0  0
  152.1043  145.4705  157.7798 H   0  0  0  0  0  0  0  0  0  0  0  0
  150.6074  143.7998  156.6589 H   0  0  0  0  0  0  0  0  0  0  0  0
  1  2  1  0  0  0  0
  1 26  1  0  0  0  0
  1 27  1  0  0  0  0
  1 28  1  0  0  0  0
  2  7  1  0  0  0  0
  2  3  1  0  0  0  0
  2 29  1  0  0  0  0
  3  4  1  0  0  0  0
  3 30  1  0  0  0  0
  3 31  1  0  0  0  0
  4  5  1  0  0  0  0
  4 32  1  0  0  0  0
  4 33  1  0  0  0  0
  5  6  1  0  0  0  0
  5 34  1  0  0  0  0
  5 35  1  0  0  0  0
  6  7  1  0  0  0  0
  6 36  1  0  0  0  0
  6 37  1  0  0  0  0
  7 24  1  0  0  0  0
  7  8  1  0  0  0  0
  8  9  1  0  0  0  0
  9 10  2  0  0  0  0
  9 11  1  0  0  0  0
 11 12  1  0  0  0  0
 11 24  1  0  0  0  0
 12 13  1  0  0  0  0
 12 38  1  0  0  0  0
 12 39  1  0  0  0  0
 13 14  2  0  0  0  0
 13 15  1  0  0  0  0
 15 16  1  0  0  0  0
 15 40  1  0  0  0  0
 16 17  1  0  0  0  0
 16 41  1  0  0  0  0
 16 42  1  0  0  0  0
 17 18  1  0  0  0  0
 17 43  1  0  0  0  0
 17 44  1  0  0  0  0
 18 23  1  0  0  0  0
 18 19  2  0  0  0  0
 19 20  1  0  0  0  0
 19 45  1  0  0  0  0
 20 21  2  0  0  0  0
 20 46  1  0  0  0  0
 21 22  1  0  0  0  0
 21 47  1  0  0  0  0
 22 23  2  0  0  0  0
 22 48  1  0  0  0  0
 24 25  2  0  0  0  0
M  CHG  1   8  -1
M  END
> <s_m_source_file>
AV-unprocessed.smi

> <i_m_source_file_index>
2973

> <i_lp_mmshare_version>
43012

> <i_f3d_flags>
0

> <s_epik_input>
W0NIMl0xW0NIMl1bQ0gyXVtDSDJdW0NAQEhdKFtDSDNdKVtDQF0xMltOSF1DKD1PKU4oQzI9TylbQ0gyXUMoPU8pW05IXVtDSDJdW0NIMl1jM1tjSF1bY0hdW2NIXVtjSF1uMw==

> <s_epik_cmdline>
J2VwaWtfcHl0aG9uJywgJy1waCcsICc3LjAnLCAnLXRuJywgJzgnLCAnLW1hJywgJzIwMCcsICctbWV0YWxfYmluZGluZycsICctaW1hZScsICc8aW5maWxlLm1hZT4nLCAnLW9tYWUnLCAnPG91dGZpbGUubWFlPic=

> <r_lp_tautomer_probability>
1

> <r_epik_Ionization_Penalty>
6.04175

> <r_epik_Ionization_Penalty_Charging>
6.01728

> <r_epik_Ionization_Penalty_Neutral>
0.0244696

> <r_epik_State_Penalty>
6.03712

> <r_epik_Charging_Adjusted_Penalty>
12.0544

> <i_epik_Tot_Q>
-1

> <i_epik_Tot_abs_Q>
1

> <r_epik_Metal_State_Penalty>
2.01153

> <b_epik_Metal_Only>
1

> <s_lp_Force_Field>
OPLS_2005

> <r_lp_Energy>
16.8957

> <b_lp_Chiralities_Consistent>
1

> <s_lp_Variant>
AV-unprocessed.smi:2973-10

> <Gold.Version>
5.8.1

> <Gold.Id.Protein>
6NUR|6NUR_protein|mol2

> <Gold.PLP.Fitness>
48.9354

> <Gold.PLP.PLP>
-40.7741

> <Gold.PLP.part.hbond>
-3.0000

> <Gold.PLP.part.metal>
0.0000

> <Gold.PLP.part.buried>
-4.0701

> <Gold.PLP.part.nonpolar>
-34.2634

> <Gold.PLP.part.repulsive>
0.0762

> <Gold.PLP.ligand.clash>
0.0000

> <Gold.PLP.ligand.torsion>
1.0791

> <Gold.PLP.Chemscore.Hbond>
2.4320

> <Gold.PLP.Chemscore.CHOScore>
1.0000

> <Gold.PLP.Chemscore.Metal>
0.0000

> <Gold.Chemscore.Hbonds>
donor molecule, donor type, donor heavy atom, donor atom, acceptor molecule, acceptor atom, score
      P1  H  6896  6907       L1    14  0.82
      P1  H  6896  6909       L1    10  0.86
      P1  H  6934  6947       L1    25  0.75
      L1  C    22    48       P1  8028  1.00

> <Gold.PLP.Chemscore.Internal.Correction>
0.0235

> <Gold.Rescore>
     Score         DG    S(hbond)    S(metal)    S(lipo)     H(rot)  DE(clash)    DE(int)     intcor
     20.48     -21.79       2.44        0.00     109.29       1.81       0.28       1.04       ----

> <Gold.Chemscore.Fitness>
20.4809

> <Gold.Chemscore.DG>
-21.7946

> <Gold.Chemscore.ZeroCoef>
-5.4800

> <Gold.Chemscore.Hbond>
2.4426

> <Gold.Chemscore.Metal>
0.0000

> <Gold.Chemscore.Lipo>
109.2935

> <Gold.Chemscore.Internal_Hbond>
0.0000

> <Gold.Chemscore.DEClash>
0.2782

> <Gold.Chemscore.DEInternal>
1.0356

> <Gold.Chemscore.Rot>
1.8090

> <Gold.Chemscore.Internal.Correction>
   9.000000E+99

> <Gold.Chemscore.Hbonds>
donor molecule, donor type, donor heavy atom, donor atom, acceptor molecule, acceptor atom, score
      P1  H  6896  6907       L1    14  0.78
      P1  H  6896  6909       L1    10  0.51
      P1  H  6934  6947       L1    25  0.74

> <Gold.Chemscore.Hbond.Weighted>
-8.1583

> <Gold.Chemscore.Metal.Weighted>
-0.0000

> <Gold.Chemscore.Lipo.Weighted>
-12.7873

> <Gold.Chemscore.Internal_Hbond.Weighted>
0.0000

> <Gold.Chemscore.DEClash.Weighted>
0.2782

> <Gold.Chemscore.DEInternal.Weighted>
1.0356

> <Gold.Chemscore.Rot.Weighted>
4.6310

> <Gold.Chemscore.Internal.Correction.Weighted>
   9.000000E+99

> <Gold.Protein.RotatedTorsions>
[ 6907 6896 6895 6894 ] final   -8.24 input  -60.11 | X-H torsion
[ 7974 7965 7964 7962 ] final -120.01 input  175.53 | X-H torsion
[ 8008 7997 7996 7995 ] final  112.33 input   59.86 | X-H torsion
[ 10167 10162 10161 10158 ] final -134.67 input  -65.29 | X-H torsion
[ 10718 10713 10712 10709 ] final -169.09 input   66.30 | X-H torsion
[ 10763 10752 10751 10750 ] final   79.26 input  -60.55 | X-H torsion
[ 11005 11000 10999 10996 ] final   80.51 input  -57.11 | X-H torsion

> <Gold.Protein.ActiveResidues>
 VAL166  LYS551  ARG553  GLY616  TRP617  ASP618  TYR619  PRO620  LYS621  CYS622 
 ASP623  PHE694  ASN695  SER759  ASP760  ASP761  ALA762  ILE779  LEU786  VAL792 
 PHE793  MET794  SER795  GLU796  ALA797  LYS798  CYS799  TRP800  GLU811  SER814 

> <Gold.Protein.RotatedAtoms>
  151.4368  135.1016  159.9658 H   0  0  0  0  0  0  0  0  0  0  0  0  # atno 6907 bound_to 6896
  152.4937  133.8566  159.7239 H   0  0  0  0  0  0  0  0  0  0  0  0  # atno 6908 bound_to 6896
  150.9116  133.6932  159.2881 H   0  0  0  0  0  0  0  0  0  0  0  0  # atno 6909 bound_to 6896
  145.0561  140.8255  143.4180 H   0  0  0  0  0  0  0  0  0  0  0  0  # atno 7974 bound_to 7965
  156.2185  140.3001  155.9896 H   0  0  0  0  0  0  0  0  0  0  0  0  # atno 8008 bound_to 7997
  155.2543  140.0427  157.3007 H   0  0  0  0  0  0  0  0  0  0  0  0  # atno 8009 bound_to 7997
  154.5804  140.2373  155.8070 H   0  0  0  0  0  0  0  0  0  0  0  0  # atno 8010 bound_to 7997
  139.8856  143.6785  152.2620 H   0  0  0  0  0  0  0  0  0  0  0  0  # atno 10167 bound_to 10162
  156.7064  130.9216  151.3085 H   0  0  0  0  0  0  0  0  0  0  0  0  # atno 10718 bound_to 10713
  153.0939  135.4846  154.8741 H   0  0  0  0  0  0  0  0  0  0  0  0  # atno 10763 bound_to 10752
  154.7301  135.3058  154.8908 H   0  0  0  0  0  0  0  0  0  0  0  0  # atno 10764 bound_to 10752
  153.9546  135.6819  153.4797 H   0  0  0  0  0  0  0  0  0  0  0  0  # atno 10765 bound_to 10752
  139.9132  134.7925  156.1918 H   0  0  0  0  0  0  0  0  0  0  0  0  # atno 11005 bound_to 11000
  145.1467  139.2539  143.5462 LP  0  0  0  0  0  0  0  0  0  0  0  0  # atno 17320 bound_to 7965
  146.3521  140.1158  142.8602 LP  0  0  0  0  0  0  0  0  0  0  0  0  # atno 17321 bound_to 7965
  139.7156  144.7612  151.1040 LP  0  0  0  0  0  0  0  0  0  0  0  0  # atno 17342 bound_to 10162
  140.7736  143.5274  150.9464 LP  0  0  0  0  0  0  0  0  0  0  0  0  # atno 17343 bound_to 10162
  157.6953  130.9275  150.0627 LP  0  0  0  0  0  0  0  0  0  0  0  0  # atno 17370 bound_to 10713
  156.1692  130.3646  149.9189 LP  0  0  0  0  0  0  0  0  0  0  0  0  # atno 17371 bound_to 10713
  141.0579  133.6856  156.1895 LP  0  0  0  0  0  0  0  0  0  0  0  0  # atno 17394 bound_to 11000
  140.6708  134.4870  157.5587 LP  0  0  0  0  0  0  0  0  0  0  0  0  # atno 17395 bound_to 11000

$$$$
