#       Name:                AV-unprocessed.smi:1703
#       Creating user name   scv26
#       Creation time:       Fri Mar 27 08:03:35 2020


#       File generated by GOLD software.
#

@<TRIPOS>MOLECULE
AV-unprocessed.smi:1703
    56    58     1
SMALL
NO_CHARGES


@<TRIPOS>ATOM
      1 ****        -3.6753   3.2340  -3.4366 C.3            1 S1                 0.0000
      2 ****        -2.7328   2.9506  -2.2621 C.3            1 S1                 0.0000
      3 ****        -2.0107   1.5976  -2.4070 C.3            1 S1                 0.0000
      4 ****        -1.1718   1.2966  -1.2524 N.3            1 S1                 0.0000
      5 ****        -0.4880   0.0134  -1.4262 C.3            1 S1                 0.0000
      6 ****         0.6132  -0.2977  -0.3934 C.3            1 S1                 0.0000
      7 ****         1.6544   0.6463  -0.5480 O.3            1 S1                 0.0000
      8 ****         1.1804  -1.7185  -0.5794 C.3            1 S1                 0.0000
      9 ****         2.1917  -2.0484   0.4167 N.pl3          1 S1                 0.0000
     10 ****         3.5409  -2.0820   0.2734 C.2            1 S1                 0.0000
     11 ****         4.1996  -1.7614  -1.0383 C.3            1 S1                 0.0000
     12 ****         5.6103  -1.7116  -0.9730 O.3            1 S1                 0.0000
     13 ****         4.2280  -2.4185   1.3681 N.2            1 S1                 0.0000
     14 ****         3.2334  -2.6254   2.3034 C.ar           1 S1                 0.0000
     15 ****         3.3138  -3.0052   3.6624 C.ar           1 S1                 0.0000
     16 ****         2.1412  -3.1579   4.4312 C.ar           1 S1                 0.0000
     17 ****         0.8746  -2.9327   3.8540 C.ar           1 S1                 0.0000
     18 ****         0.7725  -2.5535   2.5017 C.ar           1 S1                 0.0000
     19 ****         1.9461  -2.4031   1.7390 C.ar           1 S1                 0.0000
     20 ****        -1.9959   1.3436  -0.0462 C.3            1 S1                 0.0000
     21 ****        -2.7211   2.6950   0.1038 C.3            1 S1                 0.0000
     22 ****        -3.6504   2.7213   1.3217 C.3            1 S1                 0.0000
     23 ****        -3.5019   2.9393  -1.0627 O.3            1 S1                 0.0000
     24 ****        -3.1295   3.2609  -4.3800 H              1 S1                 0.0000
     25 ****        -4.1731   4.1960  -3.3130 H              1 S1                 0.0000
     26 ****        -4.4469   2.4678  -3.5173 H              1 S1                 0.0000
     27 ****        -1.9957   3.7533  -2.2028 H              1 S1                 0.0000
     28 ****        -2.7483   0.8047  -2.5426 H              1 S1                 0.0000
     29 ****        -1.4003   1.6119  -3.3108 H              1 S1                 0.0000
     30 ****        -1.2283  -0.7882  -1.4120 H              1 S1                 0.0000
     31 ****        -0.0362  -0.0207  -2.4189 H              1 S1                 0.0000
     32 ****         0.2229  -0.2153   0.6199 H              1 S1                 0.0000
     33 ****         1.2884   1.5112  -0.4398 H              1 S1                 0.0000
     34 ****         0.3770  -2.4511  -0.4939 H              1 S1                 0.0000
     35 ****         1.5928  -1.8407  -1.5810 H              1 S1                 0.0000
     36 ****         3.9136  -2.5153  -1.7721 H              1 S1                 0.0000
     37 ****         3.8392  -0.7984  -1.3995 H              1 S1                 0.0000
     38 ****         5.8545  -1.0409  -0.3535 H              1 S1                 0.0000
     39 ****         4.2794  -3.1799   4.1135 H              1 S1                 0.0000
     40 ****         2.2142  -3.4492   5.4687 H              1 S1                 0.0000
     41 ****        -0.0187  -3.0515   4.4498 H              1 S1                 0.0000
     42 ****        -0.1956  -2.3798   2.0561 H              1 S1                 0.0000
     43 ****        -2.7298   0.5363  -0.0690 H              1 S1                 0.0000
     44 ****        -1.3828   1.1839   0.8396 H              1 S1                 0.0000
     45 ****        -1.9848   3.4938   0.2092 H              1 S1                 0.0000
     46 ****        -3.0944   2.5477   2.2434 H              1 S1                 0.0000
     47 ****        -4.4223   1.9549   1.2463 H              1 S1                 0.0000
     48 ****        -4.1476   3.6875   1.4109 H              1 S1                 0.0000
     49 ****        -0.4495   1.9821  -1.1610 LP             1 S1                 0.0000
     50 ****         2.0562   0.5606  -1.4597 LP             1 S1                 0.0000
     51 ****         2.3596   0.4884   0.1432 LP             1 S1                 0.0000
     52 ****         5.9832  -1.4915  -1.8744 LP             1 S1                 0.0000
     53 ****         5.9665  -2.5962  -0.6719 LP             1 S1                 0.0000
     54 ****         5.2181  -2.5004   1.4822 LP             1 S1                 0.0000
     55 ****        -4.1952   2.2225  -1.1367 LP             1 S1                 0.0000
     56 ****        -3.9502   3.8277  -0.9645 LP             1 S1                 0.0000
@<TRIPOS>BOND
    1    1    2 1     
    2    1   24 1     
    3    1   25 1     
    4    1   26 1     
    5    2   23 1     
    6    2    3 1     
    7    2   27 1     
    8    3    4 1     
    9    3   28 1     
   10    3   29 1     
   11    4    5 1     
   12    4   20 1     
   13    5    6 1     
   14    5   30 1     
   15    5   31 1     
   16    6    7 1     
   17    6    8 1     
   18    6   32 1     
   19    7   33 1     
   20    8    9 1     
   21    8   34 1     
   22    8   35 1     
   23    9   19 1     
   24    9   10 1     
   25   10   11 1     
   26   10   13 2     
   27   11   12 1     
   28   11   36 1     
   29   11   37 1     
   30   12   38 1     
   31   13   14 1     
   32   14   19 ar    
   33   14   15 ar    
   34   15   16 ar    
   35   15   39 1     
   36   16   17 ar    
   37   16   40 1     
   38   17   18 ar    
   39   17   41 1     
   40   18   19 ar    
   41   18   42 1     
   42   20   21 1     
   43   20   43 1     
   44   20   44 1     
   45   21   22 1     
   46   21   23 1     
   47   21   45 1     
   48   22   46 1     
   49   22   47 1     
   50   22   48 1     
   51    4   49 1     
   52    7   50 1     
   53    7   51 1     
   54   12   52 1     
   55   12   53 1     
   56   13   54 1     
   57   23   55 1     
   58   23   56 1     
@<TRIPOS>SUBSTRUCTURE
      1 S1             1
@<TRIPOS>SET
LONE_PAIRS      STATIC     ATOMS    <user>   **** ""
8 49 50 51 52 53 54 55 56
DONOR_HYDROGENS      STATIC     ATOMS    <user>   **** ""
2 33 38
ATOM$BLUE        STATIC     ATOMS    COLORGROUP SYSTEM
8 49 50 51 52 53 54 55 56
ATOM$RED        STATIC     ATOMS    COLORGROUP SYSTEM
2 33 38
