AV-unprocessed.smi:2061|AV-procd|sdf|8365|dock7
  -GOLD-   2272011 43D 1   1.00000     0.00000
 Structure written by MMmdl.
 45 46  0  0  0  0  0  0  0  0  1 V2000
  138.1926  137.0596  153.4601 C   0  0  0  0  0  0  0  0  0  0  0  0
  139.6677  137.0884  153.6684 C   0  0  0  0  0  0  0  0  0  0  0  0
  140.6136  138.0585  153.4894 C   0  0  0  0  0  0  0  0  0  0  0  0
  141.8152  137.4092  153.8795 C   0  0  0  0  0  0  0  0  0  0  0  0
  143.0580  138.0915  153.8374 N   0  0  0  0  0  0  0  0  0  0  0  0
  144.1697  137.8118  154.5388 C   0  0  0  0  0  0  0  0  0  0  0  0
  144.2781  136.9017  155.3608 O   0  0  0  0  0  0  0  0  0  0  0  0
  145.1616  138.6626  154.2358 N   0  0  0  0  0  0  0  0  0  0  0  0
  146.5040  138.6460  154.8138 C   0  0  0  0  0  0  0  0  0  0  0  0
  147.2922  139.9625  154.5595 C   0  0  1  0  0  0  0  0  0  0  0  0
  146.4458  141.1623  155.0581 C   0  0  0  0  0  0  0  0  0  0  0  0
  148.6584  139.9502  155.1360 N   0  0  0  0  0  0  0  0  0  0  0  0
  149.2840  141.2779  155.1206 C   0  0  0  0  0  0  0  0  0  0  0  0
  150.7164  141.2979  155.6899 C   0  0  1  0  0  0  0  0  0  0  0  0
  150.7661  141.1720  157.2223 C   0  0  0  0  0  0  0  0  0  0  0  0
  151.5205  140.3119  155.0474 O   0  0  0  0  0  0  0  0  0  0  0  0
  150.9746  138.9977  155.0621 C   0  0  2  0  0  0  0  0  0  0  0  0
  151.9257  138.0828  154.2834 C   0  0  0  0  0  0  0  0  0  0  0  0
  149.5614  139.0196  154.4515 C   0  0  0  0  0  0  0  0  0  0  0  0
  141.6205  136.1564  154.2612 N   0  0  0  0  0  0  0  0  0  0  0  0
  140.2434  135.9440  154.1271 O   0  0  0  0  0  0  0  0  0  0  0  0
  137.8006  138.0663  153.3137 H   0  0  0  0  0  0  0  0  0  0  0  0
  137.6875  136.6225  154.3217 H   0  0  0  0  0  0  0  0  0  0  0  0
  137.9386  136.4663  152.5815 H   0  0  0  0  0  0  0  0  0  0  0  0
  140.4662  139.0682  153.1362 H   0  0  0  0  0  0  0  0  0  0  0  0
  143.1063  138.8743  153.2024 H   0  0  0  0  0  0  0  0  0  0  0  0
  144.9761  139.3798  153.5500 H   0  0  0  0  0  0  0  0  0  0  0  0
  146.4791  138.4263  155.8825 H   0  0  0  0  0  0  0  0  0  0  0  0
  146.9909  137.7970  154.3378 H   0  0  0  0  0  0  0  0  0  0  0  0
  147.3869  140.0695  153.4777 H   0  0  0  0  0  0  0  0  0  0  0  0
  145.4357  141.1578  154.6511 H   0  0  0  0  0  0  0  0  0  0  0  0
  146.8608  142.1222  154.7559 H   0  0  0  0  0  0  0  0  0  0  0  0
  146.3600  141.1584  156.1453 H   0  0  0  0  0  0  0  0  0  0  0  0
  149.3071  141.6520  154.0958 H   0  0  0  0  0  0  0  0  0  0  0  0
  148.7001  141.9912  155.6987 H   0  0  0  0  0  0  0  0  0  0  0  0
  151.1600  142.2618  155.4386 H   0  0  0  0  0  0  0  0  0  0  0  0
  150.2458  142.0048  157.6959 H   0  0  0  0  0  0  0  0  0  0  0  0
  151.7959  141.1809  157.5797 H   0  0  0  0  0  0  0  0  0  0  0  0
  150.2966  140.2540  157.5750 H   0  0  0  0  0  0  0  0  0  0  0  0
  150.9211  138.6368  156.0897 H   0  0  0  0  0  0  0  0  0  0  0  0
  151.5631  137.0547  154.2745 H   0  0  0  0  0  0  0  0  0  0  0  0
  152.9185  138.0803  154.7338 H   0  0  0  0  0  0  0  0  0  0  0  0
  152.0304  138.4110  153.2488 H   0  0  0  0  0  0  0  0  0  0  0  0
  149.1819  138.0016  154.5113 H   0  0  0  0  0  0  0  0  0  0  0  0
  149.6212  139.2752  153.3924 H   0  0  0  0  0  0  0  0  0  0  0  0
  1  2  1  0  0  0  0
  1 22  1  0  0  0  0
  1 23  1  0  0  0  0
  1 24  1  0  0  0  0
  2 21  1  0  0  0  0
  2  3  2  0  0  0  0
  3  4  1  0  0  0  0
  3 25  1  0  0  0  0
  4  5  1  0  0  0  0
  4 20  2  0  0  0  0
  5  6  1  0  0  0  0
  5 26  1  0  0  0  0
  6  7  2  0  0  0  0
  6  8  1  0  0  0  0
  8  9  1  0  0  0  0
  8 27  1  0  0  0  0
  9 10  1  0  0  0  0
  9 28  1  0  0  0  0
  9 29  1  0  0  0  0
 10 11  1  0  0  0  0
 10 12  1  0  0  0  0
 10 30  1  0  0  0  0
 11 31  1  0  0  0  0
 11 32  1  0  0  0  0
 11 33  1  0  0  0  0
 12 19  1  0  0  0  0
 12 13  1  0  0  0  0
 13 14  1  0  0  0  0
 13 34  1  0  0  0  0
 13 35  1  0  0  0  0
 14 15  1  0  0  0  0
 14 16  1  0  0  0  0
 14 36  1  0  0  0  0
 15 37  1  0  0  0  0
 15 38  1  0  0  0  0
 15 39  1  0  0  0  0
 16 17  1  0  0  0  0
 17 18  1  0  0  0  0
 17 19  1  0  0  0  0
 17 40  1  0  0  0  0
 18 41  1  0  0  0  0
 18 42  1  0  0  0  0
 18 43  1  0  0  0  0
 19 44  1  0  0  0  0
 19 45  1  0  0  0  0
 20 21  1  0  0  0  0
M  END
> <s_m_source_file>
AV-unprocessed.smi

> <i_m_source_file_index>
2061

> <i_lp_mmshare_version>
43012

> <i_f3d_flags>
0

> <s_epik_input>
W0NIM11jMVtjSF1jKG5vMSlbTkhdQyg9TylbTkhdW0NIMl1bQ0BIXShbQ0gzXSlOMltDSDJdW0NAQEhdKFtDSDNdKU9bQ0BASF0oW0NIM10pW0NIMl0y

> <s_epik_cmdline>
J2VwaWtfcHl0aG9uJywgJy1waCcsICc3LjAnLCAnLXRuJywgJzgnLCAnLW1hJywgJzIwMCcsICctbWV0YWxfYmluZGluZycsICctaW1hZScsICc8aW5maWxlLm1hZT4nLCAnLW9tYWUnLCAnPG91dGZpbGUubWFlPic=

> <r_epik_Ionization_Penalty>
0.214073

> <r_epik_Ionization_Penalty_Charging>
0

> <r_epik_Ionization_Penalty_Neutral>
0.214073

> <r_epik_State_Penalty>
0.204211

> <r_epik_Charging_Adjusted_Penalty>
0.204211

> <i_epik_Tot_Q>
0

> <i_epik_Tot_abs_Q>
0

> <r_epik_Metal_State_Penalty>
0.217067

> <b_epik_Metal_Only>
0

> <s_lp_Force_Field>
OPLS_2005

> <r_lp_Energy>
29.5026

> <b_lp_Chiralities_Consistent>
1

> <s_lp_Variant>
AV-unprocessed.smi:2061-6

> <Gold.Version>
5.8.1

> <Gold.Id.Protein>
6NUR|6NUR_protein|mol2

> <Gold.PLP.Fitness>
42.7345

> <Gold.PLP.PLP>
-31.9070

> <Gold.PLP.part.hbond>
-4.2348

> <Gold.PLP.part.metal>
0.0000

> <Gold.PLP.part.buried>
-5.1650

> <Gold.PLP.part.nonpolar>
-22.1393

> <Gold.PLP.part.repulsive>
0.2453

> <Gold.PLP.ligand.clash>
0.0000

> <Gold.PLP.ligand.torsion>
0.3791

> <Gold.PLP.Chemscore.Hbond>
3.8500

> <Gold.PLP.Chemscore.CHOScore>
0.0000

> <Gold.PLP.Chemscore.Metal>
0.0000

> <Gold.Chemscore.Hbonds>
donor molecule, donor type, donor heavy atom, donor atom, acceptor molecule, acceptor atom, score
      L1  H     5    26       P1 10175  1.00
      L1  H     8    27       P1 10175  0.99
      P1  H  7989  7998       L1    16  0.98
      P1  H 11000 11005       L1    21  0.46

> <Gold.PLP.Chemscore.Internal.Correction>
0.0358

> <Gold.Rescore>
     Score         DG    S(hbond)    S(metal)    S(lipo)     H(rot)  DE(clash)    DE(int)     intcor
     16.49     -18.05       2.33        0.00      74.89       1.55       0.02       1.54       ----

> <Gold.Chemscore.Fitness>
16.4869

> <Gold.Chemscore.DG>
-18.0505

> <Gold.Chemscore.ZeroCoef>
-5.4800

> <Gold.Chemscore.Hbond>
2.3264

> <Gold.Chemscore.Metal>
0.0000

> <Gold.Chemscore.Lipo>
74.8852

> <Gold.Chemscore.Internal_Hbond>
0.0000

> <Gold.Chemscore.DEClash>
0.0239

> <Gold.Chemscore.DEInternal>
1.5396

> <Gold.Chemscore.Rot>
1.5474

> <Gold.Chemscore.Internal.Correction>
   9.000000E+99

> <Gold.Chemscore.Hbonds>
donor molecule, donor type, donor heavy atom, donor atom, acceptor molecule, acceptor atom, score
      L1  H     5    26       P1 10175  1.00
      L1  H     8    27       P1 10175  0.90
      P1  H  7989  7998       L1    16  0.29
      P1  H 11000 11005       L1    21  0.07

> <Gold.Chemscore.Hbond.Weighted>
-7.7701

> <Gold.Chemscore.Metal.Weighted>
-0.0000

> <Gold.Chemscore.Lipo.Weighted>
-8.7616

> <Gold.Chemscore.Internal_Hbond.Weighted>
0.0000

> <Gold.Chemscore.DEClash.Weighted>
0.0239

> <Gold.Chemscore.DEInternal.Weighted>
1.5396

> <Gold.Chemscore.Rot.Weighted>
3.9612

> <Gold.Chemscore.Internal.Correction.Weighted>
   9.000000E+99

> <Gold.Protein.RotatedTorsions>
[ 6907 6896 6895 6894 ] final   33.05 input  -60.11 | X-H torsion
[ 7974 7965 7964 7962 ] final   19.45 input  175.53 | X-H torsion
[ 8008 7997 7996 7995 ] final  -12.55 input   59.86 | X-H torsion
[ 10167 10162 10161 10158 ] final  -95.04 input  -65.29 | X-H torsion
[ 10718 10713 10712 10709 ] final  -49.02 input   66.30 | X-H torsion
[ 10763 10752 10751 10750 ] final -149.09 input  -60.55 | X-H torsion
[ 11005 11000 10999 10996 ] final   59.00 input  -57.11 | X-H torsion

> <Gold.Protein.ActiveResidues>
 VAL166  LYS551  ARG553  GLY616  TRP617  ASP618  TYR619  PRO620  LYS621  CYS622 
 ASP623  PHE694  ASN695  SER759  ASP760  ASP761  ALA762  ILE779  LEU786  VAL792 
 PHE793  MET794  SER795  GLU796  ALA797  LYS798  CYS799  TRP800  GLU811  SER814 

> <Gold.Protein.RotatedAtoms>
  152.0831  134.9458  160.0572 H   0  0  0  0  0  0  0  0  0  0  0  0  # atno 6907 bound_to 6896
  152.0739  133.4115  159.4479 H   0  0  0  0  0  0  0  0  0  0  0  0  # atno 6908 bound_to 6896
  150.6836  134.2980  159.4738 H   0  0  0  0  0  0  0  0  0  0  0  0  # atno 6909 bound_to 6896
  146.2148  139.8311  142.8660 H   0  0  0  0  0  0  0  0  0  0  0  0  # atno 7974 bound_to 7965
  154.5368  140.2273  155.8709 H   0  0  0  0  0  0  0  0  0  0  0  0  # atno 8008 bound_to 7997
  156.1819  140.3098  155.9127 H   0  0  0  0  0  0  0  0  0  0  0  0  # atno 8009 bound_to 7997
  155.3339  140.0447  157.3034 H   0  0  0  0  0  0  0  0  0  0  0  0  # atno 8010 bound_to 7997
  140.3083  143.3120  152.0175 H   0  0  0  0  0  0  0  0  0  0  0  0  # atno 10167 bound_to 10162
  156.1932  130.4153  149.9342 H   0  0  0  0  0  0  0  0  0  0  0  0  # atno 10718 bound_to 10713
  154.8197  135.3318  154.7074 H   0  0  0  0  0  0  0  0  0  0  0  0  # atno 10763 bound_to 10752
  153.7709  135.6925  153.4911 H   0  0  0  0  0  0  0  0  0  0  0  0  # atno 10764 bound_to 10752
  153.2045  135.4504  155.0255 H   0  0  0  0  0  0  0  0  0  0  0  0  # atno 10765 bound_to 10752
  140.0336  134.5976  155.9474 H   0  0  0  0  0  0  0  0  0  0  0  0  # atno 11005 bound_to 11000
  145.2996  141.0190  143.3616 LP  0  0  0  0  0  0  0  0  0  0  0  0  # atno 17320 bound_to 7965
  144.9016  139.4643  143.6630 LP  0  0  0  0  0  0  0  0  0  0  0  0  # atno 17321 bound_to 7965
  139.4899  144.6404  151.6889 LP  0  0  0  0  0  0  0  0  0  0  0  0  # atno 17342 bound_to 10162
  140.5591  144.0299  150.6161 LP  0  0  0  0  0  0  0  0  0  0  0  0  # atno 17343 bound_to 10162
  156.7075  130.8957  151.3606 LP  0  0  0  0  0  0  0  0  0  0  0  0  # atno 17370 bound_to 10713
  157.6942  130.9264  150.0597 LP  0  0  0  0  0  0  0  0  0  0  0  0  # atno 17371 bound_to 10713
  141.1845  133.6553  156.5159 LP  0  0  0  0  0  0  0  0  0  0  0  0  # atno 17394 bound_to 11000
  140.4185  134.7209  157.4876 LP  0  0  0  0  0  0  0  0  0  0  0  0  # atno 17395 bound_to 11000

$$$$
