AV-unprocessed.smi:1065|AV-procd|sdf|4667|dock1
  -GOLD-   22720 3183D 1   1.00000     0.00000
 Structure written by MMmdl.
 39 40  0  0  0  0  0  0  0  0  1 V2000
  154.1390  141.0615  161.4392 C   0  0  0  0  0  0  0  0  0  0  0  0
  154.2035  141.9311  160.1759 C   0  0  0  0  0  0  0  0  0  0  0  0
  152.8428  142.5121  159.7404 C   0  0  2  0  0  0  0  0  0  0  0  0
  151.8758  141.3851  159.3245 C   0  0  0  0  0  0  0  0  0  0  0  0
  150.5086  141.9331  158.8781 C   0  0  0  0  0  0  0  0  0  0  0  0
  150.6294  142.9708  157.7442 C   0  0  2  0  0  0  0  0  0  0  0  0
  150.9794  142.3146  156.3906 C   0  0  0  0  0  0  0  0  0  0  0  0
  149.8007  142.1924  155.5437 N   0  0  0  0  0  0  0  0  0  0  0  0
  149.6211  141.2524  154.6045 C   0  0  0  0  0  0  0  0  0  0  0  0
  150.4168  140.3369  154.3977 O   0  0  0  0  0  0  0  0  0  0  0  0
  148.3517  141.3695  153.7605 C   0  0  0  0  0  0  0  0  0  0  0  0
  147.5931  140.1325  153.7926 N   0  0  0  0  0  0  0  0  0  0  0  0
  147.8164  138.9514  153.2124 C   0  0  0  0  0  0  0  0  0  0  0  0
  146.8532  138.0841  153.4839 N   0  0  0  0  0  0  0  0  0  0  0  0
  145.9926  138.8109  154.2901 N   0  0  0  0  0  0  0  0  0  0  0  0
  146.4261  140.0272  154.4766 N   0  0  0  0  0  0  0  0  0  0  0  0
  151.6068  144.0917  158.1641 C   0  0  0  0  0  0  0  0  0  0  0  0
  152.9767  143.5440  158.5998 C   0  0  0  0  0  0  0  0  0  0  0  0
  155.1117  140.6162  161.6493 H   0  0  0  0  0  0  0  0  0  0  0  0
  153.4217  140.2487  161.3224 H   0  0  0  0  0  0  0  0  0  0  0  0
  153.8521  141.6420  162.3156 H   0  0  0  0  0  0  0  0  0  0  0  0
  154.9222  142.7381  160.3241 H   0  0  0  0  0  0  0  0  0  0  0  0
  154.6026  141.3184  159.3668 H   0  0  0  0  0  0  0  0  0  0  0  0
  152.4046  143.0172  160.6025 H   0  0  0  0  0  0  0  0  0  0  0  0
  152.3187  140.7947  158.5218 H   0  0  0  0  0  0  0  0  0  0  0  0
  151.7295  140.6972  160.1581 H   0  0  0  0  0  0  0  0  0  0  0  0
  149.8603  141.1118  158.5710 H   0  0  0  0  0  0  0  0  0  0  0  0
  150.0190  142.3977  159.7349 H   0  0  0  0  0  0  0  0  0  0  0  0
  149.6460  143.4279  157.6225 H   0  0  0  0  0  0  0  0  0  0  0  0
  151.7466  142.8915  155.8727 H   0  0  0  0  0  0  0  0  0  0  0  0
  151.3917  141.3181  156.5528 H   0  0  0  0  0  0  0  0  0  0  0  0
  149.0906  142.9034  155.6459 H   0  0  0  0  0  0  0  0  0  0  0  0
  147.7214  142.1758  154.1375 H   0  0  0  0  0  0  0  0  0  0  0  0
  148.6102  141.6139  152.7290 H   0  0  0  0  0  0  0  0  0  0  0  0
  148.6730  138.7321  152.5919 H   0  0  0  0  0  0  0  0  0  0  0  0
  151.7357  144.8207  157.3636 H   0  0  0  0  0  0  0  0  0  0  0  0
  151.1715  144.6455  158.9969 H   0  0  0  0  0  0  0  0  0  0  0  0
  153.5996  144.3800  158.9173 H   0  0  0  0  0  0  0  0  0  0  0  0
  153.4843  143.0938  157.7461 H   0  0  0  0  0  0  0  0  0  0  0  0
  1  2  1  0  0  0  0
  1 19  1  0  0  0  0
  1 20  1  0  0  0  0
  1 21  1  0  0  0  0
  2  3  1  0  0  0  0
  2 22  1  0  0  0  0
  2 23  1  0  0  0  0
  3 18  1  0  0  0  0
  3  4  1  0  0  0  0
  3 24  1  0  0  0  0
  4  5  1  0  0  0  0
  4 25  1  0  0  0  0
  4 26  1  0  0  0  0
  5  6  1  0  0  0  0
  5 27  1  0  0  0  0
  5 28  1  0  0  0  0
  6  7  1  0  0  0  0
  6 17  1  0  0  0  0
  6 29  1  0  0  0  0
  7  8  1  0  0  0  0
  7 30  1  0  0  0  0
  7 31  1  0  0  0  0
  8  9  1  0  0  0  0
  8 32  1  0  0  0  0
  9 10  2  0  0  0  0
  9 11  1  0  0  0  0
 11 12  1  0  0  0  0
 11 33  1  0  0  0  0
 11 34  1  0  0  0  0
 12 16  1  0  0  0  0
 12 13  1  0  0  0  0
 13 14  2  0  0  0  0
 13 35  1  0  0  0  0
 14 15  1  0  0  0  0
 15 16  2  0  0  0  0
 17 18  1  0  0  0  0
 17 36  1  0  0  0  0
 17 37  1  0  0  0  0
 18 38  1  0  0  0  0
 18 39  1  0  0  0  0
M  END
> <s_m_source_file>
AV-unprocessed.smi

> <i_m_source_file_index>
1065

> <i_lp_mmshare_version>
43012

> <i_f3d_flags>
0

> <s_epik_input>
W0NIM11bQ0gyXVtDQEBIXTFbQ0gyXVtDSDJdW0NASF0oW0NIMl1bQ0gyXTEpW0NIMl1bTkhdQyg9TylbQ0gyXW4yW2NIXW5ubjI=

> <s_epik_cmdline>
J2VwaWtfcHl0aG9uJywgJy1waCcsICc3LjAnLCAnLXRuJywgJzgnLCAnLW1hJywgJzIwMCcsICctbWV0YWxfYmluZGluZycsICctaW1hZScsICc8aW5maWxlLm1hZT4nLCAnLW9tYWUnLCAnPG91dGZpbGUubWFlPic=

> <r_lp_tautomer_probability>
1

> <r_epik_Ionization_Penalty>
4.54759e-07

> <r_epik_Ionization_Penalty_Charging>
0

> <r_epik_Ionization_Penalty_Neutral>
4.54759e-07

> <r_epik_State_Penalty>
-0

> <r_epik_Charging_Adjusted_Penalty>
0

> <i_epik_Tot_Q>
0

> <i_epik_Tot_abs_Q>
0

> <r_epik_Metal_State_Penalty>
-0

> <b_epik_Metal_Only>
0

> <s_lp_Force_Field>
OPLS_2005

> <r_lp_Energy>
15.297

> <b_lp_Chiralities_Consistent>
1

> <s_lp_Variant>
AV-unprocessed.smi:1065-2

> <Gold.Version>
5.8.1

> <Gold.Id.Protein>
6NUR|6NUR_protein|mol2

> <Gold.PLP.Fitness>
43.4977

> <Gold.PLP.PLP>
-34.4579

> <Gold.PLP.part.hbond>
-2.0000

> <Gold.PLP.part.metal>
0.0000

> <Gold.PLP.part.buried>
-0.6112

> <Gold.PLP.part.nonpolar>
-30.9748

> <Gold.PLP.part.repulsive>
0.6200

> <Gold.PLP.ligand.clash>
0.0000

> <Gold.PLP.ligand.torsion>
1.0150

> <Gold.PLP.Chemscore.Hbond>
1.9760

> <Gold.PLP.Chemscore.CHOScore>
1.6897

> <Gold.PLP.Chemscore.Metal>
0.0000

> <Gold.Chemscore.Hbonds>
donor molecule, donor type, donor heavy atom, donor atom, acceptor molecule, acceptor atom, score
      L1  H     8    32       P1  8028  0.83
      P1  H  7989  7998       L1    10  1.00
      L1  C    13    35       P1  7948  0.64
      L1  C    13    35       P1  7957  0.95

> <Gold.PLP.Chemscore.Internal.Correction>
0.0725

> <Gold.Rescore>
     Score         DG    S(hbond)    S(metal)    S(lipo)     H(rot)  DE(clash)    DE(int)     intcor
     14.46     -15.85       1.58        0.00      97.11       2.45       0.42       0.96       ----

> <Gold.Chemscore.Fitness>
14.4649

> <Gold.Chemscore.DG>
-15.8468

> <Gold.Chemscore.ZeroCoef>
-5.4800

> <Gold.Chemscore.Hbond>
1.5809

> <Gold.Chemscore.Metal>
0.0000

> <Gold.Chemscore.Lipo>
97.1065

> <Gold.Chemscore.Internal_Hbond>
0.0000

> <Gold.Chemscore.DEClash>
0.4189

> <Gold.Chemscore.DEInternal>
0.9629

> <Gold.Chemscore.Rot>
2.4512

> <Gold.Chemscore.Internal.Correction>
   9.000000E+99

> <Gold.Chemscore.Hbonds>
donor molecule, donor type, donor heavy atom, donor atom, acceptor molecule, acceptor atom, score
      L1  H     8    32       P1  8028  0.83
      P1  H  7989  7998       L1    10  0.67

> <Gold.Chemscore.Hbond.Weighted>
-5.2803

> <Gold.Chemscore.Metal.Weighted>
-0.0000

> <Gold.Chemscore.Lipo.Weighted>
-11.3615

> <Gold.Chemscore.Internal_Hbond.Weighted>
0.0000

> <Gold.Chemscore.DEClash.Weighted>
0.4189

> <Gold.Chemscore.DEInternal.Weighted>
0.9629

> <Gold.Chemscore.Rot.Weighted>
6.2750

> <Gold.Chemscore.Internal.Correction.Weighted>
   9.000000E+99

> <Gold.Protein.RotatedTorsions>
[ 6907 6896 6895 6894 ] final  -57.42 input  -60.11 | X-H torsion
[ 7974 7965 7964 7962 ] final   59.68 input  175.53 | X-H torsion
[ 8008 7997 7996 7995 ] final -115.10 input   59.86 | X-H torsion
[ 10167 10162 10161 10158 ] final -179.45 input  -65.29 | X-H torsion
[ 10718 10713 10712 10709 ] final  -85.94 input   66.30 | X-H torsion
[ 10763 10752 10751 10750 ] final   33.73 input  -60.55 | X-H torsion
[ 11005 11000 10999 10996 ] final  103.38 input  -57.11 | X-H torsion

> <Gold.Protein.ActiveResidues>
 VAL166  LYS551  ARG553  GLY616  TRP617  ASP618  TYR619  PRO620  LYS621  CYS622 
 ASP623  PHE694  ASN695  SER759  ASP760  ASP761  ALA762  ILE779  LEU786  VAL792 
 PHE793  MET794  SER795  GLU796  ALA797  LYS798  CYS799  TRP800  GLU811  SER814 

> <Gold.Protein.RotatedAtoms>
  150.8087  134.7229  159.6667 H   0  0  0  0  0  0  0  0  0  0  0  0  # atno 6907 bound_to 6896
  152.4207  134.5957  159.9996 H   0  0  0  0  0  0  0  0  0  0  0  0  # atno 6908 bound_to 6896
  151.6173  133.3305  159.3116 H   0  0  0  0  0  0  0  0  0  0  0  0  # atno 6909 bound_to 6896
  145.9044  139.3606  143.0573 H   0  0  0  0  0  0  0  0  0  0  0  0  # atno 7974 bound_to 7965
  155.0467  140.0392  157.2529 H   0  0  0  0  0  0  0  0  0  0  0  0  # atno 8008 bound_to 7997
  154.7171  140.2704  155.6551 H   0  0  0  0  0  0  0  0  0  0  0  0  # atno 8009 bound_to 7997
  156.2806  140.2710  156.1831 H   0  0  0  0  0  0  0  0  0  0  0  0  # atno 8010 bound_to 7997
  139.5386  144.2428  152.0847 H   0  0  0  0  0  0  0  0  0  0  0  0  # atno 10167 bound_to 10162
  155.9993  130.4748  150.4639 H   0  0  0  0  0  0  0  0  0  0  0  0  # atno 10718 bound_to 10713
  153.0197  135.6379  154.1558 H   0  0  0  0  0  0  0  0  0  0  0  0  # atno 10763 bound_to 10752
  154.1293  135.2841  155.3191 H   0  0  0  0  0  0  0  0  0  0  0  0  # atno 10764 bound_to 10752
  154.6206  135.5526  153.7633 H   0  0  0  0  0  0  0  0  0  0  0  0  # atno 10765 bound_to 10752
  139.8783  134.9261  156.5201 H   0  0  0  0  0  0  0  0  0  0  0  0  # atno 11005 bound_to 11000
  145.8750  140.9397  143.0631 LP  0  0  0  0  0  0  0  0  0  0  0  0  # atno 17320 bound_to 7965
  144.6738  140.0705  143.7473 LP  0  0  0  0  0  0  0  0  0  0  0  0  # atno 17321 bound_to 7965
  140.1902  144.4759  150.6483 LP  0  0  0  0  0  0  0  0  0  0  0  0  # atno 17342 bound_to 10162
  140.6605  143.2250  151.5868 LP  0  0  0  0  0  0  0  0  0  0  0  0  # atno 17343 bound_to 10162
  157.2661  131.0577  151.2290 LP  0  0  0  0  0  0  0  0  0  0  0  0  # atno 17370 bound_to 10713
  157.3387  130.7022  149.6368 LP  0  0  0  0  0  0  0  0  0  0  0  0  # atno 17371 bound_to 10713
  140.8456  133.8171  155.9118 LP  0  0  0  0  0  0  0  0  0  0  0  0  # atno 17394 bound_to 11000
  140.9194  134.2160  157.4936 LP  0  0  0  0  0  0  0  0  0  0  0  0  # atno 17395 bound_to 11000

$$$$
