AV-unprocessed.smi:1251|AV-procd|sdf|5259|dock7
  -GOLD-   22720 4373D 1   1.00000     0.00000
 Structure written by MMmdl.
 39 40  0  0  0  0  0  0  0  0  1 V2000
  151.7279  142.7720  158.2899 C   0  0  0  0  0  0  0  0  0  0  0  0
  151.3331  141.5630  157.4351 C   0  0  0  0  0  0  0  0  0  0  0  0
  150.5206  141.9595  156.1945 C   0  0  0  0  0  0  0  0  0  0  0  0
  150.1199  140.7811  155.3710 C   0  0  0  0  0  0  0  0  0  0  0  0
  151.0117  139.9780  154.7767 N   0  0  0  0  0  0  0  0  0  0  0  0
  150.4078  138.9350  154.0877 N   0  0  0  0  0  0  0  0  0  0  0  0
  149.0768  138.9711  154.1944 C   0  0  0  0  0  0  0  0  0  0  0  0
  148.3282  137.9614  153.5398 N   0  0  0  0  0  0  0  0  0  0  0  0
  147.0234  137.6781  153.6801 C   0  0  0  0  0  0  0  0  0  0  0  0
  146.2437  138.2681  154.4278 O   0  0  0  0  0  0  0  0  0  0  0  0
  146.6669  136.6502  152.8957 N   0  0  0  0  0  0  0  0  0  0  0  0
  145.3269  136.0744  152.7910 C   0  0  1  0  0  0  0  0  0  0  0  0
  144.3046  137.2171  152.7039 C   0  0  0  0  0  0  0  0  0  0  0  0
  145.2382  135.1319  151.5729 C   0  0  1  0  0  0  0  0  0  0  0  0
  146.2607  133.9937  151.5572 C   0  0  0  0  0  0  0  0  0  0  0  0
  145.5886  132.9946  150.6444 C   0  0  0  0  0  0  0  0  0  0  0  0
  144.1229  133.1407  151.0438 C   0  0  0  0  0  0  0  0  0  0  0  0
  143.9766  134.4685  151.5424 O   0  0  0  0  0  0  0  0  0  0  0  0
  148.4403  140.3011  155.1621 S   0  0  0  0  0  0  0  0  0  0  0  0
  152.3021  142.4596  159.1625 H   0  0  0  0  0  0  0  0  0  0  0  0
  150.8473  143.3077  158.6457 H   0  0  0  0  0  0  0  0  0  0  0  0
  152.3404  143.4725  157.7219 H   0  0  0  0  0  0  0  0  0  0  0  0
  152.2350  141.0329  157.1269 H   0  0  0  0  0  0  0  0  0  0  0  0
  150.7564  140.8648  158.0430 H   0  0  0  0  0  0  0  0  0  0  0  0
  149.6198  142.4971  156.4925 H   0  0  0  0  0  0  0  0  0  0  0  0
  151.0991  142.6422  155.5705 H   0  0  0  0  0  0  0  0  0  0  0  0
  148.8468  137.3914  152.8882 H   0  0  0  0  0  0  0  0  0  0  0  0
  147.3815  136.2273  152.3216 H   0  0  0  0  0  0  0  0  0  0  0  0
  145.0991  135.4987  153.6900 H   0  0  0  0  0  0  0  0  0  0  0  0
  143.2854  136.8319  152.6624 H   0  0  0  0  0  0  0  0  0  0  0  0
  144.4654  137.8277  151.8148 H   0  0  0  0  0  0  0  0  0  0  0  0
  144.3702  137.8708  153.5744 H   0  0  0  0  0  0  0  0  0  0  0  0
  145.3334  135.7040  150.6482 H   0  0  0  0  0  0  0  0  0  0  0  0
  147.2425  134.3050  151.1994 H   0  0  0  0  0  0  0  0  0  0  0  0
  146.3781  133.5672  152.5545 H   0  0  0  0  0  0  0  0  0  0  0  0
  145.7267  133.2892  149.6031 H   0  0  0  0  0  0  0  0  0  0  0  0
  145.9656  131.9788  150.7656 H   0  0  0  0  0  0  0  0  0  0  0  0
  143.4481  132.9546  150.2080 H   0  0  0  0  0  0  0  0  0  0  0  0
  143.8722  132.4427  151.8434 H   0  0  0  0  0  0  0  0  0  0  0  0
  1  2  1  0  0  0  0
  1 20  1  0  0  0  0
  1 21  1  0  0  0  0
  1 22  1  0  0  0  0
  2  3  1  0  0  0  0
  2 23  1  0  0  0  0
  2 24  1  0  0  0  0
  3  4  1  0  0  0  0
  3 25  1  0  0  0  0
  3 26  1  0  0  0  0
  4 19  1  0  0  0  0
  4  5  2  0  0  0  0
  5  6  1  0  0  0  0
  6  7  2  0  0  0  0
  7  8  1  0  0  0  0
  7 19  1  0  0  0  0
  8  9  1  0  0  0  0
  8 27  1  0  0  0  0
  9 10  2  0  0  0  0
  9 11  1  0  0  0  0
 11 12  1  0  0  0  0
 11 28  1  0  0  0  0
 12 13  1  0  0  0  0
 12 14  1  0  0  0  0
 12 29  1  0  0  0  0
 13 30  1  0  0  0  0
 13 31  1  0  0  0  0
 13 32  1  0  0  0  0
 14 18  1  0  0  0  0
 14 15  1  0  0  0  0
 14 33  1  0  0  0  0
 15 16  1  0  0  0  0
 15 34  1  0  0  0  0
 15 35  1  0  0  0  0
 16 17  1  0  0  0  0
 16 36  1  0  0  0  0
 16 37  1  0  0  0  0
 17 18  1  0  0  0  0
 17 38  1  0  0  0  0
 17 39  1  0  0  0  0
M  END
> <s_m_source_file>
AV-unprocessed.smi

> <i_m_source_file_index>
1251

> <i_lp_mmshare_version>
43012

> <i_f3d_flags>
0

> <s_epik_input>
W0NIM11bQ0gyXVtDSDJdYzFubmMoczEpW05IXUMoPU8pW05IXVtDQEhdKFtDSDNdKVtDQEBIXTJbQ0gyXVtDSDJdW0NIMl1PMg==

> <s_epik_cmdline>
J2VwaWtfcHl0aG9uJywgJy1waCcsICc3LjAnLCAnLXRuJywgJzgnLCAnLW1hJywgJzIwMCcsICctbWV0YWxfYmluZGluZycsICctaW1hZScsICc8aW5maWxlLm1hZT4nLCAnLW9tYWUnLCAnPG91dGZpbGUubWFlPic=

> <r_lp_tautomer_probability>
1

> <r_epik_Ionization_Penalty>
0.000503621

> <r_epik_Ionization_Penalty_Charging>
0

> <r_epik_Ionization_Penalty_Neutral>
0.000503621

> <r_epik_State_Penalty>
-0

> <r_epik_Charging_Adjusted_Penalty>
0

> <i_epik_Tot_Q>
0

> <i_epik_Tot_abs_Q>
0

> <r_epik_Metal_State_Penalty>
0.219912

> <b_epik_Metal_Only>
0

> <s_lp_Force_Field>
OPLS_2005

> <r_lp_Energy>
11.0911

> <b_lp_Chiralities_Consistent>
1

> <s_lp_Variant>
AV-unprocessed.smi:1251-4

> <Gold.Version>
5.8.1

> <Gold.Id.Protein>
6NUR|6NUR_protein|mol2

> <Gold.PLP.Fitness>
36.6375

> <Gold.PLP.PLP>
-28.1593

> <Gold.PLP.part.hbond>
-2.9642

> <Gold.PLP.part.metal>
0.0000

> <Gold.PLP.part.buried>
-3.5967

> <Gold.PLP.part.nonpolar>
-22.2798

> <Gold.PLP.part.repulsive>
0.5807

> <Gold.PLP.ligand.clash>
0.0000

> <Gold.PLP.ligand.torsion>
0.2367

> <Gold.PLP.Chemscore.Hbond>
2.9760

> <Gold.PLP.Chemscore.CHOScore>
0.0000

> <Gold.PLP.Chemscore.Metal>
0.0000

> <Gold.Chemscore.Hbonds>
donor molecule, donor type, donor heavy atom, donor atom, acceptor molecule, acceptor atom, score
      L1  H     8    27       P1  7948  1.00
      L1  H    11    28       P1  7948  0.96
      P1  H  7989  7998       L1     5  1.00

> <Gold.PLP.Chemscore.Internal.Correction>
0.0236

> <Gold.Rescore>
     Score         DG    S(hbond)    S(metal)    S(lipo)     H(rot)  DE(clash)    DE(int)     intcor
     14.10     -16.45       2.19        0.00      65.83       1.58       0.06       2.29       ----

> <Gold.Chemscore.Fitness>
14.0988

> <Gold.Chemscore.DG>
-16.4462

> <Gold.Chemscore.ZeroCoef>
-5.4800

> <Gold.Chemscore.Hbond>
2.1916

> <Gold.Chemscore.Metal>
0.0000

> <Gold.Chemscore.Lipo>
65.8294

> <Gold.Chemscore.Internal_Hbond>
0.0000

> <Gold.Chemscore.DEClash>
0.0580

> <Gold.Chemscore.DEInternal>
2.2895

> <Gold.Chemscore.Rot>
1.5843

> <Gold.Chemscore.Internal.Correction>
   9.000000E+99

> <Gold.Chemscore.Hbonds>
donor molecule, donor type, donor heavy atom, donor atom, acceptor molecule, acceptor atom, score
      L1  H     8    27       P1  7948  0.91
      L1  H    11    28       P1  7948  0.92
      P1  H  7989  7998       L1     5  0.17

> <Gold.Chemscore.Hbond.Weighted>
-7.3200

> <Gold.Chemscore.Metal.Weighted>
-0.0000

> <Gold.Chemscore.Lipo.Weighted>
-7.7020

> <Gold.Chemscore.Internal_Hbond.Weighted>
0.0000

> <Gold.Chemscore.DEClash.Weighted>
0.0580

> <Gold.Chemscore.DEInternal.Weighted>
2.2895

> <Gold.Chemscore.Rot.Weighted>
4.0558

> <Gold.Chemscore.Internal.Correction.Weighted>
   9.000000E+99

> <Gold.Protein.RotatedTorsions>
[ 6907 6896 6895 6894 ] final  -45.12 input  -60.11 | X-H torsion
[ 7974 7965 7964 7962 ] final   74.99 input  175.53 | X-H torsion
[ 8008 7997 7996 7995 ] final  -18.31 input   59.86 | X-H torsion
[ 10167 10162 10161 10158 ] final  103.08 input  -65.29 | X-H torsion
[ 10718 10713 10712 10709 ] final   41.32 input   66.30 | X-H torsion
[ 10763 10752 10751 10750 ] final    6.33 input  -60.55 | X-H torsion
[ 11005 11000 10999 10996 ] final -114.56 input  -57.11 | X-H torsion

> <Gold.Protein.ActiveResidues>
 VAL166  LYS551  ARG553  GLY616  TRP617  ASP618  TYR619  PRO620  LYS621  CYS622 
 ASP623  PHE694  ASN695  SER759  ASP760  ASP761  ALA762  ILE779  LEU786  VAL792 
 PHE793  MET794  SER795  GLU796  ALA797  LYS798  CYS799  TRP800  GLU811  SER814 

> <Gold.Protein.RotatedAtoms>
  150.9254  134.8671  159.7516 H   0  0  0  0  0  0  0  0  0  0  0  0  # atno 6907 bound_to 6896
  152.5013  134.4156  159.9473 H   0  0  0  0  0  0  0  0  0  0  0  0  # atno 6908 bound_to 6896
  151.4187  133.3665  159.2788 H   0  0  0  0  0  0  0  0  0  0  0  0  # atno 6909 bound_to 6896
  145.7212  139.2649  143.1595 H   0  0  0  0  0  0  0  0  0  0  0  0  # atno 7974 bound_to 7965
  154.4915  140.2119  155.9537 H   0  0  0  0  0  0  0  0  0  0  0  0  # atno 8008 bound_to 7997
  156.1312  140.3196  155.8321 H   0  0  0  0  0  0  0  0  0  0  0  0  # atno 8009 bound_to 7997
  155.4292  140.0502  157.3010 H   0  0  0  0  0  0  0  0  0  0  0  0  # atno 8010 bound_to 7997
  139.7294  144.7039  151.0746 H   0  0  0  0  0  0  0  0  0  0  0  0  # atno 10167 bound_to 10162
  157.3923  130.7813  149.7279 H   0  0  0  0  0  0  0  0  0  0  0  0  # atno 10718 bound_to 10713
  153.2489  135.6911  153.7700 H   0  0  0  0  0  0  0  0  0  0  0  0  # atno 10763 bound_to 10752
  153.6802  135.3329  155.3177 H   0  0  0  0  0  0  0  0  0  0  0  0  # atno 10764 bound_to 10752
  154.8386  135.4521  154.1439 H   0  0  0  0  0  0  0  0  0  0  0  0  # atno 10765 bound_to 10752
  141.0544  133.9636  157.2780 H   0  0  0  0  0  0  0  0  0  0  0  0  # atno 11005 bound_to 11000
  146.0624  140.7957  142.9728 LP  0  0  0  0  0  0  0  0  0  0  0  0  # atno 17320 bound_to 7965
  144.6916  140.3216  143.7231 LP  0  0  0  0  0  0  0  0  0  0  0  0  # atno 17321 bound_to 7965
  140.7768  143.5063  150.9708 LP  0  0  0  0  0  0  0  0  0  0  0  0  # atno 17342 bound_to 10162
  139.8751  143.7143  152.3163 LP  0  0  0  0  0  0  0  0  0  0  0  0  # atno 17343 bound_to 10162
  155.9801  130.4033  150.3546 LP  0  0  0  0  0  0  0  0  0  0  0  0  # atno 17370 bound_to 10713
  157.1664  131.0358  151.2816 LP  0  0  0  0  0  0  0  0  0  0  0  0  # atno 17371 bound_to 10713
  139.9377  135.0194  156.8610 LP  0  0  0  0  0  0  0  0  0  0  0  0  # atno 17394 bound_to 11000
  140.5993  134.0187  155.7530 LP  0  0  0  0  0  0  0  0  0  0  0  0  # atno 17395 bound_to 11000

$$$$
