AV-unprocessed.smi:2747|AV-procd|sdf|10578|dock2
  -GOLD-   2272015 33D 1   1.00000     0.00000
 Structure written by MMmdl.
 24 25  0  0  0  0  0  0  0  0  1 V2000
  150.1056  139.9449  153.7544 O   0  0  0  0  0  0  0  0  0  0  0  0
  149.4623  140.3516  154.9483 C   0  0  1  0  0  0  0  0  0  0  0  0
  150.2498  141.5114  155.5907 C   0  0  0  0  0  0  0  0  0  0  0  0
  151.1809  141.0539  156.6067 N   0  0  0  0  0  0  0  0  0  0  0  0
  151.8602  139.8881  156.4140 N   0  0  0  0  0  0  0  0  0  0  0  0
  152.6329  139.6827  157.4385 N   0  0  0  0  0  0  0  0  0  0  0  0
  152.4601  140.7338  158.3234 C   0  0  0  0  0  0  0  0  0  0  0  0
  153.0441  141.0146  159.5787 C   0  0  0  0  0  0  0  0  0  0  0  0
  152.6875  142.1831  160.2871 C   0  0  0  0  0  0  0  0  0  0  0  0
  153.4253  142.4925  161.8185 Cl  0  0  0  0  0  0  0  0  0  0  0  0
  151.7399  143.0854  159.7459 C   0  0  0  0  0  0  0  0  0  0  0  0
  151.2943  144.5210  160.5976 Cl  0  0  0  0  0  0  0  0  0  0  0  0
  151.1480  142.8171  158.4955 C   0  0  0  0  0  0  0  0  0  0  0  0
  151.5167  141.6486  157.8075 C   0  0  0  0  0  0  0  0  0  0  0  0
  148.0000  140.7221  154.6366 C   0  0  0  0  0  0  0  0  0  0  0  0
  147.9570  141.7468  153.7848 F   0  0  0  0  0  0  0  0  0  0  0  0
  147.3936  139.6837  154.0613 F   0  0  0  0  0  0  0  0  0  0  0  0
  147.3383  141.0384  155.7504 F   0  0  0  0  0  0  0  0  0  0  0  0
  149.4467  139.7953  153.0937 H   0  0  0  0  0  0  0  0  0  0  0  0
  149.4671  139.4989  155.6286 H   0  0  0  0  0  0  0  0  0  0  0  0
  150.8088  142.0594  154.8314 H   0  0  0  0  0  0  0  0  0  0  0  0
  149.5659  142.2277  156.0480 H   0  0  0  0  0  0  0  0  0  0  0  0
  153.7682  140.3307  159.9968 H   0  0  0  0  0  0  0  0  0  0  0  0
  150.4248  143.4978  158.0712 H   0  0  0  0  0  0  0  0  0  0  0  0
  1  2  1  0  0  0  0
  1 19  1  0  0  0  0
  2  3  1  0  0  0  0
  2 15  1  0  0  0  0
  2 20  1  0  0  0  0
  3  4  1  0  0  0  0
  3 21  1  0  0  0  0
  3 22  1  0  0  0  0
  4 14  1  0  0  0  0
  4  5  1  0  0  0  0
  5  6  2  0  0  0  0
  6  7  1  0  0  0  0
  7 14  2  0  0  0  0
  7  8  1  0  0  0  0
  8  9  2  0  0  0  0
  8 23  1  0  0  0  0
  9 10  1  0  0  0  0
  9 11  1  0  0  0  0
 11 12  1  0  0  0  0
 11 13  2  0  0  0  0
 13 14  1  0  0  0  0
 13 24  1  0  0  0  0
 15 16  1  0  0  0  0
 15 17  1  0  0  0  0
 15 18  1  0  0  0  0
M  END
> <s_m_source_file>
AV-unprocessed.smi

> <i_m_source_file_index>
2747

> <i_lp_mmshare_version>
43012

> <i_f3d_flags>
0

> <s_epik_input>
RkMoRikoRilbQ0BIXShbT0hdKVtDSDJdbihubjEpYyhjMTIpW2NIXWMoQ2wpYyhDbClbY0hdMg==

> <s_epik_cmdline>
J2VwaWtfcHl0aG9uJywgJy1waCcsICc3LjAnLCAnLXRuJywgJzgnLCAnLW1hJywgJzIwMCcsICctbWV0YWxfYmluZGluZycsICctaW1hZScsICc8aW5maWxlLm1hZT4nLCAnLW9tYWUnLCAnPG91dGZpbGUubWFlPic=

> <r_lp_tautomer_probability>
1

> <r_epik_Ionization_Penalty>
0.0735676

> <r_epik_Ionization_Penalty_Charging>
0

> <r_epik_Ionization_Penalty_Neutral>
0.0735676

> <r_epik_State_Penalty>
0.0647209

> <r_epik_Charging_Adjusted_Penalty>
0.0647209

> <i_epik_Tot_Q>
0

> <i_epik_Tot_abs_Q>
0

> <r_epik_Metal_State_Penalty>
0.0647209

> <b_epik_Metal_Only>
0

> <s_lp_Force_Field>
OPLS_2005

> <r_lp_Energy>
9.1287

> <b_lp_Chiralities_Consistent>
1

> <s_lp_Variant>
AV-unprocessed.smi:2747-2

> <Gold.Version>
5.8.1

> <Gold.Id.Protein>
6NUR|6NUR_protein|mol2

> <Gold.PLP.Fitness>
44.5279

> <Gold.PLP.PLP>
-38.5493

> <Gold.PLP.part.hbond>
-3.0000

> <Gold.PLP.part.metal>
0.0000

> <Gold.PLP.part.buried>
-4.2091

> <Gold.PLP.part.nonpolar>
-29.5485

> <Gold.PLP.part.repulsive>
0.0000

> <Gold.PLP.ligand.clash>
0.0000

> <Gold.PLP.ligand.torsion>
0.8185

> <Gold.PLP.Chemscore.Hbond>
2.5360

> <Gold.PLP.Chemscore.CHOScore>
0.0000

> <Gold.PLP.Chemscore.Metal>
0.0000

> <Gold.Chemscore.Hbonds>
donor molecule, donor type, donor heavy atom, donor atom, acceptor molecule, acceptor atom, score
      L1  H     1    19       P1  7957  0.56
      P1  H  7989  7998       L1     1  0.83
      P1  H  7997  8008       L1     6  0.95

> <Gold.PLP.Chemscore.Internal.Correction>
0.0076

> <Gold.Rescore>
     Score         DG    S(hbond)    S(metal)    S(lipo)     H(rot)  DE(clash)    DE(int)     intcor
     17.94     -18.91       2.25        0.00      92.69       1.92       0.13       0.84       ----

> <Gold.Chemscore.Fitness>
17.9397

> <Gold.Chemscore.DG>
-18.9099

> <Gold.Chemscore.ZeroCoef>
-5.4800

> <Gold.Chemscore.Hbond>
2.2483

> <Gold.Chemscore.Metal>
0.0000

> <Gold.Chemscore.Lipo>
92.6908

> <Gold.Chemscore.Internal_Hbond>
0.0000

> <Gold.Chemscore.DEClash>
0.1317

> <Gold.Chemscore.DEInternal>
0.8385

> <Gold.Chemscore.Rot>
1.9235

> <Gold.Chemscore.Internal.Correction>
   9.000000E+99

> <Gold.Chemscore.Hbonds>
donor molecule, donor type, donor heavy atom, donor atom, acceptor molecule, acceptor atom, score
      L1  H     1    19       P1  7957  0.55
      P1  H  7989  7998       L1     1  0.68
      P1  H  7997  8008       L1     6  0.14

> <Gold.Chemscore.Hbond.Weighted>
-7.5093

> <Gold.Chemscore.Metal.Weighted>
-0.0000

> <Gold.Chemscore.Lipo.Weighted>
-10.8448

> <Gold.Chemscore.Internal_Hbond.Weighted>
0.0000

> <Gold.Chemscore.DEClash.Weighted>
0.1317

> <Gold.Chemscore.DEInternal.Weighted>
0.8385

> <Gold.Chemscore.Rot.Weighted>
4.9242

> <Gold.Chemscore.Internal.Correction.Weighted>
   9.000000E+99

> <Gold.Protein.RotatedTorsions>
[ 6907 6896 6895 6894 ] final   67.09 input  -60.11 | X-H torsion
[ 7974 7965 7964 7962 ] final -142.70 input  175.53 | X-H torsion
[ 8008 7997 7996 7995 ] final  -75.56 input   59.86 | X-H torsion
[ 10167 10162 10161 10158 ] final   41.49 input  -65.29 | X-H torsion
[ 10718 10713 10712 10709 ] final -157.29 input   66.30 | X-H torsion
[ 10763 10752 10751 10750 ] final  -72.78 input  -60.55 | X-H torsion
[ 11005 11000 10999 10996 ] final -151.85 input  -57.11 | X-H torsion

> <Gold.Protein.ActiveResidues>
 VAL166  LYS551  ARG553  GLY616  TRP617  ASP618  TYR619  PRO620  LYS621  CYS622 
 ASP623  PHE694  ASN695  SER759  ASP760  ASP761  ALA762  ILE779  LEU786  VAL792 
 PHE793  MET794  SER795  GLU796  ALA797  LYS798  CYS799  TRP800  GLU811  SER814 

> <Gold.Protein.RotatedAtoms>
  152.4528  134.5358  159.9824 H   0  0  0  0  0  0  0  0  0  0  0  0  # atno 6907 bound_to 6896
  151.5426  133.3424  159.2946 H   0  0  0  0  0  0  0  0  0  0  0  0  # atno 6908 bound_to 6896
  150.8462  134.7802  159.7035 H   0  0  0  0  0  0  0  0  0  0  0  0  # atno 6909 bound_to 6896
  144.8424  140.5926  143.5443 H   0  0  0  0  0  0  0  0  0  0  0  0  # atno 7974 bound_to 7965
  154.5427  140.0742  156.8537 H   0  0  0  0  0  0  0  0  0  0  0  0  # atno 8008 bound_to 7997
  155.3148  140.3392  155.4224 H   0  0  0  0  0  0  0  0  0  0  0  0  # atno 8009 bound_to 7997
  156.1890  140.1679  156.8116 H   0  0  0  0  0  0  0  0  0  0  0  0  # atno 8010 bound_to 7997
  140.3638  144.2194  150.6136 H   0  0  0  0  0  0  0  0  0  0  0  0  # atno 10167 bound_to 10162
  156.5383  130.8552  151.2740 H   0  0  0  0  0  0  0  0  0  0  0  0  # atno 10718 bound_to 10713
  154.4504  135.5919  153.6188 H   0  0  0  0  0  0  0  0  0  0  0  0  # atno 10763 bound_to 10752
  152.9813  135.6019  154.3612 H   0  0  0  0  0  0  0  0  0  0  0  0  # atno 10764 bound_to 10752
  154.3472  135.2841  155.2370 H   0  0  0  0  0  0  0  0  0  0  0  0  # atno 10765 bound_to 10752
  140.7251  134.3683  157.5176 H   0  0  0  0  0  0  0  0  0  0  0  0  # atno 11005 bound_to 11000
  145.4666  139.1507  143.3837 LP  0  0  0  0  0  0  0  0  0  0  0  0  # atno 17320 bound_to 7965
  146.2714  140.4798  142.8813 LP  0  0  0  0  0  0  0  0  0  0  0  0  # atno 17321 bound_to 7965
  140.5101  143.2293  151.8548 LP  0  0  0  0  0  0  0  0  0  0  0  0  # atno 17342 bound_to 10162
  139.4811  144.4960  151.9123 LP  0  0  0  0  0  0  0  0  0  0  0  0  # atno 17343 bound_to 10162
  157.7410  130.9861  150.2414 LP  0  0  0  0  0  0  0  0  0  0  0  0  # atno 17370 bound_to 10713
  156.2995  130.3756  149.7764 LP  0  0  0  0  0  0  0  0  0  0  0  0  # atno 17371 bound_to 10713
  139.8839  134.8981  156.2738 LP  0  0  0  0  0  0  0  0  0  0  0  0  # atno 17394 bound_to 11000
  140.9969  133.7174  156.0900 LP  0  0  0  0  0  0  0  0  0  0  0  0  # atno 17395 bound_to 11000

$$$$
