AV-unprocessed.smi:2187|AV-procd|sdf|8878|dock7
  -GOLD-   2272012 73D 1   1.00000     0.00000
 Structure written by MMmdl.
 42 43  0  0  0  0  0  0  0  0  1 V2000
  150.4960  145.3393  160.0851 C   0  0  0  0  0  0  0  0  0  0  0  0
  151.4795  144.2370  160.3571 C   0  0  0  0  0  0  0  0  0  0  0  0
  151.9292  144.0652  161.5889 N   0  0  0  0  0  0  0  0  0  0  0  0
  152.7669  143.0124  161.5067 N   0  0  0  0  0  0  0  0  0  0  0  0
  153.4396  142.5480  162.7044 C   0  0  0  0  0  0  0  0  0  0  0  0
  152.8421  142.5135  160.2206 C   0  0  0  0  0  0  0  0  0  0  0  0
  153.6943  141.3366  159.8696 C   0  0  0  0  0  0  0  0  0  0  0  0
  152.0221  143.2864  159.4421 C   0  0  0  0  0  0  0  0  0  0  0  0
  151.7422  143.1652  157.9653 C   0  0  0  0  0  0  0  0  0  0  0  0
  151.3795  141.7188  157.6313 C   0  0  0  0  0  0  0  0  0  0  0  0
  151.2609  140.8893  158.5331 O   0  0  0  0  0  0  0  0  0  0  0  0
  151.2020  141.4345  156.3317 N   0  0  0  0  0  0  0  0  0  0  0  0
  150.8060  140.1379  155.7842 C   0  0  2  0  0  0  0  0  0  0  0  0
  152.0517  139.2735  155.4608 C   0  0  0  0  0  0  0  0  0  0  0  0
  151.8576  138.1784  154.3908 C   0  0  0  0  0  0  0  0  0  0  0  0
  150.6790  137.2134  154.6335 C   0  0  0  0  0  0  0  0  0  0  0  0
  149.2814  137.8525  154.8209 C   0  0  0  0  0  0  0  0  0  0  0  0
  149.1397  139.1823  154.2292 N   0  0  0  0  0  0  0  0  0  0  0  0
  149.7902  140.2865  154.6348 C   0  0  0  0  0  0  0  0  0  0  0  0
  149.6025  141.3767  154.0958 O   0  0  0  0  0  0  0  0  0  0  0  0
  149.4729  144.9669  160.1331 H   0  0  0  0  0  0  0  0  0  0  0  0
  150.6467  145.7685  159.0950 H   0  0  0  0  0  0  0  0  0  0  0  0
  150.5887  146.1485  160.8104 H   0  0  0  0  0  0  0  0  0  0  0  0
  154.4731  142.2889  162.4740 H   0  0  0  0  0  0  0  0  0  0  0  0
  152.9280  141.6665  163.0906 H   0  0  0  0  0  0  0  0  0  0  0  0
  153.4375  143.3248  163.4700 H   0  0  0  0  0  0  0  0  0  0  0  0
  153.4739  140.9741  158.8658 H   0  0  0  0  0  0  0  0  0  0  0  0
  153.5250  140.5125  160.5628 H   0  0  0  0  0  0  0  0  0  0  0  0
  154.7513  141.6003  159.9071 H   0  0  0  0  0  0  0  0  0  0  0  0
  150.9297  143.8236  157.6558 H   0  0  0  0  0  0  0  0  0  0  0  0
  152.6060  143.4604  157.3687 H   0  0  0  0  0  0  0  0  0  0  0  0
  151.3166  142.1843  155.6651 H   0  0  0  0  0  0  0  0  0  0  0  0
  150.2587  139.6341  156.5820 H   0  0  0  0  0  0  0  0  0  0  0  0
  152.8629  139.9204  155.1234 H   0  0  0  0  0  0  0  0  0  0  0  0
  152.4090  138.8134  156.3830 H   0  0  0  0  0  0  0  0  0  0  0  0
  151.7446  138.6450  153.4113 H   0  0  0  0  0  0  0  0  0  0  0  0
  152.7765  137.5952  154.3203 H   0  0  0  0  0  0  0  0  0  0  0  0
  150.6327  136.5339  153.7818 H   0  0  0  0  0  0  0  0  0  0  0  0
  150.8961  136.5820  155.4956 H   0  0  0  0  0  0  0  0  0  0  0  0
  148.5228  137.2011  154.3865 H   0  0  0  0  0  0  0  0  0  0  0  0
  149.0355  137.9077  155.8819 H   0  0  0  0  0  0  0  0  0  0  0  0
  148.4849  139.2756  153.4663 H   0  0  0  0  0  0  0  0  0  0  0  0
  1  2  1  0  0  0  0
  1 21  1  0  0  0  0
  1 22  1  0  0  0  0
  1 23  1  0  0  0  0
  2  8  1  0  0  0  0
  2  3  2  0  0  0  0
  3  4  1  0  0  0  0
  4  5  1  0  0  0  0
  4  6  1  0  0  0  0
  5 24  1  0  0  0  0
  5 25  1  0  0  0  0
  5 26  1  0  0  0  0
  6  7  1  0  0  0  0
  6  8  2  0  0  0  0
  7 27  1  0  0  0  0
  7 28  1  0  0  0  0
  7 29  1  0  0  0  0
  8  9  1  0  0  0  0
  9 10  1  0  0  0  0
  9 30  1  0  0  0  0
  9 31  1  0  0  0  0
 10 11  2  0  0  0  0
 10 12  1  0  0  0  0
 12 13  1  0  0  0  0
 12 32  1  0  0  0  0
 13 19  1  0  0  0  0
 13 14  1  0  0  0  0
 13 33  1  0  0  0  0
 14 15  1  0  0  0  0
 14 34  1  0  0  0  0
 14 35  1  0  0  0  0
 15 16  1  0  0  0  0
 15 36  1  0  0  0  0
 15 37  1  0  0  0  0
 16 17  1  0  0  0  0
 16 38  1  0  0  0  0
 16 39  1  0  0  0  0
 17 18  1  0  0  0  0
 17 40  1  0  0  0  0
 17 41  1  0  0  0  0
 18 19  1  0  0  0  0
 18 42  1  0  0  0  0
 19 20  2  0  0  0  0
M  END
> <s_m_source_file>
AV-unprocessed.smi

> <i_m_source_file_index>
2187

> <i_lp_mmshare_version>
43012

> <i_f3d_flags>
0

> <s_epik_input>
W0NIM11jMW5uKFtDSDNdKWMoW0NIM10pYzFbQ0gyXUMoPU8pW05IXVtDQEBIXTJbQ0gyXVtDSDJdW0NIMl1bQ0gyXVtOSF1DMj1P

> <s_epik_cmdline>
J2VwaWtfcHl0aG9uJywgJy1waCcsICc3LjAnLCAnLXRuJywgJzgnLCAnLW1hJywgJzIwMCcsICctbWV0YWxfYmluZGluZycsICctaW1hZScsICc8aW5maWxlLm1hZT4nLCAnLW9tYWUnLCAnPG91dGZpbGUubWFlPic=

> <r_lp_tautomer_probability>
1

> <r_epik_Ionization_Penalty>
0.00280384

> <r_epik_Ionization_Penalty_Charging>
0

> <r_epik_Ionization_Penalty_Neutral>
0.00280384

> <r_epik_State_Penalty>
0.00195959

> <r_epik_Charging_Adjusted_Penalty>
0.00195959

> <i_epik_Tot_Q>
0

> <i_epik_Tot_abs_Q>
0

> <r_epik_Metal_State_Penalty>
-0

> <b_epik_Metal_Only>
0

> <s_lp_Force_Field>
OPLS_2005

> <r_lp_Energy>
9.17358

> <b_lp_Chiralities_Consistent>
1

> <s_lp_Variant>
AV-unprocessed.smi:2187-1

> <Gold.Version>
5.8.1

> <Gold.Id.Protein>
6NUR|6NUR_protein|mol2

> <Gold.PLP.Fitness>
49.3664

> <Gold.PLP.PLP>
-48.2358

> <Gold.PLP.part.hbond>
-2.3729

> <Gold.PLP.part.metal>
0.0000

> <Gold.PLP.part.buried>
-4.9993

> <Gold.PLP.part.nonpolar>
-41.0289

> <Gold.PLP.part.repulsive>
0.5638

> <Gold.PLP.ligand.clash>
0.0000

> <Gold.PLP.ligand.torsion>
0.4390

> <Gold.PLP.Chemscore.Hbond>
0.6521

> <Gold.PLP.Chemscore.CHOScore>
0.0000

> <Gold.PLP.Chemscore.Metal>
0.0000

> <Gold.Chemscore.Hbonds>
donor molecule, donor type, donor heavy atom, donor atom, acceptor molecule, acceptor atom, score
      P1  H  8011  8017       L1    20  0.65

> <Gold.PLP.Chemscore.Internal.Correction>
0.0524

> <Gold.Rescore>
     Score         DG    S(hbond)    S(metal)    S(lipo)     H(rot)  DE(clash)    DE(int)     intcor
     13.26     -16.63       0.68        0.00     107.79       1.46       0.21       3.16       ----

> <Gold.Chemscore.Fitness>
13.2645

> <Gold.Chemscore.DG>
-16.6279

> <Gold.Chemscore.ZeroCoef>
-5.4800

> <Gold.Chemscore.Hbond>
0.6791

> <Gold.Chemscore.Metal>
0.0000

> <Gold.Chemscore.Lipo>
107.7934

> <Gold.Chemscore.Internal_Hbond>
0.0000

> <Gold.Chemscore.DEClash>
0.2055

> <Gold.Chemscore.DEInternal>
3.1579

> <Gold.Chemscore.Rot>
1.4578

> <Gold.Chemscore.Internal.Correction>
   9.000000E+99

> <Gold.Chemscore.Hbonds>
donor molecule, donor type, donor heavy atom, donor atom, acceptor molecule, acceptor atom, score
      P1  H  8011  8017       L1    20  0.63

> <Gold.Chemscore.Hbond.Weighted>
-2.2681

> <Gold.Chemscore.Metal.Weighted>
-0.0000

> <Gold.Chemscore.Lipo.Weighted>
-12.6118

> <Gold.Chemscore.Internal_Hbond.Weighted>
0.0000

> <Gold.Chemscore.DEClash.Weighted>
0.2055

> <Gold.Chemscore.DEInternal.Weighted>
3.1579

> <Gold.Chemscore.Rot.Weighted>
3.7321

> <Gold.Chemscore.Internal.Correction.Weighted>
   9.000000E+99

> <Gold.Protein.RotatedTorsions>
[ 6907 6896 6895 6894 ] final  -31.41 input  -60.11 | X-H torsion
[ 7974 7965 7964 7962 ] final   24.20 input  175.53 | X-H torsion
[ 8008 7997 7996 7995 ] final  -36.26 input   59.86 | X-H torsion
[ 10167 10162 10161 10158 ] final   71.09 input  -65.29 | X-H torsion
[ 10718 10713 10712 10709 ] final  -88.56 input   66.30 | X-H torsion
[ 10763 10752 10751 10750 ] final   85.43 input  -60.55 | X-H torsion
[ 11005 11000 10999 10996 ] final  -68.58 input  -57.11 | X-H torsion

> <Gold.Protein.ActiveResidues>
 VAL166  LYS551  ARG553  GLY616  TRP617  ASP618  TYR619  PRO620  LYS621  CYS622 
 ASP623  PHE694  ASN695  SER759  ASP760  ASP761  ALA762  ILE779  LEU786  VAL792 
 PHE793  MET794  SER795  GLU796  ALA797  LYS798  CYS799  TRP800  GLU811  SER814 

> <Gold.Protein.RotatedAtoms>
  151.0925  134.9924  159.8409 H   0  0  0  0  0  0  0  0  0  0  0  0  # atno 6907 bound_to 6896
  152.5430  134.2048  159.8736 H   0  0  0  0  0  0  0  0  0  0  0  0  # atno 6908 bound_to 6896
  151.2085  133.4525  159.2631 H   0  0  0  0  0  0  0  0  0  0  0  0  # atno 6909 bound_to 6896
  146.1949  139.7637  142.8805 H   0  0  0  0  0  0  0  0  0  0  0  0  # atno 7974 bound_to 7965
  154.4077  140.1635  156.2345 H   0  0  0  0  0  0  0  0  0  0  0  0  # atno 8008 bound_to 7997
  155.9254  140.3418  155.6183 H   0  0  0  0  0  0  0  0  0  0  0  0  # atno 8009 bound_to 7997
  155.7171  140.0764  157.2337 H   0  0  0  0  0  0  0  0  0  0  0  0  # atno 8010 bound_to 7997
  140.0499  144.5320  150.7371 H   0  0  0  0  0  0  0  0  0  0  0  0  # atno 10167 bound_to 10162
  155.9983  130.4840  150.5038 H   0  0  0  0  0  0  0  0  0  0  0  0  # atno 10718 bound_to 10713
  153.1474  135.4617  154.9587 H   0  0  0  0  0  0  0  0  0  0  0  0  # atno 10763 bound_to 10752
  154.7797  135.3184  154.8018 H   0  0  0  0  0  0  0  0  0  0  0  0  # atno 10764 bound_to 10752
  153.8529  135.6920  153.4845 H   0  0  0  0  0  0  0  0  0  0  0  0  # atno 10765 bound_to 10752
  141.1535  133.6744  156.6468 H   0  0  0  0  0  0  0  0  0  0  0  0  # atno 11005 bound_to 11000
  145.3677  141.0337  143.3249 LP  0  0  0  0  0  0  0  0  0  0  0  0  # atno 17320 bound_to 7965
  144.8559  139.5250  143.6835 LP  0  0  0  0  0  0  0  0  0  0  0  0  # atno 17321 bound_to 7965
  140.7221  143.2599  151.4242 LP  0  0  0  0  0  0  0  0  0  0  0  0  # atno 17342 bound_to 10162
  139.5960  144.1397  152.2144 LP  0  0  0  0  0  0  0  0  0  0  0  0  # atno 17343 bound_to 10162
  157.3019  131.0647  151.2062 LP  0  0  0  0  0  0  0  0  0  0  0  0  # atno 17370 bound_to 10713
  157.3038  130.6856  149.6178 LP  0  0  0  0  0  0  0  0  0  0  0  0  # atno 17371 bound_to 10713
  140.3351  134.7896  157.4355 LP  0  0  0  0  0  0  0  0  0  0  0  0  # atno 17394 bound_to 11000
  140.0984  134.5505  155.8376 LP  0  0  0  0  0  0  0  0  0  0  0  0  # atno 17395 bound_to 11000

$$$$
