AV-unprocessed.smi:2094|AV-procd|sdf|8553|dock5
  -GOLD-   2272011273D 1   1.00000     0.00000
 Structure written by MMmdl.
 35 36  0  0  0  0  0  0  0  0  3 V2000
  150.0647  134.7042  154.6986 O   0  0  0  0  0  0  0  0  0  0  0  0
  149.7164  133.8485  155.5157 C   0  0  0  0  0  0  0  0  0  0  0  0
  149.3072  132.6473  155.0875 N   0  0  0  0  0  0  0  0  0  0  0  0
  149.2267  132.2415  153.6916 C   0  0  0  0  0  0  0  0  0  0  0  0
  148.1893  133.0938  152.9446 C   0  0  0  0  0  0  0  0  0  0  0  0
  147.3446  132.2808  152.0341 N   0  3  0  0  0  0  0  0  0  0  0  0
  146.4753  133.1230  151.1713 C   0  0  0  0  0  0  0  0  0  0  0  0
  145.7162  132.2688  150.1413 C   0  0  0  0  0  0  0  0  0  0  0  0
  144.8967  131.1715  150.8330 C   0  0  0  0  0  0  0  0  0  0  0  0
  145.8055  130.3365  151.7441 C   0  0  0  0  0  0  0  0  0  0  0  0
  146.5608  131.2320  152.7409 C   0  0  0  0  0  0  0  0  0  0  0  0
  149.6961  133.9818  156.8607 N   0  5  0  0  0  0  0  0  0  0  0  0
  149.5575  135.1985  157.4122 C   0  0  0  0  0  0  0  0  0  0  0  0
  149.4645  135.3944  158.7324 N   0  0  0  0  0  0  0  0  0  0  0  0
  149.3302  136.7382  159.0862 C   0  0  0  0  0  0  0  0  0  0  0  0
  149.3300  137.5861  158.0106 C   0  0  0  0  0  0  0  0  0  0  0  0
  149.4991  136.7167  156.5122 S   0  0  0  0  0  0  0  0  0  0  0  0
  149.0294  131.9730  155.7856 H   0  0  0  0  0  0  0  0  0  0  0  0
  150.2073  132.3528  153.2260 H   0  0  0  0  0  0  0  0  0  0  0  0
  148.9678  131.1834  153.6541 H   0  0  0  0  0  0  0  0  0  0  0  0
  147.5586  133.6434  153.6453 H   0  0  0  0  0  0  0  0  0  0  0  0
  148.7282  133.8431  152.3621 H   0  0  0  0  0  0  0  0  0  0  0  0
  145.7716  133.6783  151.7935 H   0  0  0  0  0  0  0  0  0  0  0  0
  147.0818  133.8597  150.6429 H   0  0  0  0  0  0  0  0  0  0  0  0
  145.0603  132.9015  149.5424 H   0  0  0  0  0  0  0  0  0  0  0  0
  146.4257  131.8146  149.4482 H   0  0  0  0  0  0  0  0  0  0  0  0
  144.0973  131.6228  151.4223 H   0  0  0  0  0  0  0  0  0  0  0  0
  144.4165  130.5334  150.0904 H   0  0  0  0  0  0  0  0  0  0  0  0
  145.2133  129.5959  152.2826 H   0  0  0  0  0  0  0  0  0  0  0  0
  146.5208  129.7788  151.1382 H   0  0  0  0  0  0  0  0  0  0  0  0
  147.2180  130.6072  153.3444 H   0  0  0  0  0  0  0  0  0  0  0  0
  145.8566  131.7041  153.4282 H   0  0  0  0  0  0  0  0  0  0  0  0
  149.2415  137.0012  160.1296 H   0  0  0  0  0  0  0  0  0  0  0  0
  149.2417  138.6617  158.0072 H   0  0  0  0  0  0  0  0  0  0  0  0
  147.9804  131.8038  151.4108 H   0  0  0  0  0  0  0  0  0  0  0  0
  1  2  2  0  0  0  0
  2  3  1  0  0  0  0
  2 12  1  0  0  0  0
  3  4  1  0  0  0  0
  3 18  1  0  0  0  0
  4  5  1  0  0  0  0
  4 19  1  0  0  0  0
  4 20  1  0  0  0  0
  5  6  1  0  0  0  0
  5 21  1  0  0  0  0
  5 22  1  0  0  0  0
  6 11  1  0  0  0  0
  6  7  1  0  0  0  0
  6 35  1  0  0  0  0
  7  8  1  0  0  0  0
  7 23  1  0  0  0  0
  7 24  1  0  0  0  0
  8  9  1  0  0  0  0
  8 25  1  0  0  0  0
  8 26  1  0  0  0  0
  9 10  1  0  0  0  0
  9 27  1  0  0  0  0
  9 28  1  0  0  0  0
 10 11  1  0  0  0  0
 10 29  1  0  0  0  0
 10 30  1  0  0  0  0
 11 31  1  0  0  0  0
 11 32  1  0  0  0  0
 12 13  1  0  0  0  0
 13 17  1  0  0  0  0
 13 14  2  0  0  0  0
 14 15  1  0  0  0  0
 15 16  2  0  0  0  0
 15 33  1  0  0  0  0
 16 17  1  0  0  0  0
 16 34  1  0  0  0  0
M  CHG  1   6   1
M  CHG  1  12  -1
M  END
> <s_m_source_file>
AV-unprocessed.smi

> <i_m_source_file_index>
2094

> <i_lp_mmshare_version>
43012

> <i_f3d_flags>
0

> <s_epik_input>
czFbY0hdW2NIXW5jMVtOSF1DKD1PKVtOSF1bQ0gyXVtDSDJdTjJbQ0gyXVtDSDJdW0NIMl1bQ0gyXVtDSDJdMg==

> <s_epik_cmdline>
J2VwaWtfcHl0aG9uJywgJy1waCcsICc3LjAnLCAnLXRuJywgJzgnLCAnLW1hJywgJzIwMCcsICctbWV0YWxfYmluZGluZycsICctaW1hZScsICc8aW5maWxlLm1hZT4nLCAnLW9tYWUnLCAnPG91dGZpbGUubWFlPic=

> <r_lp_tautomer_probability>
0.999

> <r_epik_Ionization_Penalty>
6.21931

> <r_epik_Ionization_Penalty_Charging>
5.38824

> <r_epik_Ionization_Penalty_Neutral>
0.831074

> <r_epik_State_Penalty>
5.38819

> <r_epik_Charging_Adjusted_Penalty>
10.7764

> <i_epik_Tot_Q>
0

> <i_epik_Tot_abs_Q>
2

> <r_epik_Metal_State_Penalty>
1.41404

> <b_epik_Metal_Only>
1

> <s_lp_Force_Field>
OPLS_2005

> <r_lp_Energy>
7.37815

> <b_lp_Chiralities_Consistent>
1

> <s_lp_Variant>
AV-unprocessed.smi:2094-2

> <Gold.Version>
5.8.1

> <Gold.Id.Protein>
6NUR|6NUR_protein|mol2

> <Gold.PLP.Fitness>
32.9769

> <Gold.PLP.PLP>
-27.8765

> <Gold.PLP.part.hbond>
-2.0000

> <Gold.PLP.part.metal>
0.0000

> <Gold.PLP.part.buried>
-5.8188

> <Gold.PLP.part.nonpolar>
-21.0825

> <Gold.PLP.part.repulsive>
0.1682

> <Gold.PLP.ligand.clash>
0.0000

> <Gold.PLP.ligand.torsion>
0.4759

> <Gold.PLP.Chemscore.Hbond>
2.0000

> <Gold.PLP.Chemscore.CHOScore>
0.0000

> <Gold.PLP.Chemscore.Metal>
0.0000

> <Gold.Chemscore.Hbonds>
donor molecule, donor type, donor heavy atom, donor atom, acceptor molecule, acceptor atom, score
      L1  H     6    35       P1 10747  1.00
      P1  H  6896  6908       L1    14  1.00

> <Gold.PLP.Chemscore.Internal.Correction>
0.0521

> <Gold.Rescore>
     Score         DG    S(hbond)    S(metal)    S(lipo)     H(rot)  DE(clash)    DE(int)     intcor
     13.40     -15.29       1.94        0.00      63.14       1.58       0.00       1.89       ----

> <Gold.Chemscore.Fitness>
13.4004

> <Gold.Chemscore.DG>
-15.2894

> <Gold.Chemscore.ZeroCoef>
-5.4800

> <Gold.Chemscore.Hbond>
1.9369

> <Gold.Chemscore.Metal>
0.0000

> <Gold.Chemscore.Lipo>
63.1441

> <Gold.Chemscore.Internal_Hbond>
0.0000

> <Gold.Chemscore.DEClash>
0.0000

> <Gold.Chemscore.DEInternal>
1.8890

> <Gold.Chemscore.Rot>
1.5812

> <Gold.Chemscore.Internal.Correction>
   9.000000E+99

> <Gold.Chemscore.Hbonds>
donor molecule, donor type, donor heavy atom, donor atom, acceptor molecule, acceptor atom, score
      L1  H     6    35       P1 10747  1.00
      P1  H  6896  6908       L1    14  0.62

> <Gold.Chemscore.Hbond.Weighted>
-6.4693

> <Gold.Chemscore.Metal.Weighted>
-0.0000

> <Gold.Chemscore.Lipo.Weighted>
-7.3879

> <Gold.Chemscore.Internal_Hbond.Weighted>
0.0000

> <Gold.Chemscore.DEClash.Weighted>
0.0000

> <Gold.Chemscore.DEInternal.Weighted>
1.8890

> <Gold.Chemscore.Rot.Weighted>
4.0478

> <Gold.Chemscore.Internal.Correction.Weighted>
   9.000000E+99

> <Gold.Protein.RotatedTorsions>
[ 6907 6896 6895 6894 ] final  179.02 input  -60.11 | X-H torsion
[ 7974 7965 7964 7962 ] final  -78.71 input  175.53 | X-H torsion
[ 8008 7997 7996 7995 ] final  -27.32 input   59.86 | X-H torsion
[ 10167 10162 10161 10158 ] final  173.38 input  -65.29 | X-H torsion
[ 10718 10713 10712 10709 ] final  115.88 input   66.30 | X-H torsion
[ 10763 10752 10751 10750 ] final  128.05 input  -60.55 | X-H torsion
[ 11005 11000 10999 10996 ] final  -79.36 input  -57.11 | X-H torsion

> <Gold.Protein.ActiveResidues>
 VAL166  LYS551  ARG553  GLY616  TRP617  ASP618  TYR619  PRO620  LYS621  CYS622 
 ASP623  PHE694  ASN695  SER759  ASP760  ASP761  ALA762  ILE779  LEU786  VAL792 
 PHE793  MET794  SER795  GLU796  ALA797  LYS798  CYS799  TRP800  GLU811  SER814 

> <Gold.Protein.RotatedAtoms>
  151.6785  133.3312  159.3213 H   0  0  0  0  0  0  0  0  0  0  0  0  # atno 6907 bound_to 6896
  150.7834  134.6802  159.6449 H   0  0  0  0  0  0  0  0  0  0  0  0  # atno 6908 bound_to 6896
  152.3898  134.6463  160.0164 H   0  0  0  0  0  0  0  0  0  0  0  0  # atno 6909 bound_to 6896
  145.5829  140.9445  143.1334 H   0  0  0  0  0  0  0  0  0  0  0  0  # atno 7974 bound_to 7965
  154.4383  140.1875  156.0914 H   0  0  0  0  0  0  0  0  0  0  0  0  # atno 8008 bound_to 7997
  156.0363  140.3325  155.7168 H   0  0  0  0  0  0  0  0  0  0  0  0  # atno 8009 bound_to 7997
  155.5766  140.0617  157.2784 H   0  0  0  0  0  0  0  0  0  0  0  0  # atno 8010 bound_to 7997
  139.5106  144.3267  152.0151 H   0  0  0  0  0  0  0  0  0  0  0  0  # atno 10167 bound_to 10162
  157.6195  131.1018  150.7393 H   0  0  0  0  0  0  0  0  0  0  0  0  # atno 10718 bound_to 10713
  153.7192  135.3256  155.3263 H   0  0  0  0  0  0  0  0  0  0  0  0  # atno 10763 bound_to 10752
  154.8361  135.4495  154.1234 H   0  0  0  0  0  0  0  0  0  0  0  0  # atno 10764 bound_to 10752
  153.2350  135.6964  153.7927 H   0  0  0  0  0  0  0  0  0  0  0  0  # atno 10765 bound_to 10752
  141.1667  133.7103  156.8111 H   0  0  0  0  0  0  0  0  0  0  0  0  # atno 11005 bound_to 11000
  144.7386  139.7514  143.7320 LP  0  0  0  0  0  0  0  0  0  0  0  0  # atno 17320 bound_to 7965
  146.1703  139.4851  142.9932 LP  0  0  0  0  0  0  0  0  0  0  0  0  # atno 17321 bound_to 7965
  140.2707  144.3967  150.6152 LP  0  0  0  0  0  0  0  0  0  0  0  0  # atno 17342 bound_to 10162
  140.6090  143.2169  151.6923 LP  0  0  0  0  0  0  0  0  0  0  0  0  # atno 17343 bound_to 10162
  156.7753  130.4842  149.5411 LP  0  0  0  0  0  0  0  0  0  0  0  0  # atno 17370 bound_to 10713
  156.1333  130.6193  151.0364 LP  0  0  0  0  0  0  0  0  0  0  0  0  # atno 17371 bound_to 10713
  140.2187  134.8773  157.3353 LP  0  0  0  0  0  0  0  0  0  0  0  0  # atno 17394 bound_to 11000
  140.2011  134.4254  155.7662 LP  0  0  0  0  0  0  0  0  0  0  0  0  # atno 17395 bound_to 11000

$$$$
