AV-unprocessed.smi:937|AV-procd|sdf|4211|dock3
  -GOLD-   22720 2123D 1   1.00000     0.00000
 Structure written by MMmdl.
 45 46  0  0  0  0  0  0  0  0  1 V2000
  149.9906  130.5777  155.1672 C   0  0  0  0  0  0  0  0  0  0  0  0
  150.1394  132.0789  155.2982 C   0  0  0  0  0  0  0  0  0  0  0  0
  150.9979  132.6388  156.2676 C   0  0  0  0  0  0  0  0  0  0  0  0
  151.0949  134.0412  156.3468 C   0  0  0  0  0  0  0  0  0  0  0  0
  150.3331  134.8274  155.4583 C   0  0  0  0  0  0  0  0  0  0  0  0
  150.4068  136.3410  155.5051 C   0  0  0  0  0  0  0  0  0  0  0  0
  151.5733  136.8368  156.3696 C   0  0  0  0  0  0  0  0  0  0  0  0
  151.3354  138.2017  156.8170 N   0  0  0  0  0  0  0  0  0  0  0  0
  152.2290  138.9481  157.4853 C   0  0  0  0  0  0  0  0  0  0  0  0
  153.3490  138.5457  157.7942 O   0  0  0  0  0  0  0  0  0  0  0  0
  151.8093  140.1873  157.7997 N   0  0  0  0  0  0  0  0  0  0  0  0
  152.5314  141.2400  158.5173 C   0  0  2  0  0  0  0  0  0  0  0  0
  152.9109  140.7701  159.9365 C   0  0  0  0  0  0  0  0  0  0  0  0
  153.5916  141.8926  160.7323 C   0  0  0  0  0  0  0  0  0  0  0  0
  152.7085  143.1484  160.7909 C   0  0  0  0  0  0  0  0  0  0  0  0
  152.3294  143.6431  159.3791 C   0  0  2  0  0  0  0  0  0  0  0  0
  151.4544  144.9129  159.4280 C   0  0  0  0  0  0  0  0  0  0  0  0
  152.1042  145.9147  160.0215 F   0  0  0  0  0  0  0  0  0  0  0  0
  151.1225  145.2873  158.1923 F   0  0  0  0  0  0  0  0  0  0  0  0
  150.3316  144.6679  160.1036 F   0  0  0  0  0  0  0  0  0  0  0  0
  151.6541  142.5056  158.5820 C   0  0  0  0  0  0  0  0  0  0  0  0
  149.5050  134.1680  154.5254 C   0  0  0  0  0  0  0  0  0  0  0  0
  149.4051  132.8237  154.4426 N   0  0  0  0  0  0  0  0  0  0  0  0
  150.7084  130.0534  155.7987 H   0  0  0  0  0  0  0  0  0  0  0  0
  150.1557  130.2662  154.1354 H   0  0  0  0  0  0  0  0  0  0  0  0
  148.9874  130.2708  155.4635 H   0  0  0  0  0  0  0  0  0  0  0  0
  151.5696  132.0115  156.9356 H   0  0  0  0  0  0  0  0  0  0  0  0
  151.7439  134.5039  157.0760 H   0  0  0  0  0  0  0  0  0  0  0  0
  150.5014  136.7284  154.4895 H   0  0  0  0  0  0  0  0  0  0  0  0
  149.4624  136.7236  155.8950 H   0  0  0  0  0  0  0  0  0  0  0  0
  151.6989  136.1855  157.2365 H   0  0  0  0  0  0  0  0  0  0  0  0
  152.5046  136.8036  155.8019 H   0  0  0  0  0  0  0  0  0  0  0  0
  150.4362  138.6076  156.6025 H   0  0  0  0  0  0  0  0  0  0  0  0
  150.8704  140.4234  157.5121 H   0  0  0  0  0  0  0  0  0  0  0  0
  153.4403  141.4948  157.9692 H   0  0  0  0  0  0  0  0  0  0  0  0
  152.0166  140.4419  160.4682 H   0  0  0  0  0  0  0  0  0  0  0  0
  153.5747  139.9063  159.8888 H   0  0  0  0  0  0  0  0  0  0  0  0
  153.8145  141.5481  161.7424 H   0  0  0  0  0  0  0  0  0  0  0  0
  154.5490  142.1388  160.2714 H   0  0  0  0  0  0  0  0  0  0  0  0
  151.8050  142.9293  161.3611 H   0  0  0  0  0  0  0  0  0  0  0  0
  153.2331  143.9333  161.3362 H   0  0  0  0  0  0  0  0  0  0  0  0
  153.2536  143.9060  158.8618 H   0  0  0  0  0  0  0  0  0  0  0  0
  151.4337  142.8455  157.5694 H   0  0  0  0  0  0  0  0  0  0  0  0
  150.6935  142.2629  159.0391 H   0  0  0  0  0  0  0  0  0  0  0  0
  148.9063  134.7320  153.8254 H   0  0  0  0  0  0  0  0  0  0  0  0
  1  2  1  0  0  0  0
  1 24  1  0  0  0  0
  1 25  1  0  0  0  0
  1 26  1  0  0  0  0
  2 23  1  0  0  0  0
  2  3  2  0  0  0  0
  3  4  1  0  0  0  0
  3 27  1  0  0  0  0
  4  5  2  0  0  0  0
  4 28  1  0  0  0  0
  5  6  1  0  0  0  0
  5 22  1  0  0  0  0
  6  7  1  0  0  0  0
  6 29  1  0  0  0  0
  6 30  1  0  0  0  0
  7  8  1  0  0  0  0
  7 31  1  0  0  0  0
  7 32  1  0  0  0  0
  8  9  1  0  0  0  0
  8 33  1  0  0  0  0
  9 10  2  0  0  0  0
  9 11  1  0  0  0  0
 11 12  1  0  0  0  0
 11 34  1  0  0  0  0
 12 21  1  0  0  0  0
 12 13  1  0  0  0  0
 12 35  1  0  0  0  0
 13 14  1  0  0  0  0
 13 36  1  0  0  0  0
 13 37  1  0  0  0  0
 14 15  1  0  0  0  0
 14 38  1  0  0  0  0
 14 39  1  0  0  0  0
 15 16  1  0  0  0  0
 15 40  1  0  0  0  0
 15 41  1  0  0  0  0
 16 17  1  0  0  0  0
 16 21  1  0  0  0  0
 16 42  1  0  0  0  0
 17 18  1  0  0  0  0
 17 19  1  0  0  0  0
 17 20  1  0  0  0  0
 21 43  1  0  0  0  0
 21 44  1  0  0  0  0
 22 23  2  0  0  0  0
 22 45  1  0  0  0  0
M  END
> <s_m_source_file>
AV-unprocessed.smi

> <i_m_source_file_index>
937

> <i_lp_mmshare_version>
43012

> <i_f3d_flags>
0

> <s_epik_input>
W0NIM11jMVtjSF1bY0hdYyhbY0hdbjEpW0NIMl1bQ0gyXVtOSF1DKD1PKVtOSF1bQ0BASF0yW0NIMl1bQ0gyXVtDSDJdW0NAQEhdKEMoRikoRilGKVtDSDJdMg==

> <s_epik_cmdline>
J2VwaWtfcHl0aG9uJywgJy1waCcsICc3LjAnLCAnLXRuJywgJzgnLCAnLW1hJywgJzIwMCcsICctbWV0YWxfYmluZGluZycsICctaW1hZScsICc8aW5maWxlLm1hZT4nLCAnLW9tYWUnLCAnPG91dGZpbGUubWFlPic=

> <r_epik_Ionization_Penalty>
0.0563445

> <r_epik_Ionization_Penalty_Charging>
0

> <r_epik_Ionization_Penalty_Neutral>
0.0563445

> <r_epik_State_Penalty>
0.0485409

> <r_epik_Charging_Adjusted_Penalty>
0.0485409

> <i_epik_Tot_Q>
0

> <i_epik_Tot_abs_Q>
0

> <r_epik_Metal_State_Penalty>
0.0443056

> <b_epik_Metal_Only>
0

> <s_lp_Force_Field>
OPLS_2005

> <r_lp_Energy>
18.9934

> <b_lp_Chiralities_Consistent>
1

> <s_lp_Variant>
AV-unprocessed.smi:937-3

> <Gold.Version>
5.8.1

> <Gold.Id.Protein>
6NUR|6NUR_protein|mol2

> <Gold.PLP.Fitness>
51.7536

> <Gold.PLP.PLP>
-46.2636

> <Gold.PLP.part.hbond>
-1.0000

> <Gold.PLP.part.metal>
0.0000

> <Gold.PLP.part.buried>
-6.5203

> <Gold.PLP.part.nonpolar>
-37.9291

> <Gold.PLP.part.repulsive>
0.1989

> <Gold.PLP.ligand.clash>
0.0000

> <Gold.PLP.ligand.torsion>
0.2895

> <Gold.PLP.Chemscore.Hbond>
1.0000

> <Gold.PLP.Chemscore.CHOScore>
1.0000

> <Gold.PLP.Chemscore.Metal>
0.0000

> <Gold.Chemscore.Hbonds>
donor molecule, donor type, donor heavy atom, donor atom, acceptor molecule, acceptor atom, score
      P1  H  7997  8009       L1    10  0.81
      L1  C    22    45       P1  7948  1.00

> <Gold.PLP.Chemscore.Internal.Correction>
0.0690

> <Gold.Rescore>
     Score         DG    S(hbond)    S(metal)    S(lipo)     H(rot)  DE(clash)    DE(int)     intcor
     17.05     -17.80       0.89        0.00     114.50       1.58       0.38       0.38       ----

> <Gold.Chemscore.Fitness>
17.0474

> <Gold.Chemscore.DG>
-17.8048

> <Gold.Chemscore.ZeroCoef>
-5.4800

> <Gold.Chemscore.Hbond>
0.8940

> <Gold.Chemscore.Metal>
0.0000

> <Gold.Chemscore.Lipo>
114.4972

> <Gold.Chemscore.Internal_Hbond>
0.0000

> <Gold.Chemscore.DEClash>
0.3761

> <Gold.Chemscore.DEInternal>
0.3813

> <Gold.Chemscore.Rot>
1.5849

> <Gold.Chemscore.Internal.Correction>
   9.000000E+99

> <Gold.Chemscore.Hbonds>
donor molecule, donor type, donor heavy atom, donor atom, acceptor molecule, acceptor atom, score
      P1  H  7997  8009       L1    10  0.48

> <Gold.Chemscore.Hbond.Weighted>
-2.9861

> <Gold.Chemscore.Metal.Weighted>
-0.0000

> <Gold.Chemscore.Lipo.Weighted>
-13.3962

> <Gold.Chemscore.Internal_Hbond.Weighted>
0.0000

> <Gold.Chemscore.DEClash.Weighted>
0.3761

> <Gold.Chemscore.DEInternal.Weighted>
0.3813

> <Gold.Chemscore.Rot.Weighted>
4.0574

> <Gold.Chemscore.Internal.Correction.Weighted>
   9.000000E+99

> <Gold.Protein.RotatedTorsions>
[ 6907 6896 6895 6894 ] final -164.10 input  -60.11 | X-H torsion
[ 7974 7965 7964 7962 ] final  -39.80 input  175.53 | X-H torsion
[ 8008 7997 7996 7995 ] final  144.60 input   59.86 | X-H torsion
[ 10167 10162 10161 10158 ] final  171.35 input  -65.29 | X-H torsion
[ 10718 10713 10712 10709 ] final   28.53 input   66.30 | X-H torsion
[ 10763 10752 10751 10750 ] final  106.71 input  -60.55 | X-H torsion
[ 11005 11000 10999 10996 ] final    2.12 input  -57.11 | X-H torsion

> <Gold.Protein.ActiveResidues>
 VAL166  LYS551  ARG553  GLY616  TRP617  ASP618  TYR619  PRO620  LYS621  CYS622 
 ASP623  PHE694  ASN695  SER759  ASP760  ASP761  ALA762  ILE779  LEU786  VAL792 
 PHE793  MET794  SER795  GLU796  ALA797  LYS798  CYS799  TRP800  GLU811  SER814 

> <Gold.Protein.RotatedAtoms>
  151.4065  133.3741  159.2738 H   0  0  0  0  0  0  0  0  0  0  0  0  # atno 6907 bound_to 6896
  150.9395  134.8806  159.7613 H   0  0  0  0  0  0  0  0  0  0  0  0  # atno 6908 bound_to 6896
  152.5065  134.4014  159.9470 H   0  0  0  0  0  0  0  0  0  0  0  0  # atno 6909 bound_to 6896
  146.0363  140.6667  142.9108 H   0  0  0  0  0  0  0  0  0  0  0  0  # atno 7974 bound_to 7965
  156.2904  140.2231  156.5079 H   0  0  0  0  0  0  0  0  0  0  0  0  # atno 8008 bound_to 7997
  154.7634  140.0472  157.1013 H   0  0  0  0  0  0  0  0  0  0  0  0  # atno 8009 bound_to 7997
  154.9963  140.3096  155.4888 H   0  0  0  0  0  0  0  0  0  0  0  0  # atno 8010 bound_to 7997
  139.5044  144.3496  151.9936 H   0  0  0  0  0  0  0  0  0  0  0  0  # atno 10167 bound_to 10162
  157.2347  130.7040  149.6330 H   0  0  0  0  0  0  0  0  0  0  0  0  # atno 10718 bound_to 10713
  153.3967  135.3868  155.1960 H   0  0  0  0  0  0  0  0  0  0  0  0  # atno 10763 bound_to 10752
  154.8725  135.3761  154.4670 H   0  0  0  0  0  0  0  0  0  0  0  0  # atno 10764 bound_to 10752
  153.5162  135.7087  153.5816 H   0  0  0  0  0  0  0  0  0  0  0  0  # atno 10765 bound_to 10752
  140.6079  133.9776  155.8163 H   0  0  0  0  0  0  0  0  0  0  0  0  # atno 11005 bound_to 11000
  144.7053  140.3827  143.7123 LP  0  0  0  0  0  0  0  0  0  0  0  0  # atno 17320 bound_to 7965
  145.6958  139.1649  143.2621 LP  0  0  0  0  0  0  0  0  0  0  0  0  # atno 17321 bound_to 7965
  140.2933  144.3729  150.6082 LP  0  0  0  0  0  0  0  0  0  0  0  0  # atno 17342 bound_to 10162
  140.5930  143.2167  151.7217 LP  0  0  0  0  0  0  0  0  0  0  0  0  # atno 17343 bound_to 10162
  155.9673  130.4477  150.5592 LP  0  0  0  0  0  0  0  0  0  0  0  0  # atno 17370 bound_to 10713
  157.3442  131.0722  151.1764 LP  0  0  0  0  0  0  0  0  0  0  0  0  # atno 17371 bound_to 10713
  141.0828  134.0036  157.3359 LP  0  0  0  0  0  0  0  0  0  0  0  0  # atno 17394 bound_to 11000
  139.9205  135.0200  156.8044 LP  0  0  0  0  0  0  0  0  0  0  0  0  # atno 17395 bound_to 11000

$$$$
