AV-unprocessed.smi:1406|AV-procd|sdf|5720|dock4
  -GOLD-   22720 5353D 1   1.00000     0.00000
 Structure written by MMmdl.
 41 43  0  0  0  0  0  0  0  0  2 V2000
  147.7992  137.0335  155.6310 C   0  0  0  0  0  0  0  0  0  0  0  0
  149.3121  136.7505  155.7287 C   0  0  1  0  0  0  0  0  0  0  0  0
  149.7403  135.5074  154.9319 C   0  0  0  0  0  0  0  0  0  0  0  0
  150.9318  135.2457  154.7634 O   0  0  0  0  0  0  0  0  0  0  0  0
  148.7491  134.7461  154.4415 N   0  0  0  0  0  0  0  0  0  0  0  0
  148.9316  133.5139  153.6806 C   0  0  1  0  0  0  0  0  0  0  0  0
  149.5159  132.3694  154.5273 C   0  0  0  0  0  0  0  0  0  0  0  0
  148.8084  131.0924  154.0320 C   0  0  0  0  0  0  0  0  0  0  0  0
  147.9591  131.5271  152.9069 N   0  3  1  0  0  0  0  0  0  0  0  0
  146.7827  130.6894  152.5871 C   0  0  0  0  0  0  0  0  0  0  0  0
  146.0811  131.2559  151.3365 C   0  0  0  0  0  0  0  0  0  0  0  0
  145.7465  132.7528  151.4973 C   0  0  0  0  0  0  0  0  0  0  0  0
  146.9888  133.5589  151.9228 C   0  0  0  0  0  0  0  0  0  0  0  0
  147.6074  132.9285  153.1824 C   0  0  2  0  0  0  0  0  0  0  0  0
  150.1107  137.9045  155.3345 N   0  0  0  0  0  0  0  0  0  0  0  0
  150.1328  138.5806  154.1836 C   0  0  0  0  0  0  0  0  0  0  0  0
  150.9579  139.6180  154.1838 N   0  0  0  0  0  0  0  0  0  0  0  0
  151.4429  139.5234  155.4574 C   0  0  0  0  0  0  0  0  0  0  0  0
  150.9612  138.5212  156.1926 N   0  0  0  0  0  0  0  0  0  0  0  0
  147.2159  136.1810  155.9808 H   0  0  0  0  0  0  0  0  0  0  0  0
  147.4876  137.2499  154.6083 H   0  0  0  0  0  0  0  0  0  0  0  0
  147.5244  137.8905  156.2468 H   0  0  0  0  0  0  0  0  0  0  0  0
  149.5346  136.5507  156.7783 H   0  0  0  0  0  0  0  0  0  0  0  0
  147.7986  135.0325  154.6263 H   0  0  0  0  0  0  0  0  0  0  0  0
  149.5968  133.6834  152.8311 H   0  0  0  0  0  0  0  0  0  0  0  0
  150.5982  132.3068  154.4085 H   0  0  0  0  0  0  0  0  0  0  0  0
  149.3116  132.5139  155.5892 H   0  0  0  0  0  0  0  0  0  0  0  0
  149.5122  130.3246  153.7097 H   0  0  0  0  0  0  0  0  0  0  0  0
  148.1914  130.6737  154.8286 H   0  0  0  0  0  0  0  0  0  0  0  0
  147.1021  129.6623  152.4067 H   0  0  0  0  0  0  0  0  0  0  0  0
  146.0970  130.6708  153.4355 H   0  0  0  0  0  0  0  0  0  0  0  0
  146.7301  131.1250  150.4693 H   0  0  0  0  0  0  0  0  0  0  0  0
  145.1727  130.6900  151.1283 H   0  0  0  0  0  0  0  0  0  0  0  0
  145.3421  133.1500  150.5656 H   0  0  0  0  0  0  0  0  0  0  0  0
  144.9639  132.8699  152.2483 H   0  0  0  0  0  0  0  0  0  0  0  0
  147.7186  133.5746  151.1120 H   0  0  0  0  0  0  0  0  0  0  0  0
  146.7090  134.5953  152.1133 H   0  0  0  0  0  0  0  0  0  0  0  0
  146.8775  132.9506  153.9954 H   0  0  0  0  0  0  0  0  0  0  0  0
  149.5296  138.3111  153.3289 H   0  0  0  0  0  0  0  0  0  0  0  0
  152.1674  140.2177  155.8568 H   0  0  0  0  0  0  0  0  0  0  0  0
  148.5513  131.5384  152.0886 H   0  0  0  0  0  0  0  0  0  0  0  0
  1  2  1  0  0  0  0
  1 20  1  0  0  0  0
  1 21  1  0  0  0  0
  1 22  1  0  0  0  0
  2  3  1  0  0  0  0
  2 15  1  0  0  0  0
  2 23  1  0  0  0  0
  3  4  2  0  0  0  0
  3  5  1  0  0  0  0
  5  6  1  0  0  0  0
  5 24  1  0  0  0  0
  6 14  1  0  0  0  0
  6  7  1  0  0  0  0
  6 25  1  0  0  0  0
  7  8  1  0  0  0  0
  7 26  1  0  0  0  0
  7 27  1  0  0  0  0
  8  9  1  0  0  0  0
  8 28  1  0  0  0  0
  8 29  1  0  0  0  0
  9 14  1  0  0  0  0
  9 10  1  0  0  0  0
  9 41  1  0  0  0  0
 10 11  1  0  0  0  0
 10 30  1  0  0  0  0
 10 31  1  0  0  0  0
 11 12  1  0  0  0  0
 11 32  1  0  0  0  0
 11 33  1  0  0  0  0
 12 13  1  0  0  0  0
 12 34  1  0  0  0  0
 12 35  1  0  0  0  0
 13 14  1  0  0  0  0
 13 36  1  0  0  0  0
 13 37  1  0  0  0  0
 14 38  1  0  0  0  0
 15 19  1  0  0  0  0
 15 16  1  0  0  0  0
 16 17  2  0  0  0  0
 16 39  1  0  0  0  0
 17 18  1  0  0  0  0
 18 19  2  0  0  0  0
 18 40  1  0  0  0  0
M  CHG  1   9   1
M  END
> <s_m_source_file>
AV-unprocessed.smi

> <i_m_source_file_index>
1406

> <i_lp_mmshare_version>
43012

> <i_f3d_flags>
0

> <s_epik_input>
bjFbY0hdbltjSF1uMVtDQEhdKFtDSDNdKUMoPU8pW05IXVtDQEhdKFtDSDJdW0NIMl0yKVtDQEBIXShOMjMpW0NIMl1bQ0gyXVtDSDJdW0NIMl0z

> <s_epik_cmdline>
J2VwaWtfcHl0aG9uJywgJy1waCcsICc3LjAnLCAnLXRuJywgJzgnLCAnLW1hJywgJzIwMCcsICctbWV0YWxfYmluZGluZycsICctaW1hZScsICc8aW5maWxlLm1hZT4nLCAnLW9tYWUnLCAnPG91dGZpbGUubWFlPic=

> <r_lp_tautomer_probability>
1

> <r_epik_Ionization_Penalty>
0.00197066

> <r_epik_Ionization_Penalty_Charging>
0.00196223

> <r_epik_Ionization_Penalty_Neutral>
8.43107e-06

> <r_epik_State_Penalty>
0.00133866

> <r_epik_Charging_Adjusted_Penalty>
0.00330089

> <i_epik_Tot_Q>
1

> <i_epik_Tot_abs_Q>
1

> <r_epik_Metal_State_Penalty>
-0

> <b_epik_Metal_Only>
0

> <s_lp_Force_Field>
OPLS_2005

> <r_lp_Energy>
39.8871

> <b_lp_Chiralities_Consistent>
1

> <s_lp_Variant>
AV-unprocessed.smi:1406-12

> <Gold.Version>
5.8.1

> <Gold.Id.Protein>
6NUR|6NUR_protein|mol2

> <Gold.PLP.Fitness>
40.6247

> <Gold.PLP.PLP>
-28.6802

> <Gold.PLP.part.hbond>
-3.9811

> <Gold.PLP.part.metal>
0.0000

> <Gold.PLP.part.buried>
2.9683

> <Gold.PLP.part.nonpolar>
-25.3606

> <Gold.PLP.part.repulsive>
0.3395

> <Gold.PLP.ligand.clash>
0.0857

> <Gold.PLP.ligand.torsion>
0.3679

> <Gold.PLP.Chemscore.Hbond>
2.8464

> <Gold.PLP.Chemscore.CHOScore>
1.3731

> <Gold.PLP.Chemscore.Metal>
0.0000

> <Gold.Chemscore.Hbonds>
donor molecule, donor type, donor heavy atom, donor atom, acceptor molecule, acceptor atom, score
      L1  H     9    41       P1 10747  1.00
      P1  H  7989  7998       L1    17  1.00
      P1  H 10752 10765       L1     4  0.93
      L1  C    16    39       P1  7948  0.89
      L1  C    16    39       P1  7957  0.32

> <Gold.PLP.Chemscore.Internal.Correction>
0.1075

> <Gold.Rescore>
     Score         DG    S(hbond)    S(metal)    S(lipo)     H(rot)  DE(clash)    DE(int)     intcor
     15.33     -15.90       2.70        0.00      53.31       1.89       0.07       0.49       ----

> <Gold.Chemscore.Fitness>
15.3346

> <Gold.Chemscore.DG>
-15.9006

> <Gold.Chemscore.ZeroCoef>
-5.4800

> <Gold.Chemscore.Hbond>
2.6985

> <Gold.Chemscore.Metal>
0.0000

> <Gold.Chemscore.Lipo>
53.3078

> <Gold.Chemscore.Internal_Hbond>
0.0000

> <Gold.Chemscore.DEClash>
0.0715

> <Gold.Chemscore.DEInternal>
0.4945

> <Gold.Chemscore.Rot>
1.8865

> <Gold.Chemscore.Internal.Correction>
   9.000000E+99

> <Gold.Chemscore.Hbonds>
donor molecule, donor type, donor heavy atom, donor atom, acceptor molecule, acceptor atom, score
      L1  H     9    41       P1 10747  0.92
      P1  H  7989  7998       L1    17  0.68
      P1  H 10752 10765       L1     4  0.85

> <Gold.Chemscore.Hbond.Weighted>
-9.0131

> <Gold.Chemscore.Metal.Weighted>
-0.0000

> <Gold.Chemscore.Lipo.Weighted>
-6.2370

> <Gold.Chemscore.Internal_Hbond.Weighted>
0.0000

> <Gold.Chemscore.DEClash.Weighted>
0.0715

> <Gold.Chemscore.DEInternal.Weighted>
0.4945

> <Gold.Chemscore.Rot.Weighted>
4.8295

> <Gold.Chemscore.Internal.Correction.Weighted>
   9.000000E+99

> <Gold.Protein.RotatedTorsions>
[ 6907 6896 6895 6894 ] final  -85.91 input  -60.11 | X-H torsion
[ 7974 7965 7964 7962 ] final   82.46 input  175.53 | X-H torsion
[ 8008 7997 7996 7995 ] final -163.16 input   59.86 | X-H torsion
[ 10167 10162 10161 10158 ] final   -9.27 input  -65.29 | X-H torsion
[ 10718 10713 10712 10709 ] final -176.65 input   66.30 | X-H torsion
[ 10763 10752 10751 10750 ] final  179.67 input  -60.55 | X-H torsion
[ 11005 11000 10999 10996 ] final -170.60 input  -57.11 | X-H torsion

> <Gold.Protein.ActiveResidues>
 VAL166  LYS551  ARG553  GLY616  TRP617  ASP618  TYR619  PRO620  LYS621  CYS622 
 ASP623  PHE694  ASN695  SER759  ASP760  ASP761  ALA762  ILE779  LEU786  VAL792 
 PHE793  MET794  SER795  GLU796  ALA797  LYS798  CYS799  TRP800  GLU811  SER814 

> <Gold.Protein.RotatedAtoms>
  150.6868  134.3131  159.4754 H   0  0  0  0  0  0  0  0  0  0  0  0  # atno 6907 bound_to 6896
  152.1015  134.9336  160.0578 H   0  0  0  0  0  0  0  0  0  0  0  0  # atno 6908 bound_to 6896
  152.0613  133.4029  159.4456 H   0  0  0  0  0  0  0  0  0  0  0  0  # atno 6909 bound_to 6896
  145.6248  139.2393  143.2118 H   0  0  0  0  0  0  0  0  0  0  0  0  # atno 7974 bound_to 7965
  155.8172  140.0914  157.1870 H   0  0  0  0  0  0  0  0  0  0  0  0  # atno 8008 bound_to 7997
  154.3979  140.1443  156.3517 H   0  0  0  0  0  0  0  0  0  0  0  0  # atno 8009 bound_to 7997
  155.8303  140.3443  155.5571 H   0  0  0  0  0  0  0  0  0  0  0  0  # atno 8010 bound_to 7997
  140.7083  143.5876  150.8927 H   0  0  0  0  0  0  0  0  0  0  0  0  # atno 10167 bound_to 10162
  156.8179  130.9609  151.3113 H   0  0  0  0  0  0  0  0  0  0  0  0  # atno 10718 bound_to 10713
  154.5236  135.2795  155.1241 H   0  0  0  0  0  0  0  0  0  0  0  0  # atno 10763 bound_to 10752
  154.2789  135.6289  153.5343 H   0  0  0  0  0  0  0  0  0  0  0  0  # atno 10764 bound_to 10752
  152.9942  135.5646  154.5731 H   0  0  0  0  0  0  0  0  0  0  0  0  # atno 10765 bound_to 10752
  140.5176  134.5740  157.5038 H   0  0  0  0  0  0  0  0  0  0  0  0  # atno 11005 bound_to 11000
  146.1403  140.7066  142.9370 LP  0  0  0  0  0  0  0  0  0  0  0  0  # atno 17320 bound_to 7965
  144.7217  140.4394  143.7003 LP  0  0  0  0  0  0  0  0  0  0  0  0  # atno 17321 bound_to 7965
  139.9602  143.6173  152.3004 LP  0  0  0  0  0  0  0  0  0  0  0  0  # atno 17342 bound_to 10162
  139.6723  144.7660  151.1761 LP  0  0  0  0  0  0  0  0  0  0  0  0  # atno 17343 bound_to 10162
  157.6472  130.8854  149.9562 LP  0  0  0  0  0  0  0  0  0  0  0  0  # atno 17370 bound_to 10713
  156.1006  130.3656  150.0225 LP  0  0  0  0  0  0  0  0  0  0  0  0  # atno 17371 bound_to 10713
  139.9623  134.7431  156.0210 LP  0  0  0  0  0  0  0  0  0  0  0  0  # atno 17394 bound_to 11000
  141.1351  133.6577  156.3572 LP  0  0  0  0  0  0  0  0  0  0  0  0  # atno 17395 bound_to 11000

$$$$
