AV-unprocessed.smi:1072|AV-procd|sdf|4684|dock7
  -GOLD-   22720 3203D 1   1.00000     0.00000
 Structure written by MMmdl.
 46 47  0  0  0  0  0  0  0  0  1 V2000
  145.0154  132.5556  149.9319 C   0  0  0  0  0  0  0  0  0  0  0  0
  144.7678  133.7961  150.7642 C   0  0  0  0  0  0  0  0  0  0  0  0
  143.9084  133.8584  151.7276 N   0  0  0  0  0  0  0  0  0  0  0  0
  143.7674  135.0648  152.4276 C   0  0  0  0  0  0  0  0  0  0  0  0
  142.7426  135.0565  153.5492 C   0  0  0  0  0  0  0  0  0  0  0  0
  144.5110  136.1661  152.1130 C   0  0  0  0  0  0  0  0  0  0  0  0
  144.3816  137.4925  152.8609 C   0  0  0  0  0  0  0  0  0  0  0  0
  145.6781  138.0483  153.4551 C   0  0  0  0  0  0  0  0  0  0  0  0
  146.6782  137.3346  153.5262 O   0  0  0  0  0  0  0  0  0  0  0  0
  145.6248  139.3209  153.8878 N   0  0  0  0  0  0  0  0  0  0  0  0
  146.6585  140.1242  154.5557 C   0  0  1  0  0  0  0  0  0  0  0  0
  145.9071  141.3296  155.1603 C   0  0  0  0  0  0  0  0  0  0  0  0
  147.3386  139.2955  155.6800 C   0  0  0  0  0  0  0  0  0  0  0  0
  148.5346  140.0180  156.3254 C   0  0  0  0  0  0  0  0  0  0  0  0
  149.5734  140.4501  155.2748 C   0  0  2  0  0  0  0  0  0  0  0  0
  150.7654  141.1650  155.9272 C   0  0  0  0  0  0  0  0  0  0  0  0
  148.9138  141.3259  154.1939 C   0  0  0  0  0  0  0  0  0  0  0  0
  147.7202  140.6131  153.5321 C   0  0  0  0  0  0  0  0  0  0  0  0
  145.4884  136.0836  151.0103 C   0  0  0  0  0  0  0  0  0  0  0  0
  146.2103  137.0106  150.6460 O   0  0  0  0  0  0  0  0  0  0  0  0
  145.5580  134.8826  150.3936 N   0  0  0  0  0  0  0  0  0  0  0  0
  146.2139  134.7746  149.6338 H   0  0  0  0  0  0  0  0  0  0  0  0
  145.3635  131.7407  150.5670 H   0  0  0  0  0  0  0  0  0  0  0  0
  145.7659  132.7315  149.1600 H   0  0  0  0  0  0  0  0  0  0  0  0
  144.0922  132.2406  149.4448 H   0  0  0  0  0  0  0  0  0  0  0  0
  141.9497  135.7775  153.3493 H   0  0  0  0  0  0  0  0  0  0  0  0
  143.2098  135.3076  154.5016 H   0  0  0  0  0  0  0  0  0  0  0  0
  142.2810  134.0741  153.6558 H   0  0  0  0  0  0  0  0  0  0  0  0
  143.9492  138.2593  152.2177 H   0  0  0  0  0  0  0  0  0  0  0  0
  143.6538  137.3612  153.6624 H   0  0  0  0  0  0  0  0  0  0  0  0
  144.7400  139.7907  153.7611 H   0  0  0  0  0  0  0  0  0  0  0  0
  146.5672  142.0099  155.6961 H   0  0  0  0  0  0  0  0  0  0  0  0
  145.1421  141.0043  155.8666 H   0  0  0  0  0  0  0  0  0  0  0  0
  145.4079  141.9124  154.3852 H   0  0  0  0  0  0  0  0  0  0  0  0
  146.6096  139.0328  156.4476 H   0  0  0  0  0  0  0  0  0  0  0  0
  147.7068  138.3485  155.2862 H   0  0  0  0  0  0  0  0  0  0  0  0
  148.1894  140.8855  156.8883 H   0  0  0  0  0  0  0  0  0  0  0  0
  149.0022  139.3553  157.0544 H   0  0  0  0  0  0  0  0  0  0  0  0
  149.9554  139.5502  154.7903 H   0  0  0  0  0  0  0  0  0  0  0  0
  150.4513  142.0777  156.4347 H   0  0  0  0  0  0  0  0  0  0  0  0
  151.5145  141.4386  155.1838 H   0  0  0  0  0  0  0  0  0  0  0  0
  151.2517  140.5248  156.6639 H   0  0  0  0  0  0  0  0  0  0  0  0
  148.5919  142.2732  154.6268 H   0  0  0  0  0  0  0  0  0  0  0  0
  149.6479  141.5807  153.4286 H   0  0  0  0  0  0  0  0  0  0  0  0
  148.1199  139.7732  152.9651 H   0  0  0  0  0  0  0  0  0  0  0  0
  147.2586  141.2737  152.7968 H   0  0  0  0  0  0  0  0  0  0  0  0
  1  2  1  0  0  0  0
  1 23  1  0  0  0  0
  1 24  1  0  0  0  0
  1 25  1  0  0  0  0
  2 21  1  0  0  0  0
  2  3  2  0  0  0  0
  3  4  1  0  0  0  0
  4  5  1  0  0  0  0
  4  6  2  0  0  0  0
  5 26  1  0  0  0  0
  5 27  1  0  0  0  0
  5 28  1  0  0  0  0
  6  7  1  0  0  0  0
  6 19  1  0  0  0  0
  7  8  1  0  0  0  0
  7 29  1  0  0  0  0
  7 30  1  0  0  0  0
  8  9  2  0  0  0  0
  8 10  1  0  0  0  0
 10 11  1  0  0  0  0
 10 31  1  0  0  0  0
 11 18  1  0  0  0  0
 11 12  1  0  0  0  0
 11 13  1  0  0  0  0
 12 32  1  0  0  0  0
 12 33  1  0  0  0  0
 12 34  1  0  0  0  0
 13 14  1  0  0  0  0
 13 35  1  0  0  0  0
 13 36  1  0  0  0  0
 14 15  1  0  0  0  0
 14 37  1  0  0  0  0
 14 38  1  0  0  0  0
 15 16  1  0  0  0  0
 15 17  1  0  0  0  0
 15 39  1  0  0  0  0
 16 40  1  0  0  0  0
 16 41  1  0  0  0  0
 16 42  1  0  0  0  0
 17 18  1  0  0  0  0
 17 43  1  0  0  0  0
 17 44  1  0  0  0  0
 18 45  1  0  0  0  0
 18 46  1  0  0  0  0
 19 20  2  0  0  0  0
 19 21  1  0  0  0  0
 21 22  1  0  0  0  0
M  END
> <s_m_source_file>
AV-unprocessed.smi

> <i_m_source_file_index>
1072

> <i_lp_mmshare_version>
43012

> <i_f3d_flags>
0

> <s_epik_input>
W0NIM11jMW5jKFtDSDNdKWMoYyg9TylbbkhdMSlbQ0gyXUMoPU8pW05IXVtDQEBdMihbQ0gzXSlbQ0gyXVtDSDJdW0NAQEhdKFtDSDNdKVtDSDJdW0NIMl0y

> <s_epik_cmdline>
J2VwaWtfcHl0aG9uJywgJy1waCcsICc3LjAnLCAnLXRuJywgJzgnLCAnLW1hJywgJzIwMCcsICctbWV0YWxfYmluZGluZycsICctaW1hZScsICc8aW5maWxlLm1hZT4nLCAnLW9tYWUnLCAnPG91dGZpbGUubWFlPic=

> <r_lp_tautomer_probability>
0.839158

> <r_epik_Ionization_Penalty>
0.000352328

> <r_epik_Ionization_Penalty_Charging>
0.000314696

> <r_epik_Ionization_Penalty_Neutral>
3.76315e-05

> <r_epik_State_Penalty>
0.09125

> <r_epik_Charging_Adjusted_Penalty>
0.0915647

> <i_epik_Tot_Q>
0

> <i_epik_Tot_abs_Q>
0

> <r_epik_Metal_State_Penalty>
0.245598

> <b_epik_Metal_Only>
0

> <s_lp_Force_Field>
OPLS_2005

> <r_lp_Energy>
14.8959

> <b_lp_Chiralities_Consistent>
1

> <s_lp_Variant>
AV-unprocessed.smi:1072-2

> <Gold.Version>
5.8.1

> <Gold.Id.Protein>
6NUR|6NUR_protein|mol2

> <Gold.PLP.Fitness>
34.3521

> <Gold.PLP.PLP>
-29.2266

> <Gold.PLP.part.hbond>
-2.6725

> <Gold.PLP.part.metal>
0.0000

> <Gold.PLP.part.buried>
-1.3211

> <Gold.PLP.part.nonpolar>
-27.0604

> <Gold.PLP.part.repulsive>
2.9223

> <Gold.PLP.ligand.clash>
0.0000

> <Gold.PLP.ligand.torsion>
0.4596

> <Gold.PLP.Chemscore.Hbond>
2.0138

> <Gold.PLP.Chemscore.CHOScore>
0.0000

> <Gold.PLP.Chemscore.Metal>
0.0000

> <Gold.Chemscore.Hbonds>
donor molecule, donor type, donor heavy atom, donor atom, acceptor molecule, acceptor atom, score
      L1  H    10    31       P1 10175  0.85
      L1  H    21    22       P1  7921  0.75
      P1  H  7954  7966       L1    20  0.41

> <Gold.PLP.Chemscore.Internal.Correction>
0.0034

> <Gold.Rescore>
     Score         DG    S(hbond)    S(metal)    S(lipo)     H(rot)  DE(clash)    DE(int)     intcor
     12.75     -14.49       1.51        0.00      66.11       1.47       1.51       0.23       ----

> <Gold.Chemscore.Fitness>
12.7522

> <Gold.Chemscore.DG>
-14.4893

> <Gold.Chemscore.ZeroCoef>
-5.4800

> <Gold.Chemscore.Hbond>
1.5075

> <Gold.Chemscore.Metal>
0.0000

> <Gold.Chemscore.Lipo>
66.1110

> <Gold.Chemscore.Internal_Hbond>
0.0000

> <Gold.Chemscore.DEClash>
1.5121

> <Gold.Chemscore.DEInternal>
0.2250

> <Gold.Chemscore.Rot>
1.4690

> <Gold.Chemscore.Internal.Correction>
   9.000000E+99

> <Gold.Chemscore.Hbonds>
donor molecule, donor type, donor heavy atom, donor atom, acceptor molecule, acceptor atom, score
      L1  H    10    31       P1 10175  0.83
      L1  H    21    22       P1  7921  0.28
      P1  H  7954  7966       L1    20  0.40

> <Gold.Chemscore.Hbond.Weighted>
-5.0350

> <Gold.Chemscore.Metal.Weighted>
-0.0000

> <Gold.Chemscore.Lipo.Weighted>
-7.7350

> <Gold.Chemscore.Internal_Hbond.Weighted>
0.0000

> <Gold.Chemscore.DEClash.Weighted>
1.5121

> <Gold.Chemscore.DEInternal.Weighted>
0.2250

> <Gold.Chemscore.Rot.Weighted>
3.7607

> <Gold.Chemscore.Internal.Correction.Weighted>
   9.000000E+99

> <Gold.Protein.RotatedTorsions>
[ 6907 6896 6895 6894 ] final  130.58 input  -60.11 | X-H torsion
[ 7974 7965 7964 7962 ] final   45.34 input  175.53 | X-H torsion
[ 8008 7997 7996 7995 ] final   72.88 input   59.86 | X-H torsion
[ 10167 10162 10161 10158 ] final -127.29 input  -65.29 | X-H torsion
[ 10718 10713 10712 10709 ] final -128.05 input   66.30 | X-H torsion
[ 10763 10752 10751 10750 ] final  111.91 input  -60.55 | X-H torsion
[ 11005 11000 10999 10996 ] final  -72.31 input  -57.11 | X-H torsion

> <Gold.Protein.ActiveResidues>
 VAL166  LYS551  ARG553  GLY616  TRP617  ASP618  TYR619  PRO620  LYS621  CYS622 
 ASP623  PHE694  ASN695  SER759  ASP760  ASP761  ALA762  ILE779  LEU786  VAL792 
 PHE793  MET794  SER795  GLU796  ALA797  LYS798  CYS799  TRP800  GLU811  SER814 

> <Gold.Protein.RotatedAtoms>
  152.3511  133.6181  159.5945 H   0  0  0  0  0  0  0  0  0  0  0  0  # atno 6907 bound_to 6896
  150.7539  133.9572  159.3513 H   0  0  0  0  0  0  0  0  0  0  0  0  # atno 6908 bound_to 6896
  151.7424  135.0852  160.0369 H   0  0  0  0  0  0  0  0  0  0  0  0  # atno 6909 bound_to 6896
  146.0488  139.4975  142.9731 H   0  0  0  0  0  0  0  0  0  0  0  0  # atno 7974 bound_to 7965
  155.7753  140.3483  155.5269 H   0  0  0  0  0  0  0  0  0  0  0  0  # atno 8008 bound_to 7997
  155.8781  140.0997  157.1525 H   0  0  0  0  0  0  0  0  0  0  0  0  # atno 8009 bound_to 7997
  154.4022  140.1327  156.4150 H   0  0  0  0  0  0  0  0  0  0  0  0  # atno 8010 bound_to 7997
  139.9625  143.5935  152.2440 H   0  0  0  0  0  0  0  0  0  0  0  0  # atno 10167 bound_to 10162
  156.1914  130.6798  151.0429 H   0  0  0  0  0  0  0  0  0  0  0  0  # atno 10718 bound_to 10713
  153.4701  135.3702  155.2386 H   0  0  0  0  0  0  0  0  0  0  0  0  # atno 10763 bound_to 10752
  154.8757  135.3929  154.3822 H   0  0  0  0  0  0  0  0  0  0  0  0  # atno 10764 bound_to 10752
  153.4409  135.7084  153.6234 H   0  0  0  0  0  0  0  0  0  0  0  0  # atno 10765 bound_to 10752
  141.1606  133.6843  156.7039 H   0  0  0  0  0  0  0  0  0  0  0  0  # atno 11005 bound_to 11000
  145.6759  141.0204  143.1632 LP  0  0  0  0  0  0  0  0  0  0  0  0  # atno 17320 bound_to 7965
  144.7112  139.8365  143.7414 LP  0  0  0  0  0  0  0  0  0  0  0  0  # atno 17321 bound_to 7965
  139.6543  144.7662  151.2086 LP  0  0  0  0  0  0  0  0  0  0  0  0  # atno 17342 bound_to 10162
  140.7548  143.6110  150.8605 LP  0  0  0  0  0  0  0  0  0  0  0  0  # atno 17343 bound_to 10162
  157.6931  131.0803  150.7048 LP  0  0  0  0  0  0  0  0  0  0  0  0  # atno 17370 bound_to 10713
  156.7104  130.4650  149.5549 LP  0  0  0  0  0  0  0  0  0  0  0  0  # atno 17371 bound_to 10713
  140.2938  134.8219  157.4039 LP  0  0  0  0  0  0  0  0  0  0  0  0  # atno 17394 bound_to 11000
  140.1323  134.5079  155.8096 LP  0  0  0  0  0  0  0  0  0  0  0  0  # atno 17395 bound_to 11000

$$$$
