AV-unprocessed.smi:793|AV-procd|sdf|3755|dock1
  -GOLD-   22720 1183D 1   1.00000     0.00000
 Structure written by MMmdl.
 38 39  0  0  0  0  0  0  0  0  2 V2000
  147.7846  138.6856  156.9374 C   0  0  0  0  0  0  0  0  0  0  0  0
  148.8451  139.1173  157.9581 C   0  0  0  0  0  0  0  0  0  0  0  0
  149.9616  138.0707  158.1343 C   0  0  1  0  0  0  0  0  0  0  0  0
  150.9383  138.6230  159.0158 O   0  0  0  0  0  0  0  0  0  0  0  0
  152.0746  139.2277  158.4020 C   0  0  0  0  0  0  0  0  0  0  0  0
  152.9744  139.8544  159.4725 C   0  0  0  0  0  0  0  0  0  0  0  0
  152.3434  141.2135  159.8026 C   0  0  0  0  0  0  0  0  0  0  0  0
  151.3919  141.5447  158.6429 C   0  0  0  0  0  0  0  0  0  0  0  0
  151.5877  140.4367  157.6039 C   0  0  0  0  0  0  0  0  0  0  0  0
  149.4149  136.7495  158.7018 C   0  0  0  0  0  0  0  0  0  0  0  0
  149.6552  135.6909  158.1207 O   0  0  0  0  0  0  0  0  0  0  0  0
  148.6926  136.8574  159.8318 N   0  0  0  0  0  0  0  0  0  0  0  0
  148.0607  135.8369  160.5961 C   0  0  0  0  0  0  0  0  0  0  0  0
  147.9935  134.4791  160.1937 C   0  0  0  0  0  0  0  0  0  0  0  0
  147.3802  133.5156  160.9146 N   0  0  0  0  0  0  0  0  0  0  0  0
  146.7953  133.8720  162.0772 C   0  0  0  0  0  0  0  0  0  0  0  0
  146.7847  135.1928  162.5645 C   0  0  0  0  0  0  0  0  0  0  0  0
  147.4241  136.1942  161.8085 C   0  0  0  0  0  0  0  0  0  0  0  0
  147.4198  137.4851  162.2602 O   0  5  0  0  0  0  0  0  0  0  0  0
  147.0081  139.4444  156.8397 H   0  0  0  0  0  0  0  0  0  0  0  0
  147.3042  137.7548  157.2396 H   0  0  0  0  0  0  0  0  0  0  0  0
  148.2243  138.5313  155.9517 H   0  0  0  0  0  0  0  0  0  0  0  0
  149.2735  140.0718  157.6488 H   0  0  0  0  0  0  0  0  0  0  0  0
  148.3537  139.2973  158.9154 H   0  0  0  0  0  0  0  0  0  0  0  0
  150.4164  137.8866  157.1587 H   0  0  0  0  0  0  0  0  0  0  0  0
  152.6166  138.5308  157.7602 H   0  0  0  0  0  0  0  0  0  0  0  0
  153.0938  139.2256  160.3548 H   0  0  0  0  0  0  0  0  0  0  0  0
  153.9687  140.0138  159.0534 H   0  0  0  0  0  0  0  0  0  0  0  0
  151.7842  141.1570  160.7374 H   0  0  0  0  0  0  0  0  0  0  0  0
  153.1097  141.9792  159.9273 H   0  0  0  0  0  0  0  0  0  0  0  0
  150.3622  141.5337  159.0024 H   0  0  0  0  0  0  0  0  0  0  0  0
  151.5804  142.5328  158.2220 H   0  0  0  0  0  0  0  0  0  0  0  0
  152.3610  140.7369  156.8956 H   0  0  0  0  0  0  0  0  0  0  0  0
  150.6822  140.2286  157.0328 H   0  0  0  0  0  0  0  0  0  0  0  0
  148.6438  137.7799  160.2402 H   0  0  0  0  0  0  0  0  0  0  0  0
  148.4173  134.1372  159.2627 H   0  0  0  0  0  0  0  0  0  0  0  0
  146.3147  133.0810  162.6335 H   0  0  0  0  0  0  0  0  0  0  0  0
  146.2953  135.4296  163.4979 H   0  0  0  0  0  0  0  0  0  0  0  0
  1  2  1  0  0  0  0
  1 20  1  0  0  0  0
  1 21  1  0  0  0  0
  1 22  1  0  0  0  0
  2  3  1  0  0  0  0
  2 23  1  0  0  0  0
  2 24  1  0  0  0  0
  3  4  1  0  0  0  0
  3 10  1  0  0  0  0
  3 25  1  0  0  0  0
  4  5  1  0  0  0  0
  5  9  1  0  0  0  0
  5  6  1  0  0  0  0
  5 26  1  0  0  0  0
  6  7  1  0  0  0  0
  6 27  1  0  0  0  0
  6 28  1  0  0  0  0
  7  8  1  0  0  0  0
  7 29  1  0  0  0  0
  7 30  1  0  0  0  0
  8  9  1  0  0  0  0
  8 31  1  0  0  0  0
  8 32  1  0  0  0  0
  9 33  1  0  0  0  0
  9 34  1  0  0  0  0
 10 11  2  0  0  0  0
 10 12  1  0  0  0  0
 12 35  1  0  0  0  0
 12 13  1  0  0  0  0
 13 18  1  0  0  0  0
 13 14  2  0  0  0  0
 14 36  1  0  0  0  0
 14 15  1  0  0  0  0
 15 16  2  0  0  0  0
 16 37  1  0  0  0  0
 16 17  1  0  0  0  0
 17 18  2  0  0  0  0
 17 38  1  0  0  0  0
 18 19  1  0  0  0  0
M  CHG  1  19  -1
M  END
> <s_m_source_file>
AV-unprocessed.smi

> <i_m_source_file_index>
793

> <i_lp_mmshare_version>
43012

> <i_f3d_flags>
0

> <s_epik_input>
W0NIMl0xW0NIMl1bQ0gyXVtDSDJdW0NIXTFPW0NAQEhdKFtDSDJdW0NIM10pQyg9TylbTkhdYzJbY0hdbltjSF1bY0hdYzJbT0hd

> <s_epik_cmdline>
J2VwaWtfcHl0aG9uJywgJy1waCcsICc3LjAnLCAnLXRuJywgJzgnLCAnLW1hJywgJzIwMCcsICctbWV0YWxfYmluZGluZycsICctaW1hZScsICc8aW5maWxlLm1hZT4nLCAnLW9tYWUnLCAnPG91dGZpbGUubWFlPic=

> <r_lp_tautomer_probability>
1

> <r_epik_Ionization_Penalty>
5.91611

> <r_epik_Ionization_Penalty_Charging>
1.01889

> <r_epik_Ionization_Penalty_Neutral>
4.89722

> <r_epik_State_Penalty>
4.89706

> <r_epik_Charging_Adjusted_Penalty>
5.91595

> <i_epik_Tot_Q>
-1

> <i_epik_Tot_abs_Q>
1

> <r_epik_Metal_State_Penalty>
1.05012

> <b_epik_Metal_Only>
1

> <s_lp_Force_Field>
OPLS_2005

> <r_lp_Energy>
29.623

> <b_lp_Chiralities_Consistent>
1

> <s_lp_Variant>
AV-unprocessed.smi:793-4

> <Gold.Version>
5.8.1

> <Gold.Id.Protein>
6NUR|6NUR_protein|mol2

> <Gold.PLP.Fitness>
41.6290

> <Gold.PLP.PLP>
-31.6916

> <Gold.PLP.part.hbond>
-3.0000

> <Gold.PLP.part.metal>
0.0000

> <Gold.PLP.part.buried>
-4.8352

> <Gold.PLP.part.nonpolar>
-23.6128

> <Gold.PLP.part.repulsive>
0.2211

> <Gold.PLP.ligand.clash>
0.0000

> <Gold.PLP.ligand.torsion>
0.6485

> <Gold.PLP.Chemscore.Hbond>
3.7094

> <Gold.PLP.Chemscore.CHOScore>
0.0000

> <Gold.PLP.Chemscore.Metal>
0.0000

> <Gold.Chemscore.Hbonds>
donor molecule, donor type, donor heavy atom, donor atom, acceptor molecule, acceptor atom, score
      P1  H  6896  6907       L1    11  0.82
      P1  H  6931  6943       L1    19  1.44
      P1  H  6934  6947       L1    19  1.06

> <Gold.PLP.Chemscore.Internal.Correction>
0.1063

> <Gold.Rescore>
     Score         DG    S(hbond)    S(metal)    S(lipo)     H(rot)  DE(clash)    DE(int)     intcor
     14.91     -16.95       2.04        0.00      72.55       1.49       0.01       2.03       ----

> <Gold.Chemscore.Fitness>
14.9091

> <Gold.Chemscore.DG>
-16.9461

> <Gold.Chemscore.ZeroCoef>
-5.4800

> <Gold.Chemscore.Hbond>
2.0360

> <Gold.Chemscore.Metal>
0.0000

> <Gold.Chemscore.Lipo>
72.5509

> <Gold.Chemscore.Internal_Hbond>
0.0000

> <Gold.Chemscore.DEClash>
0.0089

> <Gold.Chemscore.DEInternal>
2.0281

> <Gold.Chemscore.Rot>
1.4932

> <Gold.Chemscore.Internal.Correction>
   9.000000E+99

> <Gold.Chemscore.Hbonds>
donor molecule, donor type, donor heavy atom, donor atom, acceptor molecule, acceptor atom, score
      P1  H  6896  6907       L1    11  0.51
      P1  H  6931  6943       L1    19  0.54
      P1  H  6934  6947       L1    19  0.50

> <Gold.Chemscore.Hbond.Weighted>
-6.8003

> <Gold.Chemscore.Metal.Weighted>
-0.0000

> <Gold.Chemscore.Lipo.Weighted>
-8.4885

> <Gold.Chemscore.Internal_Hbond.Weighted>
0.0000

> <Gold.Chemscore.DEClash.Weighted>
0.0089

> <Gold.Chemscore.DEInternal.Weighted>
2.0281

> <Gold.Chemscore.Rot.Weighted>
3.8226

> <Gold.Chemscore.Internal.Correction.Weighted>
   9.000000E+99

> <Gold.Protein.RotatedTorsions>
[ 6907 6896 6895 6894 ] final  -81.54 input  -60.11 | X-H torsion
[ 7974 7965 7964 7962 ] final  -61.93 input  175.53 | X-H torsion
[ 8008 7997 7996 7995 ] final  171.66 input   59.86 | X-H torsion
[ 10167 10162 10161 10158 ] final    0.55 input  -65.29 | X-H torsion
[ 10718 10713 10712 10709 ] final  -12.00 input   66.30 | X-H torsion
[ 10763 10752 10751 10750 ] final -107.78 input  -60.55 | X-H torsion
[ 11005 11000 10999 10996 ] final  -49.68 input  -57.11 | X-H torsion

> <Gold.Protein.ActiveResidues>
 VAL166  LYS551  ARG553  GLY616  TRP617  ASP618  TYR619  PRO620  LYS621  CYS622 
 ASP623  PHE694  ASN695  SER759  ASP760  ASP761  ALA762  ILE779  LEU786  VAL792 
 PHE793  MET794  SER795  GLU796  ALA797  LYS798  CYS799  TRP800  GLU811  SER814 

> <Gold.Protein.RotatedAtoms>
  150.6910  134.3801  159.5030 H   0  0  0  0  0  0  0  0  0  0  0  0  # atno 6907 bound_to 6896
  152.1605  134.8913  160.0551 H   0  0  0  0  0  0  0  0  0  0  0  0  # atno 6908 bound_to 6896
  151.9977  133.3779  159.4206 H   0  0  0  0  0  0  0  0  0  0  0  0  # atno 6909 bound_to 6896
  145.7975  140.8674  143.0249 H   0  0  0  0  0  0  0  0  0  0  0  0  # atno 7974 bound_to 7965
  156.1249  140.1506  156.9150 H   0  0  0  0  0  0  0  0  0  0  0  0  # atno 8008 bound_to 7997
  154.4864  140.0864  156.7537 H   0  0  0  0  0  0  0  0  0  0  0  0  # atno 8009 bound_to 7997
  155.4361  140.3429  155.4287 H   0  0  0  0  0  0  0  0  0  0  0  0  # atno 8010 bound_to 7997
  140.6724  143.7012  150.7950 H   0  0  0  0  0  0  0  0  0  0  0  0  # atno 10167 bound_to 10162
  156.6509  130.4954  149.6062 H   0  0  0  0  0  0  0  0  0  0  0  0  # atno 10718 bound_to 10713
  154.8096  135.4662  154.0481 H   0  0  0  0  0  0  0  0  0  0  0  0  # atno 10763 bound_to 10752
  153.1922  135.6857  153.8344 H   0  0  0  0  0  0  0  0  0  0  0  0  # atno 10764 bound_to 10752
  153.7858  135.3250  155.3349 H   0  0  0  0  0  0  0  0  0  0  0  0  # atno 10765 bound_to 10752
  141.0773  133.6662  156.3621 H   0  0  0  0  0  0  0  0  0  0  0  0  # atno 11005 bound_to 11000
  144.6773  140.0211  143.7483 LP  0  0  0  0  0  0  0  0  0  0  0  0  # atno 17320 bound_to 7965
  145.9913  139.3017  143.0983 LP  0  0  0  0  0  0  0  0  0  0  0  0  # atno 17321 bound_to 7965
  140.0700  143.5071  152.2585 LP  0  0  0  0  0  0  0  0  0  0  0  0  # atno 17342 bound_to 10162
  139.5998  144.7579  151.3198 LP  0  0  0  0  0  0  0  0  0  0  0  0  # atno 17343 bound_to 10162
  156.2085  130.6664  151.1244 LP  0  0  0  0  0  0  0  0  0  0  0  0  # atno 17370 bound_to 10713
  157.7141  131.0719  150.6393 LP  0  0  0  0  0  0  0  0  0  0  0  0  # atno 17371 bound_to 10713
  140.5545  134.5995  157.5417 LP  0  0  0  0  0  0  0  0  0  0  0  0  # atno 17394 bound_to 11000
  139.9586  134.7492  156.0287 LP  0  0  0  0  0  0  0  0  0  0  0  0  # atno 17395 bound_to 11000

$$$$
