AV-unprocessed.smi:1254|AV-procd|sdf|5272|dock6
  -GOLD-   22720 4383D 1   1.00000     0.00000
 Structure written by MMmdl.
 46 47  0  0  0  0  0  0  0  0  2 V2000
  151.9317  139.8910  158.0883 C   0  0  0  0  0  0  0  0  0  0  0  0
  151.5554  139.5848  156.6791 C   0  0  0  0  0  0  0  0  0  0  0  0
  150.4000  139.1392  156.1017 C   0  0  0  0  0  0  0  0  0  0  0  0
  150.7394  139.0627  154.7250 C   0  0  0  0  0  0  0  0  0  0  0  0
  149.7892  138.6336  153.7637 N   0  0  0  0  0  0  0  0  0  0  0  0
  148.5121  139.0330  153.6420 C   0  0  0  0  0  0  0  0  0  0  0  0
  147.9584  139.8707  154.3548 O   0  0  0  0  0  0  0  0  0  0  0  0
  147.8937  138.3972  152.6365 N   0  0  0  0  0  0  0  0  0  0  0  0
  146.5006  138.6005  152.2529 C   0  0  0  0  0  0  0  0  0  0  0  0
  145.6711  137.3111  152.3920 C   0  0  1  0  0  0  0  0  0  0  0  0
  145.9086  136.3434  151.2169 C   0  0  0  0  0  0  0  0  0  0  0  0
  145.1346  135.0922  151.4121 N   0  3  1  0  0  0  0  0  0  0  0  0
  145.2667  134.1249  150.2923 C   0  0  0  0  0  0  0  0  0  0  0  0
  144.1491  133.0595  150.2704 C   0  0  0  0  0  0  0  0  0  0  0  0
  144.5010  131.8392  151.1378 C   0  0  0  0  0  0  0  0  0  0  0  0
  143.8503  132.6226  148.8286 C   0  0  0  0  0  0  0  0  0  0  0  0
  145.4602  134.4844  152.7242 C   0  0  0  0  0  0  0  0  0  0  0  0
  145.2578  135.5050  153.8560 C   0  0  0  0  0  0  0  0  0  0  0  0
  146.0469  136.6600  153.6015 O   0  0  0  0  0  0  0  0  0  0  0  0
  151.9887  139.4298  154.4831 N   0  0  0  0  0  0  0  0  0  0  0  0
  152.5183  139.7651  155.7347 O   0  0  0  0  0  0  0  0  0  0  0  0
  151.0460  140.0801  158.6950 H   0  0  0  0  0  0  0  0  0  0  0  0
  152.5694  140.7738  158.1384 H   0  0  0  0  0  0  0  0  0  0  0  0
  152.4737  139.0557  158.5318 H   0  0  0  0  0  0  0  0  0  0  0  0
  149.4652  138.9063  156.5891 H   0  0  0  0  0  0  0  0  0  0  0  0
  150.1154  137.9429  153.1042 H   0  0  0  0  0  0  0  0  0  0  0  0
  148.4204  137.7232  152.1002 H   0  0  0  0  0  0  0  0  0  0  0  0
  146.0698  139.3962  152.8629 H   0  0  0  0  0  0  0  0  0  0  0  0
  146.4757  138.9537  151.2217 H   0  0  0  0  0  0  0  0  0  0  0  0
  144.6103  137.5658  152.4321 H   0  0  0  0  0  0  0  0  0  0  0  0
  145.6125  136.8308  150.2889 H   0  0  0  0  0  0  0  0  0  0  0  0
  146.9706  136.1082  151.1299 H   0  0  0  0  0  0  0  0  0  0  0  0
  145.2943  134.6719  149.3486 H   0  0  0  0  0  0  0  0  0  0  0  0
  146.2258  133.6108  150.3729 H   0  0  0  0  0  0  0  0  0  0  0  0
  143.2298  133.4952  150.6606 H   0  0  0  0  0  0  0  0  0  0  0  0
  145.4197  131.3610  150.7963 H   0  0  0  0  0  0  0  0  0  0  0  0
  143.7069  131.0924  151.1043 H   0  0  0  0  0  0  0  0  0  0  0  0
  144.6388  132.1171  152.1828 H   0  0  0  0  0  0  0  0  0  0  0  0
  144.7229  132.1618  148.3644 H   0  0  0  0  0  0  0  0  0  0  0  0
  143.5553  133.4725  148.2125 H   0  0  0  0  0  0  0  0  0  0  0  0
  143.0360  131.8981  148.7971 H   0  0  0  0  0  0  0  0  0  0  0  0
  144.8253  133.6151  152.8992 H   0  0  0  0  0  0  0  0  0  0  0  0
  146.4932  134.1326  152.7179 H   0  0  0  0  0  0  0  0  0  0  0  0
  144.2062  135.7801  153.9516 H   0  0  0  0  0  0  0  0  0  0  0  0
  145.5609  135.0732  154.8098 H   0  0  0  0  0  0  0  0  0  0  0  0
  144.1591  135.3515  151.4552 H   0  0  0  0  0  0  0  0  0  0  0  0
  1  2  1  0  0  0  0
  1 22  1  0  0  0  0
  1 23  1  0  0  0  0
  1 24  1  0  0  0  0
  2 21  1  0  0  0  0
  2  3  2  0  0  0  0
  3  4  1  0  0  0  0
  3 25  1  0  0  0  0
  4  5  1  0  0  0  0
  4 20  2  0  0  0  0
  5  6  1  0  0  0  0
  5 26  1  0  0  0  0
  6  7  2  0  0  0  0
  6  8  1  0  0  0  0
  8  9  1  0  0  0  0
  8 27  1  0  0  0  0
  9 10  1  0  0  0  0
  9 28  1  0  0  0  0
  9 29  1  0  0  0  0
 10 19  1  0  0  0  0
 10 11  1  0  0  0  0
 10 30  1  0  0  0  0
 11 12  1  0  0  0  0
 11 31  1  0  0  0  0
 11 32  1  0  0  0  0
 12 13  1  0  0  0  0
 12 17  1  0  0  0  0
 12 46  1  0  0  0  0
 13 14  1  0  0  0  0
 13 33  1  0  0  0  0
 13 34  1  0  0  0  0
 14 15  1  0  0  0  0
 14 16  1  0  0  0  0
 14 35  1  0  0  0  0
 15 36  1  0  0  0  0
 15 37  1  0  0  0  0
 15 38  1  0  0  0  0
 16 39  1  0  0  0  0
 16 40  1  0  0  0  0
 16 41  1  0  0  0  0
 17 18  1  0  0  0  0
 17 42  1  0  0  0  0
 17 43  1  0  0  0  0
 18 19  1  0  0  0  0
 18 44  1  0  0  0  0
 18 45  1  0  0  0  0
 20 21  1  0  0  0  0
M  CHG  1  12   1
M  END
> <s_m_source_file>
AV-unprocessed.smi

> <i_m_source_file_index>
1254

> <i_lp_mmshare_version>
43012

> <i_f3d_flags>
0

> <s_epik_input>
W0NIM11jMVtjSF1jKG5vMSlbTkhdQyg9TylbTkhdW0NIMl1bQ0BASF0yW0NIMl1OKFtDSDJdW0NIMl1PMilbQ0gyXVtDSF0oW0NIM10pW0NIM10=

> <s_epik_cmdline>
J2VwaWtfcHl0aG9uJywgJy1waCcsICc3LjAnLCAnLXRuJywgJzgnLCAnLW1hJywgJzIwMCcsICctbWV0YWxfYmluZGluZycsICctaW1hZScsICc8aW5maWxlLm1hZT4nLCAnLW9tYWUnLCAnPG91dGZpbGUubWFlPic=

> <r_epik_Ionization_Penalty>
0.0986825

> <r_epik_Ionization_Penalty_Charging>
0.0986478

> <r_epik_Ionization_Penalty_Neutral>
3.46838e-05

> <r_epik_State_Penalty>
0.0887259

> <r_epik_Charging_Adjusted_Penalty>
0.187374

> <i_epik_Tot_Q>
1

> <i_epik_Tot_abs_Q>
1

> <r_epik_Metal_State_Penalty>
0.103424

> <b_epik_Metal_Only>
0

> <s_lp_Force_Field>
OPLS_2005

> <r_lp_Energy>
13.7393

> <b_lp_Chiralities_Consistent>
1

> <s_lp_Variant>
AV-unprocessed.smi:1254-4

> <Gold.Version>
5.8.1

> <Gold.Id.Protein>
6NUR|6NUR_protein|mol2

> <Gold.PLP.Fitness>
40.5785

> <Gold.PLP.PLP>
-33.4408

> <Gold.PLP.part.hbond>
-5.6149

> <Gold.PLP.part.metal>
0.0000

> <Gold.PLP.part.buried>
-1.2769

> <Gold.PLP.part.nonpolar>
-27.8303

> <Gold.PLP.part.repulsive>
0.4374

> <Gold.PLP.ligand.clash>
0.0000

> <Gold.PLP.ligand.torsion>
1.0382

> <Gold.PLP.Chemscore.Hbond>
3.0622

> <Gold.PLP.Chemscore.CHOScore>
0.0000

> <Gold.PLP.Chemscore.Metal>
0.0000

> <Gold.Chemscore.Hbonds>
donor molecule, donor type, donor heavy atom, donor atom, acceptor molecule, acceptor atom, score
      L1  H     5    26       P1  7948  0.12
      L1  H     8    27       P1  7948  1.00
      P1  H  7989  7998       L1    20  0.85
      P1  H  7997  8009       L1    21  1.00

> <Gold.PLP.Chemscore.Internal.Correction>
0.0275

> <Gold.Rescore>
     Score         DG    S(hbond)    S(metal)    S(lipo)     H(rot)  DE(clash)    DE(int)     intcor
     17.07     -19.69       2.85        0.00      77.83       1.73       1.57       1.05       ----

> <Gold.Chemscore.Fitness>
17.0651

> <Gold.Chemscore.DG>
-19.6907

> <Gold.Chemscore.ZeroCoef>
-5.4800

> <Gold.Chemscore.Hbond>
2.8537

> <Gold.Chemscore.Metal>
0.0000

> <Gold.Chemscore.Lipo>
77.8263

> <Gold.Chemscore.Internal_Hbond>
0.0000

> <Gold.Chemscore.DEClash>
1.5721

> <Gold.Chemscore.DEInternal>
1.0535

> <Gold.Chemscore.Rot>
1.7291

> <Gold.Chemscore.Internal.Correction>
   9.000000E+99

> <Gold.Chemscore.Hbonds>
donor molecule, donor type, donor heavy atom, donor atom, acceptor molecule, acceptor atom, score
      L1  H     5    26       P1  7948  0.03
      L1  H     8    27       P1  7948  0.94
      P1  H  7989  7998       L1    20  0.16
      P1  H  7997  8009       L1    21  0.99

> <Gold.Chemscore.Hbond.Weighted>
-9.5315

> <Gold.Chemscore.Metal.Weighted>
-0.0000

> <Gold.Chemscore.Lipo.Weighted>
-9.1057

> <Gold.Chemscore.Internal_Hbond.Weighted>
0.0000

> <Gold.Chemscore.DEClash.Weighted>
1.5721

> <Gold.Chemscore.DEInternal.Weighted>
1.0535

> <Gold.Chemscore.Rot.Weighted>
4.4265

> <Gold.Chemscore.Internal.Correction.Weighted>
   9.000000E+99

> <Gold.Protein.RotatedTorsions>
[ 6907 6896 6895 6894 ] final  -32.22 input  -60.11 | X-H torsion
[ 7974 7965 7964 7962 ] final  -90.07 input  175.53 | X-H torsion
[ 8008 7997 7996 7995 ] final -153.11 input   59.86 | X-H torsion
[ 10167 10162 10161 10158 ] final  -89.66 input  -65.29 | X-H torsion
[ 10718 10713 10712 10709 ] final   70.71 input   66.30 | X-H torsion
[ 10763 10752 10751 10750 ] final  -20.66 input  -60.55 | X-H torsion
[ 11005 11000 10999 10996 ] final  -89.47 input  -57.11 | X-H torsion

> <Gold.Protein.ActiveResidues>
 VAL166  LYS551  ARG553  GLY616  TRP617  ASP618  TYR619  PRO620  LYS621  CYS622 
 ASP623  PHE694  ASN695  SER759  ASP760  ASP761  ALA762  ILE779  LEU786  VAL792 
 PHE793  MET794  SER795  GLU796  ALA797  LYS798  CYS799  TRP800  GLU811  SER814 

> <Gold.Protein.RotatedAtoms>
  151.0816  134.9862  159.8358 H   0  0  0  0  0  0  0  0  0  0  0  0  # atno 6907 bound_to 6896
  152.5420  134.2174  159.8784 H   0  0  0  0  0  0  0  0  0  0  0  0  # atno 6908 bound_to 6896
  151.2205  133.4461  159.2634 H   0  0  0  0  0  0  0  0  0  0  0  0  # atno 6909 bound_to 6896
  145.4313  140.9556  143.2126 H   0  0  0  0  0  0  0  0  0  0  0  0  # atno 7974 bound_to 7965
  155.6658  140.0727  157.2538 H   0  0  0  0  0  0  0  0  0  0  0  0  # atno 8008 bound_to 7997
  154.4133  140.1708  156.1876 H   0  0  0  0  0  0  0  0  0  0  0  0  # atno 8009 bound_to 7997
  155.9659  140.3366  155.6535 H   0  0  0  0  0  0  0  0  0  0  0  0  # atno 8010 bound_to 7997
  140.3626  143.2834  151.9596 H   0  0  0  0  0  0  0  0  0  0  0  0  # atno 10167 bound_to 10162
  157.6414  130.9491  150.0688 H   0  0  0  0  0  0  0  0  0  0  0  0  # atno 10718 bound_to 10713
  153.6239  135.6991  153.5300 H   0  0  0  0  0  0  0  0  0  0  0  0  # atno 10763 bound_to 10752
  153.2915  135.4155  155.1170 H   0  0  0  0  0  0  0  0  0  0  0  0  # atno 10764 bound_to 10752
  154.8537  135.3626  154.5780 H   0  0  0  0  0  0  0  0  0  0  0  0  # atno 10765 bound_to 10752
  141.1584  133.7632  156.9600 H   0  0  0  0  0  0  0  0  0  0  0  0  # atno 11005 bound_to 11000
  144.8181  139.5841  143.6999 LP  0  0  0  0  0  0  0  0  0  0  0  0  # atno 17320 bound_to 7965
  146.2605  139.6400  142.9365 LP  0  0  0  0  0  0  0  0  0  0  0  0  # atno 17321 bound_to 7965
  139.4812  144.5979  151.7657 LP  0  0  0  0  0  0  0  0  0  0  0  0  # atno 17342 bound_to 10162
  140.5112  144.1022  150.5996 LP  0  0  0  0  0  0  0  0  0  0  0  0  # atno 17343 bound_to 10162
  156.1699  130.3646  149.9180 LP  0  0  0  0  0  0  0  0  0  0  0  0  # atno 17370 bound_to 10713
  156.7158  130.8988  151.3613 LP  0  0  0  0  0  0  0  0  0  0  0  0  # atno 17371 bound_to 10713
  140.1199  134.9423  157.2189 LP  0  0  0  0  0  0  0  0  0  0  0  0  # atno 17394 bound_to 11000
  140.3085  134.3051  155.7272 LP  0  0  0  0  0  0  0  0  0  0  0  0  # atno 17395 bound_to 11000

$$$$
