AV-unprocessed.smi:2456|AV-procd|sdf|9701|dock9
  -GOLD-   2272013343D 1   1.00000     0.00000
 Structure written by MMmdl.
 34 35  0  0  0  0  0  0  0  0  1 V2000
  147.6622  141.8768  154.3516 C   0  0  0  0  0  0  0  0  0  0  0  0
  148.1448  140.4215  154.5379 C   0  0  1  0  0  0  0  0  0  0  0  0
  147.7334  139.5499  153.4321 N   0  0  0  0  0  0  0  0  0  0  0  0
  146.7350  138.6510  153.4159 C   0  0  0  0  0  0  0  0  0  0  0  0
  145.9565  138.4715  154.3521 O   0  0  0  0  0  0  0  0  0  0  0  0
  146.7001  137.9931  152.2439 N   0  0  0  0  0  0  0  0  0  0  0  0
  145.8049  136.9687  151.8378 C   0  0  0  0  0  0  0  0  0  0  0  0
  145.9627  136.2188  150.7408 N   0  0  0  0  0  0  0  0  0  0  0  0
  144.9309  135.2896  150.5879 C   0  0  0  0  0  0  0  0  0  0  0  0
  143.9885  135.3470  151.5844 C   0  0  0  0  0  0  0  0  0  0  0  0
  144.3626  136.5768  152.7619 S   0  0  0  0  0  0  0  0  0  0  0  0
  149.6503  140.2847  154.8473 C   0  0  0  0  0  0  0  0  0  0  0  0
  150.3707  139.6791  154.0527 O   0  0  0  0  0  0  0  0  0  0  0  0
  150.1425  140.8167  155.9880 N   0  0  0  0  0  0  0  0  0  0  0  0
  151.5304  140.7547  156.4484 C   0  0  0  0  0  0  0  0  0  0  0  0
  151.6092  141.6818  157.6615 C   0  0  0  0  0  0  0  0  0  0  0  0
  150.1859  141.7165  158.1987 C   0  0  0  0  0  0  0  0  0  0  0  0
  149.3147  141.5348  156.9561 C   0  0  0  0  0  0  0  0  0  0  0  0
  147.8500  142.4644  155.2509 H   0  0  0  0  0  0  0  0  0  0  0  0
  146.5896  141.9116  154.1599 H   0  0  0  0  0  0  0  0  0  0  0  0
  148.1629  142.3838  153.5268 H   0  0  0  0  0  0  0  0  0  0  0  0
  147.6077  140.0517  155.4114 H   0  0  0  0  0  0  0  0  0  0  0  0
  148.2937  139.6198  152.5956 H   0  0  0  0  0  0  0  0  0  0  0  0
  147.3994  138.2503  151.5635 H   0  0  0  0  0  0  0  0  0  0  0  0
  144.9462  134.6236  149.7379 H   0  0  0  0  0  0  0  0  0  0  0  0
  143.1008  134.7423  151.6964 H   0  0  0  0  0  0  0  0  0  0  0  0
  151.7634  139.7295  156.7393 H   0  0  0  0  0  0  0  0  0  0  0  0
  152.2418  141.0629  155.6823 H   0  0  0  0  0  0  0  0  0  0  0  0
  152.3338  141.3464  158.4040 H   0  0  0  0  0  0  0  0  0  0  0  0
  151.9006  142.6820  157.3381 H   0  0  0  0  0  0  0  0  0  0  0  0
  150.0317  140.8785  158.8795 H   0  0  0  0  0  0  0  0  0  0  0  0
  149.9607  142.6346  158.7423 H   0  0  0  0  0  0  0  0  0  0  0  0
  149.0407  142.5035  156.5357 H   0  0  0  0  0  0  0  0  0  0  0  0
  148.3958  140.9961  157.1933 H   0  0  0  0  0  0  0  0  0  0  0  0
  1  2  1  0  0  0  0
  1 19  1  0  0  0  0
  1 20  1  0  0  0  0
  1 21  1  0  0  0  0
  2  3  1  0  0  0  0
  2 12  1  0  0  0  0
  2 22  1  0  0  0  0
  3  4  1  0  0  0  0
  3 23  1  0  0  0  0
  4  5  2  0  0  0  0
  4  6  1  0  0  0  0
  6  7  1  0  0  0  0
  6 24  1  0  0  0  0
  7 11  1  0  0  0  0
  7  8  2  0  0  0  0
  8  9  1  0  0  0  0
  9 10  2  0  0  0  0
  9 25  1  0  0  0  0
 10 11  1  0  0  0  0
 10 26  1  0  0  0  0
 12 13  2  0  0  0  0
 12 14  1  0  0  0  0
 14 18  1  0  0  0  0
 14 15  1  0  0  0  0
 15 16  1  0  0  0  0
 15 27  1  0  0  0  0
 15 28  1  0  0  0  0
 16 17  1  0  0  0  0
 16 29  1  0  0  0  0
 16 30  1  0  0  0  0
 17 18  1  0  0  0  0
 17 31  1  0  0  0  0
 17 32  1  0  0  0  0
 18 33  1  0  0  0  0
 18 34  1  0  0  0  0
M  END
> <s_m_source_file>
AV-unprocessed.smi

> <i_m_source_file_index>
2456

> <i_lp_mmshare_version>
43012

> <i_f3d_flags>
0

> <s_epik_input>
W0NIMl0xW0NIMl1bQ0gyXVtDSDJdTjFDKD1PKVtDQEhdKFtDSDNdKVtOSF1DKD1PKVtOSF1jMm5bY0hdW2NIXXMy

> <s_epik_cmdline>
J2VwaWtfcHl0aG9uJywgJy1waCcsICc3LjAnLCAnLXRuJywgJzgnLCAnLW1hJywgJzIwMCcsICctbWV0YWxfYmluZGluZycsICctaW1hZScsICc8aW5maWxlLm1hZT4nLCAnLW9tYWUnLCAnPG91dGZpbGUubWFlPic=

> <r_lp_tautomer_probability>
1

> <r_epik_Ionization_Penalty>
0.000150201

> <r_epik_Ionization_Penalty_Charging>
0

> <r_epik_Ionization_Penalty_Neutral>
0.000150201

> <r_epik_State_Penalty>
-0

> <r_epik_Charging_Adjusted_Penalty>
0

> <i_epik_Tot_Q>
0

> <i_epik_Tot_abs_Q>
0

> <r_epik_Metal_State_Penalty>
0.0705602

> <b_epik_Metal_Only>
0

> <s_lp_Force_Field>
OPLS_2005

> <r_lp_Energy>
30.7

> <b_lp_Chiralities_Consistent>
1

> <s_lp_Variant>
AV-unprocessed.smi:2456-2

> <Gold.Version>
5.8.1

> <Gold.Id.Protein>
6NUR|6NUR_protein|mol2

> <Gold.PLP.Fitness>
40.0391

> <Gold.PLP.PLP>
-31.5602

> <Gold.PLP.part.hbond>
-3.0000

> <Gold.PLP.part.metal>
0.0000

> <Gold.PLP.part.buried>
-3.8724

> <Gold.PLP.part.nonpolar>
-25.3586

> <Gold.PLP.part.repulsive>
1.1451

> <Gold.PLP.ligand.clash>
0.0000

> <Gold.PLP.ligand.torsion>
0.3017

> <Gold.PLP.Chemscore.Hbond>
2.0000

> <Gold.PLP.Chemscore.CHOScore>
0.9803

> <Gold.PLP.Chemscore.Metal>
0.0000

> <Gold.Chemscore.Hbonds>
donor molecule, donor type, donor heavy atom, donor atom, acceptor molecule, acceptor atom, score
      L1  H     3    23       P1  7957  1.00
      P1  H  7989  7998       L1    13  1.00
      L1  C     9    25       P1  7921  1.00

> <Gold.PLP.Chemscore.Internal.Correction>
0.1413

> <Gold.Rescore>
     Score         DG    S(hbond)    S(metal)    S(lipo)     H(rot)  DE(clash)    DE(int)     intcor
     12.38     -14.24       1.92        0.00      49.42       1.34       0.25       1.61       ----

> <Gold.Chemscore.Fitness>
12.3826

> <Gold.Chemscore.DG>
-14.2407

> <Gold.Chemscore.ZeroCoef>
-5.4800

> <Gold.Chemscore.Hbond>
1.9224

> <Gold.Chemscore.Metal>
0.0000

> <Gold.Chemscore.Lipo>
49.4247

> <Gold.Chemscore.Internal_Hbond>
0.0000

> <Gold.Chemscore.DEClash>
0.2450

> <Gold.Chemscore.DEInternal>
1.6131

> <Gold.Chemscore.Rot>
1.3448

> <Gold.Chemscore.Internal.Correction>
   9.000000E+99

> <Gold.Chemscore.Hbonds>
donor molecule, donor type, donor heavy atom, donor atom, acceptor molecule, acceptor atom, score
      L1  H     3    23       P1  7957  0.97
      P1  H  7989  7998       L1    13  0.59

> <Gold.Chemscore.Hbond.Weighted>
-6.4207

> <Gold.Chemscore.Metal.Weighted>
-0.0000

> <Gold.Chemscore.Lipo.Weighted>
-5.7827

> <Gold.Chemscore.Internal_Hbond.Weighted>
0.0000

> <Gold.Chemscore.DEClash.Weighted>
0.2450

> <Gold.Chemscore.DEInternal.Weighted>
1.6131

> <Gold.Chemscore.Rot.Weighted>
3.4427

> <Gold.Chemscore.Internal.Correction.Weighted>
   9.000000E+99

> <Gold.Protein.RotatedTorsions>
[ 6907 6896 6895 6894 ] final  -84.51 input  -60.11 | X-H torsion
[ 7974 7965 7964 7962 ] final  -28.16 input  175.53 | X-H torsion
[ 8008 7997 7996 7995 ] final   61.92 input   59.86 | X-H torsion
[ 10167 10162 10161 10158 ] final   67.21 input  -65.29 | X-H torsion
[ 10718 10713 10712 10709 ] final -177.18 input   66.30 | X-H torsion
[ 10763 10752 10751 10750 ] final   97.10 input  -60.55 | X-H torsion
[ 11005 11000 10999 10996 ] final  135.61 input  -57.11 | X-H torsion

> <Gold.Protein.ActiveResidues>
 VAL166  LYS551  ARG553  GLY616  TRP617  ASP618  TYR619  PRO620  LYS621  CYS622 
 ASP623  PHE694  ASN695  SER759  ASP760  ASP761  ALA762  ILE779  LEU786  VAL792 
 PHE793  MET794  SER795  GLU796  ALA797  LYS798  CYS799  TRP800  GLU811  SER814 

> <Gold.Protein.RotatedAtoms>
  150.6876  134.3348  159.4842 H   0  0  0  0  0  0  0  0  0  0  0  0  # atno 6907 bound_to 6896
  152.1208  134.9204  160.0572 H   0  0  0  0  0  0  0  0  0  0  0  0  # atno 6908 bound_to 6896
  152.0411  133.3943  159.4374 H   0  0  0  0  0  0  0  0  0  0  0  0  # atno 6909 bound_to 6896
  146.1308  140.5246  142.8694 H   0  0  0  0  0  0  0  0  0  0  0  0  # atno 7974 bound_to 7965
  155.6061  140.3494  155.4608 H   0  0  0  0  0  0  0  0  0  0  0  0  # atno 8008 bound_to 7997
  156.0191  140.1249  157.0401 H   0  0  0  0  0  0  0  0  0  0  0  0  # atno 8009 bound_to 7997
  154.4308  140.1066  156.5923 H   0  0  0  0  0  0  0  0  0  0  0  0  # atno 8010 bound_to 7997
  140.0921  144.4979  150.7092 H   0  0  0  0  0  0  0  0  0  0  0  0  # atno 10167 bound_to 10162
  156.8256  130.9635  151.3109 H   0  0  0  0  0  0  0  0  0  0  0  0  # atno 10718 bound_to 10713
  153.2729  135.4195  155.1005 H   0  0  0  0  0  0  0  0  0  0  0  0  # atno 10763 bound_to 10752
  154.8462  135.3476  154.6219 H   0  0  0  0  0  0  0  0  0  0  0  0  # atno 10764 bound_to 10752
  153.6639  135.7047  153.5226 H   0  0  0  0  0  0  0  0  0  0  0  0  # atno 10765 bound_to 10752
  139.9991  134.9485  157.0031 H   0  0  0  0  0  0  0  0  0  0  0  0  # atno 11005 bound_to 11000
  144.7688  140.5591  143.6684 LP  0  0  0  0  0  0  0  0  0  0  0  0  # atno 17320 bound_to 7965
  145.5265  139.1476  143.3523 LP  0  0  0  0  0  0  0  0  0  0  0  0  # atno 17321 bound_to 7965
  140.7023  143.2443  151.4828 LP  0  0  0  0  0  0  0  0  0  0  0  0  # atno 17342 bound_to 10162
  139.5719  144.1909  152.1848 LP  0  0  0  0  0  0  0  0  0  0  0  0  # atno 17343 bound_to 10162
  157.6434  130.8824  149.9491 LP  0  0  0  0  0  0  0  0  0  0  0  0  # atno 17370 bound_to 10713
  156.0963  130.3659  150.0300 LP  0  0  0  0  0  0  0  0  0  0  0  0  # atno 17371 bound_to 10713
  140.4762  134.1336  155.7210 LP  0  0  0  0  0  0  0  0  0  0  0  0  # atno 17394 bound_to 11000
  141.1628  133.8761  157.1801 LP  0  0  0  0  0  0  0  0  0  0  0  0  # atno 17395 bound_to 11000

$$$$
