AV-unprocessed.smi:535|AV-procd|sdf|2858|dock9
  -GOLD-   2262023353D 1   1.00000     0.00000
 Structure written by MMmdl.
 46 48  0  0  0  0  0  0  0  0  1 V2000
  153.9560  138.2530  158.9882 C   0  0  0  0  0  0  0  0  0  0  0  0
  153.7966  138.9423  157.7608 O   0  0  0  0  0  0  0  0  0  0  0  0
  152.4363  139.1973  157.4563 C   0  0  0  0  0  0  0  0  0  0  0  0
  152.3658  140.0843  156.2082 C   0  0  0  0  0  0  0  0  0  0  0  0
  151.0116  140.5821  155.9836 N   0  0  0  0  0  0  0  0  0  0  0  0
  150.3605  141.5959  156.6193 C   0  0  0  0  0  0  0  0  0  0  0  0
  150.9564  142.3542  157.6292 N   0  0  0  0  0  0  0  0  0  0  0  0
  150.8145  143.7951  157.8376 C   0  0  0  0  0  0  0  0  0  0  0  0
  152.1845  144.4821  157.9705 C   0  0  0  0  0  0  0  0  0  0  0  0
  152.9802  143.8670  159.1297 C   0  0  0  0  0  0  0  0  0  0  0  0
  153.0410  142.3362  158.9836 C   0  0  1  0  0  0  0  0  0  0  0  0
  153.7505  141.6829  160.1771 C   0  0  0  0  0  0  0  0  0  0  0  0
  151.6206  141.7657  158.7913 C   0  0  0  0  0  0  0  0  0  0  0  0
  149.0912  141.7651  156.2384 N   0  0  0  0  0  0  0  0  0  0  0  0
  148.9209  140.7932  155.2656 C   0  0  0  0  0  0  0  0  0  0  0  0
  150.0538  140.0620  155.1099 C   0  0  0  0  0  0  0  0  0  0  0  0
  150.1316  138.9241  154.1823 C   0  0  0  0  0  0  0  0  0  0  0  0
  151.1349  138.2288  154.0408 O   0  0  0  0  0  0  0  0  0  0  0  0
  148.9774  138.7090  153.5055 N   0  0  0  0  0  0  0  0  0  0  0  0
  147.8085  139.4114  153.6098 C   0  0  0  0  0  0  0  0  0  0  0  0
  146.8339  139.0875  152.9311 O   0  0  0  0  0  0  0  0  0  0  0  0
  147.7745  140.4643  154.4877 N   0  0  0  0  0  0  0  0  0  0  0  0
  146.5494  141.2503  154.6473 C   0  0  0  0  0  0  0  0  0  0  0  0
  148.9777  137.9368  152.8552 H   0  0  0  0  0  0  0  0  0  0  0  0
  155.0155  138.0805  159.1768 H   0  0  0  0  0  0  0  0  0  0  0  0
  153.4561  137.2838  158.9639 H   0  0  0  0  0  0  0  0  0  0  0  0
  153.5557  138.8329  159.8211 H   0  0  0  0  0  0  0  0  0  0  0  0
  151.9066  138.2594  157.2818 H   0  0  0  0  0  0  0  0  0  0  0  0
  151.9554  139.6967  158.2988 H   0  0  0  0  0  0  0  0  0  0  0  0
  153.0582  140.9148  156.3002 H   0  0  0  0  0  0  0  0  0  0  0  0
  152.7087  139.5382  155.3316 H   0  0  0  0  0  0  0  0  0  0  0  0
  150.2301  144.2424  157.0345 H   0  0  0  0  0  0  0  0  0  0  0  0
  150.2329  143.9601  158.7456 H   0  0  0  0  0  0  0  0  0  0  0  0
  152.7480  144.3774  157.0429 H   0  0  0  0  0  0  0  0  0  0  0  0
  152.0526  145.5519  158.1342 H   0  0  0  0  0  0  0  0  0  0  0  0
  153.9856  144.2884  159.1595 H   0  0  0  0  0  0  0  0  0  0  0  0
  152.5028  144.1285  160.0750 H   0  0  0  0  0  0  0  0  0  0  0  0
  153.6209  142.1045  158.0888 H   0  0  0  0  0  0  0  0  0  0  0  0
  153.2112  141.8643  161.1073 H   0  0  0  0  0  0  0  0  0  0  0  0
  154.7610  142.0749  160.2954 H   0  0  0  0  0  0  0  0  0  0  0  0
  153.8295  140.6037  160.0427 H   0  0  0  0  0  0  0  0  0  0  0  0
  151.0138  141.9395  159.6812 H   0  0  0  0  0  0  0  0  0  0  0  0
  151.6786  140.6840  158.6634 H   0  0  0  0  0  0  0  0  0  0  0  0
  146.1389  141.5411  153.6790 H   0  0  0  0  0  0  0  0  0  0  0  0
  146.7164  142.1691  155.2094 H   0  0  0  0  0  0  0  0  0  0  0  0
  145.7948  140.6685  155.1777 H   0  0  0  0  0  0  0  0  0  0  0  0
  1  2  1  0  0  0  0
  1 25  1  0  0  0  0
  1 26  1  0  0  0  0
  1 27  1  0  0  0  0
  2  3  1  0  0  0  0
  3  4  1  0  0  0  0
  3 28  1  0  0  0  0
  3 29  1  0  0  0  0
  4  5  1  0  0  0  0
  4 30  1  0  0  0  0
  4 31  1  0  0  0  0
  5 16  1  0  0  0  0
  5  6  1  0  0  0  0
  6  7  1  0  0  0  0
  6 14  2  0  0  0  0
  7 13  1  0  0  0  0
  7  8  1  0  0  0  0
  8  9  1  0  0  0  0
  8 32  1  0  0  0  0
  8 33  1  0  0  0  0
  9 10  1  0  0  0  0
  9 34  1  0  0  0  0
  9 35  1  0  0  0  0
 10 11  1  0  0  0  0
 10 36  1  0  0  0  0
 10 37  1  0  0  0  0
 11 12  1  0  0  0  0
 11 13  1  0  0  0  0
 11 38  1  0  0  0  0
 12 39  1  0  0  0  0
 12 40  1  0  0  0  0
 12 41  1  0  0  0  0
 13 42  1  0  0  0  0
 13 43  1  0  0  0  0
 14 15  1  0  0  0  0
 15 22  1  0  0  0  0
 15 16  2  0  0  0  0
 16 17  1  0  0  0  0
 17 18  2  0  0  0  0
 17 19  1  0  0  0  0
 19 24  1  0  0  0  0
 19 20  1  0  0  0  0
 20 21  2  0  0  0  0
 20 22  1  0  0  0  0
 22 23  1  0  0  0  0
 23 44  1  0  0  0  0
 23 45  1  0  0  0  0
 23 46  1  0  0  0  0
M  END
> <s_m_source_file>
AV-unprocessed.smi

> <i_m_source_file_index>
535

> <i_lp_mmshare_version>
43012

> <i_f3d_flags>
0

> <s_epik_input>
W0NIM11uMWMoPU8pW25IXWMoPU8pYyhjMTIpbihbQ0gyXVtDSDJdT1tDSDNdKWMobjIpTjNbQ0gyXVtDSDJdW0NIMl1bQ0BASF0oW0NIM10pW0NIMl0z

> <s_epik_cmdline>
J2VwaWtfcHl0aG9uJywgJy1waCcsICc3LjAnLCAnLXRuJywgJzgnLCAnLW1hJywgJzIwMCcsICctbWV0YWxfYmluZGluZycsICctaW1hZScsICc8aW5maWxlLm1hZT4nLCAnLW9tYWUnLCAnPG91dGZpbGUubWFlPic=

> <r_lp_tautomer_probability>
1

> <r_epik_Ionization_Penalty>
0.00042181

> <r_epik_Ionization_Penalty_Charging>
0.000122112

> <r_epik_Ionization_Penalty_Neutral>
0.000299698

> <r_epik_State_Penalty>
-0

> <r_epik_Charging_Adjusted_Penalty>
0.000122112

> <i_epik_Tot_Q>
0

> <i_epik_Tot_abs_Q>
0

> <r_epik_Metal_State_Penalty>
0.0934894

> <b_epik_Metal_Only>
0

> <s_lp_Force_Field>
OPLS_2005

> <r_lp_Energy>
38.8925

> <b_lp_Chiralities_Consistent>
1

> <s_lp_Variant>
AV-unprocessed.smi:535-1

> <Gold.Version>
5.8.1

> <Gold.Id.Protein>
6NUR|6NUR_protein|mol2

> <Gold.PLP.Fitness>
49.5789

> <Gold.PLP.PLP>
-45.3270

> <Gold.PLP.part.hbond>
-3.0000

> <Gold.PLP.part.metal>
0.0000

> <Gold.PLP.part.buried>
-0.9279

> <Gold.PLP.part.nonpolar>
-44.3987

> <Gold.PLP.part.repulsive>
3.2666

> <Gold.PLP.ligand.clash>
0.0000

> <Gold.PLP.ligand.torsion>
1.1071

> <Gold.PLP.Chemscore.Hbond>
2.0000

> <Gold.PLP.Chemscore.CHOScore>
0.0000

> <Gold.PLP.Chemscore.Metal>
0.0000

> <Gold.Chemscore.Hbonds>
donor molecule, donor type, donor heavy atom, donor atom, acceptor molecule, acceptor atom, score
      L1  H    19    24       P1  7948  1.00
      P1  H  7997  8009       L1     2  0.99

> <Gold.PLP.Chemscore.Internal.Correction>
0.4661

> <Gold.Rescore>
     Score         DG    S(hbond)    S(metal)    S(lipo)     H(rot)  DE(clash)    DE(int)     intcor
     17.00     -18.77       1.84        0.00      92.87       1.46       0.71       1.06       ----

> <Gold.Chemscore.Fitness>
17.0012

> <Gold.Chemscore.DG>
-18.7669

> <Gold.Chemscore.ZeroCoef>
-5.4800

> <Gold.Chemscore.Hbond>
1.8406

> <Gold.Chemscore.Metal>
0.0000

> <Gold.Chemscore.Lipo>
92.8714

> <Gold.Chemscore.Internal_Hbond>
0.0000

> <Gold.Chemscore.DEClash>
0.7081

> <Gold.Chemscore.DEInternal>
1.0576

> <Gold.Chemscore.Rot>
1.4557

> <Gold.Chemscore.Internal.Correction>
   9.000000E+99

> <Gold.Chemscore.Hbonds>
donor molecule, donor type, donor heavy atom, donor atom, acceptor molecule, acceptor atom, score
      L1  H    19    24       P1  7948  0.99
      P1  H  7997  8009       L1     2  0.60

> <Gold.Chemscore.Hbond.Weighted>
-6.1476

> <Gold.Chemscore.Metal.Weighted>
-0.0000

> <Gold.Chemscore.Lipo.Weighted>
-10.8660

> <Gold.Chemscore.Internal_Hbond.Weighted>
0.0000

> <Gold.Chemscore.DEClash.Weighted>
0.7081

> <Gold.Chemscore.DEInternal.Weighted>
1.0576

> <Gold.Chemscore.Rot.Weighted>
3.7267

> <Gold.Chemscore.Internal.Correction.Weighted>
   9.000000E+99

> <Gold.Protein.RotatedTorsions>
[ 6907 6896 6895 6894 ] final  130.24 input  -60.11 | X-H torsion
[ 7974 7965 7964 7962 ] final  -12.74 input  175.53 | X-H torsion
[ 8008 7997 7996 7995 ] final  151.10 input   59.86 | X-H torsion
[ 10167 10162 10161 10158 ] final -143.05 input  -65.29 | X-H torsion
[ 10718 10713 10712 10709 ] final  178.33 input   66.30 | X-H torsion
[ 10763 10752 10751 10750 ] final    1.21 input  -60.55 | X-H torsion
[ 11005 11000 10999 10996 ] final -137.41 input  -57.11 | X-H torsion

> <Gold.Protein.ActiveResidues>
 VAL166  LYS551  ARG553  GLY616  TRP617  ASP618  TYR619  PRO620  LYS621  CYS622 
 ASP623  PHE694  ASN695  SER759  ASP760  ASP761  ALA762  ILE779  LEU786  VAL792 
 PHE793  MET794  SER795  GLU796  ALA797  LYS798  CYS799  TRP800  GLU811  SER814 

> <Gold.Protein.RotatedAtoms>
  152.3546  133.6221  159.5969 H   0  0  0  0  0  0  0  0  0  0  0  0  # atno 6907 bound_to 6896
  150.7560  133.9521  159.3498 H   0  0  0  0  0  0  0  0  0  0  0  0  # atno 6908 bound_to 6896
  151.7368  135.0864  160.0360 H   0  0  0  0  0  0  0  0  0  0  0  0  # atno 6909 bound_to 6896
  146.2141  140.3101  142.8382 H   0  0  0  0  0  0  0  0  0  0  0  0  # atno 7974 bound_to 7965
  156.2688  140.2057  156.6122 H   0  0  0  0  0  0  0  0  0  0  0  0  # atno 8008 bound_to 7997
  154.6822  140.0539  157.0302 H   0  0  0  0  0  0  0  0  0  0  0  0  # atno 8009 bound_to 7997
  155.0984  140.3203  155.4557 H   0  0  0  0  0  0  0  0  0  0  0  0  # atno 8010 bound_to 7997
  139.8030  143.7808  152.2659 H   0  0  0  0  0  0  0  0  0  0  0  0  # atno 10167 bound_to 10162
  156.8922  130.9851  151.3048 H   0  0  0  0  0  0  0  0  0  0  0  0  # atno 10718 bound_to 10713
  153.3109  135.6962  153.7117 H   0  0  0  0  0  0  0  0  0  0  0  0  # atno 10763 bound_to 10752
  153.5995  135.3465  155.2941 H   0  0  0  0  0  0  0  0  0  0  0  0  # atno 10764 bound_to 10752
  154.8575  135.4337  154.2246 H   0  0  0  0  0  0  0  0  0  0  0  0  # atno 10765 bound_to 10752
  140.8713  134.2047  157.4649 H   0  0  0  0  0  0  0  0  0  0  0  0  # atno 11005 bound_to 11000
  144.8994  140.7624  143.5876 LP  0  0  0  0  0  0  0  0  0  0  0  0  # atno 17320 bound_to 7965
  145.3026  139.1845  143.4681 LP  0  0  0  0  0  0  0  0  0  0  0  0  # atno 17321 bound_to 7965
  139.7933  144.7402  150.9924 LP  0  0  0  0  0  0  0  0  0  0  0  0  # atno 17342 bound_to 10162
  140.7820  143.4419  151.0539 LP  0  0  0  0  0  0  0  0  0  0  0  0  # atno 17343 bound_to 10162
  157.6077  130.8559  149.8901 LP  0  0  0  0  0  0  0  0  0  0  0  0  # atno 17370 bound_to 10713
  156.0623  130.3698  150.0954 LP  0  0  0  0  0  0  0  0  0  0  0  0  # atno 17371 bound_to 10713
  139.8712  134.9775  156.4963 LP  0  0  0  0  0  0  0  0  0  0  0  0  # atno 17394 bound_to 11000
  140.8570  133.8089  155.9226 LP  0  0  0  0  0  0  0  0  0  0  0  0  # atno 17395 bound_to 11000

$$$$
