AV-unprocessed.smi:17|AV-procd|sdf|104|dock5
  -GOLD-   2262015253D 1   1.00000     0.00000
 Structure written by MMmdl.
 57 59  0  0  0  0  0  0  0  0  1 V2000
  150.0473  134.1196  156.4816 C   0  0  0  0  0  0  0  0  0  0  0  0
  148.8888  133.9751  157.4826 C   0  0  0  0  0  0  0  0  0  0  0  0
  148.0509  135.1720  157.5879 N   0  0  0  0  0  0  0  0  0  0  0  0
  148.7056  136.3134  157.9238 C   0  0  0  0  0  0  0  0  0  0  0  0
  149.7805  136.1973  158.7432 N   0  0  0  0  0  0  0  0  0  0  0  0
  150.4622  137.2822  159.1200 C   0  0  0  0  0  0  0  0  0  0  0  0
  150.2411  138.5586  158.8013 N   0  0  0  0  0  0  0  0  0  0  0  0
  149.1554  138.6839  157.9855 C   0  0  0  0  0  0  0  0  0  0  0  0
  148.3341  137.6247  157.5050 C   0  0  0  0  0  0  0  0  0  0  0  0
  147.3234  138.1414  156.7022 N   0  0  0  0  0  0  0  0  0  0  0  0
  147.5349  139.4287  156.7072 C   0  0  0  0  0  0  0  0  0  0  0  0
  148.6274  139.8393  157.4361 N   0  0  0  0  0  0  0  0  0  0  0  0
  149.0868  141.2058  157.6115 C   0  0  0  0  0  0  0  0  0  0  0  0
  150.6269  141.3514  157.7533 C   0  0  1  0  0  0  0  0  0  0  0  0
  151.2325  141.7130  156.3756 C   0  0  0  0  0  0  0  0  0  0  0  0
  151.0935  140.6478  155.4578 O   0  0  0  0  0  0  0  0  0  0  0  0
  151.0399  142.3860  158.8429 C   0  0  2  0  0  0  0  0  0  0  0  0
  150.9182  143.8448  158.4255 C   0  0  0  0  0  0  0  0  0  0  0  0
  151.8032  144.5491  159.4425 C   0  0  0  0  0  0  0  0  0  0  0  0
  152.9067  143.6742  159.6069 O   0  0  0  0  0  0  0  0  0  0  0  0
  152.5132  142.3428  159.2869 C   0  0  0  0  0  0  0  0  0  0  0  0
  146.7207  134.9853  158.1896 C   0  0  1  0  0  0  0  0  0  0  0  0
  145.8133  134.0506  157.3669 C   0  0  0  0  0  0  0  0  0  0  0  0
  146.7583  134.5620  159.6745 C   0  0  0  0  0  0  0  0  0  0  0  0
  146.5198  136.0040  160.8034 S   0  0  0  0  0  0  0  0  0  0  0  0
  146.8266  135.2461  162.4499 C   0  0  0  0  0  0  0  0  0  0  0  0
  147.5750  136.9958  160.5475 O   0  0  0  0  0  0  0  0  0  0  0  0
  145.1092  136.4155  160.7343 O   0  0  0  0  0  0  0  0  0  0  0  0
  150.5861  133.1775  156.3814 H   0  0  0  0  0  0  0  0  0  0  0  0
  150.7687  134.8740  156.7965 H   0  0  0  0  0  0  0  0  0  0  0  0
  149.6790  134.3973  155.4934 H   0  0  0  0  0  0  0  0  0  0  0  0
  148.2593  133.1462  157.1581 H   0  0  0  0  0  0  0  0  0  0  0  0
  149.2737  133.6926  158.4615 H   0  0  0  0  0  0  0  0  0  0  0  0
  151.3053  137.1005  159.7701 H   0  0  0  0  0  0  0  0  0  0  0  0
  146.9018  140.1181  156.1678 H   0  0  0  0  0  0  0  0  0  0  0  0
  148.7257  141.7649  156.7483 H   0  0  0  0  0  0  0  0  0  0  0  0
  148.5895  141.6404  158.4792 H   0  0  0  0  0  0  0  0  0  0  0  0
  151.0432  140.3845  158.0403 H   0  0  0  0  0  0  0  0  0  0  0  0
  150.7608  142.6072  155.9666 H   0  0  0  0  0  0  0  0  0  0  0  0
  152.2996  141.9180  156.4477 H   0  0  0  0  0  0  0  0  0  0  0  0
  150.9618  139.8479  155.9437 H   0  0  0  0  0  0  0  0  0  0  0  0
  150.4127  142.2416  159.7242 H   0  0  0  0  0  0  0  0  0  0  0  0
  151.3142  143.9917  157.4197 H   0  0  0  0  0  0  0  0  0  0  0  0
  149.8937  144.2173  158.4510 H   0  0  0  0  0  0  0  0  0  0  0  0
  152.1196  145.5396  159.1149 H   0  0  0  0  0  0  0  0  0  0  0  0
  151.2837  144.6519  160.3964 H   0  0  0  0  0  0  0  0  0  0  0  0
  152.6576  141.6974  160.1526 H   0  0  0  0  0  0  0  0  0  0  0  0
  153.1620  141.9873  158.4861 H   0  0  0  0  0  0  0  0  0  0  0  0
  146.2382  135.9631  158.1662 H   0  0  0  0  0  0  0  0  0  0  0  0
  144.8005  134.0405  157.7698 H   0  0  0  0  0  0  0  0  0  0  0  0
  146.1765  133.0226  157.3782 H   0  0  0  0  0  0  0  0  0  0  0  0
  145.7424  134.3721  156.3277 H   0  0  0  0  0  0  0  0  0  0  0  0
  145.9415  133.8705  159.8816 H   0  0  0  0  0  0  0  0  0  0  0  0
  147.6777  134.0428  159.9416 H   0  0  0  0  0  0  0  0  0  0  0  0
  146.7063  136.0034  163.2240 H   0  0  0  0  0  0  0  0  0  0  0  0
  147.8418  134.8514  162.4852 H   0  0  0  0  0  0  0  0  0  0  0  0
  146.1149  134.4386  162.6193 H   0  0  0  0  0  0  0  0  0  0  0  0
  1  2  1  0  0  0  0
  1 29  1  0  0  0  0
  1 30  1  0  0  0  0
  1 31  1  0  0  0  0
  2  3  1  0  0  0  0
  2 32  1  0  0  0  0
  2 33  1  0  0  0  0
  3  4  1  0  0  0  0
  3 22  1  0  0  0  0
  4  9  1  0  0  0  0
  4  5  2  0  0  0  0
  5  6  1  0  0  0  0
  6  7  2  0  0  0  0
  6 34  1  0  0  0  0
  7  8  1  0  0  0  0
  8 12  1  0  0  0  0
  8  9  2  0  0  0  0
  9 10  1  0  0  0  0
 10 11  2  0  0  0  0
 11 12  1  0  0  0  0
 11 35  1  0  0  0  0
 12 13  1  0  0  0  0
 13 14  1  0  0  0  0
 13 36  1  0  0  0  0
 13 37  1  0  0  0  0
 14 15  1  0  0  0  0
 14 17  1  0  0  0  0
 14 38  1  0  0  0  0
 15 16  1  0  0  0  0
 15 39  1  0  0  0  0
 15 40  1  0  0  0  0
 16 41  1  0  0  0  0
 17 21  1  0  0  0  0
 17 18  1  0  0  0  0
 17 42  1  0  0  0  0
 18 19  1  0  0  0  0
 18 43  1  0  0  0  0
 18 44  1  0  0  0  0
 19 20  1  0  0  0  0
 19 45  1  0  0  0  0
 19 46  1  0  0  0  0
 20 21  1  0  0  0  0
 21 47  1  0  0  0  0
 21 48  1  0  0  0  0
 22 23  1  0  0  0  0
 22 24  1  0  0  0  0
 22 49  1  0  0  0  0
 23 50  1  0  0  0  0
 23 51  1  0  0  0  0
 23 52  1  0  0  0  0
 24 25  1  0  0  0  0
 24 53  1  0  0  0  0
 24 54  1  0  0  0  0
 25 26  1  0  0  0  0
 25 27  2  0  0  0  0
 25 28  2  0  0  0  0
 26 55  1  0  0  0  0
 26 56  1  0  0  0  0
 26 57  1  0  0  0  0
M  END
> <s_m_source_file>
AV-unprocessed.smi

> <i_m_source_file_index>
17

> <i_lp_mmshare_version>
43012

> <i_f3d_flags>
0

> <s_epik_input>
W0NIM11TKD1PKSg9TylbQ0gyXVtDQEBIXShbQ0gzXSlOKFtDSDJdW0NIM10pYyhuW2NIXW4xKWMoYzEyKW5bY0hdbjJbQ0gyXVtDQEhdKFtDSDJdW09IXSlbQ0BASF0zW0NIMl1bQ0gyXU9bQ0gyXTM=

> <s_epik_cmdline>
J2VwaWtfcHl0aG9uJywgJy1waCcsICc3LjAnLCAnLXRuJywgJzgnLCAnLW1hJywgJzIwMCcsICctbWV0YWxfYmluZGluZycsICctaW1hZScsICc8aW5maWxlLm1hZT4nLCAnLW9tYWUnLCAnPG91dGZpbGUubWFlPic=

> <r_lp_tautomer_probability>
1

> <r_epik_Ionization_Penalty>
0.00119955

> <r_epik_Ionization_Penalty_Charging>
0

> <r_epik_Ionization_Penalty_Neutral>
0.00119955

> <r_epik_State_Penalty>
0.000665399

> <r_epik_Charging_Adjusted_Penalty>
0.000665399

> <i_epik_Tot_Q>
0

> <i_epik_Tot_abs_Q>
0

> <r_epik_Metal_State_Penalty>
-0

> <b_epik_Metal_Only>
0

> <s_lp_Force_Field>
OPLS_2005

> <r_lp_Energy>
33.8653

> <b_lp_Chiralities_Consistent>
1

> <s_lp_Variant>
AV-unprocessed.smi:17-6

> <Gold.Version>
5.8.1

> <Gold.Id.Protein>
6NUR|6NUR_protein|mol2

> <Gold.PLP.Fitness>
45.6164

> <Gold.PLP.PLP>
-38.5506

> <Gold.PLP.part.hbond>
-4.1234

> <Gold.PLP.part.metal>
0.0000

> <Gold.PLP.part.buried>
-7.6134

> <Gold.PLP.part.nonpolar>
-27.6988

> <Gold.PLP.part.repulsive>
0.0000

> <Gold.PLP.ligand.clash>
0.0000

> <Gold.PLP.ligand.torsion>
2.6099

> <Gold.PLP.Chemscore.Hbond>
3.6644

> <Gold.PLP.Chemscore.CHOScore>
0.0000

> <Gold.PLP.Chemscore.Metal>
0.0000

> <Gold.Chemscore.Hbonds>
donor molecule, donor type, donor heavy atom, donor atom, acceptor molecule, acceptor atom, score
      P1  H  6896  6907       L1     5  1.00
      P1  H  6931  6943       L1    27  0.16
      P1  H  6934  6947       L1    27  0.83
      P1  H  7989  7998       L1    16  0.84

> <Gold.PLP.Chemscore.Internal.Correction>
1.2924

> <Gold.Rescore>
     Score         DG    S(hbond)    S(metal)    S(lipo)     H(rot)  DE(clash)    DE(int)     intcor
     13.12     -17.17       3.55        0.00      81.45       3.79       0.05       4.00       ----

> <Gold.Chemscore.Fitness>
13.1174

> <Gold.Chemscore.DG>
-17.1703

> <Gold.Chemscore.ZeroCoef>
-5.4800

> <Gold.Chemscore.Hbond>
3.5514

> <Gold.Chemscore.Metal>
0.0000

> <Gold.Chemscore.Lipo>
81.4498

> <Gold.Chemscore.Internal_Hbond>
0.0000

> <Gold.Chemscore.DEClash>
0.0547

> <Gold.Chemscore.DEInternal>
3.9982

> <Gold.Chemscore.Rot>
3.7894

> <Gold.Chemscore.Internal.Correction>
   9.000000E+99

> <Gold.Chemscore.Hbonds>
donor molecule, donor type, donor heavy atom, donor atom, acceptor molecule, acceptor atom, score
      P1  H  6896  6907       L1     5  0.34
      P1  H  6931  6943       L1    27  0.18
      P1  H  6934  6947       L1    27  0.76
      P1  H  7989  7998       L1    16  0.77

> <Gold.Chemscore.Hbond.Weighted>
-11.8617

> <Gold.Chemscore.Metal.Weighted>
-0.0000

> <Gold.Chemscore.Lipo.Weighted>
-9.5296

> <Gold.Chemscore.Internal_Hbond.Weighted>
0.0000

> <Gold.Chemscore.DEClash.Weighted>
0.0547

> <Gold.Chemscore.DEInternal.Weighted>
3.9982

> <Gold.Chemscore.Rot.Weighted>
9.7010

> <Gold.Chemscore.Internal.Correction.Weighted>
   9.000000E+99

> <Gold.Protein.RotatedTorsions>
[ 6907 6896 6895 6894 ] final  -58.90 input  -60.11 | X-H torsion
[ 7974 7965 7964 7962 ] final  -71.85 input  175.53 | X-H torsion
[ 8008 7997 7996 7995 ] final  139.16 input   59.86 | X-H torsion
[ 10167 10162 10161 10158 ] final -114.93 input  -65.29 | X-H torsion
[ 10718 10713 10712 10709 ] final  146.08 input   66.30 | X-H torsion
[ 10763 10752 10751 10750 ] final -122.82 input  -60.55 | X-H torsion
[ 11005 11000 10999 10996 ] final -115.27 input  -57.11 | X-H torsion

> <Gold.Protein.ActiveResidues>
 VAL166  LYS551  ARG553  GLY616  TRP617  ASP618  TYR619  PRO620  LYS621  CYS622 
 ASP623  PHE694  ASN695  SER759  ASP760  ASP761  ALA762  ILE779  LEU786  VAL792 
 PHE793  MET794  SER795  GLU796  ALA797  LYS798  CYS799  TRP800  GLU811  SER814 

> <Gold.Protein.RotatedAtoms>
  150.7971  134.7038  159.6564 H   0  0  0  0  0  0  0  0  0  0  0  0  # atno 6907 bound_to 6896
  152.4084  134.6163  160.0049 H   0  0  0  0  0  0  0  0  0  0  0  0  # atno 6908 bound_to 6896
  151.6413  133.3289  159.3167 H   0  0  0  0  0  0  0  0  0  0  0  0  # atno 6909 bound_to 6896
  145.6727  140.9215  143.0874 H   0  0  0  0  0  0  0  0  0  0  0  0  # atno 7974 bound_to 7965
  156.2992  140.2374  156.4192 H   0  0  0  0  0  0  0  0  0  0  0  0  # atno 8008 bound_to 7997
  154.8370  140.0430  157.1536 H   0  0  0  0  0  0  0  0  0  0  0  0  # atno 8009 bound_to 7997
  154.9144  140.2995  155.5253 H   0  0  0  0  0  0  0  0  0  0  0  0  # atno 8010 bound_to 7997
  140.0956  143.4660  152.1843 H   0  0  0  0  0  0  0  0  0  0  0  0  # atno 10167 bound_to 10162
  157.3376  131.0930  151.1110 H   0  0  0  0  0  0  0  0  0  0  0  0  # atno 10718 bound_to 10713
  154.8696  135.4120  154.2843 H   0  0  0  0  0  0  0  0  0  0  0  0  # atno 10763 bound_to 10752
  153.3730  135.7008  153.6629 H   0  0  0  0  0  0  0  0  0  0  0  0  # atno 10764 bound_to 10752
  153.5482  135.3634  155.2720 H   0  0  0  0  0  0  0  0  0  0  0  0  # atno 10765 bound_to 10752
  141.0498  133.9705  157.2855 H   0  0  0  0  0  0  0  0  0  0  0  0  # atno 11005 bound_to 11000
  144.7051  139.8593  143.7432 LP  0  0  0  0  0  0  0  0  0  0  0  0  # atno 17320 bound_to 7965
  146.1032  139.4029  143.0334 LP  0  0  0  0  0  0  0  0  0  0  0  0  # atno 17321 bound_to 7965
  139.5700  144.7457  151.3917 LP  0  0  0  0  0  0  0  0  0  0  0  0  # atno 17342 bound_to 10162
  140.7005  143.7643  150.7396 LP  0  0  0  0  0  0  0  0  0  0  0  0  # atno 17343 bound_to 10162
  157.2334  130.6536  149.5859 LP  0  0  0  0  0  0  0  0  0  0  0  0  # atno 17370 bound_to 10713
  155.9703  130.4591  150.6024 LP  0  0  0  0  0  0  0  0  0  0  0  0  # atno 17371 bound_to 10713
  139.9341  135.0198  156.8498 LP  0  0  0  0  0  0  0  0  0  0  0  0  # atno 17394 bound_to 11000
  140.6077  134.0112  155.7563 LP  0  0  0  0  0  0  0  0  0  0  0  0  # atno 17395 bound_to 11000

$$$$
