AV-unprocessed.smi:632|AV-procd|sdf|3128|dock4
  -GOLD-   22720 0 53D 1   1.00000     0.00000
 Structure written by MMmdl.
 41 42  0  0  0  0  0  0  0  0  2 V2000
  151.6073  129.3582  156.9705 C   0  0  0  0  0  0  0  0  0  0  0  0
  151.5727  129.6761  155.4628 C   0  0  0  0  0  0  0  0  0  0  0  0
  153.0351  129.7689  154.9747 C   0  0  0  0  0  0  0  0  0  0  0  0
  150.8944  128.5333  154.6826 C   0  0  0  0  0  0  0  0  0  0  0  0
  150.8281  130.9698  155.2281 C   0  0  0  0  0  0  0  0  0  0  0  0
  151.2251  132.1268  155.7722 N   0  0  0  0  0  0  0  0  0  0  0  0
  150.4031  133.1895  155.4296 N   0  0  0  0  0  0  0  0  0  0  0  0
  149.3943  132.8353  154.6230 C   0  0  0  0  0  0  0  0  0  0  0  0
  148.4846  133.7175  154.1773 N   0  5  0  0  0  0  0  0  0  0  0  0
  147.4491  133.2941  153.4171 C   0  0  0  0  0  0  0  0  0  0  0  0
  146.6427  132.4084  153.7100 O   0  0  0  0  0  0  0  0  0  0  0  0
  147.3418  133.9376  152.2455 N   0  0  0  0  0  0  0  0  0  0  0  0
  146.3264  133.7015  151.2224 C   0  0  2  0  0  0  0  0  0  0  0  0
  144.9387  134.1638  151.7143 C   0  0  0  0  0  0  0  0  0  0  0  0
  143.8435  133.8520  150.6817 C   0  0  0  0  0  0  0  0  0  0  0  0
  143.8302  132.3566  150.3215 C   0  0  1  0  0  0  0  0  0  0  0  0
  142.8621  132.1204  149.3209 O   0  0  0  0  0  0  0  0  0  0  0  0
  145.2098  131.8958  149.8207 C   0  0  0  0  0  0  0  0  0  0  0  0
  146.3052  132.2058  150.8538 C   0  0  0  0  0  0  0  0  0  0  0  0
  149.3751  131.1163  154.2385 S   0  0  0  0  0  0  0  0  0  0  0  0
  152.1545  128.4363  157.1707 H   0  0  0  0  0  0  0  0  0  0  0  0
  150.6027  129.2325  157.3756 H   0  0  0  0  0  0  0  0  0  0  0  0
  152.0907  130.1576  157.5330 H   0  0  0  0  0  0  0  0  0  0  0  0
  153.5847  130.5532  155.4964 H   0  0  0  0  0  0  0  0  0  0  0  0
  153.0904  129.9773  153.9057 H   0  0  0  0  0  0  0  0  0  0  0  0
  153.5699  128.8342  155.1466 H   0  0  0  0  0  0  0  0  0  0  0  0
  151.4212  127.5887  154.8213 H   0  0  0  0  0  0  0  0  0  0  0  0
  150.8705  128.7443  153.6128 H   0  0  0  0  0  0  0  0  0  0  0  0
  149.8654  128.3815  155.0099 H   0  0  0  0  0  0  0  0  0  0  0  0
  148.0257  134.6539  152.0500 H   0  0  0  0  0  0  0  0  0  0  0  0
  146.5888  134.2650  150.3249 H   0  0  0  0  0  0  0  0  0  0  0  0
  144.6983  133.6701  152.6571 H   0  0  0  0  0  0  0  0  0  0  0  0
  144.9488  135.2345  151.9214 H   0  0  0  0  0  0  0  0  0  0  0  0
  142.8712  134.1531  151.0736 H   0  0  0  0  0  0  0  0  0  0  0  0
  144.0151  134.4491  149.7848 H   0  0  0  0  0  0  0  0  0  0  0  0
  143.5520  131.7753  151.2016 H   0  0  0  0  0  0  0  0  0  0  0  0
  142.2288  132.8212  149.3464 H   0  0  0  0  0  0  0  0  0  0  0  0
  145.1944  130.8259  149.6092 H   0  0  0  0  0  0  0  0  0  0  0  0
  145.4500  132.3944  148.8804 H   0  0  0  0  0  0  0  0  0  0  0  0
  147.2764  131.9046  150.4595 H   0  0  0  0  0  0  0  0  0  0  0  0
  146.1359  131.6065  151.7496 H   0  0  0  0  0  0  0  0  0  0  0  0
  1  2  1  0  0  0  0
  1 21  1  0  0  0  0
  1 22  1  0  0  0  0
  1 23  1  0  0  0  0
  2  3  1  0  0  0  0
  2  4  1  0  0  0  0
  2  5  1  0  0  0  0
  3 24  1  0  0  0  0
  3 25  1  0  0  0  0
  3 26  1  0  0  0  0
  4 27  1  0  0  0  0
  4 28  1  0  0  0  0
  4 29  1  0  0  0  0
  5 20  1  0  0  0  0
  5  6  2  0  0  0  0
  6  7  1  0  0  0  0
  7  8  2  0  0  0  0
  8  9  1  0  0  0  0
  8 20  1  0  0  0  0
  9 10  1  0  0  0  0
 10 11  2  0  0  0  0
 10 12  1  0  0  0  0
 12 13  1  0  0  0  0
 12 30  1  0  0  0  0
 13 19  1  0  0  0  0
 13 14  1  0  0  0  0
 13 31  1  0  0  0  0
 14 15  1  0  0  0  0
 14 32  1  0  0  0  0
 14 33  1  0  0  0  0
 15 16  1  0  0  0  0
 15 34  1  0  0  0  0
 15 35  1  0  0  0  0
 16 17  1  0  0  0  0
 16 18  1  0  0  0  0
 16 36  1  0  0  0  0
 17 37  1  0  0  0  0
 18 19  1  0  0  0  0
 18 38  1  0  0  0  0
 18 39  1  0  0  0  0
 19 40  1  0  0  0  0
 19 41  1  0  0  0  0
M  CHG  1   9  -1
M  END
> <s_m_source_file>
AV-unprocessed.smi

> <i_m_source_file_index>
632

> <i_lp_mmshare_version>
43012

> <i_f3d_flags>
0

> <s_epik_input>
W0NIM11DKFtDSDNdKShbQ0gzXSljMW5uYyhzMSlbTkhdQyg9TylbTkhdW0NAQEhdMltDSDJdW0NIMl1bQ0BASF0oW09IXSlbQ0gyXVtDSDJdMg==

> <s_epik_cmdline>
J2VwaWtfcHl0aG9uJywgJy1waCcsICc3LjAnLCAnLXRuJywgJzgnLCAnLW1hJywgJzIwMCcsICctbWV0YWxfYmluZGluZycsICctaW1hZScsICc8aW5maWxlLm1hZT4nLCAnLW9tYWUnLCAnPG91dGZpbGUubWFlPic=

> <r_lp_tautomer_probability>
1

> <r_epik_Ionization_Penalty>
4.62389

> <r_epik_Ionization_Penalty_Charging>
4.45204

> <r_epik_Ionization_Penalty_Neutral>
0.171842

> <r_epik_State_Penalty>
4.45172

> <r_epik_Charging_Adjusted_Penalty>
8.90376

> <i_epik_Tot_Q>
-1

> <i_epik_Tot_abs_Q>
1

> <r_epik_Metal_State_Penalty>
0.795834

> <b_epik_Metal_Only>
1

> <s_lp_Force_Field>
OPLS_2005

> <r_lp_Energy>
0.241417

> <b_lp_Chiralities_Consistent>
1

> <s_lp_Variant>
AV-unprocessed.smi:632-3

> <Gold.Version>
5.8.1

> <Gold.Id.Protein>
6NUR|6NUR_protein|mol2

> <Gold.PLP.Fitness>
41.7416

> <Gold.PLP.PLP>
-34.1391

> <Gold.PLP.part.hbond>
-3.9302

> <Gold.PLP.part.metal>
0.0000

> <Gold.PLP.part.buried>
-3.8228

> <Gold.PLP.part.nonpolar>
-27.8650

> <Gold.PLP.part.repulsive>
0.2532

> <Gold.PLP.ligand.clash>
0.0000

> <Gold.PLP.ligand.torsion>
0.5630

> <Gold.PLP.Chemscore.Hbond>
2.9013

> <Gold.PLP.Chemscore.CHOScore>
0.0000

> <Gold.PLP.Chemscore.Metal>
0.0000

> <Gold.Chemscore.Hbonds>
donor molecule, donor type, donor heavy atom, donor atom, acceptor molecule, acceptor atom, score
      L1  H    12    30       P1  7948  1.00
      L1  H    17    37       P1 10186  1.00
      P1  H 10785 10796       L1    17  0.86

> <Gold.PLP.Chemscore.Internal.Correction>
0.0248

> <Gold.Rescore>
     Score         DG    S(hbond)    S(metal)    S(lipo)     H(rot)  DE(clash)    DE(int)     intcor
     15.31     -17.28       2.13        0.00      76.67       1.67       0.06       1.91       ----

> <Gold.Chemscore.Fitness>
15.3122

> <Gold.Chemscore.DG>
-17.2802

> <Gold.Chemscore.ZeroCoef>
-5.4800

> <Gold.Chemscore.Hbond>
2.1303

> <Gold.Chemscore.Metal>
0.0000

> <Gold.Chemscore.Lipo>
76.6659

> <Gold.Chemscore.Internal_Hbond>
0.0000

> <Gold.Chemscore.DEClash>
0.0619

> <Gold.Chemscore.DEInternal>
1.9062

> <Gold.Chemscore.Rot>
1.6737

> <Gold.Chemscore.Internal.Correction>
   9.000000E+99

> <Gold.Chemscore.Hbonds>
donor molecule, donor type, donor heavy atom, donor atom, acceptor molecule, acceptor atom, score
      L1  H    12    30       P1  7948  0.26
      L1  H    17    37       P1 10186  0.95
      P1  H 10785 10796       L1    17  0.42

> <Gold.Chemscore.Hbond.Weighted>
-7.1151

> <Gold.Chemscore.Metal.Weighted>
-0.0000

> <Gold.Chemscore.Lipo.Weighted>
-8.9699

> <Gold.Chemscore.Internal_Hbond.Weighted>
0.0000

> <Gold.Chemscore.DEClash.Weighted>
0.0619

> <Gold.Chemscore.DEInternal.Weighted>
1.9062

> <Gold.Chemscore.Rot.Weighted>
4.2848

> <Gold.Chemscore.Internal.Correction.Weighted>
   9.000000E+99

> <Gold.Protein.RotatedTorsions>
[ 6907 6896 6895 6894 ] final  114.03 input  -60.11 | X-H torsion
[ 7974 7965 7964 7962 ] final  162.01 input  175.53 | X-H torsion
[ 8008 7997 7996 7995 ] final  148.45 input   59.86 | X-H torsion
[ 10167 10162 10161 10158 ] final -167.17 input  -65.29 | X-H torsion
[ 10718 10713 10712 10709 ] final   73.79 input   66.30 | X-H torsion
[ 10763 10752 10751 10750 ] final  123.03 input  -60.55 | X-H torsion
[ 11005 11000 10999 10996 ] final -140.50 input  -57.11 | X-H torsion

> <Gold.Protein.ActiveResidues>
 VAL166  LYS551  ARG553  GLY616  TRP617  ASP618  TYR619  PRO620  LYS621  CYS622 
 ASP623  PHE694  ASN695  SER759  ASP760  ASP761  ALA762  ILE779  LEU786  VAL792 
 PHE793  MET794  SER795  GLU796  ALA797  LYS798  CYS799  TRP800  GLU811  SER814 

> <Gold.Protein.RotatedAtoms>
  152.4826  133.8293  159.7094 H   0  0  0  0  0  0  0  0  0  0  0  0  # atno 6907 bound_to 6896
  150.8888  133.7262  159.2917 H   0  0  0  0  0  0  0  0  0  0  0  0  # atno 6908 bound_to 6896
  151.4742  135.1051  159.9812 H   0  0  0  0  0  0  0  0  0  0  0  0  # atno 6909 bound_to 6896
  144.7657  139.7980  143.6316 H   0  0  0  0  0  0  0  0  0  0  0  0  # atno 7974 bound_to 7965
  156.2790  140.2128  156.5700 H   0  0  0  0  0  0  0  0  0  0  0  0  # atno 8008 bound_to 7997
  154.7143  140.0509  157.0603 H   0  0  0  0  0  0  0  0  0  0  0  0  # atno 8009 bound_to 7997
  155.0563  140.3162  155.4678 H   0  0  0  0  0  0  0  0  0  0  0  0  # atno 8010 bound_to 7997
  139.6066  144.0899  152.1799 H   0  0  0  0  0  0  0  0  0  0  0  0  # atno 10167 bound_to 10162
  157.6564  130.9646  150.1119 H   0  0  0  0  0  0  0  0  0  0  0  0  # atno 10718 bound_to 10713
  153.6391  135.3382  155.3066 H   0  0  0  0  0  0  0  0  0  0  0  0  # atno 10763 bound_to 10752
  154.8563  135.4314  154.2024 H   0  0  0  0  0  0  0  0  0  0  0  0  # atno 10764 bound_to 10752
  153.2938  135.7019  153.7341 H   0  0  0  0  0  0  0  0  0  0  0  0  # atno 10765 bound_to 10752
  140.8416  134.2395  157.4807 H   0  0  0  0  0  0  0  0  0  0  0  0  # atno 11005 bound_to 11000
  146.1762  139.4934  142.9896 LP  0  0  0  0  0  0  0  0  0  0  0  0  # atno 17320 bound_to 7965
  145.6477  141.0270  143.1777 LP  0  0  0  0  0  0  0  0  0  0  0  0  # atno 17321 bound_to 7965
  140.0508  144.5934  150.7337 LP  0  0  0  0  0  0  0  0  0  0  0  0  # atno 17342 bound_to 10162
  140.7289  143.2667  151.4021 LP  0  0  0  0  0  0  0  0  0  0  0  0  # atno 17343 bound_to 10162
  156.2014  130.3660  149.8784 LP  0  0  0  0  0  0  0  0  0  0  0  0  # atno 17370 bound_to 10713
  156.6687  130.8811  151.3559 LP  0  0  0  0  0  0  0  0  0  0  0  0  # atno 17371 bound_to 10713
  139.8703  134.9638  156.4474 LP  0  0  0  0  0  0  0  0  0  0  0  0  # atno 17394 bound_to 11000
  140.8889  133.7863  155.9549 LP  0  0  0  0  0  0  0  0  0  0  0  0  # atno 17395 bound_to 11000

$$$$
