AV-unprocessed.smi:3032|AV-procd|sdf|11569|dock1
  -GOLD-   2272016533D 1   1.00000     0.00000
 Structure written by MMmdl.
 36 37  0  0  0  0  0  0  0  0  2 V2000
  151.9968  145.2638  159.5089 C   0  0  0  0  0  0  0  0  0  0  0  0
  151.7057  143.7843  159.2206 C   0  0  2  0  0  0  0  0  0  0  0  0
  152.8965  142.8897  159.6119 C   0  0  0  0  0  0  0  0  0  0  0  0
  152.6026  141.4066  159.3397 C   0  0  0  0  0  0  0  0  0  0  0  0
  152.1956  141.1689  157.8724 C   0  0  0  0  0  0  0  0  0  0  0  0
  151.0489  142.0878  157.3860 C   0  0  1  0  0  0  0  0  0  0  0  0
  149.6566  141.6426  157.8716 C   0  0  0  0  0  0  0  0  0  0  0  0
  149.5139  140.6241  158.5487 O   0  0  0  0  0  0  0  0  0  0  0  0
  148.6298  142.4295  157.5166 N   0  0  0  0  0  0  0  0  0  0  0  0
  147.2455  142.2460  157.9397 C   0  0  0  0  0  0  0  0  0  0  0  0
  146.6713  143.4921  158.6407 C   0  0  0  0  0  0  0  0  0  0  0  0
  145.9447  143.1743  159.9331 C   0  0  0  0  0  0  0  0  0  0  0  0
  146.4773  142.5385  160.9969 N   0  5  0  0  0  0  0  0  0  0  0  0
  145.5662  142.3874  161.9384 N   0  0  0  0  0  0  0  0  0  0  0  0
  144.4637  142.9402  161.4189 C   0  0  0  0  0  0  0  0  0  0  0  0
  144.6630  143.4266  160.1895 N   0  0  0  0  0  0  0  0  0  0  0  0
  151.3396  143.5647  157.7379 C   0  0  0  0  0  0  0  0  0  0  0  0
  152.8460  145.6226  158.9267 H   0  0  0  0  0  0  0  0  0  0  0  0
  152.2250  145.4203  160.5636 H   0  0  0  0  0  0  0  0  0  0  0  0
  151.1363  145.8869  159.2626 H   0  0  0  0  0  0  0  0  0  0  0  0
  150.8511  143.5005  159.8357 H   0  0  0  0  0  0  0  0  0  0  0  0
  153.7838  143.1922  159.0541 H   0  0  0  0  0  0  0  0  0  0  0  0
  153.1347  143.0251  160.6673 H   0  0  0  0  0  0  0  0  0  0  0  0
  153.4836  140.8092  159.5757 H   0  0  0  0  0  0  0  0  0  0  0  0
  151.8195  141.0601  160.0132 H   0  0  0  0  0  0  0  0  0  0  0  0
  153.0670  141.3368  157.2384 H   0  0  0  0  0  0  0  0  0  0  0  0
  151.9260  140.1211  157.7320 H   0  0  0  0  0  0  0  0  0  0  0  0
  151.0300  142.0144  156.2971 H   0  0  0  0  0  0  0  0  0  0  0  0
  148.8310  143.2542  156.9697 H   0  0  0  0  0  0  0  0  0  0  0  0
  146.6569  142.0314  157.0476 H   0  0  0  0  0  0  0  0  0  0  0  0
  147.1574  141.3708  158.5850 H   0  0  0  0  0  0  0  0  0  0  0  0
  147.4737  144.1986  158.8544 H   0  0  0  0  0  0  0  0  0  0  0  0
  145.9786  144.0075  157.9743 H   0  0  0  0  0  0  0  0  0  0  0  0
  143.5135  142.9858  161.9362 H   0  0  0  0  0  0  0  0  0  0  0  0
  150.4804  144.1844  157.4756 H   0  0  0  0  0  0  0  0  0  0  0  0
  152.1591  143.9187  157.1109 H   0  0  0  0  0  0  0  0  0  0  0  0
  1  2  1  0  0  0  0
  1 18  1  0  0  0  0
  1 19  1  0  0  0  0
  1 20  1  0  0  0  0
  2 17  1  0  0  0  0
  2  3  1  0  0  0  0
  2 21  1  0  0  0  0
  3  4  1  0  0  0  0
  3 22  1  0  0  0  0
  3 23  1  0  0  0  0
  4  5  1  0  0  0  0
  4 24  1  0  0  0  0
  4 25  1  0  0  0  0
  5  6  1  0  0  0  0
  5 26  1  0  0  0  0
  5 27  1  0  0  0  0
  6  7  1  0  0  0  0
  6 17  1  0  0  0  0
  6 28  1  0  0  0  0
  7  8  2  0  0  0  0
  7  9  1  0  0  0  0
  9 10  1  0  0  0  0
  9 29  1  0  0  0  0
 10 11  1  0  0  0  0
 10 30  1  0  0  0  0
 10 31  1  0  0  0  0
 11 32  1  0  0  0  0
 11 33  1  0  0  0  0
 11 12  1  0  0  0  0
 12 16  2  0  0  0  0
 12 13  1  0  0  0  0
 13 14  1  0  0  0  0
 14 15  2  0  0  0  0
 15 16  1  0  0  0  0
 15 34  1  0  0  0  0
 17 35  1  0  0  0  0
 17 36  1  0  0  0  0
M  CHG  1  13  -1
M  END
> <s_m_source_file>
AV-unprocessed.smi

> <i_m_source_file_index>
3032

> <i_lp_mmshare_version>
43012

> <i_f3d_flags>
0

> <s_epik_input>
W0NIM11bQ0BASF0xW0NIMl1bQ0gyXVtDSDJdW0NASF0oW0NIMl0xKUMoPU8pW05IXVtDSDJdW0NIMl1jMm5uW2NIXVtuSF0y

> <s_epik_cmdline>
J2VwaWtfcHl0aG9uJywgJy1waCcsICc3LjAnLCAnLXRuJywgJzgnLCAnLW1hJywgJzIwMCcsICctbWV0YWxfYmluZGluZycsICctaW1hZScsICc8aW5maWxlLm1hZT4nLCAnLW9tYWUnLCAnPG91dGZpbGUubWFlPic=

> <r_lp_tautomer_probability>
0.948284

> <r_epik_Ionization_Penalty>
12.042

> <r_epik_Ionization_Penalty_Charging>
12.042

> <r_epik_Ionization_Penalty_Neutral>
4.36781e-08

> <r_epik_State_Penalty>
4.67286

> <r_epik_Charging_Adjusted_Penalty>
16.7149

> <i_epik_Tot_Q>
-1

> <i_epik_Tot_abs_Q>
1

> <r_epik_Metal_State_Penalty>
0.981637

> <b_epik_Metal_Only>
1

> <s_lp_Force_Field>
OPLS_2005

> <r_lp_Energy>
8.77891

> <b_lp_Chiralities_Consistent>
1

> <s_lp_Variant>
AV-unprocessed.smi:3032-13

> <Gold.Version>
5.8.1

> <Gold.Id.Protein>
6NUR|6NUR_protein|mol2

> <Gold.PLP.Fitness>
43.1716

> <Gold.PLP.PLP>
-31.6574

> <Gold.PLP.part.hbond>
-4.9458

> <Gold.PLP.part.metal>
0.0000

> <Gold.PLP.part.buried>
-2.0787

> <Gold.PLP.part.nonpolar>
-24.6190

> <Gold.PLP.part.repulsive>
0.0896

> <Gold.PLP.ligand.clash>
0.0000

> <Gold.PLP.ligand.torsion>
0.4181

> <Gold.PLP.Chemscore.Hbond>
4.0962

> <Gold.PLP.Chemscore.CHOScore>
0.0000

> <Gold.PLP.Chemscore.Metal>
0.0000

> <Gold.Chemscore.Hbonds>
donor molecule, donor type, donor heavy atom, donor atom, acceptor molecule, acceptor atom, score
      L1  H     9    29       P1  8028  1.00
      P1  H  6933  6944       L1    13  1.27
      P1  H  6934  6946       L1    13  1.82

> <Gold.PLP.Chemscore.Internal.Correction>
0.0619

> <Gold.Rescore>
     Score         DG    S(hbond)    S(metal)    S(lipo)     H(rot)  DE(clash)    DE(int)     intcor
     12.97     -13.86       1.66        0.00      72.70       2.21       0.38       0.50       ----

> <Gold.Chemscore.Fitness>
12.9715

> <Gold.Chemscore.DG>
-13.8552

> <Gold.Chemscore.ZeroCoef>
-5.4800

> <Gold.Chemscore.Hbond>
1.6584

> <Gold.Chemscore.Metal>
0.0000

> <Gold.Chemscore.Lipo>
72.7043

> <Gold.Chemscore.Internal_Hbond>
0.0000

> <Gold.Chemscore.DEClash>
0.3815

> <Gold.Chemscore.DEInternal>
0.5022

> <Gold.Chemscore.Rot>
2.2149

> <Gold.Chemscore.Internal.Correction>
   9.000000E+99

> <Gold.Chemscore.Hbonds>
donor molecule, donor type, donor heavy atom, donor atom, acceptor molecule, acceptor atom, score
      L1  H     9    29       P1  8028  0.64
      P1  H  6933  6944       L1    13  0.59
      P1  H  6934  6946       L1    13  0.21

> <Gold.Chemscore.Hbond.Weighted>
-5.5390

> <Gold.Chemscore.Metal.Weighted>
-0.0000

> <Gold.Chemscore.Lipo.Weighted>
-8.5064

> <Gold.Chemscore.Internal_Hbond.Weighted>
0.0000

> <Gold.Chemscore.DEClash.Weighted>
0.3815

> <Gold.Chemscore.DEInternal.Weighted>
0.5022

> <Gold.Chemscore.Rot.Weighted>
5.6702

> <Gold.Chemscore.Internal.Correction.Weighted>
   9.000000E+99

> <Gold.Protein.RotatedTorsions>
[ 6907 6896 6895 6894 ] final   80.27 input  -60.11 | X-H torsion
[ 7974 7965 7964 7962 ] final  -38.76 input  175.53 | X-H torsion
[ 8008 7997 7996 7995 ] final   17.83 input   59.86 | X-H torsion
[ 10167 10162 10161 10158 ] final   74.28 input  -65.29 | X-H torsion
[ 10718 10713 10712 10709 ] final  110.83 input   66.30 | X-H torsion
[ 10763 10752 10751 10750 ] final  -19.77 input  -60.55 | X-H torsion
[ 11005 11000 10999 10996 ] final  -87.69 input  -57.11 | X-H torsion

> <Gold.Protein.ActiveResidues>
 VAL166  LYS551  ARG553  GLY616  TRP617  ASP618  TYR619  PRO620  LYS621  CYS622 
 ASP623  PHE694  ASN695  SER759  ASP760  ASP761  ALA762  ILE779  LEU786  VAL792 
 PHE793  MET794  SER795  GLU796  ALA797  LYS798  CYS799  TRP800  GLU811  SER814 

> <Gold.Protein.RotatedAtoms>
  152.5229  134.3383  159.9207 H   0  0  0  0  0  0  0  0  0  0  0  0  # atno 6907 bound_to 6896
  151.3332  133.3986  159.2672 H   0  0  0  0  0  0  0  0  0  0  0  0  # atno 6908 bound_to 6896
  150.9863  134.9226  159.7931 H   0  0  0  0  0  0  0  0  0  0  0  0  # atno 6909 bound_to 6896
  146.0457  140.6549  142.9066 H   0  0  0  0  0  0  0  0  0  0  0  0  # atno 7974 bound_to 7965
  154.8972  140.2995  155.5338 H   0  0  0  0  0  0  0  0  0  0  0  0  # atno 8008 bound_to 7997
  156.3019  140.2413  156.3930 H   0  0  0  0  0  0  0  0  0  0  0  0  # atno 8009 bound_to 7997
  154.8558  140.0407  157.1622 H   0  0  0  0  0  0  0  0  0  0  0  0  # atno 8010 bound_to 7997
  140.0154  144.5582  150.7625 H   0  0  0  0  0  0  0  0  0  0  0  0  # atno 10167 bound_to 10162
  157.6475  131.0940  150.6660 H   0  0  0  0  0  0  0  0  0  0  0  0  # atno 10718 bound_to 10713
  153.6100  135.6996  153.5350 H   0  0  0  0  0  0  0  0  0  0  0  0  # atno 10763 bound_to 10752
  153.3025  135.4125  155.1264 H   0  0  0  0  0  0  0  0  0  0  0  0  # atno 10764 bound_to 10752
  154.8565  135.3652  154.5638 H   0  0  0  0  0  0  0  0  0  0  0  0  # atno 10765 bound_to 10752
  141.1613  133.7526  156.9343 H   0  0  0  0  0  0  0  0  0  0  0  0  # atno 11005 bound_to 11000
  144.7097  140.3990  143.7090 LP  0  0  0  0  0  0  0  0  0  0  0  0  # atno 17320 bound_to 7965
  145.6809  139.1618  143.2701 LP  0  0  0  0  0  0  0  0  0  0  0  0  # atno 17321 bound_to 7965
  140.7364  143.2753  151.3761 LP  0  0  0  0  0  0  0  0  0  0  0  0  # atno 17342 bound_to 10162
  139.6176  144.0971  152.2361 LP  0  0  0  0  0  0  0  0  0  0  0  0  # atno 17343 bound_to 10162
  156.6975  130.4613  149.5582 LP  0  0  0  0  0  0  0  0  0  0  0  0  # atno 17370 bound_to 10713
  156.1818  130.6504  151.0960 LP  0  0  0  0  0  0  0  0  0  0  0  0  # atno 17371 bound_to 10713
  140.1365  134.9322  157.2409 LP  0  0  0  0  0  0  0  0  0  0  0  0  # atno 17394 bound_to 11000
  140.2889  134.3264  155.7321 LP  0  0  0  0  0  0  0  0  0  0  0  0  # atno 17395 bound_to 11000

$$$$
