AV-unprocessed.smi:1961|AV-procd|sdf|7919|dock2
  -GOLD-   2272010 83D 1   1.00000     0.00000
 Structure written by MMmdl.
 36 37  0  0  0  0  0  0  0  0  1 V2000
  143.7972  143.6405  162.8199 C   0  0  0  0  0  0  0  0  0  0  0  0
  143.9878  143.5430  161.2994 C   0  0  0  0  0  0  0  0  0  0  0  0
  143.3747  142.2707  160.6962 C   0  0  0  0  0  0  0  0  0  0  0  0
  145.4178  143.7269  160.8951 C   0  0  0  0  0  0  0  0  0  0  0  0
  146.4427  143.5700  161.7440 N   0  0  0  0  0  0  0  0  0  0  0  0
  147.6709  143.7894  161.1364 N   0  0  0  0  0  0  0  0  0  0  0  0
  147.5383  144.1044  159.8408 C   0  0  0  0  0  0  0  0  0  0  0  0
  148.6330  144.3706  158.9764 N   0  0  0  0  0  0  0  0  0  0  0  0
  149.9473  144.3292  159.2577 C   0  0  0  0  0  0  0  0  0  0  0  0
  150.4316  144.0683  160.3592 O   0  0  0  0  0  0  0  0  0  0  0  0
  150.6829  144.6170  158.1743 N   0  0  0  0  0  0  0  0  0  0  0  0
  152.1411  144.6625  158.1273 C   0  0  0  0  0  0  0  0  0  0  0  0
  152.7698  143.3481  158.6201 C   0  0  1  0  0  0  0  0  0  0  0  0
  153.0928  143.3029  160.1139 C   0  0  0  0  0  0  0  0  0  0  0  0
  153.0902  141.8152  160.3788 C   0  0  0  0  0  0  0  0  0  0  0  0
  151.9372  141.3443  159.4973 C   0  0  0  0  0  0  0  0  0  0  0  0
  151.8719  142.2619  158.4077 O   0  0  0  0  0  0  0  0  0  0  0  0
  145.8849  144.1632  159.2546 S   0  0  0  0  0  0  0  0  0  0  0  0
  144.1657  144.5934  163.2012 H   0  0  0  0  0  0  0  0  0  0  0  0
  144.3313  142.8443  163.3393 H   0  0  0  0  0  0  0  0  0  0  0  0
  142.7433  143.5628  163.0881 H   0  0  0  0  0  0  0  0  0  0  0  0
  143.4376  144.3808  160.8691 H   0  0  0  0  0  0  0  0  0  0  0  0
  143.4509  142.2763  159.6085 H   0  0  0  0  0  0  0  0  0  0  0  0
  142.3185  142.1842  160.9525 H   0  0  0  0  0  0  0  0  0  0  0  0
  143.8790  141.3756  161.0618 H   0  0  0  0  0  0  0  0  0  0  0  0
  148.3859  144.6122  158.0282 H   0  0  0  0  0  0  0  0  0  0  0  0
  150.1983  144.8203  157.3125 H   0  0  0  0  0  0  0  0  0  0  0  0
  152.4974  144.9060  157.1249 H   0  0  0  0  0  0  0  0  0  0  0  0
  152.4647  145.4808  158.7708 H   0  0  0  0  0  0  0  0  0  0  0  0
  153.6762  143.1336  158.0513 H   0  0  0  0  0  0  0  0  0  0  0  0
  154.0414  143.7809  160.3608 H   0  0  0  0  0  0  0  0  0  0  0  0
  152.3045  143.7858  160.6934 H   0  0  0  0  0  0  0  0  0  0  0  0
  154.0283  141.3735  160.0401 H   0  0  0  0  0  0  0  0  0  0  0  0
  152.9536  141.5652  161.4313 H   0  0  0  0  0  0  0  0  0  0  0  0
  152.0740  140.3204  159.1483 H   0  0  0  0  0  0  0  0  0  0  0  0
  150.9951  141.3921  160.0446 H   0  0  0  0  0  0  0  0  0  0  0  0
  1  2  1  0  0  0  0
  1 19  1  0  0  0  0
  1 20  1  0  0  0  0
  1 21  1  0  0  0  0
  2  3  1  0  0  0  0
  2  4  1  0  0  0  0
  2 22  1  0  0  0  0
  3 23  1  0  0  0  0
  3 24  1  0  0  0  0
  3 25  1  0  0  0  0
  4 18  1  0  0  0  0
  4  5  2  0  0  0  0
  5  6  1  0  0  0  0
  6  7  2  0  0  0  0
  7  8  1  0  0  0  0
  7 18  1  0  0  0  0
  8  9  1  0  0  0  0
  8 26  1  0  0  0  0
  9 10  2  0  0  0  0
  9 11  1  0  0  0  0
 11 12  1  0  0  0  0
 11 27  1  0  0  0  0
 12 13  1  0  0  0  0
 12 28  1  0  0  0  0
 12 29  1  0  0  0  0
 13 17  1  0  0  0  0
 13 14  1  0  0  0  0
 13 30  1  0  0  0  0
 14 15  1  0  0  0  0
 14 31  1  0  0  0  0
 14 32  1  0  0  0  0
 15 16  1  0  0  0  0
 15 33  1  0  0  0  0
 15 34  1  0  0  0  0
 16 17  1  0  0  0  0
 16 35  1  0  0  0  0
 16 36  1  0  0  0  0
M  END
> <s_m_source_file>
AV-unprocessed.smi

> <i_m_source_file_index>
1961

> <i_lp_mmshare_version>
43012

> <i_f3d_flags>
0

> <s_epik_input>
W0NIM11bQ0hdKFtDSDNdKWMxbm5jKHMxKVtOSF1DKD1PKVtOSF1bQ0gyXVtDQEBIXTJbQ0gyXVtDSDJdW0NIMl1PMg==

> <s_epik_cmdline>
J2VwaWtfcHl0aG9uJywgJy1waCcsICc3LjAnLCAnLXRuJywgJzgnLCAnLW1hJywgJzIwMCcsICctbWV0YWxfYmluZGluZycsICctaW1hZScsICc8aW5maWxlLm1hZT4nLCAnLW9tYWUnLCAnPG91dGZpbGUubWFlPic=

> <r_lp_tautomer_probability>
1

> <r_epik_Ionization_Penalty>
0.000505257

> <r_epik_Ionization_Penalty_Charging>
0

> <r_epik_Ionization_Penalty_Neutral>
0.000505257

> <r_epik_State_Penalty>
-0

> <r_epik_Charging_Adjusted_Penalty>
0

> <i_epik_Tot_Q>
0

> <i_epik_Tot_abs_Q>
0

> <r_epik_Metal_State_Penalty>
0.219912

> <b_epik_Metal_Only>
0

> <s_lp_Force_Field>
OPLS_2005

> <r_lp_Energy>
10.2881

> <b_lp_Chiralities_Consistent>
1

> <s_lp_Variant>
AV-unprocessed.smi:1961-2

> <Gold.Version>
5.8.1

> <Gold.Id.Protein>
6NUR|6NUR_protein|mol2

> <Gold.PLP.Fitness>
43.7470

> <Gold.PLP.PLP>
-37.4448

> <Gold.PLP.part.hbond>
-4.1042

> <Gold.PLP.part.metal>
0.0000

> <Gold.PLP.part.buried>
-5.4221

> <Gold.PLP.part.nonpolar>
-27.2874

> <Gold.PLP.part.repulsive>
0.5477

> <Gold.PLP.ligand.clash>
0.0000

> <Gold.PLP.ligand.torsion>
0.8187

> <Gold.PLP.Chemscore.Hbond>
2.6165

> <Gold.PLP.Chemscore.CHOScore>
0.0000

> <Gold.PLP.Chemscore.Metal>
0.0000

> <Gold.Chemscore.Hbonds>
donor molecule, donor type, donor heavy atom, donor atom, acceptor molecule, acceptor atom, score
      L1  H     8    26       P1  8029  0.72
      L1  H    11    27       P1  8028  0.82
      P1  H  6933  6944       L1     6  1.00

> <Gold.PLP.Chemscore.Internal.Correction>
0.0901

> <Gold.Rescore>
     Score         DG    S(hbond)    S(metal)    S(lipo)     H(rot)  DE(clash)    DE(int)     intcor
     13.03     -16.14       1.65        0.00      75.57       1.45       0.02       3.09       ----

> <Gold.Chemscore.Fitness>
13.0283

> <Gold.Chemscore.DG>
-16.1362

> <Gold.Chemscore.ZeroCoef>
-5.4800

> <Gold.Chemscore.Hbond>
1.6518

> <Gold.Chemscore.Metal>
0.0000

> <Gold.Chemscore.Lipo>
75.5653

> <Gold.Chemscore.Internal_Hbond>
0.0000

> <Gold.Chemscore.DEClash>
0.0196

> <Gold.Chemscore.DEInternal>
3.0883

> <Gold.Chemscore.Rot>
1.4461

> <Gold.Chemscore.Internal.Correction>
   9.000000E+99

> <Gold.Chemscore.Hbonds>
donor molecule, donor type, donor heavy atom, donor atom, acceptor molecule, acceptor atom, score
      L1  H     8    26       P1  8029  0.25
      L1  H    11    27       P1  8028  0.16
      P1  H  6933  6944       L1     6  0.37

> <Gold.Chemscore.Hbond.Weighted>
-5.5170

> <Gold.Chemscore.Metal.Weighted>
-0.0000

> <Gold.Chemscore.Lipo.Weighted>
-8.8411

> <Gold.Chemscore.Internal_Hbond.Weighted>
0.0000

> <Gold.Chemscore.DEClash.Weighted>
0.0196

> <Gold.Chemscore.DEInternal.Weighted>
3.0883

> <Gold.Chemscore.Rot.Weighted>
3.7019

> <Gold.Chemscore.Internal.Correction.Weighted>
   9.000000E+99

> <Gold.Protein.RotatedTorsions>
[ 6907 6896 6895 6894 ] final  101.91 input  -60.11 | X-H torsion
[ 7974 7965 7964 7962 ] final   32.06 input  175.53 | X-H torsion
[ 8008 7997 7996 7995 ] final    1.78 input   59.86 | X-H torsion
[ 10167 10162 10161 10158 ] final -150.52 input  -65.29 | X-H torsion
[ 10718 10713 10712 10709 ] final   62.52 input   66.30 | X-H torsion
[ 10763 10752 10751 10750 ] final  122.97 input  -60.55 | X-H torsion
[ 11005 11000 10999 10996 ] final   34.73 input  -57.11 | X-H torsion

> <Gold.Protein.ActiveResidues>
 VAL166  LYS551  ARG553  GLY616  TRP617  ASP618  TYR619  PRO620  LYS621  CYS622 
 ASP623  PHE694  ASN695  SER759  ASP760  ASP761  ALA762  ILE779  LEU786  VAL792 
 PHE793  MET794  SER795  GLU796  ALA797  LYS798  CYS799  TRP800  GLU811  SER814 

> <Gold.Protein.RotatedAtoms>
  152.5337  134.0055  159.7913 H   0  0  0  0  0  0  0  0  0  0  0  0  # atno 6907 bound_to 6896
  151.0266  133.5820  159.2672 H   0  0  0  0  0  0  0  0  0  0  0  0  # atno 6908 bound_to 6896
  151.2840  135.0729  159.9233 H   0  0  0  0  0  0  0  0  0  0  0  0  # atno 6909 bound_to 6896
  146.1511  139.6575  142.9098 H   0  0  0  0  0  0  0  0  0  0  0  0  # atno 7974 bound_to 7965
  154.6838  140.2638  155.6881 H   0  0  0  0  0  0  0  0  0  0  0  0  # atno 8008 bound_to 7997
  156.2707  140.2805  156.1315 H   0  0  0  0  0  0  0  0  0  0  0  0  # atno 8009 bound_to 7997
  155.0993  140.0374  157.2682 H   0  0  0  0  0  0  0  0  0  0  0  0  # atno 8010 bound_to 7997
  139.7347  143.8754  152.2545 H   0  0  0  0  0  0  0  0  0  0  0  0  # atno 10167 bound_to 10162
  157.5907  130.9055  149.9598 H   0  0  0  0  0  0  0  0  0  0  0  0  # atno 10718 bound_to 10713
  153.6382  135.3384  155.3063 H   0  0  0  0  0  0  0  0  0  0  0  0  # atno 10763 bound_to 10752
  154.8565  135.4312  154.2033 H   0  0  0  0  0  0  0  0  0  0  0  0  # atno 10764 bound_to 10752
  153.2945  135.7019  153.7335 H   0  0  0  0  0  0  0  0  0  0  0  0  # atno 10765 bound_to 10752
  140.2498  134.3316  155.7894 H   0  0  0  0  0  0  0  0  0  0  0  0  # atno 11005 bound_to 11000
  145.4822  141.0438  143.2640 LP  0  0  0  0  0  0  0  0  0  0  0  0  # atno 17320 bound_to 7965
  144.7905  139.6339  143.7115 LP  0  0  0  0  0  0  0  0  0  0  0  0  # atno 17321 bound_to 7965
  139.8688  144.7079  150.9012 LP  0  0  0  0  0  0  0  0  0  0  0  0  # atno 17342 bound_to 10162
  140.7777  143.3756  151.1570 LP  0  0  0  0  0  0  0  0  0  0  0  0  # atno 17343 bound_to 10162
  156.0961  130.3659  150.0304 LP  0  0  0  0  0  0  0  0  0  0  0  0  # atno 17370 bound_to 10713
  156.8427  130.9431  151.3631 LP  0  0  0  0  0  0  0  0  0  0  0  0  # atno 17371 bound_to 10713
  141.2202  133.7347  156.9019 LP  0  0  0  0  0  0  0  0  0  0  0  0  # atno 17394 bound_to 11000
  140.1569  134.9192  157.2665 LP  0  0  0  0  0  0  0  0  0  0  0  0  # atno 17395 bound_to 11000

$$$$
