#       Name:                AV-unprocessed.smi:3164
#       Creating user name   scv26
#       Creation time:       Fri Mar 27 17:50:56 2020


#       File generated by GOLD software.
#

@<TRIPOS>MOLECULE
AV-unprocessed.smi:3164
    43    44     1
SMALL
NO_CHARGES


@<TRIPOS>ATOM
      1 ****        -3.0916   3.8960  -1.2981 C.3            1 S1                 0.0000
      2 ****        -3.4410   2.9885  -0.1806 N.4            1 S1                 1.0000
      3 ****        -3.0789   3.5193   1.1550 C.3            1 S1                 0.0000
      4 ****        -1.5776   3.3356   1.4431 C.3            1 S1                 0.0000
      5 ****        -1.2280   1.9638   1.2971 O.3            1 S1                 0.0000
      6 ****        -1.4417   1.4836  -0.0266 C.3            1 S1                 0.0000
      7 ****        -0.9601   0.0259  -0.0904 C.3            1 S1                 0.0000
      8 ****         0.5055  -0.0685   0.0684 N.4            1 S1                 1.0000
      9 ****         1.0282  -1.4460  -0.0185 C.3            1 S1                 0.0000
     10 ****         2.5527  -1.4728   0.1576 C.3            1 S1                 0.0000
     11 ****         3.1128  -2.8792   0.0632 C.ar           1 S1                 0.0000
     12 ****         3.7294  -3.3321  -1.1225 C.ar           1 S1                 0.0000
     13 ****         4.2213  -4.6513  -1.1604 C.ar           1 S1                 0.0000
     14 ****         4.0769  -5.4618  -0.0182 C.ar           1 S1                 0.0000
     15 ****         3.4459  -4.9151   1.1170 C.ar           1 S1                 0.0000
     16 ****         2.9699  -3.6517   1.1634 N.ar           1 S1                 0.0000
     17 ****        -2.9465   1.6016  -0.3579 C.3            1 S1                 0.0000
     18 ****        -2.0147   4.0392  -1.3864 H              1 S1                 0.0000
     19 ****        -3.5523   4.8738  -1.1541 H              1 S1                 0.0000
     20 ****        -3.4592   3.4967  -2.2439 H              1 S1                 0.0000
     21 ****        -3.3657   4.5684   1.2395 H              1 S1                 0.0000
     22 ****        -3.6576   2.9791   1.9055 H              1 S1                 0.0000
     23 ****        -0.9670   3.9533   0.7826 H              1 S1                 0.0000
     24 ****        -1.3529   3.6492   2.4627 H              1 S1                 0.0000
     25 ****        -0.8585   2.0784  -0.7317 H              1 S1                 0.0000
     26 ****        -1.4524  -0.5699   0.6796 H              1 S1                 0.0000
     27 ****        -1.2319  -0.4074  -1.0539 H              1 S1                 0.0000
     28 ****         0.9476   0.4860  -0.6510 H              1 S1                 0.0000
     29 ****         0.5516  -2.0587   0.7480 H              1 S1                 0.0000
     30 ****         0.7591  -1.8725  -0.9860 H              1 S1                 0.0000
     31 ****         3.0281  -0.8460  -0.5985 H              1 S1                 0.0000
     32 ****         2.8270  -1.0483   1.1246 H              1 S1                 0.0000
     33 ****         3.8237  -2.6883  -1.9848 H              1 S1                 0.0000
     34 ****         4.6996  -5.0346  -2.0497 H              1 S1                 0.0000
     35 ****         4.4412  -6.4785  -0.0116 H              1 S1                 0.0000
     36 ****         3.3190  -5.5087   2.0103 H              1 S1                 0.0000
     37 ****        -3.5172   0.9521   0.3076 H              1 S1                 0.0000
     38 ****        -3.1502   1.2580  -1.3728 H              1 S1                 0.0000
     39 ****         0.7561   0.3117   0.9703 H              1 S1                 0.0000
     40 ****        -4.4500   2.9331  -0.1967 H              1 S1                 0.0000
     41 ****        -1.7837   1.4224   1.9280 LP             1 S1                 0.0000
     42 ****        -0.2608   1.8533   1.5259 LP             1 S1                 0.0000
     43 ****         2.5253  -3.2986   1.9866 LP             1 S1                 0.0000
@<TRIPOS>BOND
    1    1    2 1     
    2    1   18 1     
    3    1   19 1     
    4    1   20 1     
    5    2   17 1     
    6    2    3 1     
    7    2   40 1     
    8    3    4 1     
    9    3   21 1     
   10    3   22 1     
   11    4    5 1     
   12    4   23 1     
   13    4   24 1     
   14    5    6 1     
   15    6    7 1     
   16    6   17 1     
   17    6   25 1     
   18    7    8 1     
   19    7   26 1     
   20    7   27 1     
   21    8    9 1     
   22    8   28 1     
   23    8   39 1     
   24    9   10 1     
   25    9   29 1     
   26    9   30 1     
   27   10   11 1     
   28   10   31 1     
   29   10   32 1     
   30   11   16 ar    
   31   11   12 ar    
   32   12   13 ar    
   33   12   33 1     
   34   13   14 ar    
   35   13   34 1     
   36   14   15 ar    
   37   14   35 1     
   38   15   16 ar    
   39   15   36 1     
   40   17   37 1     
   41   17   38 1     
   42    5   41 1     
   43    5   42 1     
   44   16   43 1     
@<TRIPOS>SUBSTRUCTURE
      1 S1             1
@<TRIPOS>SET
LONE_PAIRS      STATIC     ATOMS    <user>   **** ""
3 41 42 43
DONOR_HYDROGENS      STATIC     ATOMS    <user>   **** ""
3 40 28 39
ATOM$BLUE        STATIC     ATOMS    COLORGROUP SYSTEM
3 41 42 43
ATOM$RED        STATIC     ATOMS    COLORGROUP SYSTEM
3 40 28 39
