AV-unprocessed.smi:207|AV-procd|sdf|1603|dock10
  -GOLD-   2262019523D 1   1.00000     0.00000
 Structure written by MMmdl.
 56 59  0  0  0  0  0  0  0  0  2 V2000
  146.5561  133.0801  150.4862 C   0  0  0  0  0  0  0  0  0  0  0  0
  145.7141  132.4872  151.6405 C   0  0  0  0  0  0  0  0  0  0  0  0
  146.0371  130.9813  151.7799 C   0  0  0  0  0  0  0  0  0  0  0  0
  146.1450  133.1394  152.9798 C   0  0  0  0  0  0  0  0  0  0  0  0
  145.6768  134.5150  153.1131 N   0  0  0  0  0  0  0  0  0  0  0  0
  146.3345  135.2815  154.0205 C   0  0  0  0  0  0  0  0  0  0  0  0
  147.0380  134.6308  154.9830 N   0  0  0  0  0  0  0  0  0  0  0  0
  147.7096  135.3153  155.9123 C   0  0  0  0  0  0  0  0  0  0  0  0
  147.8089  136.6362  156.0635 N   0  0  0  0  0  0  0  0  0  0  0  0
  147.1088  137.3007  155.1014 C   0  0  0  0  0  0  0  0  0  0  0  0
  146.3489  136.7092  154.0503 C   0  0  0  0  0  0  0  0  0  0  0  0
  145.7627  137.7099  153.2824 N   0  0  0  0  0  0  0  0  0  0  0  0
  146.1527  138.8210  153.8435 C   0  0  0  0  0  0  0  0  0  0  0  0
  146.9726  138.6689  154.9383 N   0  0  0  0  0  0  0  0  0  0  0  0
  147.5381  139.7330  155.7558 C   0  0  0  0  0  0  0  0  0  0  0  0
  148.5585  140.6249  155.0223 C   0  0  0  0  0  0  0  0  0  0  0  0
  147.7942  141.6747  154.1900 C   0  0  0  0  0  0  0  0  0  0  0  0
  148.4624  142.9197  154.1409 O   0  0  0  0  0  0  0  0  0  0  0  0
  149.7023  141.1549  155.9002 C   0  0  0  0  0  0  0  0  0  0  0  0
  150.7028  140.7059  154.9598 O   0  0  0  0  0  0  0  0  0  0  0  0
  149.7025  139.9026  154.2961 C   0  0  0  0  0  0  0  0  0  0  0  0
  144.2427  134.6833  152.9461 C   0  0  0  0  0  0  0  0  0  0  0  0
  143.7960  134.1055  151.5991 C   0  0  0  0  0  0  0  0  0  0  0  0
  144.2407  132.6945  151.4155 N   0  3  1  0  0  0  0  0  0  0  0  0
  143.6917  132.1086  150.1590 C   0  0  0  0  0  0  0  0  0  0  0  0
  143.9324  133.0226  148.9464 C   0  0  0  0  0  0  0  0  0  0  0  0
  142.8442  132.9291  148.0518 O   0  0  0  0  0  0  0  0  0  0  0  0
  147.6215  132.9313  150.6662 H   0  0  0  0  0  0  0  0  0  0  0  0
  146.4010  134.1529  150.3731 H   0  0  0  0  0  0  0  0  0  0  0  0
  146.3270  132.6115  149.5291 H   0  0  0  0  0  0  0  0  0  0  0  0
  147.0653  130.8320  152.1124 H   0  0  0  0  0  0  0  0  0  0  0  0
  145.9409  130.4320  150.8446 H   0  0  0  0  0  0  0  0  0  0  0  0
  145.3874  130.5025  152.5135 H   0  0  0  0  0  0  0  0  0  0  0  0
  145.7292  132.5739  153.8154 H   0  0  0  0  0  0  0  0  0  0  0  0
  147.2290  133.0764  153.0835 H   0  0  0  0  0  0  0  0  0  0  0  0
  148.2438  134.7200  156.6382 H   0  0  0  0  0  0  0  0  0  0  0  0
  145.8530  139.7894  153.4695 H   0  0  0  0  0  0  0  0  0  0  0  0
  146.7157  140.3373  156.1411 H   0  0  0  0  0  0  0  0  0  0  0  0
  147.9947  139.2708  156.6321 H   0  0  0  0  0  0  0  0  0  0  0  0
  147.6651  141.3395  153.1610 H   0  0  0  0  0  0  0  0  0  0  0  0
  146.7968  141.8445  154.5968 H   0  0  0  0  0  0  0  0  0  0  0  0
  148.8598  143.0813  154.9833 H   0  0  0  0  0  0  0  0  0  0  0  0
  149.7050  142.2367  156.0377 H   0  0  0  0  0  0  0  0  0  0  0  0
  149.7965  140.6455  156.8607 H   0  0  0  0  0  0  0  0  0  0  0  0
  149.8052  138.8491  154.5572 H   0  0  0  0  0  0  0  0  0  0  0  0
  149.7019  140.0368  153.2139 H   0  0  0  0  0  0  0  0  0  0  0  0
  143.7227  134.1745  153.7588 H   0  0  0  0  0  0  0  0  0  0  0  0
  143.9754  135.7397  152.9940 H   0  0  0  0  0  0  0  0  0  0  0  0
  142.7104  134.1706  151.5348 H   0  0  0  0  0  0  0  0  0  0  0  0
  144.1875  134.7221  150.7891 H   0  0  0  0  0  0  0  0  0  0  0  0
  144.1457  131.1317  149.9859 H   0  0  0  0  0  0  0  0  0  0  0  0
  142.6227  131.9197  150.2237 H   0  0  0  0  0  0  0  0  0  0  0  0
  144.0806  134.0623  149.2364 H   0  0  0  0  0  0  0  0  0  0  0  0
  144.8347  132.7091  148.4210 H   0  0  0  0  0  0  0  0  0  0  0  0
  142.1708  133.5312  148.3314 H   0  0  0  0  0  0  0  0  0  0  0  0
  143.8004  132.1731  152.1604 H   0  0  0  0  0  0  0  0  0  0  0  0
  1  2  1  0  0  0  0
  1 28  1  0  0  0  0
  1 29  1  0  0  0  0
  1 30  1  0  0  0  0
  2 24  1  0  0  0  0
  2  3  1  0  0  0  0
  2  4  1  0  0  0  0
  3 31  1  0  0  0  0
  3 32  1  0  0  0  0
  3 33  1  0  0  0  0
  4  5  1  0  0  0  0
  4 34  1  0  0  0  0
  4 35  1  0  0  0  0
  5  6  1  0  0  0  0
  5 22  1  0  0  0  0
  6 11  1  0  0  0  0
  6  7  2  0  0  0  0
  7  8  1  0  0  0  0
  8  9  2  0  0  0  0
  8 36  1  0  0  0  0
  9 10  1  0  0  0  0
 10 14  1  0  0  0  0
 10 11  2  0  0  0  0
 11 12  1  0  0  0  0
 12 13  2  0  0  0  0
 13 14  1  0  0  0  0
 13 37  1  0  0  0  0
 14 15  1  0  0  0  0
 15 16  1  0  0  0  0
 15 38  1  0  0  0  0
 15 39  1  0  0  0  0
 16 21  1  0  0  0  0
 16 17  1  0  0  0  0
 16 19  1  0  0  0  0
 17 18  1  0  0  0  0
 17 40  1  0  0  0  0
 17 41  1  0  0  0  0
 18 42  1  0  0  0  0
 19 20  1  0  0  0  0
 19 43  1  0  0  0  0
 19 44  1  0  0  0  0
 20 21  1  0  0  0  0
 21 45  1  0  0  0  0
 21 46  1  0  0  0  0
 22 23  1  0  0  0  0
 22 47  1  0  0  0  0
 22 48  1  0  0  0  0
 23 24  1  0  0  0  0
 23 49  1  0  0  0  0
 23 50  1  0  0  0  0
 24 25  1  0  0  0  0
 24 56  1  0  0  0  0
 25 26  1  0  0  0  0
 25 51  1  0  0  0  0
 25 52  1  0  0  0  0
 26 27  1  0  0  0  0
 26 53  1  0  0  0  0
 26 54  1  0  0  0  0
 27 55  1  0  0  0  0
M  CHG  1  24   1
M  END
> <s_m_source_file>
AV-unprocessed.smi

> <i_m_source_file_index>
207

> <i_lp_mmshare_version>
43012

> <i_f3d_flags>
0

> <s_epik_input>
W09IXVtDSDJdW0NIMl1OMVtDSDJdW0NIMl1OKFtDSDJdQzEoW0NIM10pW0NIM10pYyhuW2NIXW4yKWMoYzIzKW5bY0hdbjNbQ0gyXUM0KFtDSDJdW09IXSlbQ0gyXU9bQ0gyXTQ=

> <s_epik_cmdline>
J2VwaWtfcHl0aG9uJywgJy1waCcsICc3LjAnLCAnLXRuJywgJzgnLCAnLW1hJywgJzIwMCcsICctbWV0YWxfYmluZGluZycsICctaW1hZScsICc8aW5maWxlLm1hZT4nLCAnLW9tYWUnLCAnPG91dGZpbGUubWFlPic=

> <r_lp_tautomer_probability>
1

> <r_epik_Ionization_Penalty>
0.416568

> <r_epik_Ionization_Penalty_Charging>
0.416506

> <r_epik_Ionization_Penalty_Neutral>
6.2219e-05

> <r_epik_State_Penalty>
0.419386

> <r_epik_Charging_Adjusted_Penalty>
0.835892

> <i_epik_Tot_Q>
1

> <i_epik_Tot_abs_Q>
1

> <r_epik_Metal_State_Penalty>
0.420232

> <b_epik_Metal_Only>
0

> <s_lp_Force_Field>
OPLS_2005

> <r_lp_Energy>
56.8459

> <b_lp_Chiralities_Consistent>
1

> <s_lp_Variant>
AV-unprocessed.smi:207-2

> <Gold.Version>
5.8.1

> <Gold.Id.Protein>
6NUR|6NUR_protein|mol2

> <Gold.PLP.Fitness>
45.1509

> <Gold.PLP.PLP>
-37.0986

> <Gold.PLP.part.hbond>
-5.4959

> <Gold.PLP.part.metal>
0.0000

> <Gold.PLP.part.buried>
-2.5005

> <Gold.PLP.part.nonpolar>
-27.6051

> <Gold.PLP.part.repulsive>
0.4412

> <Gold.PLP.ligand.clash>
0.0000

> <Gold.PLP.ligand.torsion>
1.7140

> <Gold.PLP.Chemscore.Hbond>
2.5872

> <Gold.PLP.Chemscore.CHOScore>
0.9421

> <Gold.PLP.Chemscore.Metal>
0.0000

> <Gold.Chemscore.Hbonds>
donor molecule, donor type, donor heavy atom, donor atom, acceptor molecule, acceptor atom, score
      L1  H    18    42       P1  8028  0.38
      L1  H    27    55       P1 10186  1.00
      P1  H  7989  7998       L1    20  0.58
      P1  H  8022  8030       L1    18  0.65
      L1  C    13    37       P1 10175  0.98

> <Gold.PLP.Chemscore.Internal.Correction>
0.8926

> <Gold.Rescore>
     Score         DG    S(hbond)    S(metal)    S(lipo)     H(rot)  DE(clash)    DE(int)     intcor
      9.64     -11.43       1.52        0.00      90.49       3.80       0.11       1.68       ----

> <Gold.Chemscore.Fitness>
9.6402

> <Gold.Chemscore.DG>
-11.4274

> <Gold.Chemscore.ZeroCoef>
-5.4800

> <Gold.Chemscore.Hbond>
1.5232

> <Gold.Chemscore.Metal>
0.0000

> <Gold.Chemscore.Lipo>
90.4895

> <Gold.Chemscore.Internal_Hbond>
0.0000

> <Gold.Chemscore.DEClash>
0.1113

> <Gold.Chemscore.DEInternal>
1.6759

> <Gold.Chemscore.Rot>
3.7997

> <Gold.Chemscore.Internal.Correction>
   9.000000E+99

> <Gold.Chemscore.Hbonds>
donor molecule, donor type, donor heavy atom, donor atom, acceptor molecule, acceptor atom, score
      L1  H    18    42       P1  8028  0.38
      L1  H    27    55       P1 10186  0.99
      P1  H  7989  7998       L1    20  0.05
      P1  H  8022  8030       L1    18  0.05

> <Gold.Chemscore.Hbond.Weighted>
-5.0874

> <Gold.Chemscore.Metal.Weighted>
-0.0000

> <Gold.Chemscore.Lipo.Weighted>
-10.5873

> <Gold.Chemscore.Internal_Hbond.Weighted>
0.0000

> <Gold.Chemscore.DEClash.Weighted>
0.1113

> <Gold.Chemscore.DEInternal.Weighted>
1.6759

> <Gold.Chemscore.Rot.Weighted>
9.7273

> <Gold.Chemscore.Internal.Correction.Weighted>
   9.000000E+99

> <Gold.Protein.RotatedTorsions>
[ 6907 6896 6895 6894 ] final -155.23 input  -60.11 | X-H torsion
[ 7974 7965 7964 7962 ] final  -21.96 input  175.53 | X-H torsion
[ 8008 7997 7996 7995 ] final -157.31 input   59.86 | X-H torsion
[ 10167 10162 10161 10158 ] final  -44.13 input  -65.29 | X-H torsion
[ 10718 10713 10712 10709 ] final  -33.79 input   66.30 | X-H torsion
[ 10763 10752 10751 10750 ] final  167.43 input  -60.55 | X-H torsion
[ 11005 11000 10999 10996 ] final   11.78 input  -57.11 | X-H torsion

> <Gold.Protein.ActiveResidues>
 VAL166  LYS551  ARG553  GLY616  TRP617  ASP618  TYR619  PRO620  LYS621  CYS622 
 ASP623  PHE694  ASN695  SER759  ASP760  ASP761  ALA762  ILE779  LEU786  VAL792 
 PHE793  MET794  SER795  GLU796  ALA797  LYS798  CYS799  TRP800  GLU811  SER814 

> <Gold.Protein.RotatedAtoms>
  151.2694  133.4263  159.2620 H   0  0  0  0  0  0  0  0  0  0  0  0  # atno 6907 bound_to 6896
  151.0459  134.9640  159.8196 H   0  0  0  0  0  0  0  0  0  0  0  0  # atno 6908 bound_to 6896
  152.5374  134.2650  159.9002 H   0  0  0  0  0  0  0  0  0  0  0  0  # atno 6909 bound_to 6896
  146.1703  140.4412  142.8535 H   0  0  0  0  0  0  0  0  0  0  0  0  # atno 7974 bound_to 7965
  155.7305  140.0801  157.2291 H   0  0  0  0  0  0  0  0  0  0  0  0  # atno 8008 bound_to 7997
  154.4033  140.1596  156.2558 H   0  0  0  0  0  0  0  0  0  0  0  0  # atno 8009 bound_to 7997
  155.9113  140.3403  155.6104 H   0  0  0  0  0  0  0  0  0  0  0  0  # atno 8010 bound_to 7997
  140.6908  143.2946  151.3452 H   0  0  0  0  0  0  0  0  0  0  0  0  # atno 10167 bound_to 10162
  156.3584  130.4320  149.7644 H   0  0  0  0  0  0  0  0  0  0  0  0  # atno 10718 bound_to 10713
  154.3537  135.2753  155.2358 H   0  0  0  0  0  0  0  0  0  0  0  0  # atno 10763 bound_to 10752
  154.4577  135.5915  153.6237 H   0  0  0  0  0  0  0  0  0  0  0  0  # atno 10764 bound_to 10752
  152.9848  135.6057  154.3750 H   0  0  0  0  0  0  0  0  0  0  0  0  # atno 10765 bound_to 10752
  140.4994  134.0761  155.7790 H   0  0  0  0  0  0  0  0  0  0  0  0  # atno 11005 bound_to 11000
  144.8154  140.6458  143.6388 LP  0  0  0  0  0  0  0  0  0  0  0  0  # atno 17320 bound_to 7965
  145.4357  139.1542  143.3998 LP  0  0  0  0  0  0  0  0  0  0  0  0  # atno 17321 bound_to 7965
  139.6309  144.0722  152.2475 LP  0  0  0  0  0  0  0  0  0  0  0  0  # atno 17342 bound_to 10162
  140.0196  144.6163  150.7577 LP  0  0  0  0  0  0  0  0  0  0  0  0  # atno 17343 bound_to 10162
  156.4818  130.8044  151.3058 LP  0  0  0  0  0  0  0  0  0  0  0  0  # atno 17370 bound_to 10713
  157.7470  131.0003  150.2922 LP  0  0  0  0  0  0  0  0  0  0  0  0  # atno 17371 bound_to 10713
  141.1443  133.9082  157.2252 LP  0  0  0  0  0  0  0  0  0  0  0  0  # atno 17394 bound_to 11000
  139.9722  135.0125  156.9542 LP  0  0  0  0  0  0  0  0  0  0  0  0  # atno 17395 bound_to 11000

$$$$
