AV-unprocessed.smi:409|AV-procd|sdf|2506|dock10
  -GOLD-   2262022453D 1   1.00000     0.00000
 Structure written by MMmdl.
 34 35  0  0  0  0  0  0  0  0  2 V2000
  152.6261  139.8711  156.0177 O   0  0  0  0  0  0  0  0  0  0  0  0
  151.4740  140.3065  155.9975 C   0  0  0  0  0  0  0  0  0  0  0  0
  150.4373  139.7325  155.0224 C   0  0  0  0  0  0  0  0  0  0  0  0
  150.3591  138.2637  155.0699 N   0  0  0  0  0  0  0  0  0  0  0  0
  149.1505  137.6859  155.4970 C   0  0  0  0  0  0  0  0  0  0  0  0
  148.9896  136.3511  155.5743 C   0  0  0  0  0  0  0  0  0  0  0  0
  150.1106  135.4978  155.2001 C   0  0  0  0  0  0  0  0  0  0  0  0
  149.9799  134.2767  155.2591 O   0  0  0  0  0  0  0  0  0  0  0  0
  151.2644  136.1063  154.7969 N   0  5  0  0  0  0  0  0  0  0  0  0
  151.4146  137.4655  154.7263 C   0  0  0  0  0  0  0  0  0  0  0  0
  152.4659  137.9941  154.3626 O   0  0  0  0  0  0  0  0  0  0  0  0
  151.0364  141.2686  156.8239 N   0  0  0  0  0  0  0  0  0  0  0  0
  151.8446  141.9502  157.8301 C   0  0  0  0  0  0  0  0  0  0  0  0
  152.2164  140.9856  158.9755 C   0  0  0  0  0  0  0  0  0  0  0  0
  153.0029  141.7048  160.0834 C   0  0  0  0  0  0  0  0  0  0  0  0
  152.2313  142.9223  160.6160 C   0  0  0  0  0  0  0  0  0  0  0  0
  151.8646  143.8876  159.4779 C   0  0  0  0  0  0  0  0  0  0  0  0
  151.0750  143.1700  158.3710 C   0  0  0  0  0  0  0  0  0  0  0  0
  149.4686  140.1733  155.2607 H   0  0  0  0  0  0  0  0  0  0  0  0
  150.6595  140.0629  154.0058 H   0  0  0  0  0  0  0  0  0  0  0  0
  148.3733  138.3875  155.7616 H   0  0  0  0  0  0  0  0  0  0  0  0
  148.0558  135.9229  155.9075 H   0  0  0  0  0  0  0  0  0  0  0  0
  150.0739  141.5610  156.7377 H   0  0  0  0  0  0  0  0  0  0  0  0
  152.7621  142.3116  157.3614 H   0  0  0  0  0  0  0  0  0  0  0  0
  151.3108  140.5497  159.4001 H   0  0  0  0  0  0  0  0  0  0  0  0
  152.8078  140.1538  158.5914 H   0  0  0  0  0  0  0  0  0  0  0  0
  153.2141  141.0122  160.8987 H   0  0  0  0  0  0  0  0  0  0  0  0
  153.9693  142.0269  159.6934 H   0  0  0  0  0  0  0  0  0  0  0  0
  151.3231  142.5878  161.1190 H   0  0  0  0  0  0  0  0  0  0  0  0
  152.8276  143.4417  161.3667 H   0  0  0  0  0  0  0  0  0  0  0  0
  151.2810  144.7210  159.8697 H   0  0  0  0  0  0  0  0  0  0  0  0
  152.7740  144.3178  159.0565 H   0  0  0  0  0  0  0  0  0  0  0  0
  150.8635  143.8683  157.5603 H   0  0  0  0  0  0  0  0  0  0  0  0
  150.1085  142.8531  158.7657 H   0  0  0  0  0  0  0  0  0  0  0  0
  1  2  2  0  0  0  0
  2  3  1  0  0  0  0
  2 12  1  0  0  0  0
  3  4  1  0  0  0  0
  3 19  1  0  0  0  0
  3 20  1  0  0  0  0
  4 10  1  0  0  0  0
  4  5  1  0  0  0  0
  5  6  2  0  0  0  0
  5 21  1  0  0  0  0
  6  7  1  0  0  0  0
  6 22  1  0  0  0  0
  7  8  2  0  0  0  0
  7  9  1  0  0  0  0
  9 10  1  0  0  0  0
 10 11  2  0  0  0  0
 12 13  1  0  0  0  0
 12 23  1  0  0  0  0
 13 18  1  0  0  0  0
 13 14  1  0  0  0  0
 13 24  1  0  0  0  0
 14 15  1  0  0  0  0
 14 25  1  0  0  0  0
 14 26  1  0  0  0  0
 15 16  1  0  0  0  0
 15 27  1  0  0  0  0
 15 28  1  0  0  0  0
 16 17  1  0  0  0  0
 16 29  1  0  0  0  0
 16 30  1  0  0  0  0
 17 18  1  0  0  0  0
 17 31  1  0  0  0  0
 17 32  1  0  0  0  0
 18 33  1  0  0  0  0
 18 34  1  0  0  0  0
M  CHG  1   9  -1
M  END
> <s_m_source_file>
AV-unprocessed.smi

> <i_m_source_file_index>
409

> <i_lp_mmshare_version>
43012

> <i_f3d_flags>
0

> <s_epik_input>
W0NIMl0xW0NIMl1bQ0gyXVtDSDJdW0NIMl1bQ0hdMVtOSF1DKD1PKVtDSDJdbjJbY0hdW2NIXWMoPU8pW25IXWMyPU8=

> <s_epik_cmdline>
J2VwaWtfcHl0aG9uJywgJy1waCcsICc3LjAnLCAnLXRuJywgJzgnLCAnLW1hJywgJzIwMCcsICctbWV0YWxfYmluZGluZycsICctaW1hZScsICc8aW5maWxlLm1hZT4nLCAnLW9tYWUnLCAnPG91dGZpbGUubWFlPic=

> <r_lp_tautomer_probability>
0.999537

> <r_epik_Ionization_Penalty>
3.11464

> <r_epik_Ionization_Penalty_Charging>
2.89611e-08

> <r_epik_Ionization_Penalty_Neutral>
3.11464

> <r_epik_State_Penalty>
3.11372

> <r_epik_Charging_Adjusted_Penalty>
3.11373

> <i_epik_Tot_Q>
-1

> <i_epik_Tot_abs_Q>
1

> <r_epik_Metal_State_Penalty>
0.463005

> <b_epik_Metal_Only>
1

> <s_lp_Force_Field>
OPLS_2005

> <r_lp_Energy>
17.6148

> <b_lp_Chiralities_Consistent>
1

> <s_lp_Variant>
AV-unprocessed.smi:409-2

> <Gold.Version>
5.8.1

> <Gold.Id.Protein>
6NUR|6NUR_protein|mol2

> <Gold.PLP.Fitness>
41.6448

> <Gold.PLP.PLP>
-33.0047

> <Gold.PLP.part.hbond>
-2.7286

> <Gold.PLP.part.metal>
0.0000

> <Gold.PLP.part.buried>
-4.2820

> <Gold.PLP.part.nonpolar>
-26.1795

> <Gold.PLP.part.repulsive>
0.4433

> <Gold.PLP.ligand.clash>
0.0000

> <Gold.PLP.ligand.torsion>
0.1823

> <Gold.PLP.Chemscore.Hbond>
3.0000

> <Gold.PLP.Chemscore.CHOScore>
0.0000

> <Gold.PLP.Chemscore.Metal>
0.0000

> <Gold.Chemscore.Hbonds>
donor molecule, donor type, donor heavy atom, donor atom, acceptor molecule, acceptor atom, score
      P1  H  7997  8009       L1     1  1.00
      P1  H 10752 10765       L1     9  2.00

> <Gold.PLP.Chemscore.Internal.Correction>
0.0047

> <Gold.Rescore>
     Score         DG    S(hbond)    S(metal)    S(lipo)     H(rot)  DE(clash)    DE(int)     intcor
     10.41     -14.50       1.56        0.00      69.18       1.67       0.19       3.90       ----

> <Gold.Chemscore.Fitness>
10.4069

> <Gold.Chemscore.DG>
-14.5041

> <Gold.Chemscore.ZeroCoef>
-5.4800

> <Gold.Chemscore.Hbond>
1.5577

> <Gold.Chemscore.Metal>
0.0000

> <Gold.Chemscore.Lipo>
69.1797

> <Gold.Chemscore.Internal_Hbond>
0.0000

> <Gold.Chemscore.DEClash>
0.1939

> <Gold.Chemscore.DEInternal>
3.9033

> <Gold.Chemscore.Rot>
1.6690

> <Gold.Chemscore.Internal.Correction>
   9.000000E+99

> <Gold.Chemscore.Hbonds>
donor molecule, donor type, donor heavy atom, donor atom, acceptor molecule, acceptor atom, score
      P1  H  7997  8009       L1     1  1.00
      P1  H 10752 10765       L1     9  0.26

> <Gold.Chemscore.Hbond.Weighted>
-5.2026

> <Gold.Chemscore.Metal.Weighted>
-0.0000

> <Gold.Chemscore.Lipo.Weighted>
-8.0940

> <Gold.Chemscore.Internal_Hbond.Weighted>
0.0000

> <Gold.Chemscore.DEClash.Weighted>
0.1939

> <Gold.Chemscore.DEInternal.Weighted>
3.9033

> <Gold.Chemscore.Rot.Weighted>
4.2726

> <Gold.Chemscore.Internal.Correction.Weighted>
   9.000000E+99

> <Gold.Protein.RotatedTorsions>
[ 6907 6896 6895 6894 ] final  -28.70 input  -60.11 | X-H torsion
[ 7974 7965 7964 7962 ] final  -93.51 input  175.53 | X-H torsion
[ 8008 7997 7996 7995 ] final -147.74 input   59.86 | X-H torsion
[ 10167 10162 10161 10158 ] final  175.23 input  -65.29 | X-H torsion
[ 10718 10713 10712 10709 ] final  -78.19 input   66.30 | X-H torsion
[ 10763 10752 10751 10750 ] final  171.64 input  -60.55 | X-H torsion
[ 11005 11000 10999 10996 ] final  -35.26 input  -57.11 | X-H torsion

> <Gold.Protein.ActiveResidues>
 VAL166  LYS551  ARG553  GLY616  TRP617  ASP618  TYR619  PRO620  LYS621  CYS622 
 ASP623  PHE694  ASN695  SER759  ASP760  ASP761  ALA762  ILE779  LEU786  VAL792 
 PHE793  MET794  SER795  GLU796  ALA797  LYS798  CYS799  TRP800  GLU811  SER814 

> <Gold.Protein.RotatedAtoms>
  151.1294  135.0122  159.8574 H   0  0  0  0  0  0  0  0  0  0  0  0  # atno 6907 bound_to 6896
  152.5450  134.1629  159.8575 H   0  0  0  0  0  0  0  0  0  0  0  0  # atno 6908 bound_to 6896
  151.1694  133.4749  159.2627 H   0  0  0  0  0  0  0  0  0  0  0  0  # atno 6909 bound_to 6896
  145.3855  140.9522  143.2369 H   0  0  0  0  0  0  0  0  0  0  0  0  # atno 7974 bound_to 7965
  155.5803  140.0643  157.2785 H   0  0  0  0  0  0  0  0  0  0  0  0  # atno 8008 bound_to 7997
  154.4334  140.1853  156.1016 H   0  0  0  0  0  0  0  0  0  0  0  0  # atno 8009 bound_to 7997
  156.0310  140.3306  155.7143 H   0  0  0  0  0  0  0  0  0  0  0  0  # atno 8010 bound_to 7997
  139.5170  144.3055  152.0340 H   0  0  0  0  0  0  0  0  0  0  0  0  # atno 10167 bound_to 10162
  156.0124  130.4511  150.3459 H   0  0  0  0  0  0  0  0  0  0  0  0  # atno 10718 bound_to 10713
  154.4147  135.2757  155.2014 H   0  0  0  0  0  0  0  0  0  0  0  0  # atno 10763 bound_to 10752
  154.3985  135.6050  153.5887 H   0  0  0  0  0  0  0  0  0  0  0  0  # atno 10764 bound_to 10752
  152.9832  135.5920  154.4434 H   0  0  0  0  0  0  0  0  0  0  0  0  # atno 10765 bound_to 10752
  140.9782  133.7071  156.1639 H   0  0  0  0  0  0  0  0  0  0  0  0  # atno 11005 bound_to 11000
  144.8477  139.5371  143.6871 LP  0  0  0  0  0  0  0  0  0  0  0  0  # atno 17320 bound_to 7965
  146.2822  139.6907  142.9221 LP  0  0  0  0  0  0  0  0  0  0  0  0  # atno 17321 bound_to 7965
  140.2501  144.4178  150.6225 LP  0  0  0  0  0  0  0  0  0  0  0  0  # atno 17342 bound_to 10162
  140.6230  143.2178  151.6654 LP  0  0  0  0  0  0  0  0  0  0  0  0  # atno 17343 bound_to 10162
  157.1553  131.0331  151.2866 LP  0  0  0  0  0  0  0  0  0  0  0  0  # atno 17370 bound_to 10713
  157.4357  130.7516  149.7027 LP  0  0  0  0  0  0  0  0  0  0  0  0  # atno 17371 bound_to 10713
  140.7227  134.4341  157.5573 LP  0  0  0  0  0  0  0  0  0  0  0  0  # atno 17394 bound_to 11000
  139.8939  134.8719  156.2201 LP  0  0  0  0  0  0  0  0  0  0  0  0  # atno 17395 bound_to 11000

$$$$
