AV-unprocessed.smi:845|AV-procd|sdf|3928|dock1
  -GOLD-   22720 1383D 1   1.00000     0.00000
 Structure written by MMmdl.
 43 44  0  0  0  0  0  0  0  0  2 V2000
  146.7868  142.4419  154.2218 C   0  0  0  0  0  0  0  0  0  0  0  0
  146.5868  141.0924  154.9389 C   0  0  0  0  0  0  0  0  0  0  0  0
  146.7806  141.2974  156.4532 C   0  0  0  0  0  0  0  0  0  0  0  0
  147.5237  139.9856  154.3705 C   0  0  1  0  0  0  0  0  0  0  0  0
  147.5340  139.8668  152.8199 C   0  0  0  0  0  0  0  0  0  0  0  0
  147.3443  138.4999  152.3347 N   0  0  0  0  0  0  0  0  0  0  0  0
  146.2080  137.7932  152.4158 C   0  0  0  0  0  0  0  0  0  0  0  0
  145.1791  138.2197  152.9403 O   0  0  0  0  0  0  0  0  0  0  0  0
  146.3513  136.5763  151.8625 N   0  0  0  0  0  0  0  0  0  0  0  0
  145.3914  135.5336  151.7772 C   0  0  0  0  0  0  0  0  0  0  0  0
  145.2402  134.5706  152.6940 N   0  0  0  0  0  0  0  0  0  0  0  0
  144.2231  133.6758  152.3518 C   0  0  0  0  0  0  0  0  0  0  0  0
  143.6076  133.9734  151.1613 C   0  0  0  0  0  0  0  0  0  0  0  0
  144.2849  135.3981  150.4184 S   0  0  0  0  0  0  0  0  0  0  0  0
  148.8918  140.0582  154.9706 N   0  3  0  0  0  0  0  0  0  0  0  0
  149.8632  139.0872  154.4105 C   0  0  0  0  0  0  0  0  0  0  0  0
  151.1514  139.0913  155.2513 C   0  0  0  0  0  0  0  0  0  0  0  0
  151.6916  140.4070  155.2977 O   0  0  0  0  0  0  0  0  0  0  0  0
  150.7955  141.3362  155.8969 C   0  0  0  0  0  0  0  0  0  0  0  0
  149.5021  141.4070  155.0695 C   0  0  0  0  0  0  0  0  0  0  0  0
  147.8153  142.7923  154.3150 H   0  0  0  0  0  0  0  0  0  0  0  0
  146.1380  143.2098  154.6444 H   0  0  0  0  0  0  0  0  0  0  0  0
  146.5498  142.3792  153.1597 H   0  0  0  0  0  0  0  0  0  0  0  0
  145.5492  140.7967  154.7835 H   0  0  0  0  0  0  0  0  0  0  0  0
  147.8108  141.5676  156.6881 H   0  0  0  0  0  0  0  0  0  0  0  0
  146.5334  140.4021  157.0230 H   0  0  0  0  0  0  0  0  0  0  0  0
  146.1378  142.0951  156.8264 H   0  0  0  0  0  0  0  0  0  0  0  0
  147.1050  139.0452  154.7325 H   0  0  0  0  0  0  0  0  0  0  0  0
  146.8218  140.5600  152.3723 H   0  0  0  0  0  0  0  0  0  0  0  0
  148.5074  140.1890  152.4493 H   0  0  0  0  0  0  0  0  0  0  0  0
  148.1371  138.0673  151.8833 H   0  0  0  0  0  0  0  0  0  0  0  0
  147.2518  136.3688  151.4564 H   0  0  0  0  0  0  0  0  0  0  0  0
  144.0031  132.8525  153.0153 H   0  0  0  0  0  0  0  0  0  0  0  0
  142.8003  133.4429  150.6785 H   0  0  0  0  0  0  0  0  0  0  0  0
  149.4359  138.0839  154.4068 H   0  0  0  0  0  0  0  0  0  0  0  0
  150.0983  139.3414  153.3766 H   0  0  0  0  0  0  0  0  0  0  0  0
  150.9571  138.7314  156.2630 H   0  0  0  0  0  0  0  0  0  0  0  0
  151.8896  138.4204  154.8114 H   0  0  0  0  0  0  0  0  0  0  0  0
  150.5848  141.0474  156.9277 H   0  0  0  0  0  0  0  0  0  0  0  0
  151.2733  142.3153  155.9314 H   0  0  0  0  0  0  0  0  0  0  0  0
  149.7422  141.7830  154.0759 H   0  0  0  0  0  0  0  0  0  0  0  0
  148.8093  142.1114  155.5287 H   0  0  0  0  0  0  0  0  0  0  0  0
  148.7573  139.7587  155.9257 H   0  0  0  0  0  0  0  0  0  0  0  0
  1  2  1  0  0  0  0
  1 21  1  0  0  0  0
  1 22  1  0  0  0  0
  1 23  1  0  0  0  0
  2  3  1  0  0  0  0
  2  4  1  0  0  0  0
  2 24  1  0  0  0  0
  3 25  1  0  0  0  0
  3 26  1  0  0  0  0
  3 27  1  0  0  0  0
  4  5  1  0  0  0  0
  4 15  1  0  0  0  0
  4 28  1  0  0  0  0
  5  6  1  0  0  0  0
  5 29  1  0  0  0  0
  5 30  1  0  0  0  0
  6  7  1  0  0  0  0
  6 31  1  0  0  0  0
  7  8  2  0  0  0  0
  7  9  1  0  0  0  0
  9 10  1  0  0  0  0
  9 32  1  0  0  0  0
 10 14  1  0  0  0  0
 10 11  2  0  0  0  0
 11 12  1  0  0  0  0
 12 13  2  0  0  0  0
 12 33  1  0  0  0  0
 13 14  1  0  0  0  0
 13 34  1  0  0  0  0
 15 20  1  0  0  0  0
 15 16  1  0  0  0  0
 15 43  1  0  0  0  0
 16 17  1  0  0  0  0
 16 35  1  0  0  0  0
 16 36  1  0  0  0  0
 17 18  1  0  0  0  0
 17 37  1  0  0  0  0
 17 38  1  0  0  0  0
 18 19  1  0  0  0  0
 19 20  1  0  0  0  0
 19 39  1  0  0  0  0
 19 40  1  0  0  0  0
 20 41  1  0  0  0  0
 20 42  1  0  0  0  0
M  CHG  1  15   1
M  END
> <s_m_source_file>
AV-unprocessed.smi

> <i_m_source_file_index>
845

> <i_lp_mmshare_version>
43012

> <i_f3d_flags>
0

> <s_epik_input>
W0NIMl0xW0NIMl1PW0NIMl1bQ0gyXU4xW0NASF0oW0NIXShbQ0gzXSlbQ0gzXSlbQ0gyXVtOSF1DKD1PKVtOSF1jMm5bY0hdW2NIXXMy

> <s_epik_cmdline>
J2VwaWtfcHl0aG9uJywgJy1waCcsICc3LjAnLCAnLXRuJywgJzgnLCAnLW1hJywgJzIwMCcsICctbWV0YWxfYmluZGluZycsICctaW1hZScsICc8aW5maWxlLm1hZT4nLCAnLW9tYWUnLCAnPG91dGZpbGUubWFlPic=

> <r_lp_tautomer_probability>
0.999

> <r_epik_Ionization_Penalty>
0.398341

> <r_epik_Ionization_Penalty_Charging>
0.398119

> <r_epik_Ionization_Penalty_Neutral>
0.000222117

> <r_epik_State_Penalty>
0.397286

> <r_epik_Charging_Adjusted_Penalty>
0.795404

> <i_epik_Tot_Q>
1

> <i_epik_Tot_abs_Q>
1

> <r_epik_Metal_State_Penalty>
0.407542

> <b_epik_Metal_Only>
0

> <s_lp_Force_Field>
OPLS_2005

> <r_lp_Energy>
31.69

> <b_lp_Chiralities_Consistent>
1

> <s_lp_Variant>
AV-unprocessed.smi:845-2

> <Gold.Version>
5.8.1

> <Gold.Id.Protein>
6NUR|6NUR_protein|mol2

> <Gold.PLP.Fitness>
41.1488

> <Gold.PLP.PLP>
-31.7379

> <Gold.PLP.part.hbond>
-3.8722

> <Gold.PLP.part.metal>
0.0000

> <Gold.PLP.part.buried>
-0.6889

> <Gold.PLP.part.nonpolar>
-29.4253

> <Gold.PLP.part.repulsive>
2.3630

> <Gold.PLP.ligand.clash>
0.0000

> <Gold.PLP.ligand.torsion>
1.9504

> <Gold.PLP.Chemscore.Hbond>
2.3520

> <Gold.PLP.Chemscore.CHOScore>
1.8531

> <Gold.PLP.Chemscore.Metal>
0.0000

> <Gold.Chemscore.Hbonds>
donor molecule, donor type, donor heavy atom, donor atom, acceptor molecule, acceptor atom, score
      L1  H     6    31       P1  7948  0.75
      L1  H     9    32       P1  7948  0.88
      P1  H  7989  7998       L1    18  0.82
      L1  C    12    33       P1 10957  1.00
      L1  C    13    34       P1 10186  0.91

> <Gold.PLP.Chemscore.Internal.Correction>
0.6961

> <Gold.Rescore>
     Score         DG    S(hbond)    S(metal)    S(lipo)     H(rot)  DE(clash)    DE(int)     intcor
     10.23     -15.76       2.00        0.00      70.35       1.80       2.66       2.87       ----

> <Gold.Chemscore.Fitness>
10.2261

> <Gold.Chemscore.DG>
-15.7645

> <Gold.Chemscore.ZeroCoef>
-5.4800

> <Gold.Chemscore.Hbond>
1.9981

> <Gold.Chemscore.Metal>
0.0000

> <Gold.Chemscore.Lipo>
70.3471

> <Gold.Chemscore.Internal_Hbond>
0.0000

> <Gold.Chemscore.DEClash>
2.6637

> <Gold.Chemscore.DEInternal>
2.8747

> <Gold.Chemscore.Rot>
1.8046

> <Gold.Chemscore.Internal.Correction>
   9.000000E+99

> <Gold.Chemscore.Hbonds>
donor molecule, donor type, donor heavy atom, donor atom, acceptor molecule, acceptor atom, score
      L1  H     6    31       P1  7948  0.72
      L1  H     9    32       P1  7948  0.86
      P1  H  7989  7998       L1    18  0.11

> <Gold.Chemscore.Hbond.Weighted>
-6.6736

> <Gold.Chemscore.Metal.Weighted>
-0.0000

> <Gold.Chemscore.Lipo.Weighted>
-8.2306

> <Gold.Chemscore.Internal_Hbond.Weighted>
0.0000

> <Gold.Chemscore.DEClash.Weighted>
2.6637

> <Gold.Chemscore.DEInternal.Weighted>
2.8747

> <Gold.Chemscore.Rot.Weighted>
4.6197

> <Gold.Chemscore.Internal.Correction.Weighted>
   9.000000E+99

> <Gold.Protein.RotatedTorsions>
[ 6907 6896 6895 6894 ] final -100.67 input  -60.11 | X-H torsion
[ 7974 7965 7964 7962 ] final  -84.65 input  175.53 | X-H torsion
[ 8008 7997 7996 7995 ] final  100.14 input   59.86 | X-H torsion
[ 10167 10162 10161 10158 ] final  145.22 input  -65.29 | X-H torsion
[ 10718 10713 10712 10709 ] final   10.19 input   66.30 | X-H torsion
[ 10763 10752 10751 10750 ] final  -52.27 input  -60.55 | X-H torsion
[ 11005 11000 10999 10996 ] final  -64.26 input  -57.11 | X-H torsion

> <Gold.Protein.ActiveResidues>
 VAL166  LYS551  ARG553  GLY616  TRP617  ASP618  TYR619  PRO620  LYS621  CYS622 
 ASP623  PHE694  ASN695  SER759  ASP760  ASP761  ALA762  ILE779  LEU786  VAL792 
 PHE793  MET794  SER795  GLU796  ALA797  LYS798  CYS799  TRP800  GLU811  SER814 

> <Gold.Protein.RotatedAtoms>
  150.7124  134.0852  159.3911 H   0  0  0  0  0  0  0  0  0  0  0  0  # atno 6907 bound_to 6896
  151.8837  135.0441  160.0500 H   0  0  0  0  0  0  0  0  0  0  0  0  # atno 6908 bound_to 6896
  152.2547  133.5210  159.5383 H   0  0  0  0  0  0  0  0  0  0  0  0  # atno 6909 bound_to 6896
  145.5038  140.9545  143.1745 H   0  0  0  0  0  0  0  0  0  0  0  0  # atno 7974 bound_to 7965
  156.1174  140.3218  155.8159 H   0  0  0  0  0  0  0  0  0  0  0  0  # atno 8008 bound_to 7997
  155.4566  140.0536  157.3012 H   0  0  0  0  0  0  0  0  0  0  0  0  # atno 8009 bound_to 7997
  154.4803  140.2050  155.9794 H   0  0  0  0  0  0  0  0  0  0  0  0  # atno 8010 bound_to 7997
  139.4930  144.5917  151.6668 H   0  0  0  0  0  0  0  0  0  0  0  0  # atno 10167 bound_to 10162
  156.9773  130.5992  149.5673 H   0  0  0  0  0  0  0  0  0  0  0  0  # atno 10718 bound_to 10713
  154.1400  135.6507  153.4940 H   0  0  0  0  0  0  0  0  0  0  0  0  # atno 10763 bound_to 10752
  153.0169  135.5313  154.6915 H   0  0  0  0  0  0  0  0  0  0  0  0  # atno 10764 bound_to 10752
  154.6173  135.2960  155.0336 H   0  0  0  0  0  0  0  0  0  0  0  0  # atno 10765 bound_to 10752
  141.1419  133.6663  156.5805 H   0  0  0  0  0  0  0  0  0  0  0  0  # atno 11005 bound_to 11000
  144.7765  139.6619  143.7172 LP  0  0  0  0  0  0  0  0  0  0  0  0  # atno 17320 bound_to 7965
  146.2209  139.5634  142.9619 LP  0  0  0  0  0  0  0  0  0  0  0  0  # atno 17321 bound_to 7965
  140.5545  144.0371  150.6141 LP  0  0  0  0  0  0  0  0  0  0  0  0  # atno 17342 bound_to 10162
  140.3436  143.3005  152.0562 LP  0  0  0  0  0  0  0  0  0  0  0  0  # atno 17343 bound_to 10162
  156.0258  130.5352  150.8403 LP  0  0  0  0  0  0  0  0  0  0  0  0  # atno 17370 bound_to 10713
  157.5551  131.0945  150.9640 LP  0  0  0  0  0  0  0  0  0  0  0  0  # atno 17371 bound_to 10713
  140.3841  134.7497  157.4680 LP  0  0  0  0  0  0  0  0  0  0  0  0  # atno 17394 bound_to 11000
  140.0615  134.5989  155.8743 LP  0  0  0  0  0  0  0  0  0  0  0  0  # atno 17395 bound_to 11000

$$$$
