AV-unprocessed.smi:37|AV-procd|sdf|321|dock6
  -GOLD-   2262016143D 1   1.00000     0.00000
 Structure written by MMmdl.
 43 44  0  0  0  0  0  0  0  0  2 V2000
  147.6995  135.5934  162.4983 C   0  0  0  0  0  0  0  0  0  0  0  0
  147.1572  134.6872  161.3846 C   0  0  0  0  0  0  0  0  0  0  0  0
  147.5973  135.1416  159.9943 C   0  0  0  0  0  0  0  0  0  0  0  0
  148.4095  136.0544  159.8443 O   0  0  0  0  0  0  0  0  0  0  0  0
  146.9906  134.4590  159.0121 O   0  0  0  0  0  0  0  0  0  0  0  0
  147.1644  134.8548  157.6625 C   0  0  0  0  0  0  0  0  0  0  0  0
  148.4164  134.1738  157.0942 C   0  0  2  0  0  0  0  0  0  0  0  0
  149.6001  134.8523  157.5197 O   0  0  0  0  0  0  0  0  0  0  0  0
  150.5072  134.9798  156.4600 C   0  0  2  0  0  0  0  0  0  0  0  0
  150.5649  136.4258  156.0026 N   0  0  0  0  0  0  0  0  0  0  0  0
  149.4503  137.0748  155.4952 C   0  0  0  0  0  0  0  0  0  0  0  0
  149.5123  138.3582  155.0857 C   0  0  0  0  0  0  0  0  0  0  0  0
  148.4132  138.9580  154.5971 F   0  0  0  0  0  0  0  0  0  0  0  0
  150.7751  139.0874  155.1788 C   0  0  0  0  0  0  0  0  0  0  0  0
  150.8279  140.2550  154.7957 O   0  0  0  0  0  0  0  0  0  0  0  0
  151.8534  138.4302  155.6950 N   0  5  0  0  0  0  0  0  0  0  0  0
  151.7950  137.1318  156.1123 C   0  0  0  0  0  0  0  0  0  0  0  0
  152.7634  136.5323  156.5798 O   0  0  0  0  0  0  0  0  0  0  0  0
  149.9890  134.0850  155.3295 C   0  0  1  0  0  0  0  0  0  0  0  0
  150.6896  132.2351  155.5980 Br  0  0  0  0  0  0  0  0  0  0  0  0
  148.4907  134.1408  155.5638 C   0  0  1  0  0  0  0  0  0  0  0  0
  147.8422  133.0115  154.9899 O   0  0  0  0  0  0  0  0  0  0  0  0
  148.0196  132.7043  153.6931 C   0  0  0  0  0  0  0  0  0  0  0  0
  148.6033  133.4006  152.8605 O   0  0  0  0  0  0  0  0  0  0  0  0
  147.3910  131.3565  153.3354 C   0  0  0  0  0  0  0  0  0  0  0  0
  148.4222  130.2633  153.0184 C   0  0  0  0  0  0  0  0  0  0  0  0
  147.3205  135.2746  163.4694 H   0  0  0  0  0  0  0  0  0  0  0  0
  147.3970  136.6304  162.3495 H   0  0  0  0  0  0  0  0  0  0  0  0
  148.7885  135.5620  162.5454 H   0  0  0  0  0  0  0  0  0  0  0  0
  147.4922  133.6615  161.5411 H   0  0  0  0  0  0  0  0  0  0  0  0
  146.0676  134.6721  161.4199 H   0  0  0  0  0  0  0  0  0  0  0  0
  146.2843  134.5999  157.0710 H   0  0  0  0  0  0  0  0  0  0  0  0
  147.2834  135.9384  157.6277 H   0  0  0  0  0  0  0  0  0  0  0  0
  148.4921  133.1592  157.4888 H   0  0  0  0  0  0  0  0  0  0  0  0
  151.5201  134.7459  156.7922 H   0  0  0  0  0  0  0  0  0  0  0  0
  148.5046  136.5631  155.4202 H   0  0  0  0  0  0  0  0  0  0  0  0
  150.2940  134.4257  154.3399 H   0  0  0  0  0  0  0  0  0  0  0  0
  148.1160  135.0811  155.1559 H   0  0  0  0  0  0  0  0  0  0  0  0
  146.7615  131.0386  154.1667 H   0  0  0  0  0  0  0  0  0  0  0  0
  146.7331  131.4984  152.4777 H   0  0  0  0  0  0  0  0  0  0  0  0
  147.9240  129.3242  152.7783 H   0  0  0  0  0  0  0  0  0  0  0  0
  149.0820  130.0781  153.8666 H   0  0  0  0  0  0  0  0  0  0  0  0
  149.0393  130.5370  152.1619 H   0  0  0  0  0  0  0  0  0  0  0  0
  1  2  1  0  0  0  0
  1 27  1  0  0  0  0
  1 28  1  0  0  0  0
  1 29  1  0  0  0  0
  2  3  1  0  0  0  0
  2 30  1  0  0  0  0
  2 31  1  0  0  0  0
  3  4  2  0  0  0  0
  3  5  1  0  0  0  0
  5  6  1  0  0  0  0
  6  7  1  0  0  0  0
  6 32  1  0  0  0  0
  6 33  1  0  0  0  0
  7 21  1  0  0  0  0
  7  8  1  0  0  0  0
  7 34  1  0  0  0  0
  8  9  1  0  0  0  0
  9 10  1  0  0  0  0
  9 19  1  0  0  0  0
  9 35  1  0  0  0  0
 10 17  1  0  0  0  0
 10 11  1  0  0  0  0
 11 12  2  0  0  0  0
 11 36  1  0  0  0  0
 12 13  1  0  0  0  0
 12 14  1  0  0  0  0
 14 15  2  0  0  0  0
 14 16  1  0  0  0  0
 16 17  1  0  0  0  0
 17 18  2  0  0  0  0
 19 20  1  0  0  0  0
 19 21  1  0  0  0  0
 19 37  1  0  0  0  0
 21 22  1  0  0  0  0
 21 38  1  0  0  0  0
 22 23  1  0  0  0  0
 23 24  2  0  0  0  0
 23 25  1  0  0  0  0
 25 26  1  0  0  0  0
 25 39  1  0  0  0  0
 25 40  1  0  0  0  0
 26 41  1  0  0  0  0
 26 42  1  0  0  0  0
 26 43  1  0  0  0  0
M  CHG  1  16  -1
M  END
> <s_m_source_file>
AV-unprocessed.smi

> <i_m_source_file_index>
37

> <i_lp_mmshare_version>
43012

> <i_f3d_flags>
0

> <s_epik_input>
W0NIM11bQ0gyXUMoPU8pT1tDSDJdW0NAQEhdMU9bQ0BASF0objJbY0hdYyhGKWMoPU8pW25IXWMyPU8pW0NAQEhdKEJyKVtDQEhdMU9DKD1PKVtDSDJdW0NIM10=

> <s_epik_cmdline>
J2VwaWtfcHl0aG9uJywgJy1waCcsICc3LjAnLCAnLXRuJywgJzgnLCAnLW1hJywgJzIwMCcsICctbWV0YWxfYmluZGluZycsICctaW1hZScsICc8aW5maWxlLm1hZT4nLCAnLW9tYWUnLCAnPG91dGZpbGUubWFlPic=

> <r_epik_Ionization_Penalty>
1.08158

> <r_epik_Ionization_Penalty_Charging>
9.05154e-09

> <r_epik_Ionization_Penalty_Neutral>
1.08158

> <r_epik_State_Penalty>
1.13706

> <r_epik_Charging_Adjusted_Penalty>
1.13706

> <i_epik_Tot_Q>
-1

> <i_epik_Tot_abs_Q>
1

> <r_epik_Metal_State_Penalty>
0.00343535

> <b_epik_Metal_Only>
0

> <s_epik_Chemistry_Notes>
This compound has an ester and may undergo hydrolysis at high or low pH. This compound contains an acetal/aminal-like group ( X-CH(R)-Y where X, Y are N, S, or O) that may be acid/base labile, releasing an aldehyde.

> <s_lp_Force_Field>
OPLS_2005

> <r_lp_Energy>
31.9514

> <b_lp_Chiralities_Consistent>
1

> <s_lp_Variant>
AV-unprocessed.smi:37-19

> <Gold.Version>
5.8.1

> <Gold.Id.Protein>
6NUR|6NUR_protein|mol2

> <Gold.PLP.Fitness>
40.1735

> <Gold.PLP.PLP>
-32.5115

> <Gold.PLP.part.hbond>
-2.9486

> <Gold.PLP.part.metal>
0.0000

> <Gold.PLP.part.buried>
-7.0738

> <Gold.PLP.part.nonpolar>
-24.0892

> <Gold.PLP.part.repulsive>
0.3106

> <Gold.PLP.ligand.clash>
0.0000

> <Gold.PLP.ligand.torsion>
0.6508

> <Gold.PLP.Chemscore.Hbond>
2.9513

> <Gold.PLP.Chemscore.CHOScore>
0.0000

> <Gold.PLP.Chemscore.Metal>
0.0000

> <Gold.Chemscore.Hbonds>
donor molecule, donor type, donor heavy atom, donor atom, acceptor molecule, acceptor atom, score
      P1  H  6896  6907       L1     8  0.50
      P1  H  7989  7998       L1    15  1.00
      P1  H 10752 10763       L1    18  1.00

> <Gold.PLP.Chemscore.Internal.Correction>
0.1098

> <Gold.Rescore>
     Score         DG    S(hbond)    S(metal)    S(lipo)     H(rot)  DE(clash)    DE(int)     intcor
      8.25     -11.37       2.49        0.00      50.60       3.27       0.04       3.08       ----

> <Gold.Chemscore.Fitness>
8.2451

> <Gold.Chemscore.DG>
-11.3657

> <Gold.Chemscore.ZeroCoef>
-5.4800

> <Gold.Chemscore.Hbond>
2.4936

> <Gold.Chemscore.Metal>
0.0000

> <Gold.Chemscore.Lipo>
50.6017

> <Gold.Chemscore.Internal_Hbond>
0.0000

> <Gold.Chemscore.DEClash>
0.0401

> <Gold.Chemscore.DEInternal>
3.0806

> <Gold.Chemscore.Rot>
3.2669

> <Gold.Chemscore.Internal.Correction>
   9.000000E+99

> <Gold.Chemscore.Hbonds>
donor molecule, donor type, donor heavy atom, donor atom, acceptor molecule, acceptor atom, score
      P1  H  6896  6907       L1     8  0.38
      P1  H  7989  7998       L1    15  0.99
      P1  H 10752 10763       L1    18  0.68

> <Gold.Chemscore.Hbond.Weighted>
-8.3287

> <Gold.Chemscore.Metal.Weighted>
-0.0000

> <Gold.Chemscore.Lipo.Weighted>
-5.9204

> <Gold.Chemscore.Internal_Hbond.Weighted>
0.0000

> <Gold.Chemscore.DEClash.Weighted>
0.0401

> <Gold.Chemscore.DEInternal.Weighted>
3.0806

> <Gold.Chemscore.Rot.Weighted>
8.3634

> <Gold.Chemscore.Internal.Correction.Weighted>
   9.000000E+99

> <Gold.Protein.RotatedTorsions>
[ 6907 6896 6895 6894 ] final  -90.98 input  -60.11 | X-H torsion
[ 7974 7965 7964 7962 ] final -177.00 input  175.53 | X-H torsion
[ 8008 7997 7996 7995 ] final -149.23 input   59.86 | X-H torsion
[ 10167 10162 10161 10158 ] final -151.12 input  -65.29 | X-H torsion
[ 10718 10713 10712 10709 ] final  -96.98 input   66.30 | X-H torsion
[ 10763 10752 10751 10750 ] final  113.39 input  -60.55 | X-H torsion
[ 11005 11000 10999 10996 ] final  164.57 input  -57.11 | X-H torsion

> <Gold.Protein.ActiveResidues>
 VAL166  LYS551  ARG553  GLY616  TRP617  ASP618  TYR619  PRO620  LYS621  CYS622 
 ASP623  PHE694  ASN695  SER759  ASP760  ASP761  ALA762  ILE779  LEU786  VAL792 
 PHE793  MET794  SER795  GLU796  ALA797  LYS798  CYS799  TRP800  GLU811  SER814 

> <Gold.Protein.RotatedAtoms>
  150.6887  134.2347  159.4448 H   0  0  0  0  0  0  0  0  0  0  0  0  # atno 6907 bound_to 6896
  152.0296  134.9773  160.0581 H   0  0  0  0  0  0  0  0  0  0  0  0  # atno 6908 bound_to 6896
  152.1318  133.4377  159.4761 H   0  0  0  0  0  0  0  0  0  0  0  0  # atno 6909 bound_to 6896
  144.7127  140.1085  143.6412 H   0  0  0  0  0  0  0  0  0  0  0  0  # atno 7974 bound_to 7965
  155.6043  140.0665  157.2724 H   0  0  0  0  0  0  0  0  0  0  0  0  # atno 8008 bound_to 7997
  154.4270  140.1813  156.1253 H   0  0  0  0  0  0  0  0  0  0  0  0  # atno 8009 bound_to 7997
  156.0135  140.3324  155.6968 H   0  0  0  0  0  0  0  0  0  0  0  0  # atno 8010 bound_to 7997
  139.7295  143.8830  152.2530 H   0  0  0  0  0  0  0  0  0  0  0  0  # atno 10167 bound_to 10162
  156.0073  130.5174  150.6306 H   0  0  0  0  0  0  0  0  0  0  0  0  # atno 10718 bound_to 10713
  153.4918  135.3657  155.2496 H   0  0  0  0  0  0  0  0  0  0  0  0  # atno 10763 bound_to 10752
  154.8752  135.3979  154.3580 H   0  0  0  0  0  0  0  0  0  0  0  0  # atno 10764 bound_to 10752
  153.4200  135.7080  153.6366 H   0  0  0  0  0  0  0  0  0  0  0  0  # atno 10765 bound_to 10752
  140.2473  134.8005  157.3468 H   0  0  0  0  0  0  0  0  0  0  0  0  # atno 11005 bound_to 11000
  145.9475  139.2711  143.1232 LP  0  0  0  0  0  0  0  0  0  0  0  0  # atno 17320 bound_to 7965
  145.9358  140.9015  143.0333 LP  0  0  0  0  0  0  0  0  0  0  0  0  # atno 17321 bound_to 7965
  139.8749  144.7048  150.8944 LP  0  0  0  0  0  0  0  0  0  0  0  0  # atno 17342 bound_to 10162
  140.7769  143.3707  151.1654 LP  0  0  0  0  0  0  0  0  0  0  0  0  # atno 17343 bound_to 10162
  157.4105  131.0823  151.1225 LP  0  0  0  0  0  0  0  0  0  0  0  0  # atno 17370 bound_to 10713
  157.1858  130.6330  149.5687 LP  0  0  0  0  0  0  0  0  0  0  0  0  # atno 17371 bound_to 10713
  140.1593  134.4749  155.7905 LP  0  0  0  0  0  0  0  0  0  0  0  0  # atno 17394 bound_to 11000
  141.2205  133.6895  156.7517 LP  0  0  0  0  0  0  0  0  0  0  0  0  # atno 17395 bound_to 11000

$$$$
