AV-unprocessed.smi:3164|AV-procd|sdf|12083|dock1
  -GOLD-   2272017513D 1   1.00000     0.00000
 Structure written by MMmdl.
 39 40  0  0  0  0  0  0  0  0  2 V2000
  145.9095  142.2024  157.0810 C   0  0  0  0  0  0  0  0  0  0  0  0
  147.1135  141.5901  156.5389 N   0  0  0  0  0  0  0  0  0  0  0  0
  147.2515  141.8489  155.1119 C   0  0  0  0  0  0  0  0  0  0  0  0
  148.5312  141.2141  154.5419 C   0  0  0  0  0  0  0  0  0  0  0  0
  149.6618  141.6802  155.2735 O   0  0  0  0  0  0  0  0  0  0  0  0
  149.5858  141.3899  156.6680 C   0  0  1  0  0  0  0  0  0  0  0  0
  150.8568  141.9244  157.3422 C   0  0  0  0  0  0  0  0  0  0  0  0
  151.0199  143.3697  157.0923 N   0  3  0  0  0  0  0  0  0  0  0  0
  151.0482  144.1961  158.3161 C   0  0  0  0  0  0  0  0  0  0  0  0
  152.4818  144.6089  158.6862 C   0  0  0  0  0  0  0  0  0  0  0  0
  153.2479  143.5110  159.4032 C   0  0  0  0  0  0  0  0  0  0  0  0
  153.5409  143.6155  160.7800 C   0  0  0  0  0  0  0  0  0  0  0  0
  154.2626  142.5728  161.3934 C   0  0  0  0  0  0  0  0  0  0  0  0
  154.6624  141.4732  160.6101 C   0  0  0  0  0  0  0  0  0  0  0  0
  154.3212  141.4642  159.2429 C   0  0  0  0  0  0  0  0  0  0  0  0
  153.6308  142.4594  158.6451 N   0  0  0  0  0  0  0  0  0  0  0  0
  148.3097  142.0426  157.2370 C   0  0  0  0  0  0  0  0  0  0  0  0
  145.0223  141.8324  156.5657 H   0  0  0  0  0  0  0  0  0  0  0  0
  145.9360  143.2877  156.9743 H   0  0  0  0  0  0  0  0  0  0  0  0
  145.7995  141.9676  158.1401 H   0  0  0  0  0  0  0  0  0  0  0  0
  146.3832  141.4597  154.5788 H   0  0  0  0  0  0  0  0  0  0  0  0
  147.2723  142.9247  154.9308 H   0  0  0  0  0  0  0  0  0  0  0  0
  148.4790  140.1255  154.5935 H   0  0  0  0  0  0  0  0  0  0  0  0
  148.6516  141.4796  153.4915 H   0  0  0  0  0  0  0  0  0  0  0  0
  149.5310  140.3085  156.8090 H   0  0  0  0  0  0  0  0  0  0  0  0
  150.8259  141.7372  158.4164 H   0  0  0  0  0  0  0  0  0  0  0  0
  151.7291  141.4015  156.9479 H   0  0  0  0  0  0  0  0  0  0  0  0
  151.8858  143.5136  156.5922 H   0  0  0  0  0  0  0  0  0  0  0  0
  150.4398  145.0875  158.1591 H   0  0  0  0  0  0  0  0  0  0  0  0
  150.5946  143.6405  159.1381 H   0  0  0  0  0  0  0  0  0  0  0  0
  153.0261  144.9064  157.7890 H   0  0  0  0  0  0  0  0  0  0  0  0
  152.4537  145.4905  159.3280 H   0  0  0  0  0  0  0  0  0  0  0  0
  153.2211  144.4716  161.3559 H   0  0  0  0  0  0  0  0  0  0  0  0
  154.5049  142.6157  162.4450 H   0  0  0  0  0  0  0  0  0  0  0  0
  155.2155  140.6544  161.0464 H   0  0  0  0  0  0  0  0  0  0  0  0
  154.6114  140.6366  158.6129 H   0  0  0  0  0  0  0  0  0  0  0  0
  148.3920  143.1283  157.1609 H   0  0  0  0  0  0  0  0  0  0  0  0
  148.2243  141.8104  158.2993 H   0  0  0  0  0  0  0  0  0  0  0  0
  150.2555  143.6803  156.5093 H   0  0  0  0  0  0  0  0  0  0  0  0
  1  2  1  0  0  0  0
  1 18  1  0  0  0  0
  1 19  1  0  0  0  0
  1 20  1  0  0  0  0
  2 17  1  0  0  0  0
  2  3  1  0  0  0  0
  3  4  1  0  0  0  0
  3 21  1  0  0  0  0
  3 22  1  0  0  0  0
  4  5  1  0  0  0  0
  4 23  1  0  0  0  0
  4 24  1  0  0  0  0
  5  6  1  0  0  0  0
  6  7  1  0  0  0  0
  6 17  1  0  0  0  0
  6 25  1  0  0  0  0
  7  8  1  0  0  0  0
  7 26  1  0  0  0  0
  7 27  1  0  0  0  0
  8  9  1  0  0  0  0
  8 28  1  0  0  0  0
  8 39  1  0  0  0  0
  9 10  1  0  0  0  0
  9 29  1  0  0  0  0
  9 30  1  0  0  0  0
 10 11  1  0  0  0  0
 10 31  1  0  0  0  0
 10 32  1  0  0  0  0
 11 16  1  0  0  0  0
 11 12  2  0  0  0  0
 12 13  1  0  0  0  0
 12 33  1  0  0  0  0
 13 14  2  0  0  0  0
 13 34  1  0  0  0  0
 14 15  1  0  0  0  0
 14 35  1  0  0  0  0
 15 16  2  0  0  0  0
 15 36  1  0  0  0  0
 17 37  1  0  0  0  0
 17 38  1  0  0  0  0
M  CHG  1   8   1
M  END
> <s_m_source_file>
AV-unprocessed.smi

> <i_m_source_file_index>
3164

> <i_lp_mmshare_version>
43012

> <i_f3d_flags>
0

> <s_epik_input>
W0NIM11OMVtDSDJdW0NIMl1PW0NASF0oW0NIMl0xKVtDSDJdW05IXVtDSDJdW0NIMl1jMltjSF1bY0hdW2NIXVtjSF1uMg==

> <s_epik_cmdline>
J2VwaWtfcHl0aG9uJywgJy1waCcsICc3LjAnLCAnLXRuJywgJzgnLCAnLW1hJywgJzIwMCcsICctbWV0YWxfYmluZGluZycsICctaW1hZScsICc8aW5maWxlLm1hZT4nLCAnLW9tYWUnLCAnPG91dGZpbGUubWFlPic=

> <r_epik_Ionization_Penalty>
0.584284

> <r_epik_Ionization_Penalty_Charging>
0.00270218

> <r_epik_Ionization_Penalty_Neutral>
0.581582

> <r_epik_State_Penalty>
0.593163

> <r_epik_Charging_Adjusted_Penalty>
0.595865

> <i_epik_Tot_Q>
1

> <i_epik_Tot_abs_Q>
1

> <r_epik_Metal_State_Penalty>
0.593163

> <b_epik_Metal_Only>
0

> <s_lp_Force_Field>
OPLS_2005

> <r_lp_Energy>
22.7337

> <b_lp_Chiralities_Consistent>
1

> <s_lp_Variant>
AV-unprocessed.smi:3164-5

> <Gold.Version>
5.8.1

> <Gold.Id.Protein>
6NUR|6NUR_protein|mol2

> <Gold.PLP.Fitness>
45.9456

> <Gold.PLP.PLP>
-41.6931

> <Gold.PLP.part.hbond>
-1.5496

> <Gold.PLP.part.metal>
0.0000

> <Gold.PLP.part.buried>
-4.6240

> <Gold.PLP.part.nonpolar>
-34.2895

> <Gold.PLP.part.repulsive>
0.2053

> <Gold.PLP.ligand.clash>
0.0000

> <Gold.PLP.ligand.torsion>
0.8986

> <Gold.PLP.Chemscore.Hbond>
2.0000

> <Gold.PLP.Chemscore.CHOScore>
0.0000

> <Gold.PLP.Chemscore.Metal>
0.0000

> <Gold.Chemscore.Hbonds>
donor molecule, donor type, donor heavy atom, donor atom, acceptor molecule, acceptor atom, score
      L1  H     8    39       P1  8028  2.00

> <Gold.PLP.Chemscore.Internal.Correction>
0.0497

> <Gold.Rescore>
     Score         DG    S(hbond)    S(metal)    S(lipo)     H(rot)  DE(clash)    DE(int)     intcor
     13.99     -17.16       0.97        0.00     106.62       1.57       0.08       3.10       ----

> <Gold.Chemscore.Fitness>
13.9870

> <Gold.Chemscore.DG>
-17.1609

> <Gold.Chemscore.ZeroCoef>
-5.4800

> <Gold.Chemscore.Hbond>
0.9677

> <Gold.Chemscore.Metal>
0.0000

> <Gold.Chemscore.Lipo>
106.6217

> <Gold.Chemscore.Internal_Hbond>
0.0000

> <Gold.Chemscore.DEClash>
0.0770

> <Gold.Chemscore.DEInternal>
3.0969

> <Gold.Chemscore.Rot>
1.5726

> <Gold.Chemscore.Internal.Correction>
   9.000000E+99

> <Gold.Chemscore.Hbonds>
donor molecule, donor type, donor heavy atom, donor atom, acceptor molecule, acceptor atom, score
      L1  H     8    39       P1  8028  1.00

> <Gold.Chemscore.Hbond.Weighted>
-3.2320

> <Gold.Chemscore.Metal.Weighted>
-0.0000

> <Gold.Chemscore.Lipo.Weighted>
-12.4747

> <Gold.Chemscore.Internal_Hbond.Weighted>
0.0000

> <Gold.Chemscore.DEClash.Weighted>
0.0770

> <Gold.Chemscore.DEInternal.Weighted>
3.0969

> <Gold.Chemscore.Rot.Weighted>
4.0259

> <Gold.Chemscore.Internal.Correction.Weighted>
   9.000000E+99

> <Gold.Protein.RotatedTorsions>
[ 6907 6896 6895 6894 ] final -125.36 input  -60.11 | X-H torsion
[ 7974 7965 7964 7962 ] final  132.20 input  175.53 | X-H torsion
[ 8008 7997 7996 7995 ] final  -72.89 input   59.86 | X-H torsion
[ 10167 10162 10161 10158 ] final   52.40 input  -65.29 | X-H torsion
[ 10718 10713 10712 10709 ] final   45.88 input   66.30 | X-H torsion
[ 10763 10752 10751 10750 ] final  -27.42 input  -60.55 | X-H torsion
[ 11005 11000 10999 10996 ] final  166.18 input  -57.11 | X-H torsion

> <Gold.Protein.ActiveResidues>
 VAL166  LYS551  ARG553  GLY616  TRP617  ASP618  TYR619  PRO620  LYS621  CYS622 
 ASP623  PHE694  ASN695  SER759  ASP760  ASP761  ALA762  ILE779  LEU786  VAL792 
 PHE793  MET794  SER795  GLU796  ALA797  LYS798  CYS799  TRP800  GLU811  SER814 

> <Gold.Protein.RotatedAtoms>
  150.8860  133.7307  159.2918 H   0  0  0  0  0  0  0  0  0  0  0  0  # atno 6907 bound_to 6896
  151.4873  135.1054  159.9803 H   0  0  0  0  0  0  0  0  0  0  0  0  # atno 6908 bound_to 6896
  152.4790  133.8161  159.7085 H   0  0  0  0  0  0  0  0  0  0  0  0  # atno 6909 bound_to 6896
  144.9993  139.4328  143.5300 H   0  0  0  0  0  0  0  0  0  0  0  0  # atno 7974 bound_to 7965
  154.5203  140.0789  156.8158 H   0  0  0  0  0  0  0  0  0  0  0  0  # atno 8008 bound_to 7997
  155.3591  140.3417  155.4222 H   0  0  0  0  0  0  0  0  0  0  0  0  # atno 8009 bound_to 7997
  156.1673  140.1608  156.8496 H   0  0  0  0  0  0  0  0  0  0  0  0  # atno 8010 bound_to 7997
  140.2517  144.3471  150.6346 H   0  0  0  0  0  0  0  0  0  0  0  0  # atno 10167 bound_to 10162
  157.4423  130.8088  149.7706 H   0  0  0  0  0  0  0  0  0  0  0  0  # atno 10718 bound_to 10713
  153.7318  135.6938  153.4987 H   0  0  0  0  0  0  0  0  0  0  0  0  # atno 10763 bound_to 10752
  153.2130  135.4396  155.0401 H   0  0  0  0  0  0  0  0  0  0  0  0  # atno 10764 bound_to 10752
  154.8250  135.3441  154.6848 H   0  0  0  0  0  0  0  0  0  0  0  0  # atno 10765 bound_to 10752
  140.2638  134.7881  157.3614 H   0  0  0  0  0  0  0  0  0  0  0  0  # atno 11005 bound_to 11000
  146.3448  139.9372  142.8746 LP  0  0  0  0  0  0  0  0  0  0  0  0  # atno 17320 bound_to 7965
  145.2176  140.9921  143.4064 LP  0  0  0  0  0  0  0  0  0  0  0  0  # atno 17321 bound_to 7965
  140.6035  143.2167  151.7026 LP  0  0  0  0  0  0  0  0  0  0  0  0  # atno 17342 bound_to 10162
  139.5044  144.3755  152.0428 LP  0  0  0  0  0  0  0  0  0  0  0  0  # atno 17343 bound_to 10162
  155.9953  130.3912  150.2823 LP  0  0  0  0  0  0  0  0  0  0  0  0  # atno 17370 bound_to 10713
  157.0988  131.0190  151.3093 LP  0  0  0  0  0  0  0  0  0  0  0  0  # atno 17371 bound_to 10713
  140.1439  134.4936  155.8011 LP  0  0  0  0  0  0  0  0  0  0  0  0  # atno 17394 bound_to 11000
  141.2187  133.6836  156.7259 LP  0  0  0  0  0  0  0  0  0  0  0  0  # atno 17395 bound_to 11000

$$$$
